MODEL        1
REMARK 921   NORMALIZED FREE ENERGY PREDICTED BY IDOCK:   -6.70 KCAL/MOL
REMARK 922        TOTAL FREE ENERGY PREDICTED BY IDOCK:  -11.94 KCAL/MOL
REMARK 923 INTER-LIGAND FREE ENERGY PREDICTED BY IDOCK:   -9.84 KCAL/MOL
REMARK 924 INTRA-LIGAND FREE ENERGY PREDICTED BY IDOCK:   -2.10 KCAL/MOL
REMARK 927      BINDING AFFINITY PREDICTED BY RF-SCORE:    0.00 PKD
ROOT
HETATM    1 FE   UNL     1     -10.358  16.133  65.021  1.00  0.00    -0.307 Fe 
HETATM    2  C   UNL     2     -12.844  14.890  71.223  1.00  0.00    -0.348 C  
HETATM    3  C   UNL     3      -8.348  10.130  64.370  1.00  0.00    -0.171 C  
HETATM    4  H   UNL     3      -9.954   9.081  64.025  1.00  0.00     0.000 HD 
HETATM    5  H   UNL     2     -14.019  15.135  69.654  1.00  0.00     0.000 HD 
HETATM    6  O   UNL     2     -13.827  15.598  70.460  1.00  0.00    -0.231 OA 
HETATM    7  O   UNL     3      -9.338   9.146  64.746  1.00  0.00    -0.124 OA 
ENDROOT
BRANCH   2   8
HETATM    8  C   UNL     2     -12.534  15.637  72.523  1.00  0.00    -0.428 C  
HETATM    9  H   UNL     2     -12.920  15.442  74.457  1.00  0.00     0.000 HD 
HETATM   10  O   UNL     2     -13.113  14.979  73.650  1.00  0.00    -0.501 OA 
ENDBRANCH   2   8
BRANCH   2  11
HETATM   11  C   UNL     2     -11.586  14.659  70.363  1.00  0.00    -0.268 C  
HETATM   12  H   UNL     2     -10.771  13.174  69.327  1.00  0.00     0.000 HD 
HETATM   13  O   UNL     2     -11.546  13.317  69.857  1.00  0.00    -0.264 OA 
BRANCH  11  14
HETATM   14  C   UNL     2     -11.558  15.655  69.191  1.00  0.00    -0.383 C  
HETATM   15  H   UNL     2     -11.690  15.545  67.223  1.00  0.00     0.000 HD 
HETATM   16  O   UNL     2     -11.707  14.929  67.946  1.00  0.00    -0.340 OA 
BRANCH  14  17
HETATM   17  C   UNL     2     -10.284  16.487  69.092  1.00  0.00    -0.298 C  
HETATM   18  C   UNL     2     -10.471  17.714  68.179  1.00  0.00    -0.385 C  
HETATM   19  H   UNL     2      -8.444  16.164  68.468  1.00  0.00     0.000 HD 
HETATM   20  O   UNL     2      -9.237  15.646  68.530  1.00  0.00    -0.185 OA 
HETATM   21  O   UNL     2     -10.376  17.491  66.905  1.00  0.00    -0.317 OA 
HETATM   22  O   UNL     2     -10.373  18.858  68.614  1.00  0.00    -0.353 OA 
ENDBRANCH  14  17
ENDBRANCH  11  14
ENDBRANCH   2  11
BRANCH   3  23
HETATM   23  C   UNL     3      -9.115  11.405  64.038  1.00  0.00     0.101 C  
HETATM   24  O   UNL     3      -8.946  11.669  62.639  1.00  0.00    -0.577 OA 
HETATM   25  H   UNL     3      -9.423  12.463  62.433  1.00  0.00     0.000 HD 
BRANCH  23  26
HETATM   26  C   UNL     3     -10.627  11.459  64.357  1.00  0.00    -0.341 C  
HETATM   27  O   UNL     3     -11.391  11.184  63.171  1.00  0.00    -0.808 OA 
HETATM   28  H   UNL     3     -12.320  11.217  63.367  1.00  0.00     0.000 HD 
BRANCH  26  29
HETATM   29  C   UNL     3     -10.961  12.883  64.856  1.00  0.00    -0.301 C  
HETATM   30  C   UNL     3     -12.390  13.407  64.568  1.00  0.00    -0.360 C  
HETATM   31  O   UNL     3     -10.010  13.853  64.297  1.00  0.00    -0.714 OA 
HETATM   32  O   UNL     3     -13.371  12.680  64.800  1.00  0.00    -0.787 OA 
HETATM   33  O   UNL     3     -12.347  14.629  64.107  1.00  0.00    -0.654 OA 
HETATM   34  H   UNL     3     -10.216  14.729  64.604  1.00  0.00     0.000 HD 
ENDBRANCH  26  29
ENDBRANCH  23  26
ENDBRANCH   3  23
BRANCH   3  35
HETATM   35  C   UNL     3      -7.357  10.234  65.529  1.00  0.00    -0.149 C  
HETATM   36  O   UNL     3      -6.164  10.840  65.023  1.00  0.00    -0.343 OA 
HETATM   37  H   UNL     3      -5.548  10.905  65.743  1.00  0.00     0.000 HD 
ENDBRANCH   3  35
TORSDOF 8
ENDMDL
MODEL        2
REMARK 921   NORMALIZED FREE ENERGY PREDICTED BY IDOCK:   -6.70 KCAL/MOL
REMARK 922        TOTAL FREE ENERGY PREDICTED BY IDOCK:  -11.93 KCAL/MOL
REMARK 923 INTER-LIGAND FREE ENERGY PREDICTED BY IDOCK:  -10.05 KCAL/MOL
REMARK 924 INTRA-LIGAND FREE ENERGY PREDICTED BY IDOCK:   -1.88 KCAL/MOL
REMARK 927      BINDING AFFINITY PREDICTED BY RF-SCORE:    0.00 PKD
ROOT
HETATM    1 FE   UNL     1     -11.419  15.071  69.421  1.00  0.00    -0.220 Fe 
HETATM    2  C   UNL     2     -11.145   8.685  71.731  1.00  0.00    -0.326 C  
HETATM    3  C   UNL     3     -11.941  13.112  63.388  1.00  0.00    -0.483 C  
HETATM    4  H   UNL     3     -13.773  12.474  63.208  1.00  0.00     0.000 HD 
HETATM    5  H   UNL     2     -12.747   9.816  71.968  1.00  0.00     0.000 HD 
HETATM    6  O   UNL     2     -12.080   9.427  72.521  1.00  0.00    -0.107 OA 
HETATM    7  O   UNL     3     -12.916  12.062  63.205  1.00  0.00    -0.662 OA 
ENDROOT
BRANCH   2   8
HETATM    8  C   UNL     2     -10.070   8.058  72.622  1.00  0.00    -0.301 C  
HETATM    9  H   UNL     2      -9.984   6.948  74.262  1.00  0.00     0.000 HD 
HETATM   10  O   UNL     2     -10.651   7.338  73.710  1.00  0.00    -0.364 OA 
ENDBRANCH   2   8
BRANCH   2  11
HETATM   11  C   UNL     2     -10.547   9.597  70.642  1.00  0.00    -0.319 C  
HETATM   12  H   UNL     2      -8.748  10.217  70.075  1.00  0.00     0.000 HD 
HETATM   13  O   UNL     2      -9.117   9.656  70.746  1.00  0.00    -0.183 OA 
BRANCH  11  14
HETATM   14  C   UNL     2     -10.943   9.081  69.247  1.00  0.00    -0.032 C  
HETATM   15  H   UNL     2     -10.638   7.436  68.196  1.00  0.00     0.000 HD 
HETATM   16  O   UNL     2     -10.393   7.754  69.057  1.00  0.00    -0.205 OA 
BRANCH  14  17
HETATM   17  C   UNL     2     -10.468   9.949  68.087  1.00  0.00    -0.215 C  
HETATM   18  C   UNL     2     -11.029  11.380  68.176  1.00  0.00    -0.232 C  
HETATM   19  H   UNL     2     -10.638   9.884  66.126  1.00  0.00     0.000 HD 
HETATM   20  O   UNL     2     -10.933   9.343  66.849  1.00  0.00    -0.079 OA 
HETATM   21  O   UNL     2     -12.242  11.540  67.745  1.00  0.00    -0.560 OA 
HETATM   22  O   UNL     2     -10.292  12.352  68.314  1.00  0.00    -0.215 OA 
ENDBRANCH  14  17
ENDBRANCH  11  14
ENDBRANCH   2  11
BRANCH   3  23
HETATM   23  C   UNL     3     -12.323  13.834  64.675  1.00  0.00    -0.372 C  
HETATM   24  O   UNL     3     -13.156  12.954  65.441  1.00  0.00    -0.569 OA 
HETATM   25  H   UNL     3     -13.395  13.404  66.244  1.00  0.00     0.000 HD 
BRANCH  23  26
HETATM   26  C   UNL     3     -11.192  14.346  65.596  1.00  0.00    -0.323 C  
HETATM   27  O   UNL     3     -11.715  14.641  66.902  1.00  0.00    -0.375 OA 
HETATM   28  H   UNL     3     -11.020  14.956  67.469  1.00  0.00     0.000 HD 
BRANCH  26  29
HETATM   29  C   UNL     3     -10.618  15.641  64.977  1.00  0.00    -0.396 C  
HETATM   30  C   UNL     3     -10.263  16.787  65.957  1.00  0.00    -0.346 C  
HETATM   31  O   UNL     3     -11.550  16.182  63.978  1.00  0.00    -1.235 OA 
HETATM   32  O   UNL     3      -9.616  16.537  66.988  1.00  0.00    -0.233 OA 
HETATM   33  O   UNL     3     -10.715  17.929  65.510  1.00  0.00    -0.585 OA 
HETATM   34  H   UNL     3     -11.197  16.978  63.597  1.00  0.00     0.000 HD 
ENDBRANCH  26  29
ENDBRANCH  23  26
ENDBRANCH   3  23
BRANCH   3  35
HETATM   35  C   UNL     3     -10.563  12.450  63.383  1.00  0.00    -0.332 C  
HETATM   36  O   UNL     3     -10.725  11.124  62.868  1.00  0.00    -0.779 OA 
HETATM   37  H   UNL     3      -9.868  10.712  62.865  1.00  0.00     0.000 HD 
ENDBRANCH   3  35
TORSDOF 8
ENDMDL
MODEL        3
REMARK 921   NORMALIZED FREE ENERGY PREDICTED BY IDOCK:   -6.61 KCAL/MOL
REMARK 922        TOTAL FREE ENERGY PREDICTED BY IDOCK:  -11.80 KCAL/MOL
REMARK 923 INTER-LIGAND FREE ENERGY PREDICTED BY IDOCK:   -9.11 KCAL/MOL
REMARK 924 INTRA-LIGAND FREE ENERGY PREDICTED BY IDOCK:   -2.69 KCAL/MOL
REMARK 927      BINDING AFFINITY PREDICTED BY RF-SCORE:    0.00 PKD
ROOT
HETATM    1 FE   UNL     1     -11.183  15.709  63.857  1.00  0.00    -0.590 Fe 
HETATM    2  C   UNL     2      -7.814  20.213  67.671  1.00  0.00    -0.300 C  
HETATM    3  C   UNL     3     -11.215  11.410  68.550  1.00  0.00    -0.250 C  
HETATM    4  H   UNL     3     -12.553  12.038  69.819  1.00  0.00     0.000 HD 
HETATM    5  H   UNL     2      -9.733  20.424  67.253  1.00  0.00     0.000 HD 
HETATM    6  O   UNL     2      -8.920  20.869  67.044  1.00  0.00    -0.188 OA 
HETATM    7  O   UNL     3     -11.607  11.955  69.830  1.00  0.00    -0.297 OA 
ENDROOT
BRANCH   2   8
HETATM    8  C   UNL     2      -6.503  20.930  67.335  1.00  0.00    -0.336 C  
HETATM    9  H   UNL     2      -5.644  21.754  65.750  1.00  0.00     0.000 HD 
HETATM   10  O   UNL     2      -6.457  21.309  65.958  1.00  0.00    -0.203 OA 
ENDBRANCH   2   8
BRANCH   2  11
HETATM   11  C   UNL     2      -7.791  18.727  67.264  1.00  0.00    -0.232 C  
HETATM   12  H   UNL     2      -6.430  17.334  66.876  1.00  0.00     0.000 HD 
HETATM   13  O   UNL     2      -6.444  18.250  67.126  1.00  0.00    -0.171 OA 
BRANCH  11  14
HETATM   14  C   UNL     2      -8.535  17.881  68.312  1.00  0.00    -0.278 C  
HETATM   15  H   UNL     2      -8.175  16.220  69.320  1.00  0.00     0.000 HD 
HETATM   16  O   UNL     2      -7.715  16.742  68.673  1.00  0.00    -0.208 OA 
BRANCH  14  17
HETATM   17  C   UNL     2      -9.891  17.351  67.859  1.00  0.00    -0.287 C  
HETATM   18  C   UNL     2      -9.849  16.837  66.408  1.00  0.00    -0.297 C  
HETATM   19  H   UNL     2     -11.696  18.111  67.655  1.00  0.00     0.000 HD 
HETATM   20  O   UNL     2     -10.852  18.441  67.938  1.00  0.00    -0.356 OA 
HETATM   21  O   UNL     2      -9.940  17.743  65.484  1.00  0.00    -0.515 OA 
HETATM   22  O   UNL     2     -10.059  15.658  66.138  1.00  0.00    -0.273 OA 
ENDBRANCH  14  17
ENDBRANCH  11  14
ENDBRANCH   2  11
BRANCH   3  23
HETATM   23  C   UNL     3     -11.784  12.347  67.491  1.00  0.00    -0.357 C  
HETATM   24  O   UNL     3     -11.466  13.691  67.876  1.00  0.00    -0.279 OA 
HETATM   25  H   UNL     3     -11.822  14.274  67.216  1.00  0.00     0.000 HD 
BRANCH  23  26
HETATM   26  C   UNL     3     -11.345  12.152  66.022  1.00  0.00    -0.358 C  
HETATM   27  O   UNL     3     -10.101  12.832  65.784  1.00  0.00    -0.281 OA 
HETATM   28  H   UNL     3      -9.831  12.712  64.881  1.00  0.00     0.000 HD 
BRANCH  26  29
HETATM   29  C   UNL     3     -12.436  12.758  65.110  1.00  0.00    -0.501 C  
HETATM   30  C   UNL     3     -12.246  12.585  63.582  1.00  0.00    -0.550 C  
HETATM   31  O   UNL     3     -12.580  14.196  65.379  1.00  0.00    -0.478 OA 
HETATM   32  O   UNL     3     -11.939  11.471  63.123  1.00  0.00    -0.226 OA 
HETATM   33  O   UNL     3     -12.470  13.712  62.961  1.00  0.00    -0.719 OA 
HETATM   34  H   UNL     3     -13.251  14.568  64.819  1.00  0.00     0.000 HD 
ENDBRANCH  26  29
ENDBRANCH  23  26
ENDBRANCH   3  23
BRANCH   3  35
HETATM   35  C   UNL     3      -9.692  11.276  68.568  1.00  0.00    -0.198 C  
HETATM   36  O   UNL     3      -9.149  12.574  68.831  1.00  0.00    -0.381 OA 
HETATM   37  H   UNL     3      -8.203  12.491  68.842  1.00  0.00     0.000 HD 
ENDBRANCH   3  35
TORSDOF 8
ENDMDL
MODEL        4
REMARK 921   NORMALIZED FREE ENERGY PREDICTED BY IDOCK:   -6.59 KCAL/MOL
REMARK 922        TOTAL FREE ENERGY PREDICTED BY IDOCK:  -11.77 KCAL/MOL
REMARK 923 INTER-LIGAND FREE ENERGY PREDICTED BY IDOCK:   -9.38 KCAL/MOL
REMARK 924 INTRA-LIGAND FREE ENERGY PREDICTED BY IDOCK:   -2.38 KCAL/MOL
REMARK 927      BINDING AFFINITY PREDICTED BY RF-SCORE:    0.00 PKD
ROOT
HETATM    1 FE   UNL     1     -13.603   9.895  69.941  1.00  0.00    -0.599 Fe 
HETATM    2  C   UNL     2     -11.439  14.384  65.320  1.00  0.00    -0.350 C  
HETATM    3  C   UNL     3      -9.544   5.453  67.867  1.00  0.00    -0.129 C  
HETATM    4  H   UNL     3      -7.796   5.999  68.532  1.00  0.00     0.000 HD 
HETATM    5  H   UNL     2     -10.976  14.546  67.234  1.00  0.00     0.000 HD 
HETATM    6  O   UNL     2     -11.498  15.023  66.599  1.00  0.00    -0.336 OA 
HETATM    7  O   UNL     3      -8.199   5.946  67.673  1.00  0.00    -0.105 OA 
ENDROOT
BRANCH   2   8
HETATM    8  C   UNL     2     -12.279  15.153  64.297  1.00  0.00    -0.240 C  
HETATM    9  H   UNL     2     -12.118  16.796  63.200  1.00  0.00     0.000 HD 
HETATM   10  O   UNL     2     -11.596  16.319  63.835  1.00  0.00    -0.987 OA 
ENDBRANCH   2   8
BRANCH   2  11
HETATM   11  C   UNL     2     -11.878  12.913  65.454  1.00  0.00    -0.403 C  
HETATM   12  H   UNL     2     -13.061  11.643  64.489  1.00  0.00     0.000 HD 
HETATM   13  O   UNL     2     -12.790  12.549  64.407  1.00  0.00    -0.714 OA 
BRANCH  11  14
HETATM   14  C   UNL     2     -10.648  11.990  65.411  1.00  0.00    -0.278 C  
HETATM   15  H   UNL     2      -9.829  10.764  64.095  1.00  0.00     0.000 HD 
HETATM   16  O   UNL     2     -10.589  11.334  64.121  1.00  0.00    -0.331 OA 
BRANCH  14  17
HETATM   17  C   UNL     2     -10.628  10.904  66.483  1.00  0.00    -0.237 C  
HETATM   18  C   UNL     2     -11.243  11.395  67.806  1.00  0.00    -0.283 C  
HETATM   19  H   UNL     2      -9.228   9.859  67.392  1.00  0.00     0.000 HD 
HETATM   20  O   UNL     2      -9.241  10.535  66.725  1.00  0.00    -0.153 OA 
HETATM   21  O   UNL     2     -10.465  12.102  68.565  1.00  0.00    -0.224 OA 
HETATM   22  O   UNL     2     -12.258  10.882  68.271  1.00  0.00    -0.526 OA 
ENDBRANCH  14  17
ENDBRANCH  11  14
ENDBRANCH   2  11
BRANCH   3  23
HETATM   23  C   UNL     3     -10.212   6.404  68.854  1.00  0.00    -0.184 C  
HETATM   24  O   UNL     3     -10.957   5.614  69.790  1.00  0.00    -0.345 OA 
HETATM   25  H   UNL     3     -11.373   6.207  70.405  1.00  0.00     0.000 HD 
BRANCH  23  26
HETATM   26  C   UNL     3      -9.319   7.380  69.654  1.00  0.00    -0.149 C  
HETATM   27  O   UNL     3      -8.776   6.719  70.809  1.00  0.00    -0.143 OA 
HETATM   28  H   UNL     3      -8.227   7.319  71.300  1.00  0.00     0.000 HD 
BRANCH  26  29
HETATM   29  C   UNL     3     -10.198   8.565  70.116  1.00  0.00    -0.195 C  
HETATM   30  C   UNL     3     -10.110   8.959  71.612  1.00  0.00    -0.341 C  
HETATM   31  O   UNL     3     -11.610   8.300  69.808  1.00  0.00    -0.430 OA 
HETATM   32  O   UNL     3      -8.998   9.074  72.154  1.00  0.00    -0.378 OA 
HETATM   33  O   UNL     3     -11.305   9.141  72.109  1.00  0.00    -0.330 OA 
HETATM   34  H   UNL     3     -12.150   9.028  70.092  1.00  0.00     0.000 HD 
ENDBRANCH  26  29
ENDBRANCH  23  26
ENDBRANCH   3  23
BRANCH   3  35
HETATM   35  C   UNL     3     -10.193   5.368  66.485  1.00  0.00    -0.245 C  
HETATM   36  O   UNL     3     -11.368   6.183  66.511  1.00  0.00    -0.745 OA 
HETATM   37  H   UNL     3     -11.772   6.131  65.652  1.00  0.00     0.000 HD 
ENDBRANCH   3  35
TORSDOF 8
ENDMDL
MODEL        5
REMARK 921   NORMALIZED FREE ENERGY PREDICTED BY IDOCK:   -6.57 KCAL/MOL
REMARK 922        TOTAL FREE ENERGY PREDICTED BY IDOCK:  -11.74 KCAL/MOL
REMARK 923 INTER-LIGAND FREE ENERGY PREDICTED BY IDOCK:   -9.62 KCAL/MOL
REMARK 924 INTRA-LIGAND FREE ENERGY PREDICTED BY IDOCK:   -2.12 KCAL/MOL
REMARK 927      BINDING AFFINITY PREDICTED BY RF-SCORE:    0.00 PKD
ROOT
HETATM    1 FE   UNL     1     -12.533  16.001  68.310  1.00  0.00    -0.416 Fe 
HETATM    2  C   UNL     2      -6.879  19.663  67.406  1.00  0.00    -0.207 C  
HETATM    3  C   UNL     3     -10.237  11.174  64.853  1.00  0.00    -0.303 C  
HETATM    4  H   UNL     3      -8.927  10.297  65.997  1.00  0.00     0.000 HD 
HETATM    5  H   UNL     2      -7.305  18.805  69.134  1.00  0.00     0.000 HD 
HETATM    6  O   UNL     2      -7.234  19.688  68.792  1.00  0.00    -0.328 OA 
HETATM    7  O   UNL     3      -8.882  10.811  65.199  1.00  0.00    -0.195 OA 
ENDROOT
BRANCH   2   8
HETATM    8  C   UNL     2      -6.764  21.086  66.855  1.00  0.00    -0.318 C  
HETATM    9  H   UNL     2      -5.568  22.101  65.643  1.00  0.00     0.000 HD 
HETATM   10  O   UNL     2      -5.639  21.218  65.985  1.00  0.00    -0.231 OA 
ENDBRANCH   2   8
BRANCH   2  11
HETATM   11  C   UNL     2      -7.898  18.811  66.623  1.00  0.00    -0.262 C  
HETATM   12  H   UNL     2      -8.015  17.928  64.849  1.00  0.00     0.000 HD 
HETATM   13  O   UNL     2      -7.387  18.454  65.331  1.00  0.00    -0.521 OA 
BRANCH  11  14
HETATM   14  C   UNL     2      -8.238  17.537  67.416  1.00  0.00    -0.207 C  
HETATM   15  H   UNL     2      -7.816  15.612  67.270  1.00  0.00     0.000 HD 
HETATM   16  O   UNL     2      -7.606  16.399  66.781  1.00  0.00    -0.209 OA 
BRANCH  14  17
HETATM   17  C   UNL     2      -9.729  17.234  67.528  1.00  0.00    -0.264 C  
HETATM   18  C   UNL     2     -10.291  16.635  66.226  1.00  0.00    -0.317 C  
HETATM   19  H   UNL     2     -11.352  18.295  67.873  1.00  0.00     0.000 HD 
HETATM   20  O   UNL     2     -10.423  18.483  67.803  1.00  0.00    -0.389 OA 
HETATM   21  O   UNL     2     -10.577  17.484  65.289  1.00  0.00    -0.664 OA 
HETATM   22  O   UNL     2     -10.757  15.499  66.191  1.00  0.00    -0.310 OA 
ENDBRANCH  14  17
ENDBRANCH  11  14
ENDBRANCH   2  11
BRANCH   3  23
HETATM   23  C   UNL     3     -10.813  11.890  66.070  1.00  0.00    -0.299 C  
HETATM   24  O   UNL     3     -12.207  12.120  65.827  1.00  0.00    -0.586 OA 
HETATM   25  H   UNL     3     -12.565  12.566  66.585  1.00  0.00     0.000 HD 
BRANCH  23  26
HETATM   26  C   UNL     3     -10.673  11.217  67.455  1.00  0.00    -0.250 C  
HETATM   27  O   UNL     3     -10.658   9.787  67.309  1.00  0.00    -0.258 OA 
HETATM   28  H   UNL     3     -10.572   9.373  68.160  1.00  0.00     0.000 HD 
BRANCH  26  29
HETATM   29  C   UNL     3     -11.892  11.626  68.313  1.00  0.00    -0.265 C  
HETATM   30  C   UNL     3     -11.687  12.796  69.307  1.00  0.00    -0.319 C  
HETATM   31  O   UNL     3     -12.382  10.472  69.080  1.00  0.00    -0.724 OA 
HETATM   32  O   UNL     3     -11.123  13.836  68.925  1.00  0.00    -0.250 OA 
HETATM   33  O   UNL     3     -12.190  12.500  70.475  1.00  0.00    -0.365 OA 
HETATM   34  H   UNL     3     -13.131  10.723  69.608  1.00  0.00     0.000 HD 
ENDBRANCH  26  29
ENDBRANCH  23  26
ENDBRANCH   3  23
BRANCH   3  35
HETATM   35  C   UNL     3     -10.165  12.002  63.570  1.00  0.00    -0.450 C  
HETATM   36  O   UNL     3     -10.236  13.381  63.943  1.00  0.00    -0.712 OA 
HETATM   37  H   UNL     3     -10.191  13.896  63.145  1.00  0.00     0.000 HD 
ENDBRANCH   3  35
TORSDOF 8
ENDMDL
MODEL        6
REMARK 921   NORMALIZED FREE ENERGY PREDICTED BY IDOCK:   -6.56 KCAL/MOL
REMARK 922        TOTAL FREE ENERGY PREDICTED BY IDOCK:  -11.72 KCAL/MOL
REMARK 923 INTER-LIGAND FREE ENERGY PREDICTED BY IDOCK:  -10.14 KCAL/MOL
REMARK 924 INTRA-LIGAND FREE ENERGY PREDICTED BY IDOCK:   -1.58 KCAL/MOL
REMARK 927      BINDING AFFINITY PREDICTED BY RF-SCORE:    0.00 PKD
ROOT
HETATM    1 FE   UNL     1      -8.997  13.712  69.350  1.00  0.00    -0.354 Fe 
HETATM    2  C   UNL     2     -10.510   7.500  71.655  1.00  0.00    -0.200 C  
HETATM    3  C   UNL     3     -11.032  12.287  63.490  1.00  0.00    -0.459 C  
HETATM    4  H   UNL     3     -12.977  12.293  63.603  1.00  0.00     0.000 HD 
HETATM    5  H   UNL     2     -11.593   9.084  72.126  1.00  0.00     0.000 HD 
HETATM    6  O   UNL     2     -11.018   8.474  72.572  1.00  0.00    -0.353 OA 
HETATM    7  O   UNL     3     -12.316  11.623  63.471  1.00  0.00    -0.441 OA 
ENDROOT
BRANCH   2   8
HETATM    8  C   UNL     2      -9.582   6.517  72.375  1.00  0.00    -0.145 C  
HETATM    9  H   UNL     2      -8.850   6.254  74.198  1.00  0.00     0.000 HD 
HETATM   10  O   UNL     2      -9.425   6.865  73.751  1.00  0.00    -0.168 OA 
ENDBRANCH   2   8
BRANCH   2  11
HETATM   11  C   UNL     2      -9.813   8.209  70.477  1.00  0.00    -0.186 C  
HETATM   12  H   UNL     2      -8.217   7.924  69.332  1.00  0.00     0.000 HD 
HETATM   13  O   UNL     2      -8.645   7.488  70.058  1.00  0.00    -0.136 OA 
BRANCH  11  14
HETATM   14  C   UNL     2     -10.788   8.347  69.294  1.00  0.00    -0.054 C  
HETATM   15  H   UNL     2     -11.636   7.123  67.995  1.00  0.00     0.000 HD 
HETATM   16  O   UNL     2     -11.034   7.037  68.725  1.00  0.00    -0.183 OA 
BRANCH  14  17
HETATM   17  C   UNL     2     -10.303   9.256  68.170  1.00  0.00    -0.215 C  
HETATM   18  C   UNL     2     -10.768  10.710  68.369  1.00  0.00    -0.222 C  
HETATM   19  H   UNL     2     -10.551   9.326  66.217  1.00  0.00     0.000 HD 
HETATM   20  O   UNL     2     -10.853   8.759  66.918  1.00  0.00    -0.171 OA 
HETATM   21  O   UNL     2     -11.983  10.972  68.000  1.00  0.00    -0.623 OA 
HETATM   22  O   UNL     2      -9.965  11.624  68.535  1.00  0.00    -0.193 OA 
ENDBRANCH  14  17
ENDBRANCH  11  14
ENDBRANCH   2  11
BRANCH   3  23
HETATM   23  C   UNL     3     -10.958  13.039  64.814  1.00  0.00    -0.327 C  
HETATM   24  O   UNL     3      -9.581  13.344  65.070  1.00  0.00    -0.529 OA 
HETATM   25  H   UNL     3      -9.535  13.812  65.895  1.00  0.00     0.000 HD 
BRANCH  23  26
HETATM   26  C   UNL     3     -11.774  14.343  64.967  1.00  0.00    -0.389 C  
HETATM   27  O   UNL     3     -12.768  14.427  63.932  1.00  0.00    -0.771 OA 
HETATM   28  H   UNL     3     -13.270  15.229  64.026  1.00  0.00     0.000 HD 
BRANCH  26  29
HETATM   29  C   UNL     3     -10.801  15.537  64.832  1.00  0.00    -0.427 C  
HETATM   30  C   UNL     3     -10.462  16.313  66.129  1.00  0.00    -0.322 C  
HETATM   31  O   UNL     3     -11.320  16.506  63.857  1.00  0.00    -1.557 OA 
HETATM   32  O   UNL     3     -10.159  15.687  67.160  1.00  0.00    -0.247 OA 
HETATM   33  O   UNL     3     -10.534  17.601  65.926  1.00  0.00    -0.476 OA 
HETATM   34  H   UNL     3     -10.722  17.240  63.774  1.00  0.00     0.000 HD 
ENDBRANCH  26  29
ENDBRANCH  23  26
ENDBRANCH   3  23
BRANCH   3  35
HETATM   35  C   UNL     3      -9.969  11.209  63.279  1.00  0.00    -0.379 C  
HETATM   36  O   UNL     3      -8.848  11.830  62.642  1.00  0.00    -0.610 OA 
HETATM   37  H   UNL     3      -8.187  11.160  62.510  1.00  0.00     0.000 HD 
ENDBRANCH   3  35
TORSDOF 8
ENDMDL
MODEL        7
REMARK 921   NORMALIZED FREE ENERGY PREDICTED BY IDOCK:   -6.53 KCAL/MOL
REMARK 922        TOTAL FREE ENERGY PREDICTED BY IDOCK:  -11.69 KCAL/MOL
REMARK 923 INTER-LIGAND FREE ENERGY PREDICTED BY IDOCK:  -10.49 KCAL/MOL
REMARK 924 INTRA-LIGAND FREE ENERGY PREDICTED BY IDOCK:   -1.20 KCAL/MOL
REMARK 927      BINDING AFFINITY PREDICTED BY RF-SCORE:    0.00 PKD
ROOT
HETATM    1 FE   UNL     1      -9.753  13.753  69.421  1.00  0.00    -0.361 Fe 
HETATM    2  C   UNL     2     -12.050   7.739  71.600  1.00  0.00    -0.304 C  
HETATM    3  C   UNL     3     -11.150  12.356  63.371  1.00  0.00    -0.402 C  
HETATM    4  H   UNL     3     -13.087  12.521  63.236  1.00  0.00     0.000 HD 
HETATM    5  H   UNL     2     -13.049   9.415  71.908  1.00  0.00     0.000 HD 
HETATM    6  O   UNL     2     -12.587   8.772  72.432  1.00  0.00    -0.385 OA 
HETATM    7  O   UNL     3     -12.472  11.798  63.198  1.00  0.00    -0.490 OA 
ENDROOT
BRANCH   2   8
HETATM    8  C   UNL     2     -11.304   6.703  72.444  1.00  0.00    -0.272 C  
HETATM    9  H   UNL     2     -10.378   6.625  74.195  1.00  0.00     0.000 HD 
HETATM   10  O   UNL     2     -10.840   7.269  73.671  1.00  0.00    -0.356 OA 
ENDBRANCH   2   8
BRANCH   2  11
HETATM   11  C   UNL     2     -11.156   8.361  70.510  1.00  0.00    -0.252 C  
HETATM   12  H   UNL     2     -10.323  10.122  70.125  1.00  0.00     0.000 HD 
HETATM   13  O   UNL     2     -10.874   9.739  70.797  1.00  0.00    -0.297 OA 
BRANCH  11  14
HETATM   14  C   UNL     2      -9.837   7.576  70.398  1.00  0.00    -0.183 C  
HETATM   15  H   UNL     2      -7.983   7.805  71.040  1.00  0.00     0.000 HD 
HETATM   16  O   UNL     2      -8.797   8.290  71.110  1.00  0.00    -0.132 OA 
BRANCH  14  17
HETATM   17  C   UNL     2      -9.349   7.348  68.971  1.00  0.00    -0.145 C  
HETATM   18  C   UNL     2     -10.520   7.141  67.992  1.00  0.00    -0.201 C  
HETATM   19  H   UNL     2      -8.215   6.011  68.074  1.00  0.00     0.000 HD 
HETATM   20  O   UNL     2      -8.519   6.153  68.963  1.00  0.00    -0.117 OA 
HETATM   21  O   UNL     2     -11.030   5.949  67.964  1.00  0.00    -0.274 OA 
HETATM   22  O   UNL     2     -10.732   7.923  67.070  1.00  0.00    -0.339 OA 
ENDBRANCH  14  17
ENDBRANCH  11  14
ENDBRANCH   2  11
BRANCH   3  23
HETATM   23  C   UNL     3     -11.180  13.132  64.683  1.00  0.00    -0.340 C  
HETATM   24  O   UNL     3      -9.825  13.363  65.089  1.00  0.00    -0.528 OA 
HETATM   25  H   UNL     3      -9.844  13.846  65.907  1.00  0.00     0.000 HD 
BRANCH  23  26
HETATM   26  C   UNL     3     -11.929  14.483  64.723  1.00  0.00    -0.442 C  
HETATM   27  O   UNL     3     -12.658  14.680  63.500  1.00  0.00    -1.019 OA 
HETATM   28  H   UNL     3     -13.119  15.510  63.524  1.00  0.00     0.000 HD 
BRANCH  26  29
HETATM   29  C   UNL     3     -10.881  15.609  64.874  1.00  0.00    -0.418 C  
HETATM   30  C   UNL     3     -10.638  16.151  66.305  1.00  0.00    -0.274 C  
HETATM   31  O   UNL     3     -11.237  16.752  64.021  1.00  0.00    -1.438 OA 
HETATM   32  O   UNL     3     -10.483  15.354  67.247  1.00  0.00    -0.270 OA 
HETATM   33  O   UNL     3     -10.615  17.457  66.304  1.00  0.00    -0.297 OA 
HETATM   34  H   UNL     3     -10.593  17.444  64.114  1.00  0.00     0.000 HD 
ENDBRANCH  26  29
ENDBRANCH  23  26
ENDBRANCH   3  23
BRANCH   3  35
HETATM   35  C   UNL     3     -10.161  11.192  63.311  1.00  0.00    -0.350 C  
HETATM   36  O   UNL     3      -8.960  11.679  62.705  1.00  0.00    -0.601 OA 
HETATM   37  H   UNL     3      -8.345  10.956  62.668  1.00  0.00     0.000 HD 
ENDBRANCH   3  35
TORSDOF 8
ENDMDL
MODEL        8
REMARK 921   NORMALIZED FREE ENERGY PREDICTED BY IDOCK:   -6.48 KCAL/MOL
REMARK 922        TOTAL FREE ENERGY PREDICTED BY IDOCK:  -11.61 KCAL/MOL
REMARK 923 INTER-LIGAND FREE ENERGY PREDICTED BY IDOCK:   -9.82 KCAL/MOL
REMARK 924 INTRA-LIGAND FREE ENERGY PREDICTED BY IDOCK:   -1.79 KCAL/MOL
REMARK 927      BINDING AFFINITY PREDICTED BY RF-SCORE:    0.00 PKD
ROOT
HETATM    1 FE   UNL     1      -9.564  13.753  69.397  1.00  0.00    -0.363 Fe 
HETATM    2  C   UNL     2     -11.441   7.621  71.646  1.00  0.00    -0.260 C  
HETATM    3  C   UNL     3     -11.153  12.299  63.408  1.00  0.00    -0.418 C  
HETATM    4  H   UNL     3     -13.100  12.362  63.360  1.00  0.00     0.000 HD 
HETATM    5  H   UNL     2     -12.512   9.241  72.006  1.00  0.00     0.000 HD 
HETATM    6  O   UNL     2     -11.994   8.621  72.506  1.00  0.00    -0.368 OA 
HETATM    7  O   UNL     3     -12.450  11.672  63.291  1.00  0.00    -0.471 OA 
ENDROOT
BRANCH   2   8
HETATM    8  C   UNL     2     -10.605   6.623  72.452  1.00  0.00    -0.214 C  
HETATM    9  H   UNL     2     -10.029   6.368  74.331  1.00  0.00     0.000 HD 
HETATM   10  O   UNL     2     -10.548   6.988  73.831  1.00  0.00    -0.371 OA 
ENDBRANCH   2   8
BRANCH   2  11
HETATM   11  C   UNL     2     -10.630   8.292  70.520  1.00  0.00    -0.219 C  
HETATM   12  H   UNL     2     -10.404   8.093  68.558  1.00  0.00     0.000 HD 
HETATM   13  O   UNL     2     -10.903   7.679  69.252  1.00  0.00    -0.198 OA 
BRANCH  11  14
HETATM   14  C   UNL     2     -10.964   9.792  70.453  1.00  0.00    -0.312 C  
HETATM   15  H   UNL     2     -12.423  10.897  69.707  1.00  0.00     0.000 HD 
HETATM   16  O   UNL     2     -12.217   9.970  69.748  1.00  0.00    -0.007 OA 
BRANCH  14  17
HETATM   17  C   UNL     2      -9.914  10.649  69.753  1.00  0.00     0.044 C  
HETATM   18  C   UNL     2     -10.309  10.964  68.298  1.00  0.00    -0.173 C  
HETATM   19  H   UNL     2      -8.006  10.443  69.308  1.00  0.00     0.000 HD 
HETATM   20  O   UNL     2      -8.660   9.909  69.744  1.00  0.00    -0.183 OA 
HETATM   21  O   UNL     2     -10.066  10.031  67.431  1.00  0.00    -0.186 OA 
HETATM   22  O   UNL     2     -10.513  12.116  67.924  1.00  0.00    -0.199 OA 
ENDBRANCH  14  17
ENDBRANCH  11  14
ENDBRANCH   2  11
BRANCH   3  23
HETATM   23  C   UNL     3     -11.165  13.069  64.724  1.00  0.00    -0.317 C  
HETATM   24  O   UNL     3      -9.805  13.300  65.111  1.00  0.00    -0.507 OA 
HETATM   25  H   UNL     3      -9.813  13.779  65.932  1.00  0.00     0.000 HD 
BRANCH  23  26
HETATM   26  C   UNL     3     -11.916  14.419  64.780  1.00  0.00    -0.447 C  
HETATM   27  O   UNL     3     -12.675  14.613  63.575  1.00  0.00    -0.907 OA 
HETATM   28  H   UNL     3     -13.136  15.443  63.610  1.00  0.00     0.000 HD 
BRANCH  26  29
HETATM   29  C   UNL     3     -10.866  15.547  64.903  1.00  0.00    -0.427 C  
HETATM   30  C   UNL     3     -10.598  16.101  66.325  1.00  0.00    -0.274 C  
HETATM   31  O   UNL     3     -11.238  16.682  64.047  1.00  0.00    -1.449 OA 
HETATM   32  O   UNL     3     -10.425  15.313  67.270  1.00  0.00    -0.265 OA 
HETATM   33  O   UNL     3     -10.576  17.408  66.312  1.00  0.00    -0.297 OA 
HETATM   34  H   UNL     3     -10.592  17.375  64.123  1.00  0.00     0.000 HD 
ENDBRANCH  26  29
ENDBRANCH  23  26
ENDBRANCH   3  23
BRANCH   3  35
HETATM   35  C   UNL     3     -10.108  11.189  63.298  1.00  0.00    -0.380 C  
HETATM   36  O   UNL     3      -8.874  11.798  62.903  1.00  0.00    -0.652 OA 
HETATM   37  H   UNL     3      -8.224  11.108  62.835  1.00  0.00     0.000 HD 
ENDBRANCH   3  35
TORSDOF 8
ENDMDL
MODEL        9
REMARK 921   NORMALIZED FREE ENERGY PREDICTED BY IDOCK:   -6.47 KCAL/MOL
REMARK 922        TOTAL FREE ENERGY PREDICTED BY IDOCK:  -11.59 KCAL/MOL
REMARK 923 INTER-LIGAND FREE ENERGY PREDICTED BY IDOCK:  -10.07 KCAL/MOL
REMARK 924 INTRA-LIGAND FREE ENERGY PREDICTED BY IDOCK:   -1.52 KCAL/MOL
REMARK 927      BINDING AFFINITY PREDICTED BY RF-SCORE:    0.00 PKD
ROOT
HETATM    1 FE   UNL     1      -9.355  13.674  69.341  1.00  0.00    -0.372 Fe 
HETATM    2  C   UNL     2     -10.693   7.361  71.471  1.00  0.00    -0.222 C  
HETATM    3  C   UNL     3     -10.901  12.226  63.339  1.00  0.00    -0.403 C  
HETATM    4  H   UNL     3     -12.847  12.129  63.315  1.00  0.00     0.000 HD 
HETATM    5  H   UNL     2     -11.889   8.879  71.881  1.00  0.00     0.000 HD 
HETATM    6  O   UNL     2     -11.315   8.294  72.361  1.00  0.00    -0.347 OA 
HETATM    7  O   UNL     3     -12.143  11.497  63.223  1.00  0.00    -0.319 OA 
ENDROOT
BRANCH   2   8
HETATM    8  C   UNL     2      -9.767   6.418  72.244  1.00  0.00    -0.150 C  
HETATM    9  H   UNL     2      -8.895   6.347  74.023  1.00  0.00     0.000 HD 
HETATM   10  O   UNL     2      -9.469   6.932  73.543  1.00  0.00    -0.151 OA 
ENDBRANCH   2   8
BRANCH   2  11
HETATM   11  C   UNL     2      -9.955   8.121  70.352  1.00  0.00    -0.188 C  
HETATM   12  H   UNL     2      -8.979   7.683  68.680  1.00  0.00     0.000 HD 
HETATM   13  O   UNL     2      -9.433   7.214  69.370  1.00  0.00    -0.154 OA 
BRANCH  11  14
HETATM   14  C   UNL     2     -10.909   9.122  69.677  1.00  0.00    -0.197 C  
HETATM   15  H   UNL     2     -11.470   9.533  67.827  1.00  0.00     0.000 HD 
HETATM   16  O   UNL     2     -10.880   8.914  68.244  1.00  0.00    -0.127 OA 
BRANCH  14  17
HETATM   17  C   UNL     2     -10.584  10.589  69.939  1.00  0.00    -0.211 C  
HETATM   18  C   UNL     2     -11.807  11.496  69.710  1.00  0.00    -0.357 C  
HETATM   19  H   UNL     2      -9.327  11.903  69.182  1.00  0.00     0.000 HD 
HETATM   20  O   UNL     2      -9.530  10.989  69.019  1.00  0.00    -0.184 OA 
HETATM   21  O   UNL     2     -12.053  11.814  68.477  1.00  0.00    -0.454 OA 
HETATM   22  O   UNL     2     -12.304  12.148  70.625  1.00  0.00    -0.357 OA 
ENDBRANCH  14  17
ENDBRANCH  11  14
ENDBRANCH   2  11
BRANCH   3  23
HETATM   23  C   UNL     3     -10.958  12.963  64.672  1.00  0.00    -0.332 C  
HETATM   24  O   UNL     3      -9.614  13.270  65.064  1.00  0.00    -0.520 OA 
HETATM   25  H   UNL     3      -9.650  13.729  65.895  1.00  0.00     0.000 HD 
BRANCH  23  26
HETATM   26  C   UNL     3     -11.792  14.262  64.760  1.00  0.00    -0.429 C  
HETATM   27  O   UNL     3     -12.636  14.386  63.603  1.00  0.00    -1.007 OA 
HETATM   28  H   UNL     3     -13.148  15.184  63.657  1.00  0.00     0.000 HD 
BRANCH  26  29
HETATM   29  C   UNL     3     -10.814  15.458  64.804  1.00  0.00    -0.364 C  
HETATM   30  C   UNL     3     -10.585  16.123  66.185  1.00  0.00    -0.283 C  
HETATM   31  O   UNL     3     -11.253  16.506  63.873  1.00  0.00    -1.440 OA 
HETATM   32  O   UNL     3     -10.366  15.414  67.181  1.00  0.00    -0.261 OA 
HETATM   33  O   UNL     3     -10.643  17.424  66.083  1.00  0.00    -0.309 OA 
HETATM   34  H   UNL     3     -10.651  17.242  63.900  1.00  0.00     0.000 HD 
ENDBRANCH  26  29
ENDBRANCH  23  26
ENDBRANCH   3  23
BRANCH   3  35
HETATM   35  C   UNL     3      -9.769  11.208  63.192  1.00  0.00    -0.376 C  
HETATM   36  O   UNL     3      -8.640  11.896  62.646  1.00  0.00    -0.557 OA 
HETATM   37  H   UNL     3      -7.937  11.264  62.554  1.00  0.00     0.000 HD 
ENDBRANCH   3  35
TORSDOF 8
ENDMDL
MODEL       10
REMARK 921   NORMALIZED FREE ENERGY PREDICTED BY IDOCK:   -6.29 KCAL/MOL
REMARK 922        TOTAL FREE ENERGY PREDICTED BY IDOCK:  -11.32 KCAL/MOL
REMARK 923 INTER-LIGAND FREE ENERGY PREDICTED BY IDOCK:   -9.27 KCAL/MOL
REMARK 924 INTRA-LIGAND FREE ENERGY PREDICTED BY IDOCK:   -2.06 KCAL/MOL
REMARK 927      BINDING AFFINITY PREDICTED BY RF-SCORE:    0.00 PKD
ROOT
HETATM    1 FE   UNL     1     -13.181  10.579  70.531  1.00  0.00    -0.326 Fe 
HETATM    2  C   UNL     2     -11.346  14.436  65.244  1.00  0.00    -0.346 C  
HETATM    3  C   UNL     3      -9.788   5.634  68.398  1.00  0.00    -0.139 C  
HETATM    4  H   UNL     3      -7.929   6.083  68.773  1.00  0.00     0.000 HD 
HETATM    5  H   UNL     2     -10.613  14.726  67.056  1.00  0.00     0.000 HD 
HETATM    6  O   UNL     2     -11.180  15.189  66.450  1.00  0.00    -0.339 OA 
HETATM    7  O   UNL     3      -8.450   5.989  67.983  1.00  0.00    -0.115 OA 
ENDROOT
BRANCH   2   8
HETATM    8  C   UNL     2     -12.260  15.181  64.268  1.00  0.00    -0.240 C  
HETATM    9  H   UNL     2     -12.226  16.860  63.214  1.00  0.00     0.000 HD 
HETATM   10  O   UNL     2     -11.659  16.397  63.820  1.00  0.00    -1.055 OA 
ENDBRANCH   2   8
BRANCH   2  11
HETATM   11  C   UNL     2     -11.871  13.026  65.579  1.00  0.00    -0.395 C  
HETATM   12  H   UNL     2     -13.305  11.807  64.947  1.00  0.00     0.000 HD 
HETATM   13  O   UNL     2     -12.982  12.676  64.741  1.00  0.00    -0.816 OA 
BRANCH  11  14
HETATM   14  C   UNL     2     -10.746  11.990  65.407  1.00  0.00    -0.287 C  
HETATM   15  H   UNL     2     -10.141  10.767  63.978  1.00  0.00     0.000 HD 
HETATM   16  O   UNL     2     -10.835  11.407  64.084  1.00  0.00    -0.347 OA 
BRANCH  14  17
HETATM   17  C   UNL     2     -10.769  10.849  66.418  1.00  0.00    -0.194 C  
HETATM   18  C   UNL     2     -11.251  11.320  67.803  1.00  0.00    -0.291 C  
HETATM   19  H   UNL     2      -9.429   9.622  67.179  1.00  0.00     0.000 HD 
HETATM   20  O   UNL     2      -9.415  10.333  66.549  1.00  0.00    -0.162 OA 
HETATM   21  O   UNL     2     -10.361  11.903  68.544  1.00  0.00    -0.210 OA 
HETATM   22  O   UNL     2     -12.282  10.882  68.307  1.00  0.00    -0.526 OA 
ENDBRANCH  14  17
ENDBRANCH  11  14
ENDBRANCH   2  11
BRANCH   3  23
HETATM   23  C   UNL     3     -10.240   6.724  69.364  1.00  0.00    -0.187 C  
HETATM   24  O   UNL     3     -10.993   7.688  68.618  1.00  0.00    -0.421 OA 
HETATM   25  H   UNL     3     -11.275   8.367  69.221  1.00  0.00     0.000 HD 
BRANCH  23  26
HETATM   26  C   UNL     3     -11.076   6.313  70.598  1.00  0.00    -0.327 C  
HETATM   27  O   UNL     3     -12.426   6.785  70.459  1.00  0.00    -0.553 OA 
HETATM   28  H   UNL     3     -12.940   6.532  71.217  1.00  0.00     0.000 HD 
BRANCH  26  29
HETATM   29  C   UNL     3     -10.439   6.962  71.848  1.00  0.00    -0.201 C  
HETATM   30  C   UNL     3     -10.292   8.504  71.837  1.00  0.00    -0.308 C  
HETATM   31  O   UNL     3      -9.107   6.391  72.093  1.00  0.00    -0.141 OA 
HETATM   32  O   UNL     3     -11.253   9.211  71.486  1.00  0.00    -0.308 OA 
HETATM   33  O   UNL     3      -9.102   8.856  72.244  1.00  0.00    -0.381 OA 
HETATM   34  H   UNL     3      -8.715   6.790  72.861  1.00  0.00     0.000 HD 
ENDBRANCH  26  29
ENDBRANCH  23  26
ENDBRANCH   3  23
BRANCH   3  35
HETATM   35  C   UNL     3     -10.625   5.484  67.128  1.00  0.00    -0.240 C  
HETATM   36  O   UNL     3     -10.166   6.463  66.192  1.00  0.00    -0.413 OA 
HETATM   37  H   UNL     3     -10.686   6.370  65.402  1.00  0.00     0.000 HD 
ENDBRANCH   3  35
TORSDOF 8
ENDMDL
MODEL       11
REMARK 921   NORMALIZED FREE ENERGY PREDICTED BY IDOCK:   -6.28 KCAL/MOL
REMARK 922        TOTAL FREE ENERGY PREDICTED BY IDOCK:  -11.32 KCAL/MOL
REMARK 923 INTER-LIGAND FREE ENERGY PREDICTED BY IDOCK:   -9.33 KCAL/MOL
REMARK 924 INTRA-LIGAND FREE ENERGY PREDICTED BY IDOCK:   -1.99 KCAL/MOL
REMARK 927      BINDING AFFINITY PREDICTED BY RF-SCORE:    0.00 PKD
ROOT
HETATM    1 FE   UNL     1     -10.395  14.515  70.833  1.00  0.00    -0.457 Fe 
HETATM    2  C   UNL     2      -6.058  19.208  68.519  1.00  0.00    -0.222 C  
HETATM    3  C   UNL     3     -11.913  12.674  64.933  1.00  0.00    -0.406 C  
HETATM    4  H   UNL     3     -10.390  11.632  64.308  1.00  0.00     0.000 HD 
HETATM    5  H   UNL     2      -5.436  17.531  69.359  1.00  0.00     0.000 HD 
HETATM    6  O   UNL     2      -5.422  18.459  69.560  1.00  0.00    -0.196 OA 
HETATM    7  O   UNL     3     -10.766  12.474  64.078  1.00  0.00    -0.352 OA 
ENDROOT
BRANCH   2   8
HETATM    8  C   UNL     2      -6.037  20.704  68.844  1.00  0.00    -0.322 C  
HETATM    9  H   UNL     2      -5.733  21.860  70.425  1.00  0.00     0.000 HD 
HETATM   10  O   UNL     2      -5.746  20.931  70.224  1.00  0.00    -0.538 OA 
ENDBRANCH   2   8
BRANCH   2  11
HETATM   11  C   UNL     2      -7.487  18.676  68.294  1.00  0.00    -0.281 C  
HETATM   12  H   UNL     2      -9.338  19.188  68.798  1.00  0.00     0.000 HD 
HETATM   13  O   UNL     2      -8.457  19.516  68.937  1.00  0.00    -0.358 OA 
BRANCH  11  14
HETATM   14  C   UNL     2      -7.788  18.596  66.787  1.00  0.00    -0.245 C  
HETATM   15  H   UNL     2      -8.862  19.632  65.491  1.00  0.00     0.000 HD 
HETATM   16  O   UNL     2      -8.676  19.681  66.422  1.00  0.00    -0.340 OA 
BRANCH  14  17
HETATM   17  C   UNL     2      -8.439  17.293  66.335  1.00  0.00    -0.269 C  
HETATM   18  C   UNL     2      -9.973  17.413  66.267  1.00  0.00    -0.297 C  
HETATM   19  H   UNL     2      -8.502  15.447  67.017  1.00  0.00     0.000 HD 
HETATM   20  O   UNL     2      -8.096  16.258  67.299  1.00  0.00    -0.156 OA 
HETATM   21  O   UNL     2     -10.601  17.287  67.395  1.00  0.00    -0.344 OA 
HETATM   22  O   UNL     2     -10.580  17.291  65.207  1.00  0.00    -0.667 OA 
ENDBRANCH  14  17
ENDBRANCH  11  14
ENDBRANCH   2  11
BRANCH   3  23
HETATM   23  C   UNL     3     -11.409  12.544  66.366  1.00  0.00    -0.329 C  
HETATM   24  O   UNL     3     -10.775  11.264  66.495  1.00  0.00    -0.257 OA 
HETATM   25  H   UNL     3     -10.461  11.184  67.388  1.00  0.00     0.000 HD 
BRANCH  23  26
HETATM   26  C   UNL     3     -10.435  13.617  66.903  1.00  0.00    -0.272 C  
HETATM   27  O   UNL     3      -9.401  13.874  65.938  1.00  0.00    -0.499 OA 
HETATM   28  H   UNL     3      -8.803  14.534  66.269  1.00  0.00     0.000 HD 
BRANCH  26  29
HETATM   29  C   UNL     3      -9.793  13.076  68.201  1.00  0.00    -0.228 C  
HETATM   30  C   UNL     3      -8.740  11.951  68.044  1.00  0.00    -0.173 C  
HETATM   31  O   UNL     3     -10.834  12.587  69.116  1.00  0.00    -0.385 OA 
HETATM   32  O   UNL     3      -7.843  12.062  67.191  1.00  0.00    -0.161 OA 
HETATM   33  O   UNL     3      -8.959  10.993  68.905  1.00  0.00    -0.168 OA 
HETATM   34  H   UNL     3     -10.439  12.254  69.914  1.00  0.00     0.000 HD 
ENDBRANCH  26  29
ENDBRANCH  23  26
ENDBRANCH   3  23
BRANCH   3  35
HETATM   35  C   UNL     3     -12.517  14.028  64.562  1.00  0.00    -0.308 C  
HETATM   36  O   UNL     3     -12.305  14.225  63.161  1.00  0.00    -1.096 OA 
HETATM   37  H   UNL     3     -12.680  15.067  62.930  1.00  0.00     0.000 HD 
ENDBRANCH   3  35
TORSDOF 8
ENDMDL
MODEL       12
REMARK 921   NORMALIZED FREE ENERGY PREDICTED BY IDOCK:   -6.26 KCAL/MOL
REMARK 922        TOTAL FREE ENERGY PREDICTED BY IDOCK:  -11.29 KCAL/MOL
REMARK 923 INTER-LIGAND FREE ENERGY PREDICTED BY IDOCK:  -10.41 KCAL/MOL
REMARK 924 INTRA-LIGAND FREE ENERGY PREDICTED BY IDOCK:   -0.88 KCAL/MOL
REMARK 927      BINDING AFFINITY PREDICTED BY RF-SCORE:    0.00 PKD
ROOT
HETATM    1 FE   UNL     1     -11.811  15.040  69.420  1.00  0.00    -0.241 Fe 
HETATM    2  C   UNL     2     -12.717   8.681  71.641  1.00  0.00    -0.341 C  
HETATM    3  C   UNL     3     -11.961  13.183  63.334  1.00  0.00    -0.483 C  
HETATM    4  H   UNL     3     -13.836  12.819  62.951  1.00  0.00     0.000 HD 
HETATM    5  H   UNL     2     -14.154  10.034  71.725  1.00  0.00     0.000 HD 
HETATM    6  O   UNL     2     -13.614   9.551  72.339  1.00  0.00    -0.452 OA 
HETATM    7  O   UNL     3     -13.053  12.287  63.031  1.00  0.00    -0.476 OA 
ENDROOT
BRANCH   2   8
HETATM    8  C   UNL     2     -11.846   7.902  72.630  1.00  0.00    -0.297 C  
HETATM    9  H   UNL     2     -11.278   6.027  72.928  1.00  0.00     0.000 HD 
HETATM   10  O   UNL     2     -11.819   6.510  72.314  1.00  0.00    -0.294 OA 
ENDBRANCH   2   8
BRANCH   2  11
HETATM   11  C   UNL     2     -11.879   9.496  70.636  1.00  0.00    -0.233 C  
HETATM   12  H   UNL     2     -11.039  11.292  70.545  1.00  0.00     0.000 HD 
HETATM   13  O   UNL     2     -11.555  10.791  71.164  1.00  0.00    -0.208 OA 
BRANCH  11  14
HETATM   14  C   UNL     2     -10.585   8.739  70.293  1.00  0.00    -0.216 C  
HETATM   15  H   UNL     2      -8.647   9.118  70.372  1.00  0.00     0.000 HD 
HETATM   16  O   UNL     2      -9.447   9.586  70.584  1.00  0.00    -0.257 OA 
BRANCH  14  17
HETATM   17  C   UNL     2     -10.472   8.295  68.838  1.00  0.00    -0.191 C  
HETATM   18  C   UNL     2     -10.342   6.766  68.714  1.00  0.00    -0.196 C  
HETATM   19  H   UNL     2      -9.211   8.634  67.363  1.00  0.00     0.000 HD 
HETATM   20  O   UNL     2      -9.281   8.910  68.270  1.00  0.00    -0.140 OA 
HETATM   21  O   UNL     2      -9.156   6.280  68.911  1.00  0.00    -0.125 OA 
HETATM   22  O   UNL     2     -11.196   6.094  68.142  1.00  0.00    -0.314 OA 
ENDBRANCH  14  17
ENDBRANCH  11  14
ENDBRANCH   2  11
BRANCH   3  23
HETATM   23  C   UNL     3     -12.371  13.952  64.586  1.00  0.00    -0.388 C  
HETATM   24  O   UNL     3     -13.291  13.135  65.321  1.00  0.00    -0.557 OA 
HETATM   25  H   UNL     3     -13.546  13.615  66.101  1.00  0.00     0.000 HD 
BRANCH  23  26
HETATM   26  C   UNL     3     -11.264  14.421  65.557  1.00  0.00    -0.330 C  
HETATM   27  O   UNL     3     -11.831  14.728  66.841  1.00  0.00    -0.354 OA 
HETATM   28  H   UNL     3     -11.151  15.017  67.438  1.00  0.00     0.000 HD 
BRANCH  26  29
HETATM   29  C   UNL     3     -10.619  15.698  64.970  1.00  0.00    -0.396 C  
HETATM   30  C   UNL     3     -10.359  16.866  65.954  1.00  0.00    -0.315 C  
HETATM   31  O   UNL     3     -11.440  16.220  63.869  1.00  0.00    -1.484 OA 
HETATM   32  O   UNL     3      -9.823  16.637  67.052  1.00  0.00    -0.246 OA 
HETATM   33  O   UNL     3     -10.754  17.999  65.437  1.00  0.00    -0.632 OA 
HETATM   34  H   UNL     3     -11.044  17.005  63.508  1.00  0.00     0.000 HD 
ENDBRANCH  26  29
ENDBRANCH  23  26
ENDBRANCH   3  23
BRANCH   3  35
HETATM   35  C   UNL     3     -10.701  12.326  63.465  1.00  0.00    -0.451 C  
HETATM   36  O   UNL     3     -10.993  11.044  62.901  1.00  0.00    -0.793 OA 
HETATM   37  H   UNL     3     -10.210  10.511  62.982  1.00  0.00     0.000 HD 
ENDBRANCH   3  35
TORSDOF 8
ENDMDL
MODEL       13
REMARK 921   NORMALIZED FREE ENERGY PREDICTED BY IDOCK:   -6.24 KCAL/MOL
REMARK 922        TOTAL FREE ENERGY PREDICTED BY IDOCK:  -11.26 KCAL/MOL
REMARK 923 INTER-LIGAND FREE ENERGY PREDICTED BY IDOCK:   -9.21 KCAL/MOL
REMARK 924 INTRA-LIGAND FREE ENERGY PREDICTED BY IDOCK:   -2.05 KCAL/MOL
REMARK 927      BINDING AFFINITY PREDICTED BY RF-SCORE:    0.00 PKD
ROOT
HETATM    1 FE   UNL     1     -11.624  16.248  64.640  1.00  0.00    -0.366 Fe 
HETATM    2  C   UNL     2      -7.100  19.025  68.884  1.00  0.00    -0.328 C  
HETATM    3  C   UNL     3      -9.956  10.349  66.352  1.00  0.00    -0.221 C  
HETATM    4  H   UNL     3     -10.744  10.079  68.114  1.00  0.00     0.000 HD 
HETATM    5  H   UNL     2      -9.041  19.060  69.253  1.00  0.00     0.000 HD 
HETATM    6  O   UNL     2      -8.358  19.688  69.045  1.00  0.00    -0.302 OA 
HETATM    7  O   UNL     3      -9.858  10.170  67.783  1.00  0.00    -0.157 OA 
ENDROOT
BRANCH   2   8
HETATM    8  C   UNL     2      -6.001  20.036  68.549  1.00  0.00    -0.253 C  
HETATM    9  H   UNL     2      -5.837  21.769  67.600  1.00  0.00     0.000 HD 
HETATM   10  O   UNL     2      -6.519  21.142  67.808  1.00  0.00    -0.346 OA 
ENDBRANCH   2   8
BRANCH   2  11
HETATM   11  C   UNL     2      -7.227  17.920  67.816  1.00  0.00    -0.209 C  
HETATM   12  H   UNL     2      -6.313  16.220  67.351  1.00  0.00     0.000 HD 
HETATM   13  O   UNL     2      -6.235  16.901  68.008  1.00  0.00    -0.130 OA 
BRANCH  11  14
HETATM   14  C   UNL     2      -8.631  17.293  67.871  1.00  0.00    -0.223 C  
HETATM   15  H   UNL     2      -9.373  15.480  68.127  1.00  0.00     0.000 HD 
HETATM   16  O   UNL     2      -8.506  15.867  68.093  1.00  0.00    -0.163 OA 
BRANCH  14  17
HETATM   17  C   UNL     2      -9.469  17.494  66.613  1.00  0.00    -0.275 C  
HETATM   18  C   UNL     2     -10.036  18.923  66.525  1.00  0.00    -0.384 C  
HETATM   19  H   UNL     2     -11.102  16.680  65.872  1.00  0.00     0.000 HD 
HETATM   20  O   UNL     2     -10.580  16.555  66.655  1.00  0.00    -0.291 OA 
HETATM   21  O   UNL     2     -11.104  19.152  67.223  1.00  0.00    -0.417 OA 
HETATM   22  O   UNL     2      -9.720  19.684  65.614  1.00  0.00    -0.357 OA 
ENDBRANCH  14  17
ENDBRANCH  11  14
ENDBRANCH   2  11
BRANCH   3  23
HETATM   23  C   UNL     3     -10.870  11.549  66.132  1.00  0.00    -0.278 C  
HETATM   24  O   UNL     3     -11.813  11.588  67.211  1.00  0.00    -0.609 OA 
HETATM   25  H   UNL     3     -12.383  12.336  67.073  1.00  0.00     0.000 HD 
BRANCH  23  26
HETATM   26  C   UNL     3     -10.228  12.950  66.005  1.00  0.00    -0.284 C  
HETATM   27  O   UNL     3     -10.667  13.793  67.082  1.00  0.00    -0.278 OA 
HETATM   28  H   UNL     3     -10.273  14.654  67.004  1.00  0.00     0.000 HD 
BRANCH  26  29
HETATM   29  C   UNL     3     -10.683  13.566  64.662  1.00  0.00    -0.416 C  
HETATM   30  C   UNL     3     -12.206  13.580  64.378  1.00  0.00    -0.390 C  
HETATM   31  O   UNL     3     -10.028  12.878  63.541  1.00  0.00    -0.681 OA 
HETATM   32  O   UNL     3     -12.993  13.963  65.261  1.00  0.00    -0.747 OA 
HETATM   33  O   UNL     3     -12.450  13.173  63.161  1.00  0.00    -0.686 OA 
HETATM   34  H   UNL     3     -10.308  13.256  62.715  1.00  0.00     0.000 HD 
ENDBRANCH  26  29
ENDBRANCH  23  26
ENDBRANCH   3  23
BRANCH   3  35
HETATM   35  C   UNL     3      -8.530  10.494  65.821  1.00  0.00    -0.175 C  
HETATM   36  O   UNL     3      -8.617  10.702  64.408  1.00  0.00    -0.243 OA 
HETATM   37  H   UNL     3      -7.730  10.793  64.077  1.00  0.00     0.000 HD 
ENDBRANCH   3  35
TORSDOF 8
ENDMDL
MODEL       14
REMARK 921   NORMALIZED FREE ENERGY PREDICTED BY IDOCK:   -6.22 KCAL/MOL
REMARK 922        TOTAL FREE ENERGY PREDICTED BY IDOCK:  -11.22 KCAL/MOL
REMARK 923 INTER-LIGAND FREE ENERGY PREDICTED BY IDOCK:   -9.07 KCAL/MOL
REMARK 924 INTRA-LIGAND FREE ENERGY PREDICTED BY IDOCK:   -2.15 KCAL/MOL
REMARK 927      BINDING AFFINITY PREDICTED BY RF-SCORE:    0.00 PKD
ROOT
HETATM    1 FE   UNL     1     -10.485   7.983  65.596  1.00  0.00    -0.429 Fe 
HETATM    2  C   UNL     2     -11.796  14.650  65.474  1.00  0.00    -0.292 C  
HETATM    3  C   UNL     3     -11.461   7.670  71.877  1.00  0.00    -0.272 C  
HETATM    4  H   UNL     3     -13.394   7.768  72.106  1.00  0.00     0.000 HD 
HETATM    5  H   UNL     2     -13.071  13.320  64.763  1.00  0.00     0.000 HD 
HETATM    6  O   UNL     2     -12.522  14.014  64.418  1.00  0.00    -0.623 OA 
HETATM    7  O   UNL     3     -12.665   8.343  72.308  1.00  0.00    -0.343 OA 
ENDROOT
BRANCH   2   8
HETATM    8  C   UNL     2     -10.910  15.768  64.919  1.00  0.00    -0.413 C  
HETATM    9  H   UNL     2     -11.044  17.219  63.574  1.00  0.00     0.000 HD 
HETATM   10  O   UNL     2     -11.594  16.525  63.919  1.00  0.00    -1.175 OA 
ENDBRANCH   2   8
BRANCH   2  11
HETATM   11  C   UNL     2     -10.990  13.598  66.260  1.00  0.00    -0.299 C  
HETATM   12  H   UNL     2      -9.101  13.294  66.789  1.00  0.00     0.000 HD 
HETATM   13  O   UNL     2      -9.597  13.942  66.305  1.00  0.00    -0.283 OA 
BRANCH  11  14
HETATM   14  C   UNL     2     -11.539  13.474  67.692  1.00  0.00    -0.339 C  
HETATM   15  H   UNL     2     -10.898  13.917  69.508  1.00  0.00     0.000 HD 
HETATM   16  O   UNL     2     -10.559  13.994  68.623  1.00  0.00    -0.246 OA 
BRANCH  14  17
HETATM   17  C   UNL     2     -11.879  12.051  68.124  1.00  0.00    -0.286 C  
HETATM   18  C   UNL     2     -10.957  11.560  69.255  1.00  0.00    -0.208 C  
HETATM   19  H   UNL     2     -11.921  10.291  67.242  1.00  0.00     0.000 HD 
HETATM   20  O   UNL     2     -11.709  11.177  66.973  1.00  0.00    -0.460 OA 
HETATM   21  O   UNL     2      -9.792  11.126  68.887  1.00  0.00    -0.200 OA 
HETATM   22  O   UNL     2     -11.398  11.276  70.365  1.00  0.00    -0.219 OA 
ENDBRANCH  14  17
ENDBRANCH  11  14
ENDBRANCH   2  11
BRANCH   3  23
HETATM   23  C   UNL     3     -11.657   7.344  70.401  1.00  0.00    -0.183 C  
HETATM   24  O   UNL     3     -11.047   8.390  69.635  1.00  0.00    -0.420 OA 
HETATM   25  H   UNL     3     -11.170   8.187  68.715  1.00  0.00     0.000 HD 
BRANCH  23  26
HETATM   26  C   UNL     3     -11.131   5.991  69.869  1.00  0.00    -0.399 C  
HETATM   27  O   UNL     3     -10.152   5.453  70.773  1.00  0.00    -0.193 OA 
HETATM   28  H   UNL     3      -9.828   4.621  70.447  1.00  0.00     0.000 HD 
BRANCH  26  29
HETATM   29  C   UNL     3     -10.468   6.240  68.495  1.00  0.00    -0.229 C  
HETATM   30  C   UNL     3      -9.250   7.197  68.469  1.00  0.00    -0.134 C  
HETATM   31  O   UNL     3     -11.459   6.756  67.540  1.00  0.00    -0.690 OA 
HETATM   32  O   UNL     3      -8.346   7.065  69.311  1.00  0.00    -0.127 OA 
HETATM   33  O   UNL     3      -9.356   8.049  67.484  1.00  0.00    -0.143 OA 
HETATM   34  H   UNL     3     -11.052   6.909  66.696  1.00  0.00     0.000 HD 
ENDBRANCH  26  29
ENDBRANCH  23  26
ENDBRANCH   3  23
BRANCH   3  35
HETATM   35  C   UNL     3     -10.289   8.595  72.203  1.00  0.00    -0.333 C  
HETATM   36  O   UNL     3      -9.090   7.821  72.108  1.00  0.00    -0.130 OA 
HETATM   37  H   UNL     3      -8.361   8.396  72.310  1.00  0.00     0.000 HD 
ENDBRANCH   3  35
TORSDOF 8
ENDMDL
MODEL       15
REMARK 921   NORMALIZED FREE ENERGY PREDICTED BY IDOCK:   -6.20 KCAL/MOL
REMARK 922        TOTAL FREE ENERGY PREDICTED BY IDOCK:  -11.19 KCAL/MOL
REMARK 923 INTER-LIGAND FREE ENERGY PREDICTED BY IDOCK:  -10.02 KCAL/MOL
REMARK 924 INTRA-LIGAND FREE ENERGY PREDICTED BY IDOCK:   -1.17 KCAL/MOL
REMARK 927      BINDING AFFINITY PREDICTED BY RF-SCORE:    0.00 PKD
ROOT
HETATM    1 FE   UNL     1      -9.672  13.810  69.609  1.00  0.00    -0.394 Fe 
HETATM    2  C   UNL     2     -11.492   7.633  71.784  1.00  0.00    -0.264 C  
HETATM    3  C   UNL     3     -11.020  12.334  63.567  1.00  0.00    -0.459 C  
HETATM    4  H   UNL     3     -12.965  12.354  63.451  1.00  0.00     0.000 HD 
HETATM    5  H   UNL     2     -12.611   9.229  72.109  1.00  0.00     0.000 HD 
HETATM    6  O   UNL     2     -12.096   8.620  72.626  1.00  0.00    -0.351 OA 
HETATM    7  O   UNL     3     -12.298  11.679  63.404  1.00  0.00    -0.469 OA 
ENDROOT
BRANCH   2   8
HETATM    8  C   UNL     2     -10.663   6.652  72.617  1.00  0.00    -0.235 C  
HETATM    9  H   UNL     2     -10.120   6.426  74.510  1.00  0.00     0.000 HD 
HETATM   10  O   UNL     2     -10.634   7.035  73.993  1.00  0.00    -0.341 OA 
ENDBRANCH   2   8
BRANCH   2  11
HETATM   11  C   UNL     2     -10.658   8.324  70.688  1.00  0.00    -0.215 C  
HETATM   12  H   UNL     2      -8.794   8.966  70.451  1.00  0.00     0.000 HD 
HETATM   13  O   UNL     2      -9.308   8.541  71.126  1.00  0.00    -0.165 OA 
BRANCH  11  14
HETATM   14  C   UNL     2     -10.655   7.469  69.409  1.00  0.00    -0.223 C  
HETATM   15  H   UNL     2     -11.657   5.903  68.739  1.00  0.00     0.000 HD 
HETATM   16  O   UNL     2     -11.659   6.432  69.529  1.00  0.00    -0.404 OA 
BRANCH  14  17
HETATM   17  C   UNL     2      -9.325   6.792  69.097  1.00  0.00    -0.135 C  
HETATM   18  C   UNL     2      -8.745   7.263  67.750  1.00  0.00    -0.126 C  
HETATM   19  H   UNL     2      -8.725   4.935  68.833  1.00  0.00     0.000 HD 
HETATM   20  O   UNL     2      -9.554   5.357  69.027  1.00  0.00    -0.125 OA 
HETATM   21  O   UNL     2      -9.236   6.695  66.693  1.00  0.00    -0.148 OA 
HETATM   22  O   UNL     2      -7.677   7.865  67.686  1.00  0.00    -0.112 OA 
ENDBRANCH  14  17
ENDBRANCH  11  14
ENDBRANCH   2  11
BRANCH   3  23
HETATM   23  C   UNL     3     -11.095  13.100  64.882  1.00  0.00    -0.314 C  
HETATM   24  O   UNL     3      -9.754  13.333  65.333  1.00  0.00    -0.490 OA 
HETATM   25  H   UNL     3      -9.801  13.810  66.153  1.00  0.00     0.000 HD 
BRANCH  23  26
HETATM   26  C   UNL     3     -11.849  14.449  64.907  1.00  0.00    -0.417 C  
HETATM   27  O   UNL     3     -12.586  14.625  63.685  1.00  0.00    -1.017 OA 
HETATM   28  H   UNL     3     -13.050  15.454  63.700  1.00  0.00     0.000 HD 
BRANCH  26  29
HETATM   29  C   UNL     3     -10.805  15.581  65.036  1.00  0.00    -0.450 C  
HETATM   30  C   UNL     3     -10.527  16.117  66.463  1.00  0.00    -0.297 C  
HETATM   31  O   UNL     3     -11.192  16.726  64.199  1.00  0.00    -1.415 OA 
HETATM   32  O   UNL     3     -10.340  15.316  67.395  1.00  0.00    -0.249 OA 
HETATM   33  O   UNL     3     -10.512  17.423  66.468  1.00  0.00    -0.321 OA 
HETATM   34  H   UNL     3     -10.549  17.422  64.279  1.00  0.00     0.000 HD 
ENDBRANCH  26  29
ENDBRANCH  23  26
ENDBRANCH   3  23
BRANCH   3  35
HETATM   35  C   UNL     3      -9.948  11.247  63.492  1.00  0.00    -0.376 C  
HETATM   36  O   UNL     3      -8.764  11.846  62.957  1.00  0.00    -0.512 OA 
HETATM   37  H   UNL     3      -8.097  11.171  62.911  1.00  0.00     0.000 HD 
ENDBRANCH   3  35
TORSDOF 8
ENDMDL
MODEL       16
REMARK 921   NORMALIZED FREE ENERGY PREDICTED BY IDOCK:   -6.19 KCAL/MOL
REMARK 922        TOTAL FREE ENERGY PREDICTED BY IDOCK:  -11.18 KCAL/MOL
REMARK 923 INTER-LIGAND FREE ENERGY PREDICTED BY IDOCK:   -8.60 KCAL/MOL
REMARK 924 INTRA-LIGAND FREE ENERGY PREDICTED BY IDOCK:   -2.59 KCAL/MOL
REMARK 927      BINDING AFFINITY PREDICTED BY RF-SCORE:    0.00 PKD
ROOT
HETATM    1 FE   UNL     1     -12.699  14.685  67.368  1.00  0.00    -0.565 Fe 
HETATM    2  C   UNL     2      -7.523  19.081  67.635  1.00  0.00    -0.229 C  
HETATM    3  C   UNL     3      -9.226  10.434  64.146  1.00  0.00    -0.259 C  
HETATM    4  H   UNL     3      -8.018   9.651  65.460  1.00  0.00     0.000 HD 
HETATM    5  H   UNL     2      -8.112  18.060  69.220  1.00  0.00     0.000 HD 
HETATM    6  O   UNL     2      -8.105  18.967  68.937  1.00  0.00    -0.321 OA 
HETATM    7  O   UNL     3      -7.911  10.220  64.706  1.00  0.00    -0.149 OA 
ENDROOT
BRANCH   2   8
HETATM    8  C   UNL     2      -7.512  20.543  67.178  1.00  0.00    -0.328 C  
HETATM    9  H   UNL     2      -8.831  21.967  66.778  1.00  0.00     0.000 HD 
HETATM   10  O   UNL     2      -8.838  21.060  67.061  1.00  0.00    -0.094 OA 
ENDBRANCH   2   8
BRANCH   2  11
HETATM   11  C   UNL     2      -8.272  18.164  66.648  1.00  0.00    -0.262 C  
HETATM   12  H   UNL     2      -7.913  17.281  64.906  1.00  0.00     0.000 HD 
HETATM   13  O   UNL     2      -7.451  17.846  65.514  1.00  0.00    -0.524 OA 
BRANCH  11  14
HETATM   14  C   UNL     2      -8.701  16.867  67.356  1.00  0.00    -0.203 C  
HETATM   15  H   UNL     2      -8.574  14.930  66.984  1.00  0.00     0.000 HD 
HETATM   16  O   UNL     2      -8.309  15.731  66.546  1.00  0.00    -0.272 OA 
BRANCH  14  17
HETATM   17  C   UNL     2     -10.198  16.750  67.622  1.00  0.00    -0.289 C  
HETATM   18  C   UNL     2     -10.493  15.898  68.870  1.00  0.00    -0.233 C  
HETATM   19  H   UNL     2     -11.746  16.040  66.634  1.00  0.00     0.000 HD 
HETATM   20  O   UNL     2     -10.814  16.113  66.468  1.00  0.00    -0.262 OA 
HETATM   21  O   UNL     2     -10.465  14.613  68.698  1.00  0.00    -0.230 OA 
HETATM   22  O   UNL     2     -11.045  16.376  69.858  1.00  0.00    -0.349 OA 
ENDBRANCH  14  17
ENDBRANCH  11  14
ENDBRANCH   2  11
BRANCH   3  23
HETATM   23  C   UNL     3     -10.088  10.986  65.276  1.00  0.00    -0.275 C  
HETATM   24  O   UNL     3      -9.397  10.756  66.510  1.00  0.00    -0.163 OA 
HETATM   25  H   UNL     3      -9.935  11.100  67.214  1.00  0.00     0.000 HD 
BRANCH  23  26
HETATM   26  C   UNL     3     -10.500  12.475  65.227  1.00  0.00    -0.287 C  
HETATM   27  O   UNL     3      -9.872  13.197  66.300  1.00  0.00    -0.275 OA 
HETATM   28  H   UNL     3     -10.125  14.112  66.270  1.00  0.00     0.000 HD 
BRANCH  26  29
HETATM   29  C   UNL     3     -12.035  12.555  65.394  1.00  0.00    -0.437 C  
HETATM   30  C   UNL     3     -12.765  13.685  64.626  1.00  0.00    -0.149 C  
HETATM   31  O   UNL     3     -12.384  12.686  66.816  1.00  0.00    -0.450 OA 
HETATM   32  O   UNL     3     -12.500  13.886  63.429  1.00  0.00    -0.833 OA 
HETATM   33  O   UNL     3     -13.623  14.289  65.404  1.00  0.00    -0.516 OA 
HETATM   34  H   UNL     3     -13.327  12.735  66.919  1.00  0.00     0.000 HD 
ENDBRANCH  26  29
ENDBRANCH  23  26
ENDBRANCH   3  23
BRANCH   3  35
HETATM   35  C   UNL     3      -9.053  11.350  62.935  1.00  0.00    -0.222 C  
HETATM   36  O   UNL     3      -7.699  11.224  62.490  1.00  0.00    -0.425 OA 
HETATM   37  H   UNL     3      -7.592  11.793  61.736  1.00  0.00     0.000 HD 
ENDBRANCH   3  35
TORSDOF 8
ENDMDL
MODEL       17
REMARK 921   NORMALIZED FREE ENERGY PREDICTED BY IDOCK:   -6.18 KCAL/MOL
REMARK 922        TOTAL FREE ENERGY PREDICTED BY IDOCK:  -11.17 KCAL/MOL
REMARK 923 INTER-LIGAND FREE ENERGY PREDICTED BY IDOCK:   -8.89 KCAL/MOL
REMARK 924 INTRA-LIGAND FREE ENERGY PREDICTED BY IDOCK:   -2.28 KCAL/MOL
REMARK 927      BINDING AFFINITY PREDICTED BY RF-SCORE:    0.00 PKD
ROOT
HETATM    1 FE   UNL     1     -11.441  16.550  62.958  1.00  0.00    -0.483 Fe 
HETATM    2  C   UNL     2      -7.531  18.997  67.949  1.00  0.00    -0.251 C  
HETATM    3  C   UNL     3     -10.117  10.533  64.555  1.00  0.00    -0.332 C  
HETATM    4  H   UNL     3     -11.152  10.187  66.170  1.00  0.00     0.000 HD 
HETATM    5  H   UNL     2      -9.503  19.055  68.041  1.00  0.00     0.000 HD 
HETATM    6  O   UNL     2      -8.789  19.677  67.968  1.00  0.00    -0.310 OA 
HETATM    7  O   UNL     3     -10.227  10.275  65.973  1.00  0.00    -0.253 OA 
ENDROOT
BRANCH   2   8
HETATM    8  C   UNL     2      -6.380  20.000  67.830  1.00  0.00    -0.234 C  
HETATM    9  H   UNL     2      -6.137  21.967  67.860  1.00  0.00     0.000 HD 
HETATM   10  O   UNL     2      -6.851  21.345  67.933  1.00  0.00    -0.311 OA 
ENDBRANCH   2   8
BRANCH   2  11
HETATM   11  C   UNL     2      -7.519  17.954  66.814  1.00  0.00    -0.208 C  
HETATM   12  H   UNL     2      -7.039  17.888  64.889  1.00  0.00     0.000 HD 
HETATM   13  O   UNL     2      -7.046  18.531  65.588  1.00  0.00    -0.446 OA 
BRANCH  11  14
HETATM   14  C   UNL     2      -6.628  16.762  67.203  1.00  0.00    -0.192 C  
HETATM   15  H   UNL     2      -5.038  15.864  66.448  1.00  0.00     0.000 HD 
HETATM   16  O   UNL     2      -5.588  16.601  66.208  1.00  0.00    -0.241 OA 
BRANCH  14  17
HETATM   17  C   UNL     2      -7.362  15.430  67.325  1.00  0.00    -0.204 C  
HETATM   18  C   UNL     2      -8.238  15.373  68.590  1.00  0.00    -0.158 C  
HETATM   19  H   UNL     2      -6.823  13.542  67.477  1.00  0.00     0.000 HD 
HETATM   20  O   UNL     2      -6.367  14.371  67.401  1.00  0.00    -0.323 OA 
HETATM   21  O   UNL     2      -7.620  15.087  69.694  1.00  0.00    -0.198 OA 
HETATM   22  O   UNL     2      -9.459  15.263  68.521  1.00  0.00    -0.189 OA 
ENDBRANCH  14  17
ENDBRANCH  11  14
ENDBRANCH   2  11
BRANCH   3  23
HETATM   23  C   UNL     3     -10.974  11.763  64.276  1.00  0.00    -0.359 C  
HETATM   24  O   UNL     3     -11.458  11.665  62.930  1.00  0.00    -0.734 OA 
HETATM   25  H   UNL     3     -11.992  12.432  62.756  1.00  0.00     0.000 HD 
BRANCH  23  26
HETATM   26  C   UNL     3     -12.179  12.047  65.200  1.00  0.00     0.001 C  
HETATM   27  O   UNL     3     -13.398  12.046  64.438  1.00  0.00    -0.657 OA 
HETATM   28  H   UNL     3     -14.139  12.220  65.006  1.00  0.00     0.000 HD 
BRANCH  26  29
HETATM   29  C   UNL     3     -11.981  13.442  65.835  1.00  0.00    -0.409 C  
HETATM   30  C   UNL     3     -11.901  14.647  64.864  1.00  0.00    -0.403 C  
HETATM   31  O   UNL     3     -10.765  13.456  66.660  1.00  0.00    -0.279 OA 
HETATM   32  O   UNL     3     -12.737  14.757  63.951  1.00  0.00    -0.794 OA 
HETATM   33  O   UNL     3     -10.907  15.431  65.185  1.00  0.00    -0.378 OA 
HETATM   34  H   UNL     3     -10.643  14.313  67.050  1.00  0.00     0.000 HD 
ENDBRANCH  26  29
ENDBRANCH  23  26
ENDBRANCH   3  23
BRANCH   3  35
HETATM   35  C   UNL     3      -8.628  10.676  64.240  1.00  0.00    -0.101 C  
HETATM   36  O   UNL     3      -8.516  11.389  63.004  1.00  0.00    -0.447 OA 
HETATM   37  H   UNL     3      -7.591  11.477  62.808  1.00  0.00     0.000 HD 
ENDBRANCH   3  35
TORSDOF 8
ENDMDL
MODEL       18
REMARK 921   NORMALIZED FREE ENERGY PREDICTED BY IDOCK:   -6.18 KCAL/MOL
REMARK 922        TOTAL FREE ENERGY PREDICTED BY IDOCK:  -11.16 KCAL/MOL
REMARK 923 INTER-LIGAND FREE ENERGY PREDICTED BY IDOCK:   -8.75 KCAL/MOL
REMARK 924 INTRA-LIGAND FREE ENERGY PREDICTED BY IDOCK:   -2.41 KCAL/MOL
REMARK 927      BINDING AFFINITY PREDICTED BY RF-SCORE:    0.00 PKD
ROOT
HETATM    1 FE   UNL     1     -10.280   7.845  65.727  1.00  0.00    -0.444 Fe 
HETATM    2  C   UNL     2     -12.029  14.409  65.510  1.00  0.00    -0.358 C  
HETATM    3  C   UNL     3     -10.692   7.705  72.076  1.00  0.00    -0.227 C  
HETATM    4  H   UNL     3     -12.601   7.691  72.470  1.00  0.00     0.000 HD 
HETATM    5  H   UNL     2     -13.270  12.976  64.955  1.00  0.00     0.000 HD 
HETATM    6  O   UNL     2     -12.799  13.690  64.542  1.00  0.00    -0.645 OA 
HETATM    7  O   UNL     3     -11.896   8.318  72.590  1.00  0.00    -0.401 OA 
ENDROOT
BRANCH   2   8
HETATM    8  C   UNL     2     -11.268  15.559  64.844  1.00  0.00    -0.389 C  
HETATM    9  H   UNL     2     -11.617  16.959  63.485  1.00  0.00     0.000 HD 
HETATM   10  O   UNL     2     -12.089  16.245  63.898  1.00  0.00    -0.986 OA 
ENDBRANCH   2   8
BRANCH   2  11
HETATM   11  C   UNL     2     -11.091  13.438  66.255  1.00  0.00    -0.293 C  
HETATM   12  H   UNL     2     -10.518  13.099  68.125  1.00  0.00     0.000 HD 
HETATM   13  O   UNL     2     -11.096  13.697  67.666  1.00  0.00    -0.261 OA 
BRANCH  11  14
HETATM   14  C   UNL     2     -11.522  11.985  65.994  1.00  0.00    -0.338 C  
HETATM   15  H   UNL     2     -12.148  10.464  67.090  1.00  0.00     0.000 HD 
HETATM   16  O   UNL     2     -11.882  11.362  67.251  1.00  0.00    -0.594 OA 
BRANCH  14  17
HETATM   17  C   UNL     2     -10.459  11.113  65.333  1.00  0.00    -0.259 C  
HETATM   18  C   UNL     2      -9.304  10.787  66.299  1.00  0.00    -0.180 C  
HETATM   19  H   UNL     2      -9.258  11.299  63.783  1.00  0.00     0.000 HD 
HETATM   20  O   UNL     2      -9.920  11.842  64.195  1.00  0.00    -0.275 OA 
HETATM   21  O   UNL     2      -8.404  11.710  66.436  1.00  0.00    -0.162 OA 
HETATM   22  O   UNL     2      -9.063   9.634  66.644  1.00  0.00    -0.143 OA 
ENDBRANCH  14  17
ENDBRANCH  11  14
ENDBRANCH   2  11
BRANCH   3  23
HETATM   23  C   UNL     3     -10.992   7.313  70.634  1.00  0.00    -0.256 C  
HETATM   24  O   UNL     3     -12.396   7.495  70.411  1.00  0.00    -0.511 OA 
HETATM   25  H   UNL     3     -12.583   7.250  69.512  1.00  0.00     0.000 HD 
BRANCH  23  26
HETATM   26  C   UNL     3     -10.229   8.037  69.501  1.00  0.00    -0.209 C  
HETATM   27  O   UNL     3     -11.155   8.729  68.646  1.00  0.00    -0.439 OA 
HETATM   28  H   UNL     3     -10.686   9.174  67.950  1.00  0.00     0.000 HD 
BRANCH  26  29
HETATM   29  C   UNL     3      -9.476   6.971  68.672  1.00  0.00    -0.135 C  
HETATM   30  C   UNL     3     -10.342   5.975  67.861  1.00  0.00    -0.206 C  
HETATM   31  O   UNL     3      -8.592   6.183  69.543  1.00  0.00    -0.125 OA 
HETATM   32  O   UNL     3     -11.284   6.400  67.171  1.00  0.00    -0.370 OA 
HETATM   33  O   UNL     3      -9.909   4.753  68.022  1.00  0.00    -0.154 OA 
HETATM   34  H   UNL     3      -8.129   5.528  69.034  1.00  0.00     0.000 HD 
ENDBRANCH  26  29
ENDBRANCH  23  26
ENDBRANCH   3  23
BRANCH   3  35
HETATM   35  C   UNL     3      -9.560   8.714  72.268  1.00  0.00    -0.278 C  
HETATM   36  O   UNL     3      -8.325   8.017  72.072  1.00  0.00    -0.116 OA 
HETATM   37  H   UNL     3      -7.621   8.644  72.191  1.00  0.00     0.000 HD 
ENDBRANCH   3  35
TORSDOF 8
ENDMDL
MODEL       19
REMARK 921   NORMALIZED FREE ENERGY PREDICTED BY IDOCK:   -6.14 KCAL/MOL
REMARK 922        TOTAL FREE ENERGY PREDICTED BY IDOCK:  -11.10 KCAL/MOL
REMARK 923 INTER-LIGAND FREE ENERGY PREDICTED BY IDOCK:   -8.14 KCAL/MOL
REMARK 924 INTRA-LIGAND FREE ENERGY PREDICTED BY IDOCK:   -2.97 KCAL/MOL
REMARK 927      BINDING AFFINITY PREDICTED BY RF-SCORE:    0.00 PKD
ROOT
HETATM    1 FE   UNL     1     -10.211  13.659  63.399  1.00  0.00    -0.363 Fe 
HETATM    2  C   UNL     2     -10.189  19.390  67.052  1.00  0.00    -0.408 C  
HETATM    3  C   UNL     3     -10.690  10.057  68.624  1.00  0.00    -0.226 C  
HETATM    4  H   UNL     3     -12.538  10.241  69.212  1.00  0.00     0.000 HD 
HETATM    5  H   UNL     2     -11.757  18.834  65.987  1.00  0.00     0.000 HD 
HETATM    6  O   UNL     2     -11.113  19.532  65.968  1.00  0.00    -0.261 OA 
HETATM    7  O   UNL     3     -11.696  10.518  69.553  1.00  0.00    -0.262 OA 
ENDROOT
BRANCH   2   8
HETATM    8  C   UNL     2      -9.151  20.515  67.022  1.00  0.00    -0.286 C  
HETATM    9  H   UNL     2      -7.441  20.913  66.102  1.00  0.00     0.000 HD 
HETATM   10  O   UNL     2      -8.085  20.214  66.121  1.00  0.00    -0.292 OA 
ENDBRANCH   2   8
BRANCH   2  11
HETATM   11  C   UNL     2      -9.542  17.993  67.004  1.00  0.00    -0.287 C  
HETATM   12  H   UNL     2      -8.423  16.855  68.185  1.00  0.00     0.000 HD 
HETATM   13  O   UNL     2      -8.822  17.716  68.214  1.00  0.00    -0.260 OA 
BRANCH  11  14
HETATM   14  C   UNL     2     -10.622  16.919  66.788  1.00  0.00    -0.201 C  
HETATM   15  H   UNL     2     -11.391  15.436  67.845  1.00  0.00     0.000 HD 
HETATM   16  O   UNL     2     -10.724  16.100  67.979  1.00  0.00    -0.299 OA 
BRANCH  14  17
HETATM   17  C   UNL     2     -10.369  15.988  65.606  1.00  0.00    -0.392 C  
HETATM   18  C   UNL     2     -11.633  15.199  65.218  1.00  0.00    -0.206 C  
HETATM   19  H   UNL     2      -9.173  14.462  65.255  1.00  0.00     0.000 HD 
HETATM   20  O   UNL     2      -9.331  15.042  65.990  1.00  0.00    -0.304 OA 
HETATM   21  O   UNL     2     -11.889  14.150  65.936  1.00  0.00    -0.357 OA 
HETATM   22  O   UNL     2     -12.164  15.338  64.119  1.00  0.00    -0.606 OA 
ENDBRANCH  14  17
ENDBRANCH  11  14
ENDBRANCH   2  11
BRANCH   3  23
HETATM   23  C   UNL     3     -11.071  10.624  67.261  1.00  0.00    -0.243 C  
HETATM   24  O   UNL     3     -11.830  11.820  67.479  1.00  0.00    -0.577 OA 
HETATM   25  H   UNL     3     -12.068  12.173  66.630  1.00  0.00     0.000 HD 
BRANCH  23  26
HETATM   26  C   UNL     3      -9.942  10.948  66.257  1.00  0.00    -0.227 C  
HETATM   27  O   UNL     3      -9.559  12.329  66.373  1.00  0.00    -0.228 OA 
HETATM   28  H   UNL     3      -8.865  12.529  65.756  1.00  0.00     0.000 HD 
BRANCH  26  29
HETATM   29  C   UNL     3     -10.480  10.691  64.830  1.00  0.00    -0.212 C  
HETATM   30  C   UNL     3      -9.428  10.537  63.704  1.00  0.00    -0.304 C  
HETATM   31  O   UNL     3     -11.401  11.765  64.434  1.00  0.00    -0.330 OA 
HETATM   32  O   UNL     3      -8.441   9.802  63.879  1.00  0.00    -0.154 OA 
HETATM   33  O   UNL     3      -9.769  11.241  62.657  1.00  0.00    -0.283 OA 
HETATM   34  H   UNL     3     -11.732  11.607  63.558  1.00  0.00     0.000 HD 
ENDBRANCH  26  29
ENDBRANCH  23  26
ENDBRANCH   3  23
BRANCH   3  35
HETATM   35  C   UNL     3      -9.335  10.504  69.173  1.00  0.00    -0.187 C  
HETATM   36  O   UNL     3      -9.324  11.935  69.179  1.00  0.00    -0.381 OA 
HETATM   37  H   UNL     3      -8.482  12.213  69.520  1.00  0.00     0.000 HD 
ENDBRANCH   3  35
TORSDOF 8
ENDMDL
MODEL       20
REMARK 921   NORMALIZED FREE ENERGY PREDICTED BY IDOCK:   -6.10 KCAL/MOL
REMARK 922        TOTAL FREE ENERGY PREDICTED BY IDOCK:  -11.05 KCAL/MOL
REMARK 923 INTER-LIGAND FREE ENERGY PREDICTED BY IDOCK:   -9.04 KCAL/MOL
REMARK 924 INTRA-LIGAND FREE ENERGY PREDICTED BY IDOCK:   -2.02 KCAL/MOL
REMARK 927      BINDING AFFINITY PREDICTED BY RF-SCORE:    0.00 PKD
ROOT
HETATM    1 FE   UNL     1     -11.849   9.419  69.477  1.00  0.00    -0.402 Fe 
HETATM    2  C   UNL     2     -12.200  15.642  72.187  1.00  0.00    -0.439 C  
HETATM    3  C   UNL     3     -11.135  11.764  63.604  1.00  0.00    -0.439 C  
HETATM    4  H   UNL     3      -9.298  12.410  63.524  1.00  0.00     0.000 HD 
HETATM    5  H   UNL     2     -10.606  14.495  72.401  1.00  0.00     0.000 HD 
HETATM    6  O   UNL     2     -11.290  14.849  72.956  1.00  0.00    -0.106 OA 
HETATM    7  O   UNL     3     -10.155  12.822  63.520  1.00  0.00    -0.350 OA 
ENDROOT
BRANCH   2   8
HETATM    8  C   UNL     2     -13.304  16.212  73.081  1.00  0.00    -0.415 C  
HETATM    9  H   UNL     2     -13.554  16.674  74.992  1.00  0.00     0.000 HD 
HETATM   10  O   UNL     2     -12.869  16.320  74.437  1.00  0.00    -0.689 OA 
ENDBRANCH   2   8
BRANCH   2  11
HETATM   11  C   UNL     2     -12.763  14.804  71.022  1.00  0.00    -0.345 C  
HETATM   12  H   UNL     2     -14.544  14.324  70.288  1.00  0.00     0.000 HD 
HETATM   13  O   UNL     2     -14.197  14.840  71.006  1.00  0.00    -0.285 OA 
BRANCH  11  14
HETATM   14  C   UNL     2     -12.217  15.330  69.683  1.00  0.00    -0.271 C  
HETATM   15  H   UNL     2     -11.804  14.560  67.910  1.00  0.00     0.000 HD 
HETATM   16  O   UNL     2     -12.142  14.235  68.737  1.00  0.00    -0.324 OA 
BRANCH  14  17
HETATM   17  C   UNL     2     -10.833  15.967  69.764  1.00  0.00    -0.337 C  
HETATM   18  C   UNL     2     -10.590  16.956  68.609  1.00  0.00    -0.360 C  
HETATM   19  H   UNL     2      -8.980  15.302  69.734  1.00  0.00     0.000 HD 
HETATM   20  O   UNL     2      -9.841  14.905  69.683  1.00  0.00    -0.121 OA 
HETATM   21  O   UNL     2     -10.236  16.429  67.478  1.00  0.00    -0.260 OA 
HETATM   22  O   UNL     2     -10.406  18.152  68.816  1.00  0.00    -0.362 OA 
ENDBRANCH  14  17
ENDBRANCH  11  14
ENDBRANCH   2  11
BRANCH   3  23
HETATM   23  C   UNL     3     -10.793  10.960  64.853  1.00  0.00    -0.080 C  
HETATM   24  O   UNL     3     -10.126   9.761  64.437  1.00  0.00    -0.408 OA 
HETATM   25  H   UNL     3      -9.914   9.260  65.216  1.00  0.00     0.000 HD 
BRANCH  23  26
HETATM   26  C   UNL     3      -9.933  11.631  65.948  1.00  0.00    -0.231 C  
HETATM   27  O   UNL     3      -8.546  11.312  65.751  1.00  0.00    -0.296 OA 
HETATM   28  H   UNL     3      -8.017  11.725  66.424  1.00  0.00     0.000 HD 
BRANCH  26  29
HETATM   29  C   UNL     3     -10.388  11.083  67.320  1.00  0.00    -0.211 C  
HETATM   30  C   UNL     3      -9.282  10.536  68.257  1.00  0.00    -0.152 C  
HETATM   31  O   UNL     3     -11.382  10.016  67.135  1.00  0.00    -0.274 OA 
HETATM   32  O   UNL     3      -8.244  11.196  68.434  1.00  0.00    -0.129 OA 
HETATM   33  O   UNL     3      -9.640   9.389  68.769  1.00  0.00    -0.150 OA 
HETATM   34  H   UNL     3     -11.662   9.679  67.979  1.00  0.00     0.000 HD 
ENDBRANCH  26  29
ENDBRANCH  23  26
ENDBRANCH   3  23
BRANCH   3  35
HETATM   35  C   UNL     3     -12.512  12.427  63.598  1.00  0.00    -0.508 C  
HETATM   36  O   UNL     3     -12.353  13.742  63.057  1.00  0.00    -1.089 OA 
HETATM   37  H   UNL     3     -13.209  14.155  63.052  1.00  0.00     0.000 HD 
ENDBRANCH   3  35
TORSDOF 8
ENDMDL
MODEL       21
REMARK 921   NORMALIZED FREE ENERGY PREDICTED BY IDOCK:   -6.08 KCAL/MOL
REMARK 922        TOTAL FREE ENERGY PREDICTED BY IDOCK:  -11.03 KCAL/MOL
REMARK 923 INTER-LIGAND FREE ENERGY PREDICTED BY IDOCK:   -8.65 KCAL/MOL
REMARK 924 INTRA-LIGAND FREE ENERGY PREDICTED BY IDOCK:   -2.37 KCAL/MOL
REMARK 927      BINDING AFFINITY PREDICTED BY RF-SCORE:    0.00 PKD
ROOT
HETATM    1 FE   UNL     1     -10.819   9.790  65.421  1.00  0.00    -0.196 Fe 
HETATM    2  C   UNL     2      -9.268   5.756  70.667  1.00  0.00    -0.152 C  
HETATM    3  C   UNL     3     -11.219  14.912  69.179  1.00  0.00    -0.279 C  
HETATM    4  H   UNL     3      -9.377  15.387  69.602  1.00  0.00     0.000 HD 
HETATM    5  H   UNL     2      -7.920   6.296  69.326  1.00  0.00     0.000 HD 
HETATM    6  O   UNL     2      -8.358   5.496  69.594  1.00  0.00    -0.099 OA 
HETATM    7  O   UNL     3     -10.110  15.041  70.097  1.00  0.00    -0.099 OA 
ENDROOT
BRANCH   2   8
HETATM    8  C   UNL     2      -9.973   4.467  71.097  1.00  0.00    -0.187 C  
HETATM    9  H   UNL     2     -10.021   2.564  70.545  1.00  0.00     0.000 HD 
HETATM   10  O   UNL     2      -9.584   3.364  70.278  1.00  0.00    -0.178 OA 
ENDBRANCH   2   8
BRANCH   2  11
HETATM   11  C   UNL     2     -10.261   6.858  70.250  1.00  0.00    -0.192 C  
HETATM   12  H   UNL     2     -11.658   7.125  68.865  1.00  0.00     0.000 HD 
HETATM   13  O   UNL     2     -11.046   6.447  69.121  1.00  0.00    -0.322 OA 
BRANCH  11  14
HETATM   14  C   UNL     2     -11.190   7.203  71.427  1.00  0.00    -0.251 C  
HETATM   15  H   UNL     2     -13.141   7.310  71.721  1.00  0.00     0.000 HD 
HETATM   16  O   UNL     2     -12.568   7.097  70.993  1.00  0.00    -0.357 OA 
BRANCH  14  17
HETATM   17  C   UNL     2     -10.994   8.600  72.007  1.00  0.00    -0.362 C  
HETATM   18  C   UNL     2     -11.717   9.673  71.172  1.00  0.00    -0.372 C  
HETATM   19  H   UNL     2      -9.446   9.764  72.367  1.00  0.00     0.000 HD 
HETATM   20  O   UNL     2      -9.568   8.894  72.006  1.00  0.00    -0.305 OA 
HETATM   21  O   UNL     2     -11.097  10.074  70.105  1.00  0.00    -0.265 OA 
HETATM   22  O   UNL     2     -12.630  10.346  71.643  1.00  0.00    -0.395 OA 
ENDBRANCH  14  17
ENDBRANCH  11  14
ENDBRANCH   2  11
BRANCH   3  23
HETATM   23  C   UNL     3     -10.724  14.039  68.030  1.00  0.00    -0.246 C  
HETATM   24  O   UNL     3      -9.935  12.981  68.590  1.00  0.00    -0.354 OA 
HETATM   25  H   UNL     3      -9.627  12.438  67.874  1.00  0.00     0.000 HD 
BRANCH  23  26
HETATM   26  C   UNL     3     -11.770  13.408  67.082  1.00  0.00    -0.379 C  
HETATM   27  O   UNL     3     -12.025  12.047  67.465  1.00  0.00    -0.572 OA 
HETATM   28  H   UNL     3     -12.668  11.659  66.883  1.00  0.00     0.000 HD 
BRANCH  26  29
HETATM   29  C   UNL     3     -11.192  13.431  65.648  1.00  0.00    -0.292 C  
HETATM   30  C   UNL     3     -11.828  12.458  64.623  1.00  0.00    -0.380 C  
HETATM   31  O   UNL     3      -9.748  13.162  65.678  1.00  0.00    -0.436 OA 
HETATM   32  O   UNL     3     -13.066  12.378  64.536  1.00  0.00    -0.823 OA 
HETATM   33  O   UNL     3     -10.902  11.837  63.944  1.00  0.00    -0.334 OA 
HETATM   34  H   UNL     3      -9.393  13.176  64.797  1.00  0.00     0.000 HD 
ENDBRANCH  26  29
ENDBRANCH  23  26
ENDBRANCH   3  23
BRANCH   3  35
HETATM   35  C   UNL     3     -12.398  14.354  69.975  1.00  0.00    -0.336 C  
HETATM   36  O   UNL     3     -12.012  13.070  70.474  1.00  0.00    -0.488 OA 
HETATM   37  H   UNL     3     -12.745  12.724  70.970  1.00  0.00     0.000 HD 
ENDBRANCH   3  35
TORSDOF 8
ENDMDL
MODEL       22
REMARK 921   NORMALIZED FREE ENERGY PREDICTED BY IDOCK:   -6.05 KCAL/MOL
REMARK 922        TOTAL FREE ENERGY PREDICTED BY IDOCK:  -10.97 KCAL/MOL
REMARK 923 INTER-LIGAND FREE ENERGY PREDICTED BY IDOCK:   -9.35 KCAL/MOL
REMARK 924 INTRA-LIGAND FREE ENERGY PREDICTED BY IDOCK:   -1.62 KCAL/MOL
REMARK 927      BINDING AFFINITY PREDICTED BY RF-SCORE:    0.00 PKD
ROOT
HETATM    1 FE   UNL     1     -10.410  14.021  69.701  1.00  0.00    -0.322 Fe 
HETATM    2  C   UNL     2     -12.112   7.772  71.761  1.00  0.00    -0.298 C  
HETATM    3  C   UNL     3     -11.777  12.646  63.639  1.00  0.00    -0.522 C  
HETATM    4  H   UNL     3     -13.723  12.636  63.537  1.00  0.00     0.000 HD 
HETATM    5  H   UNL     2     -13.254   9.341  72.126  1.00  0.00     0.000 HD 
HETATM    6  O   UNL     2     -12.726   8.731  72.627  1.00  0.00    -0.375 OA 
HETATM    7  O   UNL     3     -13.046  11.973  63.472  1.00  0.00    -0.764 OA 
ENDROOT
BRANCH   2   8
HETATM    8  C   UNL     2     -11.260   6.788  72.568  1.00  0.00    -0.268 C  
HETATM    9  H   UNL     2     -11.232   4.844  72.957  1.00  0.00     0.000 HD 
HETATM   10  O   UNL     2     -11.760   5.455  72.456  1.00  0.00    -0.233 OA 
ENDBRANCH   2   8
BRANCH   2  11
HETATM   11  C   UNL     2     -11.297   8.499  70.674  1.00  0.00    -0.241 C  
HETATM   12  H   UNL     2     -10.733  10.357  70.262  1.00  0.00     0.000 HD 
HETATM   13  O   UNL     2     -11.235   9.909  70.931  1.00  0.00    -0.315 OA 
BRANCH  11  14
HETATM   14  C   UNL     2      -9.872   7.922  70.609  1.00  0.00    -0.185 C  
HETATM   15  H   UNL     2      -8.040   8.612  70.883  1.00  0.00     0.000 HD 
HETATM   16  O   UNL     2      -8.920   8.968  70.923  1.00  0.00    -0.205 OA 
BRANCH  14  17
HETATM   17  C   UNL     2      -9.482   7.334  69.257  1.00  0.00    -0.153 C  
HETATM   18  C   UNL     2     -10.538   6.338  68.740  1.00  0.00    -0.262 C  
HETATM   19  H   UNL     2      -7.976   6.263  68.575  1.00  0.00     0.000 HD 
HETATM   20  O   UNL     2      -8.219   6.630  69.417  1.00  0.00    -0.120 OA 
HETATM   21  O   UNL     2     -10.474   5.140  69.233  1.00  0.00    -0.219 OA 
HETATM   22  O   UNL     2     -11.164   6.546  67.705  1.00  0.00    -0.305 OA 
ENDBRANCH  14  17
ENDBRANCH  11  14
ENDBRANCH   2  11
BRANCH   3  23
HETATM   23  C   UNL     3     -11.855  13.384  64.970  1.00  0.00    -0.352 C  
HETATM   24  O   UNL     3     -13.236  13.657  65.242  1.00  0.00    -0.724 OA 
HETATM   25  H   UNL     3     -13.284  14.118  66.071  1.00  0.00     0.000 HD 
BRANCH  23  26
HETATM   26  C   UNL     3     -11.245  12.712  66.222  1.00  0.00    -0.311 C  
HETATM   27  O   UNL     3     -12.277  12.419  67.178  1.00  0.00    -0.492 OA 
HETATM   28  H   UNL     3     -11.902  12.006  67.947  1.00  0.00     0.000 HD 
BRANCH  26  29
HETATM   29  C   UNL     3     -10.235  13.699  66.852  1.00  0.00    -0.261 C  
HETATM   30  C   UNL     3     -10.777  15.095  67.248  1.00  0.00    -0.305 C  
HETATM   31  O   UNL     3      -9.095  13.904  65.948  1.00  0.00    -0.475 OA 
HETATM   32  O   UNL     3     -11.844  15.185  67.879  1.00  0.00    -0.320 OA 
HETATM   33  O   UNL     3      -9.962  16.034  66.846  1.00  0.00    -0.240 OA 
HETATM   34  H   UNL     3      -8.475  14.510  66.336  1.00  0.00     0.000 HD 
ENDBRANCH  26  29
ENDBRANCH  23  26
ENDBRANCH   3  23
BRANCH   3  35
HETATM   35  C   UNL     3     -10.687  11.579  63.534  1.00  0.00    -0.414 C  
HETATM   36  O   UNL     3      -9.439  12.255  63.354  1.00  0.00    -0.673 OA 
HETATM   37  H   UNL     3      -8.762  11.592  63.289  1.00  0.00     0.000 HD 
ENDBRANCH   3  35
TORSDOF 8
ENDMDL
MODEL       23
REMARK 921   NORMALIZED FREE ENERGY PREDICTED BY IDOCK:   -6.03 KCAL/MOL
REMARK 922        TOTAL FREE ENERGY PREDICTED BY IDOCK:  -10.95 KCAL/MOL
REMARK 923 INTER-LIGAND FREE ENERGY PREDICTED BY IDOCK:   -9.14 KCAL/MOL
REMARK 924 INTRA-LIGAND FREE ENERGY PREDICTED BY IDOCK:   -1.81 KCAL/MOL
REMARK 927      BINDING AFFINITY PREDICTED BY RF-SCORE:    0.00 PKD
ROOT
HETATM    1 FE   UNL     1     -11.579  12.115  69.235  1.00  0.00    -0.198 Fe 
HETATM    2  C   UNL     2     -11.160   5.882  71.912  1.00  0.00    -0.268 C  
HETATM    3  C   UNL     3      -8.327  10.360  64.053  1.00  0.00    -0.139 C  
HETATM    4  H   UNL     3      -9.577   9.312  62.988  1.00  0.00     0.000 HD 
HETATM    5  H   UNL     2     -12.845   6.587  71.159  1.00  0.00     0.000 HD 
HETATM    6  O   UNL     2     -12.511   6.343  72.014  1.00  0.00    -0.333 OA 
HETATM    7  O   UNL     3      -8.786   9.117  63.478  1.00  0.00    -0.181 OA 
ENDROOT
BRANCH   2   8
HETATM    8  C   UNL     2     -10.622   5.489  73.290  1.00  0.00    -0.250 C  
HETATM    9  H   UNL     2     -10.314   6.353  75.048  1.00  0.00     0.000 HD 
HETATM   10  O   UNL     2     -10.648   6.596  74.193  1.00  0.00    -0.310 OA 
ENDBRANCH   2   8
BRANCH   2  11
HETATM   11  C   UNL     2     -10.294   6.957  71.228  1.00  0.00    -0.203 C  
HETATM   12  H   UNL     2      -8.885   7.034  69.831  1.00  0.00     0.000 HD 
HETATM   13  O   UNL     2      -9.419   6.371  70.253  1.00  0.00    -0.160 OA 
BRANCH  11  14
HETATM   14  C   UNL     2     -11.193   8.007  70.552  1.00  0.00    -0.250 C  
HETATM   15  H   UNL     2     -11.269   8.897  68.789  1.00  0.00     0.000 HD 
HETATM   16  O   UNL     2     -10.714   8.248  69.206  1.00  0.00    -0.211 OA 
BRANCH  14  17
HETATM   17  C   UNL     2     -11.254   9.352  71.269  1.00  0.00    -0.367 C  
HETATM   18  C   UNL     2     -12.695   9.886  71.362  1.00  0.00    -0.403 C  
HETATM   19  H   UNL     2     -10.491  11.141  70.960  1.00  0.00     0.000 HD 
HETATM   20  O   UNL     2     -10.453  10.304  70.513  1.00  0.00    -0.208 OA 
HETATM   21  O   UNL     2     -13.149  10.478  70.301  1.00  0.00    -0.227 OA 
HETATM   22  O   UNL     2     -13.249  10.052  72.445  1.00  0.00    -0.364 OA 
ENDBRANCH  14  17
ENDBRANCH  11  14
ENDBRANCH   2  11
BRANCH   3  23
HETATM   23  C   UNL     3      -9.491  10.911  64.869  1.00  0.00    -0.235 C  
HETATM   24  O   UNL     3      -9.071  12.151  65.453  1.00  0.00    -0.426 OA 
HETATM   25  H   UNL     3      -9.796  12.494  65.962  1.00  0.00     0.000 HD 
BRANCH  23  26
HETATM   26  C   UNL     3     -10.842  11.150  64.157  1.00  0.00    -0.285 C  
HETATM   27  O   UNL     3     -10.703  10.917  62.745  1.00  0.00    -0.772 OA 
HETATM   28  H   UNL     3     -11.534  11.063  62.307  1.00  0.00     0.000 HD 
BRANCH  26  29
HETATM   29  C   UNL     3     -11.253  12.622  64.389  1.00  0.00    -0.346 C  
HETATM   30  C   UNL     3     -12.224  12.899  65.564  1.00  0.00    -0.474 C  
HETATM   31  O   UNL     3     -11.860  13.177  63.171  1.00  0.00    -0.800 OA 
HETATM   32  O   UNL     3     -12.010  12.383  66.674  1.00  0.00    -0.562 OA 
HETATM   33  O   UNL     3     -13.180  13.707  65.189  1.00  0.00    -0.739 OA 
HETATM   34  H   UNL     3     -12.113  14.081  63.314  1.00  0.00     0.000 HD 
ENDBRANCH  26  29
ENDBRANCH  23  26
ENDBRANCH   3  23
BRANCH   3  35
HETATM   35  C   UNL     3      -7.055  10.046  64.840  1.00  0.00    -0.136 C  
HETATM   36  O   UNL     3      -6.577  11.275  65.395  1.00  0.00    -0.297 OA 
HETATM   37  H   UNL     3      -5.787  11.080  65.885  1.00  0.00     0.000 HD 
ENDBRANCH   3  35
TORSDOF 8
ENDMDL
MODEL       24
REMARK 921   NORMALIZED FREE ENERGY PREDICTED BY IDOCK:   -5.99 KCAL/MOL
REMARK 922        TOTAL FREE ENERGY PREDICTED BY IDOCK:  -10.88 KCAL/MOL
REMARK 923 INTER-LIGAND FREE ENERGY PREDICTED BY IDOCK:   -7.99 KCAL/MOL
REMARK 924 INTRA-LIGAND FREE ENERGY PREDICTED BY IDOCK:   -2.90 KCAL/MOL
REMARK 927      BINDING AFFINITY PREDICTED BY RF-SCORE:    0.00 PKD
ROOT
HETATM    1 FE   UNL     1     -12.437  12.496  66.981  1.00  0.00    -0.352 Fe 
HETATM    2  C   UNL     2     -10.676   7.753  71.518  1.00  0.00    -0.222 C  
HETATM    3  C   UNL     3      -8.428  10.152  62.628  1.00  0.00    -0.173 C  
HETATM    4  H   UNL     3      -9.279   8.531  61.961  1.00  0.00     0.000 HD 
HETATM    5  H   UNL     2     -12.416   7.712  70.583  1.00  0.00     0.000 HD 
HETATM    6  O   UNL     2     -12.103   7.845  71.471  1.00  0.00    -0.289 OA 
HETATM    7  O   UNL     3      -8.508   8.716  62.485  1.00  0.00    -0.202 OA 
ENDROOT
BRANCH   2   8
HETATM    8  C   UNL     2     -10.172   7.966  72.948  1.00  0.00    -0.330 C  
HETATM    9  H   UNL     2     -10.328   7.072  74.710  1.00  0.00     0.000 HD 
HETATM   10  O   UNL     2     -10.641   6.939  73.823  1.00  0.00    -0.360 OA 
ENDBRANCH   2   8
BRANCH   2  11
HETATM   11  C   UNL     2     -10.056   8.752  70.522  1.00  0.00    -0.195 C  
HETATM   12  H   UNL     2      -8.473   9.946  70.437  1.00  0.00     0.000 HD 
HETATM   13  O   UNL     2      -8.855   9.331  71.051  1.00  0.00    -0.218 OA 
BRANCH  11  14
HETATM   14  C   UNL     2      -9.748   8.046  69.190  1.00  0.00    -0.163 C  
HETATM   15  H   UNL     2      -8.672   6.491  68.617  1.00  0.00     0.000 HD 
HETATM   16  O   UNL     2      -8.863   6.926  69.440  1.00  0.00    -0.135 OA 
BRANCH  14  17
HETATM   17  C   UNL     2      -9.089   8.931  68.137  1.00  0.00    -0.140 C  
HETATM   18  C   UNL     2      -9.801  10.290  68.004  1.00  0.00    -0.150 C  
HETATM   19  H   UNL     2      -8.753   8.792  66.201  1.00  0.00     0.000 HD 
HETATM   20  O   UNL     2      -9.163   8.241  66.857  1.00  0.00    -0.143 OA 
HETATM   21  O   UNL     2     -10.876  10.298  67.280  1.00  0.00    -0.277 OA 
HETATM   22  O   UNL     2      -9.227  11.343  68.267  1.00  0.00    -0.170 OA 
ENDBRANCH  14  17
ENDBRANCH  11  14
ENDBRANCH   2  11
BRANCH   3  23
HETATM   23  C   UNL     3      -9.757  10.598  63.228  1.00  0.00    -0.340 C  
HETATM   24  O   UNL     3     -10.043   9.747  64.345  1.00  0.00    -0.408 OA 
HETATM   25  H   UNL     3     -10.872  10.025  64.718  1.00  0.00     0.000 HD 
BRANCH  23  26
HETATM   26  C   UNL     3      -9.900  12.065  63.693  1.00  0.00    -0.284 C  
HETATM   27  O   UNL     3      -9.632  12.165  65.101  1.00  0.00    -0.413 OA 
HETATM   28  H   UNL     3      -9.720  13.067  65.387  1.00  0.00     0.000 HD 
BRANCH  26  29
HETATM   29  C   UNL     3     -11.353  12.516  63.420  1.00  0.00    -0.422 C  
HETATM   30  C   UNL     3     -12.106  13.194  64.593  1.00  0.00    -0.408 C  
HETATM   31  O   UNL     3     -12.163  11.375  62.973  1.00  0.00    -0.946 OA 
HETATM   32  O   UNL     3     -11.545  14.087  65.250  1.00  0.00    -0.319 OA 
HETATM   33  O   UNL     3     -13.310  12.701  64.711  1.00  0.00    -0.787 OA 
HETATM   34  H   UNL     3     -13.056  11.652  62.805  1.00  0.00     0.000 HD 
ENDBRANCH  26  29
ENDBRANCH  23  26
ENDBRANCH   3  23
BRANCH   3  35
HETATM   35  C   UNL     3      -7.187  10.449  63.471  1.00  0.00    -0.015 C  
HETATM   36  O   UNL     3      -7.414   9.908  64.776  1.00  0.00    -0.125 OA 
HETATM   37  H   UNL     3      -6.643  10.093  65.300  1.00  0.00     0.000 HD 
ENDBRANCH   3  35
TORSDOF 8
ENDMDL
MODEL       25
REMARK 921   NORMALIZED FREE ENERGY PREDICTED BY IDOCK:   -5.97 KCAL/MOL
REMARK 922        TOTAL FREE ENERGY PREDICTED BY IDOCK:  -10.86 KCAL/MOL
REMARK 923 INTER-LIGAND FREE ENERGY PREDICTED BY IDOCK:   -8.65 KCAL/MOL
REMARK 924 INTRA-LIGAND FREE ENERGY PREDICTED BY IDOCK:   -2.21 KCAL/MOL
REMARK 927      BINDING AFFINITY PREDICTED BY RF-SCORE:    0.00 PKD
ROOT
HETATM    1 FE   UNL     1     -14.104  13.078  72.602  1.00  0.00    -0.459 Fe 
HETATM    2  C   UNL     2     -11.888   6.942  70.697  1.00  0.00    -0.368 C  
HETATM    3  C   UNL     3     -10.497  15.990  68.241  1.00  0.00    -0.269 C  
HETATM    4  H   UNL     3     -11.393  15.680  66.539  1.00  0.00     0.000 HD 
HETATM    5  H   UNL     2     -13.707   7.579  70.263  1.00  0.00     0.000 HD 
HETATM    6  O   UNL     2     -13.314   6.908  70.809  1.00  0.00    -0.029 OA 
HETATM    7  O   UNL     3     -10.578  15.388  66.930  1.00  0.00    -0.297 OA 
ENDROOT
BRANCH   2   8
HETATM    8  C   UNL     2     -11.255   5.861  71.577  1.00  0.00    -0.225 C  
HETATM    9  H   UNL     2      -9.949   4.383  71.378  1.00  0.00     0.000 HD 
HETATM   10  O   UNL     2     -10.342   5.054  70.832  1.00  0.00    -0.230 OA 
ENDBRANCH   2   8
BRANCH   2  11
HETATM   11  C   UNL     2     -11.372   8.353  71.040  1.00  0.00    -0.266 C  
HETATM   12  H   UNL     2     -10.386   9.234  72.520  1.00  0.00     0.000 HD 
HETATM   13  O   UNL     2     -10.704   8.365  72.309  1.00  0.00    -0.303 OA 
BRANCH  11  14
HETATM   14  C   UNL     2     -10.411   8.844  69.944  1.00  0.00    -0.206 C  
HETATM   15  H   UNL     2      -8.454   8.856  69.664  1.00  0.00     0.000 HD 
HETATM   16  O   UNL     2      -9.049   8.552  70.341  1.00  0.00    -0.143 OA 
BRANCH  14  17
HETATM   17  C   UNL     2     -10.496  10.336  69.641  1.00  0.00    -0.253 C  
HETATM   18  C   UNL     2     -11.720  10.675  68.772  1.00  0.00    -0.188 C  
HETATM   19  H   UNL     2      -9.345  11.649  68.729  1.00  0.00     0.000 HD 
HETATM   20  O   UNL     2      -9.292  10.720  68.918  1.00  0.00    -0.176 OA 
HETATM   21  O   UNL     2     -11.586  10.467  67.499  1.00  0.00    -0.343 OA 
HETATM   22  O   UNL     2     -12.621  11.401  69.186  1.00  0.00    -0.255 OA 
ENDBRANCH  14  17
ENDBRANCH  11  14
ENDBRANCH   2  11
BRANCH   3  23
HETATM   23  C   UNL     3     -11.769  15.585  68.979  1.00  0.00    -0.377 C  
HETATM   24  O   UNL     3     -12.390  14.528  68.236  1.00  0.00    -0.597 OA 
HETATM   25  H   UNL     3     -13.183  14.276  68.696  1.00  0.00     0.000 HD 
BRANCH  23  26
HETATM   26  C   UNL     3     -11.653  15.132  70.452  1.00  0.00    -0.292 C  
HETATM   27  O   UNL     3     -11.586  13.698  70.524  1.00  0.00    -0.513 OA 
HETATM   28  H   UNL     3     -11.514  13.419  71.429  1.00  0.00     0.000 HD 
BRANCH  26  29
HETATM   29  C   UNL     3     -12.913  15.618  71.205  1.00  0.00    -0.478 C  
HETATM   30  C   UNL     3     -12.827  15.670  72.751  1.00  0.00    -0.452 C  
HETATM   31  O   UNL     3     -14.069  14.782  70.852  1.00  0.00    -0.574 OA 
HETATM   32  O   UNL     3     -11.835  16.183  73.295  1.00  0.00    -0.433 OA 
HETATM   33  O   UNL     3     -13.896  15.145  73.288  1.00  0.00    -0.372 OA 
HETATM   34  H   UNL     3     -14.843  15.081  71.314  1.00  0.00     0.000 HD 
ENDBRANCH  26  29
ENDBRANCH  23  26
ENDBRANCH   3  23
BRANCH   3  35
HETATM   35  C   UNL     3      -9.187  15.519  68.871  1.00  0.00    -0.218 C  
HETATM   36  O   UNL     3      -9.170  14.090  68.811  1.00  0.00    -0.334 OA 
HETATM   37  H   UNL     3      -8.355  13.797  69.202  1.00  0.00     0.000 HD 
ENDBRANCH   3  35
TORSDOF 8
ENDMDL
MODEL       26
REMARK 921   NORMALIZED FREE ENERGY PREDICTED BY IDOCK:   -5.96 KCAL/MOL
REMARK 922        TOTAL FREE ENERGY PREDICTED BY IDOCK:  -10.85 KCAL/MOL
REMARK 923 INTER-LIGAND FREE ENERGY PREDICTED BY IDOCK:   -8.63 KCAL/MOL
REMARK 924 INTRA-LIGAND FREE ENERGY PREDICTED BY IDOCK:   -2.22 KCAL/MOL
REMARK 927      BINDING AFFINITY PREDICTED BY RF-SCORE:    0.00 PKD
ROOT
HETATM    1 FE   UNL     1      -7.731   9.588  68.144  1.00  0.00    -0.077 Fe 
HETATM    2  C   UNL     2     -11.670  14.150  65.003  1.00  0.00    -0.376 C  
HETATM    3  C   UNL     3     -12.559   7.569  71.766  1.00  0.00    -0.334 C  
HETATM    4  H   UNL     3     -13.673   6.488  70.588  1.00  0.00     0.000 HD 
HETATM    5  H   UNL     2     -11.066  12.495  64.108  1.00  0.00     0.000 HD 
HETATM    6  O   UNL     2     -10.918  13.429  64.021  1.00  0.00    -0.358 OA 
HETATM    7  O   UNL     3     -13.775   7.327  71.024  1.00  0.00    -0.244 OA 
ENDROOT
BRANCH   2   8
HETATM    8  C   UNL     2     -11.430  15.655  64.863  1.00  0.00    -0.245 C  
HETATM    9  H   UNL     2     -12.009  17.131  63.674  1.00  0.00     0.000 HD 
HETATM   10  O   UNL     2     -12.158  16.197  63.760  1.00  0.00    -0.946 OA 
ENDBRANCH   2   8
BRANCH   2  11
HETATM   11  C   UNL     2     -11.322  13.628  66.411  1.00  0.00    -0.316 C  
HETATM   12  H   UNL     2     -12.067  13.757  68.246  1.00  0.00     0.000 HD 
HETATM   13  O   UNL     2     -12.281  14.078  67.379  1.00  0.00    -0.384 OA 
BRANCH  11  14
HETATM   14  C   UNL     2     -11.275  12.090  66.406  1.00  0.00    -0.337 C  
HETATM   15  H   UNL     2     -12.006  10.638  67.529  1.00  0.00     0.000 HD 
HETATM   16  O   UNL     2     -12.035  11.588  67.532  1.00  0.00    -0.629 OA 
BRANCH  14  17
HETATM   17  C   UNL     2      -9.874  11.494  66.491  1.00  0.00    -0.202 C  
HETATM   18  C   UNL     2      -9.682  10.337  65.494  1.00  0.00    -0.265 C  
HETATM   19  H   UNL     2      -8.808  10.612  67.892  1.00  0.00     0.000 HD 
HETATM   20  O   UNL     2      -9.681  10.983  67.839  1.00  0.00    -0.166 OA 
HETATM   21  O   UNL     2     -10.149   9.186  65.866  1.00  0.00    -0.273 OA 
HETATM   22  O   UNL     2      -8.862  10.403  64.583  1.00  0.00    -0.179 OA 
ENDBRANCH  14  17
ENDBRANCH  11  14
ENDBRANCH   2  11
BRANCH   3  23
HETATM   23  C   UNL     3     -11.417   7.481  70.760  1.00  0.00    -0.284 C  
HETATM   24  O   UNL     3     -10.192   7.361  71.494  1.00  0.00    -0.193 OA 
HETATM   25  H   UNL     3      -9.481   7.307  70.866  1.00  0.00     0.000 HD 
BRANCH  23  26
HETATM   26  C   UNL     3     -11.454   6.356  69.701  1.00  0.00    -0.378 C  
HETATM   27  O   UNL     3     -10.724   5.211  70.172  1.00  0.00    -0.239 OA 
HETATM   28  H   UNL     3     -10.746   4.519  69.521  1.00  0.00     0.000 HD 
BRANCH  26  29
HETATM   29  C   UNL     3     -10.786   6.887  68.412  1.00  0.00    -0.211 C  
HETATM   30  C   UNL     3      -9.843   5.914  67.661  1.00  0.00    -0.121 C  
HETATM   31  O   UNL     3     -10.023   8.109  68.702  1.00  0.00    -0.179 OA 
HETATM   32  O   UNL     3     -10.208   4.744  67.448  1.00  0.00    -0.154 OA 
HETATM   33  O   UNL     3      -8.734   6.517  67.324  1.00  0.00    -0.111 OA 
HETATM   34  H   UNL     3      -9.613   8.435  67.910  1.00  0.00     0.000 HD 
ENDBRANCH  26  29
ENDBRANCH  23  26
ENDBRANCH   3  23
BRANCH   3  35
HETATM   35  C   UNL     3     -12.724   8.917  72.467  1.00  0.00    -0.313 C  
HETATM   36  O   UNL     3     -13.992   8.906  73.129  1.00  0.00    -1.118 OA 
HETATM   37  H   UNL     3     -14.095   9.745  73.565  1.00  0.00     0.000 HD 
ENDBRANCH   3  35
TORSDOF 8
ENDMDL
MODEL       27
REMARK 921   NORMALIZED FREE ENERGY PREDICTED BY IDOCK:   -5.93 KCAL/MOL
REMARK 922        TOTAL FREE ENERGY PREDICTED BY IDOCK:  -10.81 KCAL/MOL
REMARK 923 INTER-LIGAND FREE ENERGY PREDICTED BY IDOCK:   -8.90 KCAL/MOL
REMARK 924 INTRA-LIGAND FREE ENERGY PREDICTED BY IDOCK:   -1.91 KCAL/MOL
REMARK 927      BINDING AFFINITY PREDICTED BY RF-SCORE:    0.00 PKD
ROOT
HETATM    1 FE   UNL     1      -9.247  13.758  69.348  1.00  0.00    -0.360 Fe 
HETATM    2  C   UNL     2     -11.948   7.954  71.631  1.00  0.00    -0.294 C  
HETATM    3  C   UNL     3     -11.288  12.647  63.423  1.00  0.00    -0.394 C  
HETATM    4  H   UNL     3     -13.202  13.007  63.459  1.00  0.00     0.000 HD 
HETATM    5  H   UNL     2     -12.742   9.714  72.050  1.00  0.00     0.000 HD 
HETATM    6  O   UNL     2     -12.304   9.015  72.522  1.00  0.00    -0.320 OA 
HETATM    7  O   UNL     3     -12.669  12.227  63.358  1.00  0.00    -0.727 OA 
ENDROOT
BRANCH   2   8
HETATM    8  C   UNL     2     -11.242   6.829  72.393  1.00  0.00    -0.264 C  
HETATM    9  H   UNL     2     -10.006   6.647  73.932  1.00  0.00     0.000 HD 
HETATM   10  O   UNL     2     -10.444   7.345  73.460  1.00  0.00    -0.355 OA 
ENDBRANCH   2   8
BRANCH   2  11
HETATM   11  C   UNL     2     -11.091   8.509  70.477  1.00  0.00    -0.244 C  
HETATM   12  H   UNL     2     -10.062  10.159  70.077  1.00  0.00     0.000 HD 
HETATM   13  O   UNL     2     -10.590   9.817  70.788  1.00  0.00    -0.304 OA 
BRANCH  11  14
HETATM   14  C   UNL     2      -9.915   7.560  70.190  1.00  0.00    -0.192 C  
HETATM   15  H   UNL     2      -7.952   7.729  70.028  1.00  0.00     0.000 HD 
HETATM   16  O   UNL     2      -8.679   8.315  70.206  1.00  0.00    -0.134 OA 
BRANCH  14  17
HETATM   17  C   UNL     2      -9.994   6.831  68.852  1.00  0.00    -0.155 C  
HETATM   18  C   UNL     2      -9.600   7.745  67.678  1.00  0.00    -0.146 C  
HETATM   19  H   UNL     2     -11.418   5.938  67.825  1.00  0.00     0.000 HD 
HETATM   20  O   UNL     2     -11.368   6.392  68.658  1.00  0.00    -0.313 OA 
HETATM   21  O   UNL     2     -10.524   8.547  67.249  1.00  0.00    -0.276 OA 
HETATM   22  O   UNL     2      -8.620   7.504  66.978  1.00  0.00    -0.119 OA 
ENDBRANCH  14  17
ENDBRANCH  11  14
ENDBRANCH   2  11
BRANCH   3  23
HETATM   23  C   UNL     3     -11.128  13.391  64.744  1.00  0.00    -0.351 C  
HETATM   24  O   UNL     3     -11.291  14.791  64.483  1.00  0.00    -0.550 OA 
HETATM   25  H   UNL     3     -11.191  15.255  65.306  1.00  0.00     0.000 HD 
BRANCH  23  26
HETATM   26  C   UNL     3     -12.055  13.011  65.921  1.00  0.00    -0.444 C  
HETATM   27  O   UNL     3     -13.154  13.935  66.001  1.00  0.00    -0.404 OA 
HETATM   28  H   UNL     3     -13.724  13.701  66.724  1.00  0.00     0.000 HD 
BRANCH  26  29
HETATM   29  C   UNL     3     -11.231  13.089  67.226  1.00  0.00    -0.289 C  
HETATM   30  C   UNL     3     -11.830  12.392  68.473  1.00  0.00    -0.304 C  
HETATM   31  O   UNL     3     -10.975  14.492  67.582  1.00  0.00    -0.274 OA 
HETATM   32  O   UNL     3     -12.283  11.238  68.375  1.00  0.00    -0.604 OA 
HETATM   33  O   UNL     3     -11.746  13.170  69.519  1.00  0.00    -0.296 OA 
HETATM   34  H   UNL     3     -10.469  14.539  68.384  1.00  0.00     0.000 HD 
ENDBRANCH  26  29
ENDBRANCH  23  26
ENDBRANCH   3  23
BRANCH   3  35
HETATM   35  C   UNL     3     -10.431  11.392  63.260  1.00  0.00    -0.334 C  
HETATM   36  O   UNL     3      -9.109  11.713  63.706  1.00  0.00    -0.450 OA 
HETATM   37  H   UNL     3      -8.576  10.932  63.605  1.00  0.00     0.000 HD 
ENDBRANCH   3  35
TORSDOF 8
ENDMDL
MODEL       28
REMARK 921   NORMALIZED FREE ENERGY PREDICTED BY IDOCK:   -5.91 KCAL/MOL
REMARK 922        TOTAL FREE ENERGY PREDICTED BY IDOCK:  -10.77 KCAL/MOL
REMARK 923 INTER-LIGAND FREE ENERGY PREDICTED BY IDOCK:   -9.43 KCAL/MOL
REMARK 924 INTRA-LIGAND FREE ENERGY PREDICTED BY IDOCK:   -1.34 KCAL/MOL
REMARK 927      BINDING AFFINITY PREDICTED BY RF-SCORE:    0.00 PKD
ROOT
HETATM    1 FE   UNL     1     -13.876  10.324  69.580  1.00  0.00    -0.542 Fe 
HETATM    2  C   UNL     2     -10.382  15.097  66.233  1.00  0.00    -0.294 C  
HETATM    3  C   UNL     3      -9.520   5.876  68.254  1.00  0.00    -0.116 C  
HETATM    4  H   UNL     3      -8.015   6.261  69.429  1.00  0.00     0.000 HD 
HETATM    5  H   UNL     2     -10.470  15.054  68.206  1.00  0.00     0.000 HD 
HETATM    6  O   UNL     2     -10.779  15.617  67.506  1.00  0.00    -0.292 OA 
HETATM    7  O   UNL     3      -8.162   6.310  68.492  1.00  0.00    -0.111 OA 
ENDROOT
BRANCH   2   8
HETATM    8  C   UNL     2     -10.881  16.003  65.104  1.00  0.00    -0.395 C  
HETATM    9  H   UNL     2     -10.959  17.942  64.702  1.00  0.00     0.000 HD 
HETATM   10  O   UNL     2     -10.650  17.380  65.403  1.00  0.00    -0.638 OA 
ENDBRANCH   2   8
BRANCH   2  11
HETATM   11  C   UNL     2     -10.881  13.646  66.085  1.00  0.00    -0.279 C  
HETATM   12  H   UNL     2     -11.799  12.290  67.207  1.00  0.00     0.000 HD 
HETATM   13  O   UNL     2     -11.491  13.183  67.299  1.00  0.00    -0.296 OA 
BRANCH  11  14
HETATM   14  C   UNL     2     -11.891  13.551  64.929  1.00  0.00    -0.374 C  
HETATM   15  H   UNL     2     -13.809  13.953  64.675  1.00  0.00     0.000 HD 
HETATM   16  O   UNL     2     -13.185  14.012  65.389  1.00  0.00    -0.761 OA 
BRANCH  14  17
HETATM   17  C   UNL     2     -12.076  12.150  64.356  1.00  0.00    -0.357 C  
HETATM   18  C   UNL     2     -10.726  11.463  64.075  1.00  0.00    -0.387 C  
HETATM   19  H   UNL     2     -12.922  11.394  62.746  1.00  0.00     0.000 HD 
HETATM   20  O   UNL     2     -12.807  12.266  63.103  1.00  0.00    -0.646 OA 
HETATM   21  O   UNL     2     -10.142  11.795  62.966  1.00  0.00    -0.384 OA 
HETATM   22  O   UNL     2     -10.392  10.440  64.666  1.00  0.00    -0.314 OA 
ENDBRANCH  14  17
ENDBRANCH  11  14
ENDBRANCH   2  11
BRANCH   3  23
HETATM   23  C   UNL     3     -10.412   6.767  69.112  1.00  0.00    -0.216 C  
HETATM   24  O   UNL     3     -11.442   5.945  69.676  1.00  0.00    -0.296 OA 
HETATM   25  H   UNL     3     -11.998   6.501  70.211  1.00  0.00     0.000 HD 
BRANCH  23  26
HETATM   26  C   UNL     3      -9.761   7.574  70.259  1.00  0.00    -0.179 C  
HETATM   27  O   UNL     3      -9.439   6.702  71.355  1.00  0.00    -0.159 OA 
HETATM   28  H   UNL     3      -9.039   7.198  72.060  1.00  0.00     0.000 HD 
BRANCH  26  29
HETATM   29  C   UNL     3     -10.778   8.635  70.738  1.00  0.00    -0.216 C  
HETATM   30  C   UNL     3     -11.554   8.321  72.042  1.00  0.00    -0.340 C  
HETATM   31  O   UNL     3     -11.768   8.900  69.684  1.00  0.00    -0.318 OA 
HETATM   32  O   UNL     3     -10.940   7.903  73.038  1.00  0.00    -0.393 OA 
HETATM   33  O   UNL     3     -12.826   8.578  71.892  1.00  0.00    -0.328 OA 
HETATM   34  H   UNL     3     -12.393   9.552  69.979  1.00  0.00     0.000 HD 
ENDBRANCH  26  29
ENDBRANCH  23  26
ENDBRANCH   3  23
BRANCH   3  35
HETATM   35  C   UNL     3      -9.758   5.956  66.746  1.00  0.00    -0.153 C  
HETATM   36  O   UNL     3     -11.122   5.596  66.506  1.00  0.00    -0.647 OA 
HETATM   37  H   UNL     3     -11.270   5.646  65.568  1.00  0.00     0.000 HD 
ENDBRANCH   3  35
TORSDOF 8
ENDMDL
MODEL       29
REMARK 921   NORMALIZED FREE ENERGY PREDICTED BY IDOCK:   -5.89 KCAL/MOL
REMARK 922        TOTAL FREE ENERGY PREDICTED BY IDOCK:  -10.74 KCAL/MOL
REMARK 923 INTER-LIGAND FREE ENERGY PREDICTED BY IDOCK:   -8.93 KCAL/MOL
REMARK 924 INTRA-LIGAND FREE ENERGY PREDICTED BY IDOCK:   -1.81 KCAL/MOL
REMARK 927      BINDING AFFINITY PREDICTED BY RF-SCORE:    0.00 PKD
ROOT
HETATM    1 FE   UNL     1     -12.992  11.240  70.647  1.00  0.00    -0.290 Fe 
HETATM    2  C   UNL     2     -10.953  14.908  65.302  1.00  0.00    -0.380 C  
HETATM    3  C   UNL     3      -9.950   6.059  68.545  1.00  0.00    -0.142 C  
HETATM    4  H   UNL     3      -8.063   6.388  68.900  1.00  0.00     0.000 HD 
HETATM    5  H   UNL     2     -10.187  15.169  67.104  1.00  0.00     0.000 HD 
HETATM    6  O   UNL     2     -10.727  15.662  66.497  1.00  0.00    -0.307 OA 
HETATM    7  O   UNL     3      -8.595   6.320  68.116  1.00  0.00    -0.117 OA 
ENDROOT
BRANCH   2   8
HETATM    8  C   UNL     2     -11.824  15.701  64.324  1.00  0.00    -0.146 C  
HETATM    9  H   UNL     2     -11.948  17.557  63.639  1.00  0.00     0.000 HD 
HETATM   10  O   UNL     2     -11.408  17.065  64.246  1.00  0.00    -1.191 OA 
ENDBRANCH   2   8
BRANCH   2  11
HETATM   11  C   UNL     2     -11.567  13.540  65.657  1.00  0.00    -0.325 C  
HETATM   12  H   UNL     2     -13.145  12.459  65.127  1.00  0.00     0.000 HD 
HETATM   13  O   UNL     2     -12.767  13.302  64.908  1.00  0.00    -0.635 OA 
BRANCH  11  14
HETATM   14  C   UNL     2     -10.551  12.418  65.377  1.00  0.00    -0.284 C  
HETATM   15  H   UNL     2     -10.603  10.619  64.562  1.00  0.00     0.000 HD 
HETATM   16  O   UNL     2     -11.230  11.311  64.735  1.00  0.00    -0.196 OA 
BRANCH  14  17
HETATM   17  C   UNL     2      -9.845  11.873  66.614  1.00  0.00    -0.201 C  
HETATM   18  C   UNL     2     -10.492  10.569  67.115  1.00  0.00    -0.249 C  
HETATM   19  H   UNL     2      -9.501  12.534  68.437  1.00  0.00     0.000 HD 
HETATM   20  O   UNL     2      -9.941  12.874  67.667  1.00  0.00    -0.210 OA 
HETATM   21  O   UNL     2     -11.560  10.708  67.837  1.00  0.00    -0.491 OA 
HETATM   22  O   UNL     2      -9.872   9.509  67.129  1.00  0.00    -0.165 OA 
ENDBRANCH  14  17
ENDBRANCH  11  14
ENDBRANCH   2  11
BRANCH   3  23
HETATM   23  C   UNL     3     -10.322   7.186  69.502  1.00  0.00    -0.215 C  
HETATM   24  O   UNL     3     -11.397   7.928  68.912  1.00  0.00    -0.265 OA 
HETATM   25  H   UNL     3     -11.628   8.630  69.509  1.00  0.00     0.000 HD 
BRANCH  23  26
HETATM   26  C   UNL     3     -10.728   6.821  70.948  1.00  0.00    -0.233 C  
HETATM   27  O   UNL     3     -10.874   5.396  71.075  1.00  0.00    -0.215 OA 
HETATM   28  H   UNL     3     -11.124   5.172  71.964  1.00  0.00     0.000 HD 
BRANCH  26  29
HETATM   29  C   UNL     3     -12.084   7.498  71.252  1.00  0.00    -0.323 C  
HETATM   30  C   UNL     3     -12.034   8.896  71.916  1.00  0.00    -0.371 C  
HETATM   31  O   UNL     3     -12.905   6.629  72.107  1.00  0.00    -0.544 OA 
HETATM   32  O   UNL     3     -11.265   9.764  71.467  1.00  0.00    -0.360 OA 
HETATM   33  O   UNL     3     -12.881   8.964  72.909  1.00  0.00    -0.321 OA 
HETATM   34  H   UNL     3     -13.738   7.045  72.293  1.00  0.00     0.000 HD 
ENDBRANCH  26  29
ENDBRANCH  23  26
ENDBRANCH   3  23
BRANCH   3  35
HETATM   35  C   UNL     3     -10.807   5.950  67.284  1.00  0.00    -0.260 C  
HETATM   36  O   UNL     3     -10.466   7.051  66.436  1.00  0.00    -0.489 OA 
HETATM   37  H   UNL     3     -10.999   6.983  65.652  1.00  0.00     0.000 HD 
ENDBRANCH   3  35
TORSDOF 8
ENDMDL
MODEL       30
REMARK 921   NORMALIZED FREE ENERGY PREDICTED BY IDOCK:   -5.87 KCAL/MOL
REMARK 922        TOTAL FREE ENERGY PREDICTED BY IDOCK:  -10.71 KCAL/MOL
REMARK 923 INTER-LIGAND FREE ENERGY PREDICTED BY IDOCK:   -8.56 KCAL/MOL
REMARK 924 INTRA-LIGAND FREE ENERGY PREDICTED BY IDOCK:   -2.15 KCAL/MOL
REMARK 927      BINDING AFFINITY PREDICTED BY RF-SCORE:    0.00 PKD
ROOT
HETATM    1 FE   UNL     1     -11.844  14.991  69.560  1.00  0.00    -0.238 Fe 
HETATM    2  C   UNL     2      -7.066  19.434  67.657  1.00  0.00    -0.230 C  
HETATM    3  C   UNL     3     -10.584  11.170  64.629  1.00  0.00    -0.318 C  
HETATM    4  H   UNL     3      -8.912  10.277  65.081  1.00  0.00     0.000 HD 
HETATM    5  H   UNL     2      -6.826  18.241  69.213  1.00  0.00     0.000 HD 
HETATM    6  O   UNL     2      -6.928  19.173  69.057  1.00  0.00    -0.312 OA 
HETATM    7  O   UNL     3      -9.173  10.924  64.436  1.00  0.00    -0.207 OA 
ENDROOT
BRANCH   2   8
HETATM    8  C   UNL     2      -7.231  20.935  67.406  1.00  0.00    -0.340 C  
HETATM    9  H   UNL     2      -6.572  22.290  66.118  1.00  0.00     0.000 HD 
HETATM   10  O   UNL     2      -6.470  21.359  66.274  1.00  0.00    -0.254 OA 
ENDBRANCH   2   8
BRANCH   2  11
HETATM   11  C   UNL     2      -8.238  18.611  67.088  1.00  0.00    -0.252 C  
HETATM   12  H   UNL     2      -8.713  17.730  65.373  1.00  0.00     0.000 HD 
HETATM   13  O   UNL     2      -7.991  18.237  65.724  1.00  0.00    -0.513 OA 
BRANCH  11  14
HETATM   14  C   UNL     2      -8.459  17.349  67.939  1.00  0.00    -0.228 C  
HETATM   15  H   UNL     2      -7.791  15.490  67.932  1.00  0.00     0.000 HD 
HETATM   16  O   UNL     2      -7.655  16.269  67.406  1.00  0.00    -0.132 OA 
BRANCH  14  17
HETATM   17  C   UNL     2      -9.904  16.864  67.998  1.00  0.00    -0.264 C  
HETATM   18  C   UNL     2     -10.109  15.575  67.181  1.00  0.00    -0.254 C  
HETATM   19  H   UNL     2     -11.654  17.605  67.478  1.00  0.00     0.000 HD 
HETATM   20  O   UNL     2     -10.754  17.907  67.442  1.00  0.00    -0.370 OA 
HETATM   21  O   UNL     2     -10.258  15.733  65.903  1.00  0.00    -0.307 OA 
HETATM   22  O   UNL     2     -10.450  14.524  67.717  1.00  0.00    -0.239 OA 
ENDBRANCH  14  17
ENDBRANCH  11  14
ENDBRANCH   2  11
BRANCH   3  23
HETATM   23  C   UNL     3     -10.751  11.584  66.087  1.00  0.00    -0.274 C  
HETATM   24  O   UNL     3     -11.924  12.403  66.180  1.00  0.00    -0.549 OA 
HETATM   25  H   UNL     3     -12.027  12.661  67.088  1.00  0.00     0.000 HD 
BRANCH  23  26
HETATM   26  C   UNL     3     -10.855  10.476  67.160  1.00  0.00    -0.259 C  
HETATM   27  O   UNL     3     -12.032  10.672  67.961  1.00  0.00    -0.784 OA 
HETATM   28  H   UNL     3     -12.096   9.991  68.620  1.00  0.00     0.000 HD 
BRANCH  26  29
HETATM   29  C   UNL     3      -9.605  10.566  68.066  1.00  0.00    -0.148 C  
HETATM   30  C   UNL     3      -9.338   9.367  69.010  1.00  0.00    -0.153 C  
HETATM   31  O   UNL     3      -9.666  11.778  68.893  1.00  0.00    -0.387 OA 
HETATM   32  O   UNL     3      -9.407   8.207  68.567  1.00  0.00    -0.139 OA 
HETATM   33  O   UNL     3      -9.043   9.786  70.212  1.00  0.00    -0.237 OA 
HETATM   34  H   UNL     3      -8.898  11.834  69.450  1.00  0.00     0.000 HD 
ENDBRANCH  26  29
ENDBRANCH  23  26
ENDBRANCH   3  23
BRANCH   3  35
HETATM   35  C   UNL     3     -11.003  12.211  63.591  1.00  0.00    -0.461 C  
HETATM   36  O   UNL     3     -10.259  13.405  63.855  1.00  0.00    -0.712 OA 
HETATM   37  H   UNL     3     -10.519  14.052  63.209  1.00  0.00     0.000 HD 
ENDBRANCH   3  35
TORSDOF 8
ENDMDL
MODEL       31
REMARK 921   NORMALIZED FREE ENERGY PREDICTED BY IDOCK:   -5.84 KCAL/MOL
REMARK 922        TOTAL FREE ENERGY PREDICTED BY IDOCK:  -10.67 KCAL/MOL
REMARK 923 INTER-LIGAND FREE ENERGY PREDICTED BY IDOCK:   -8.20 KCAL/MOL
REMARK 924 INTRA-LIGAND FREE ENERGY PREDICTED BY IDOCK:   -2.47 KCAL/MOL
REMARK 927      BINDING AFFINITY PREDICTED BY RF-SCORE:    0.00 PKD
ROOT
HETATM    1 FE   UNL     1     -10.353   7.833  65.599  1.00  0.00    -0.436 Fe 
HETATM    2  C   UNL     2     -11.763  14.475  65.305  1.00  0.00    -0.361 C  
HETATM    3  C   UNL     3     -11.537   7.622  71.849  1.00  0.00    -0.280 C  
HETATM    4  H   UNL     3     -13.478   7.693  72.011  1.00  0.00     0.000 HD 
HETATM    5  H   UNL     2     -12.992  13.111  64.576  1.00  0.00     0.000 HD 
HETATM    6  O   UNL     2     -12.442  13.807  64.237  1.00  0.00    -0.629 OA 
HETATM    7  O   UNL     3     -12.765   8.284  72.226  1.00  0.00    -0.333 OA 
ENDROOT
BRANCH   2   8
HETATM    8  C   UNL     2     -10.877  15.597  64.758  1.00  0.00    -0.355 C  
HETATM    9  H   UNL     2     -11.075  17.198  63.607  1.00  0.00     0.000 HD 
HETATM   10  O   UNL     2     -11.626  16.502  63.946  1.00  0.00    -1.175 OA 
ENDBRANCH   2   8
BRANCH   2  11
HETATM   11  C   UNL     2     -10.968  13.451  66.137  1.00  0.00    -0.276 C  
HETATM   12  H   UNL     2      -9.275  13.402  67.173  1.00  0.00     0.000 HD 
HETATM   13  O   UNL     2      -9.764  14.033  66.659  1.00  0.00    -0.269 OA 
BRANCH  11  14
HETATM   14  C   UNL     2     -11.834  12.927  67.296  1.00  0.00    -0.356 C  
HETATM   15  H   UNL     2     -12.756  13.714  68.856  1.00  0.00     0.000 HD 
HETATM   16  O   UNL     2     -12.221  14.038  68.141  1.00  0.00    -0.325 OA 
BRANCH  14  17
HETATM   17  C   UNL     2     -11.154  11.887  68.181  1.00  0.00    -0.242 C  
HETATM   18  C   UNL     2     -10.466  10.789  67.350  1.00  0.00    -0.225 C  
HETATM   19  H   UNL     2     -11.750  10.621  69.567  1.00  0.00     0.000 HD 
HETATM   20  O   UNL     2     -12.173  11.268  69.016  1.00  0.00    -0.444 OA 
HETATM   21  O   UNL     2     -11.239   9.846  66.907  1.00  0.00     0.032 OA 
HETATM   22  O   UNL     2      -9.250  10.622  67.388  1.00  0.00    -0.143 OA 
ENDBRANCH  14  17
ENDBRANCH  11  14
ENDBRANCH   2  11
BRANCH   3  23
HETATM   23  C   UNL     3     -11.677   7.266  70.374  1.00  0.00    -0.182 C  
HETATM   24  O   UNL     3     -11.254   8.399  69.605  1.00  0.00    -0.444 OA 
HETATM   25  H   UNL     3     -11.342   8.177  68.685  1.00  0.00     0.000 HD 
BRANCH  23  26
HETATM   26  C   UNL     3     -10.931   6.020  69.843  1.00  0.00    -0.388 C  
HETATM   27  O   UNL     3     -10.258   5.351  70.922  1.00  0.00    -0.208 OA 
HETATM   28  H   UNL     3      -9.799   4.586  70.596  1.00  0.00     0.000 HD 
BRANCH  26  29
HETATM   29  C   UNL     3      -9.883   6.493  68.809  1.00  0.00    -0.140 C  
HETATM   30  C   UNL     3      -9.554   5.517  67.652  1.00  0.00    -0.123 C  
HETATM   31  O   UNL     3      -8.621   6.827  69.482  1.00  0.00    -0.131 OA 
HETATM   32  O   UNL     3     -10.477   4.961  67.033  1.00  0.00    -0.194 OA 
HETATM   33  O   UNL     3      -8.262   5.433  67.476  1.00  0.00    -0.101 OA 
HETATM   34  H   UNL     3      -7.977   7.117  68.846  1.00  0.00     0.000 HD 
ENDBRANCH  26  29
ENDBRANCH  23  26
ENDBRANCH   3  23
BRANCH   3  35
HETATM   35  C   UNL     3     -10.391   8.573  72.196  1.00  0.00    -0.339 C  
HETATM   36  O   UNL     3      -9.168   7.850  72.033  1.00  0.00    -0.135 OA 
HETATM   37  H   UNL     3      -8.455   8.441  72.248  1.00  0.00     0.000 HD 
ENDBRANCH   3  35
TORSDOF 8
ENDMDL
MODEL       32
REMARK 921   NORMALIZED FREE ENERGY PREDICTED BY IDOCK:   -5.84 KCAL/MOL
REMARK 922        TOTAL FREE ENERGY PREDICTED BY IDOCK:  -10.67 KCAL/MOL
REMARK 923 INTER-LIGAND FREE ENERGY PREDICTED BY IDOCK:   -8.94 KCAL/MOL
REMARK 924 INTRA-LIGAND FREE ENERGY PREDICTED BY IDOCK:   -1.73 KCAL/MOL
REMARK 927      BINDING AFFINITY PREDICTED BY RF-SCORE:    0.00 PKD
ROOT
HETATM    1 FE   UNL     1      -9.189  13.535  69.570  1.00  0.00    -0.363 Fe 
HETATM    2  C   UNL     2      -7.187  19.429  66.843  1.00  0.00    -0.209 C  
HETATM    3  C   UNL     3     -10.900  11.223  63.893  1.00  0.00    -0.354 C  
HETATM    4  H   UNL     3      -9.231  10.776  62.992  1.00  0.00     0.000 HD 
HETATM    5  H   UNL     2      -5.894  18.086  67.495  1.00  0.00     0.000 HD 
HETATM    6  O   UNL     2      -6.172  18.961  67.737  1.00  0.00    -0.198 OA 
HETATM    7  O   UNL     3      -9.908  11.430  62.862  1.00  0.00    -0.342 OA 
ENDROOT
BRANCH   2   8
HETATM    8  C   UNL     2      -7.635  20.841  67.232  1.00  0.00    -0.305 C  
HETATM    9  H   UNL     2      -9.338  21.818  67.508  1.00  0.00     0.000 HD 
HETATM   10  O   UNL     2      -9.060  20.942  67.267  1.00  0.00    -0.296 OA 
ENDBRANCH   2   8
BRANCH   2  11
HETATM   11  C   UNL     2      -8.358  18.428  66.815  1.00  0.00    -0.259 C  
HETATM   12  H   UNL     2      -8.809  16.724  65.902  1.00  0.00     0.000 HD 
HETATM   13  O   UNL     2      -8.087  17.341  65.919  1.00  0.00    -0.529 OA 
BRANCH  11  14
HETATM   14  C   UNL     2      -8.617  17.881  68.229  1.00  0.00    -0.275 C  
HETATM   15  H   UNL     2      -8.221  16.209  69.206  1.00  0.00     0.000 HD 
HETATM   16  O   UNL     2      -8.061  16.547  68.333  1.00  0.00    -0.179 OA 
BRANCH  14  17
HETATM   17  C   UNL     2     -10.089  17.800  68.623  1.00  0.00    -0.384 C  
HETATM   18  C   UNL     2     -10.568  16.342  68.752  1.00  0.00    -0.298 C  
HETATM   19  H   UNL     2     -11.787  18.405  67.829  1.00  0.00     0.000 HD 
HETATM   20  O   UNL     2     -10.871  18.455  67.585  1.00  0.00    -0.406 OA 
HETATM   21  O   UNL     2     -10.874  15.746  67.642  1.00  0.00    -0.302 OA 
HETATM   22  O   UNL     2     -10.959  15.888  69.824  1.00  0.00    -0.272 OA 
ENDBRANCH  14  17
ENDBRANCH  11  14
ENDBRANCH   2  11
BRANCH   3  23
HETATM   23  C   UNL     3     -10.159  11.292  65.223  1.00  0.00    -0.267 C  
HETATM   24  O   UNL     3      -8.761  11.435  64.940  1.00  0.00    -0.383 OA 
HETATM   25  H   UNL     3      -8.299  11.478  65.769  1.00  0.00     0.000 HD 
BRANCH  23  26
HETATM   26  C   UNL     3     -10.559  12.391  66.233  1.00  0.00    -0.249 C  
HETATM   27  O   UNL     3      -9.520  13.381  66.323  1.00  0.00    -0.363 OA 
HETATM   28  H   UNL     3      -9.766  14.057  66.944  1.00  0.00     0.000 HD 
BRANCH  26  29
HETATM   29  C   UNL     3     -10.747  11.727  67.616  1.00  0.00    -0.214 C  
HETATM   30  C   UNL     3      -9.533  10.954  68.191  1.00  0.00    -0.165 C  
HETATM   31  O   UNL     3     -11.888  10.803  67.584  1.00  0.00    -0.647 OA 
HETATM   32  O   UNL     3      -8.404  11.473  68.166  1.00  0.00    -0.137 OA 
HETATM   33  O   UNL     3      -9.910   9.796  68.665  1.00  0.00    -0.151 OA 
HETATM   34  H   UNL     3     -12.004  10.395  68.435  1.00  0.00     0.000 HD 
ENDBRANCH  26  29
ENDBRANCH  23  26
ENDBRANCH   3  23
BRANCH   3  35
HETATM   35  C   UNL     3     -11.989  12.276  63.684  1.00  0.00    -0.543 C  
HETATM   36  O   UNL     3     -13.025  11.675  62.902  1.00  0.00    -0.845 OA 
HETATM   37  H   UNL     3     -13.702  12.329  62.773  1.00  0.00     0.000 HD 
ENDBRANCH   3  35
TORSDOF 8
ENDMDL
MODEL       33
REMARK 921   NORMALIZED FREE ENERGY PREDICTED BY IDOCK:   -5.82 KCAL/MOL
REMARK 922        TOTAL FREE ENERGY PREDICTED BY IDOCK:  -10.64 KCAL/MOL
REMARK 923 INTER-LIGAND FREE ENERGY PREDICTED BY IDOCK:   -8.76 KCAL/MOL
REMARK 924 INTRA-LIGAND FREE ENERGY PREDICTED BY IDOCK:   -1.89 KCAL/MOL
REMARK 927      BINDING AFFINITY PREDICTED BY RF-SCORE:    0.00 PKD
ROOT
HETATM    1 FE   UNL     1     -11.719  15.647  63.403  1.00  0.00    -0.783 Fe 
HETATM    2  C   UNL     2      -8.338  19.777  67.611  1.00  0.00    -0.317 C  
HETATM    3  C   UNL     3      -9.712  10.464  66.505  1.00  0.00    -0.194 C  
HETATM    4  H   UNL     3     -10.756  10.409  68.149  1.00  0.00     0.000 HD 
HETATM    5  H   UNL     2     -10.304  19.598  67.676  1.00  0.00     0.000 HD 
HETATM    6  O   UNL     2      -9.672  20.269  67.448  1.00  0.00    -0.396 OA 
HETATM    7  O   UNL     3      -9.842  10.565  67.940  1.00  0.00    -0.157 OA 
ENDROOT
BRANCH   2   8
HETATM    8  C   UNL     2      -7.319  20.859  67.242  1.00  0.00    -0.321 C  
HETATM    9  H   UNL     2      -5.604  21.563  67.944  1.00  0.00     0.000 HD 
HETATM   10  O   UNL     2      -6.237  20.892  68.173  1.00  0.00    -0.313 OA 
ENDBRANCH   2   8
BRANCH   2  11
HETATM   11  C   UNL     2      -8.153  18.490  66.783  1.00  0.00    -0.254 C  
HETATM   12  H   UNL     2      -7.337  17.965  65.051  1.00  0.00     0.000 HD 
HETATM   13  O   UNL     2      -7.451  18.758  65.561  1.00  0.00    -0.493 OA 
BRANCH  11  14
HETATM   14  C   UNL     2      -7.381  17.442  67.604  1.00  0.00    -0.175 C  
HETATM   15  H   UNL     2      -5.487  16.937  67.851  1.00  0.00     0.000 HD 
HETATM   16  O   UNL     2      -5.964  17.585  67.344  1.00  0.00    -0.126 OA 
BRANCH  14  17
HETATM   17  C   UNL     2      -7.763  15.995  67.311  1.00  0.00    -0.183 C  
HETATM   18  C   UNL     2      -8.731  15.433  68.368  1.00  0.00    -0.171 C  
HETATM   19  H   UNL     2      -6.784  14.294  67.141  1.00  0.00     0.000 HD 
HETATM   20  O   UNL     2      -6.546  15.196  67.324  1.00  0.00    -0.293 OA 
HETATM   21  O   UNL     2      -8.188  15.023  69.472  1.00  0.00    -0.190 OA 
HETATM   22  O   UNL     2      -9.869  15.078  68.072  1.00  0.00    -0.214 OA 
ENDBRANCH  14  17
ENDBRANCH  11  14
ENDBRANCH   2  11
BRANCH   3  23
HETATM   23  C   UNL     3     -10.705  11.459  65.913  1.00  0.00    -0.255 C  
HETATM   24  O   UNL     3     -11.349  12.137  67.000  1.00  0.00    -0.295 OA 
HETATM   25  H   UNL     3     -11.968  12.756  66.631  1.00  0.00     0.000 HD 
BRANCH  23  26
HETATM   26  C   UNL     3     -10.179  12.527  64.927  1.00  0.00    -0.278 C  
HETATM   27  O   UNL     3     -10.251  13.831  65.526  1.00  0.00    -0.302 OA 
HETATM   28  H   UNL     3      -9.927  14.487  64.920  1.00  0.00     0.000 HD 
BRANCH  26  29
HETATM   29  C   UNL     3     -11.074  12.498  63.666  1.00  0.00    -0.467 C  
HETATM   30  C   UNL     3     -12.591  12.722  63.881  1.00  0.00    -0.289 C  
HETATM   31  O   UNL     3     -10.908  11.223  62.956  1.00  0.00    -0.778 OA 
HETATM   32  O   UNL     3     -12.980  13.655  64.605  1.00  0.00    -0.661 OA 
HETATM   33  O   UNL     3     -13.285  11.844  63.207  1.00  0.00    -0.602 OA 
HETATM   34  H   UNL     3     -11.458  11.206  62.181  1.00  0.00     0.000 HD 
ENDBRANCH  26  29
ENDBRANCH  23  26
ENDBRANCH   3  23
BRANCH   3  35
HETATM   35  C   UNL     3      -8.242  10.715  66.169  1.00  0.00    -0.156 C  
HETATM   36  O   UNL     3      -7.577   9.449  66.177  1.00  0.00    -0.095 OA 
HETATM   37  H   UNL     3      -6.663   9.605  65.968  1.00  0.00     0.000 HD 
ENDBRANCH   3  35
TORSDOF 8
ENDMDL
MODEL       34
REMARK 921   NORMALIZED FREE ENERGY PREDICTED BY IDOCK:   -5.82 KCAL/MOL
REMARK 922        TOTAL FREE ENERGY PREDICTED BY IDOCK:  -10.64 KCAL/MOL
REMARK 923 INTER-LIGAND FREE ENERGY PREDICTED BY IDOCK:   -8.66 KCAL/MOL
REMARK 924 INTRA-LIGAND FREE ENERGY PREDICTED BY IDOCK:   -1.98 KCAL/MOL
REMARK 927      BINDING AFFINITY PREDICTED BY RF-SCORE:    0.00 PKD
ROOT
HETATM    1 FE   UNL     1     -10.088   9.276  64.664  1.00  0.00    -0.413 Fe 
HETATM    2  C   UNL     2      -9.310   6.319  70.734  1.00  0.00    -0.158 C  
HETATM    3  C   UNL     3     -10.577  15.056  67.284  1.00  0.00    -0.279 C  
HETATM    4  H   UNL     3      -8.765  15.541  67.809  1.00  0.00     0.000 HD 
HETATM    5  H   UNL     2      -7.805   6.531  69.473  1.00  0.00     0.000 HD 
HETATM    6  O   UNL     2      -8.312   5.817  69.840  1.00  0.00    -0.115 OA 
HETATM    7  O   UNL     3      -9.563  15.326  68.278  1.00  0.00    -0.200 OA 
ENDROOT
BRANCH   2   8
HETATM    8  C   UNL     2     -10.128   5.167  71.326  1.00  0.00    -0.210 C  
HETATM    9  H   UNL     2     -11.025   4.730  73.038  1.00  0.00     0.000 HD 
HETATM   10  O   UNL     2     -10.517   5.445  72.672  1.00  0.00    -0.197 OA 
ENDBRANCH   2   8
BRANCH   2  11
HETATM   11  C   UNL     2     -10.192   7.350  70.003  1.00  0.00    -0.209 C  
HETATM   12  H   UNL     2     -11.829   7.344  68.880  1.00  0.00     0.000 HD 
HETATM   13  O   UNL     2     -11.286   6.709  69.330  1.00  0.00    -0.289 OA 
BRANCH  11  14
HETATM   14  C   UNL     2     -10.736   8.383  71.005  1.00  0.00    -0.223 C  
HETATM   15  H   UNL     2     -12.519   8.956  71.636  1.00  0.00     0.000 HD 
HETATM   16  O   UNL     2     -12.183   8.318  71.017  1.00  0.00    -0.275 OA 
BRANCH  14  17
HETATM   17  C   UNL     2     -10.340   9.826  70.712  1.00  0.00    -0.228 C  
HETATM   18  C   UNL     2     -11.440  10.576  69.937  1.00  0.00    -0.310 C  
HETATM   19  H   UNL     2      -8.885  10.706  69.718  1.00  0.00     0.000 HD 
HETATM   20  O   UNL     2      -9.132   9.807  69.901  1.00  0.00    -0.208 OA 
HETATM   21  O   UNL     2     -11.473  10.368  68.658  1.00  0.00    -0.245 OA 
HETATM   22  O   UNL     2     -12.015  11.548  70.419  1.00  0.00    -0.349 OA 
ENDBRANCH  14  17
ENDBRANCH  11  14
ENDBRANCH   2  11
BRANCH   3  23
HETATM   23  C   UNL     3     -10.019  13.954  66.390  1.00  0.00    -0.297 C  
HETATM   24  O   UNL     3     -10.261  12.698  67.036  1.00  0.00    -0.224 OA 
HETATM   25  H   UNL     3      -9.913  12.012  66.479  1.00  0.00     0.000 HD 
BRANCH  23  26
HETATM   26  C   UNL     3     -10.535  13.854  64.936  1.00  0.00    -0.426 C  
HETATM   27  O   UNL     3     -10.985  15.141  64.482  1.00  0.00    -0.624 OA 
HETATM   28  H   UNL     3     -11.302  15.079  63.589  1.00  0.00     0.000 HD 
BRANCH  26  29
HETATM   29  C   UNL     3     -11.723  12.865  64.916  1.00  0.00    -0.348 C  
HETATM   30  C   UNL     3     -11.806  11.897  63.709  1.00  0.00    -0.458 C  
HETATM   31  O   UNL     3     -12.994  13.599  64.985  1.00  0.00    -0.724 OA 
HETATM   32  O   UNL     3     -10.790  11.282  63.343  1.00  0.00    -0.369 OA 
HETATM   33  O   UNL     3     -13.023  11.857  63.235  1.00  0.00    -0.707 OA 
HETATM   34  H   UNL     3     -13.725  12.991  64.973  1.00  0.00     0.000 HD 
ENDBRANCH  26  29
ENDBRANCH  23  26
ENDBRANCH   3  23
BRANCH   3  35
HETATM   35  C   UNL     3     -11.862  14.710  68.038  1.00  0.00    -0.311 C  
HETATM   36  O   UNL     3     -11.491  13.966  69.202  1.00  0.00    -0.262 OA 
HETATM   37  H   UNL     3     -12.289  13.751  69.671  1.00  0.00     0.000 HD 
ENDBRANCH   3  35
TORSDOF 8
ENDMDL
MODEL       35
REMARK 921   NORMALIZED FREE ENERGY PREDICTED BY IDOCK:   -5.79 KCAL/MOL
REMARK 922        TOTAL FREE ENERGY PREDICTED BY IDOCK:  -10.59 KCAL/MOL
REMARK 923 INTER-LIGAND FREE ENERGY PREDICTED BY IDOCK:   -8.46 KCAL/MOL
REMARK 924 INTRA-LIGAND FREE ENERGY PREDICTED BY IDOCK:   -2.13 KCAL/MOL
REMARK 927      BINDING AFFINITY PREDICTED BY RF-SCORE:    0.00 PKD
ROOT
HETATM    1 FE   UNL     1     -10.156  14.144  69.667  1.00  0.00    -0.343 Fe 
HETATM    2  C   UNL     2     -10.611   7.572  71.338  1.00  0.00    -0.210 C  
HETATM    3  C   UNL     3     -11.733  12.954  63.617  1.00  0.00    -0.508 C  
HETATM    4  H   UNL     3     -13.651  12.612  63.640  1.00  0.00     0.000 HD 
HETATM    5  H   UNL     2     -11.971   8.891  71.898  1.00  0.00     0.000 HD 
HETATM    6  O   UNL     2     -11.311   8.350  72.314  1.00  0.00    -0.336 OA 
HETATM    7  O   UNL     3     -12.878  12.083  63.480  1.00  0.00    -0.749 OA 
ENDROOT
BRANCH   2   8
HETATM    8  C   UNL     2      -9.546   6.701  72.009  1.00  0.00    -0.148 C  
HETATM    9  H   UNL     2      -8.670   4.950  71.698  1.00  0.00     0.000 HD 
HETATM   10  O   UNL     2      -9.332   5.490  71.282  1.00  0.00    -0.144 OA 
ENDBRANCH   2   8
BRANCH   2  11
HETATM   11  C   UNL     2     -10.017   8.500  70.260  1.00  0.00    -0.183 C  
HETATM   12  H   UNL     2      -8.232   9.208  69.758  1.00  0.00     0.000 HD 
HETATM   13  O   UNL     2      -8.598   8.637  70.422  1.00  0.00    -0.134 OA 
BRANCH  11  14
HETATM   14  C   UNL     2     -10.328   7.947  68.859  1.00  0.00    -0.213 C  
HETATM   15  H   UNL     2      -9.336   6.958  67.465  1.00  0.00     0.000 HD 
HETATM   16  O   UNL     2      -9.145   7.299  68.330  1.00  0.00    -0.136 OA 
BRANCH  14  17
HETATM   17  C   UNL     2     -10.774   8.994  67.844  1.00  0.00    -0.138 C  
HETATM   18  C   UNL     2      -9.619   9.428  66.923  1.00  0.00    -0.164 C  
HETATM   19  H   UNL     2     -11.525  10.813  67.944  1.00  0.00     0.000 HD 
HETATM   20  O   UNL     2     -11.247  10.160  68.576  1.00  0.00    -0.233 OA 
HETATM   21  O   UNL     2      -8.804  10.310  67.413  1.00  0.00    -0.131 OA 
HETATM   22  O   UNL     2      -9.653   9.227  65.712  1.00  0.00    -0.254 OA 
ENDBRANCH  14  17
ENDBRANCH  11  14
ENDBRANCH   2  11
BRANCH   3  23
HETATM   23  C   UNL     3     -11.832  13.578  65.004  1.00  0.00    -0.353 C  
HETATM   24  O   UNL     3     -13.219  13.644  65.359  1.00  0.00    -0.678 OA 
HETATM   25  H   UNL     3     -13.281  14.033  66.223  1.00  0.00     0.000 HD 
BRANCH  23  26
HETATM   26  C   UNL     3     -11.071  12.906  66.170  1.00  0.00    -0.286 C  
HETATM   27  O   UNL     3     -12.000  12.432  67.158  1.00  0.00    -0.528 OA 
HETATM   28  H   UNL     3     -11.533  12.018  67.875  1.00  0.00     0.000 HD 
BRANCH  26  29
HETATM   29  C   UNL     3     -10.145  13.964  66.812  1.00  0.00    -0.265 C  
HETATM   30  C   UNL     3     -10.828  15.217  67.416  1.00  0.00    -0.304 C  
HETATM   31  O   UNL     3      -9.150  14.428  65.835  1.00  0.00    -0.499 OA 
HETATM   32  O   UNL     3     -11.822  15.083  68.149  1.00  0.00    -0.334 OA 
HETATM   33  O   UNL     3     -10.200  16.303  67.050  1.00  0.00    -0.269 OA 
HETATM   34  H   UNL     3      -8.581  15.078  66.230  1.00  0.00     0.000 HD 
ENDBRANCH  26  29
ENDBRANCH  23  26
ENDBRANCH   3  23
BRANCH   3  35
HETATM   35  C   UNL     3     -10.490  12.103  63.359  1.00  0.00    -0.412 C  
HETATM   36  O   UNL     3     -10.845  10.738  63.600  1.00  0.00    -0.504 OA 
HETATM   37  H   UNL     3     -10.072  10.209  63.440  1.00  0.00     0.000 HD 
ENDBRANCH   3  35
TORSDOF 8
ENDMDL
MODEL       36
REMARK 921   NORMALIZED FREE ENERGY PREDICTED BY IDOCK:   -5.75 KCAL/MOL
REMARK 922        TOTAL FREE ENERGY PREDICTED BY IDOCK:  -10.54 KCAL/MOL
REMARK 923 INTER-LIGAND FREE ENERGY PREDICTED BY IDOCK:   -8.58 KCAL/MOL
REMARK 924 INTRA-LIGAND FREE ENERGY PREDICTED BY IDOCK:   -1.96 KCAL/MOL
REMARK 927      BINDING AFFINITY PREDICTED BY RF-SCORE:    0.00 PKD
ROOT
HETATM    1 FE   UNL     1      -7.693   9.976  68.927  1.00  0.00    -0.069 Fe 
HETATM    2  C   UNL     2     -11.365  14.212  65.086  1.00  0.00    -0.336 C  
HETATM    3  C   UNL     3     -12.882   7.809  71.907  1.00  0.00    -0.292 C  
HETATM    4  H   UNL     3     -13.761   6.633  70.627  1.00  0.00     0.000 HD 
HETATM    5  H   UNL     2     -10.559  12.566  64.350  1.00  0.00     0.000 HD 
HETATM    6  O   UNL     2     -10.446  13.504  64.249  1.00  0.00    -0.414 OA 
HETATM    7  O   UNL     3     -13.966   7.477  71.011  1.00  0.00    -0.234 OA 
ENDROOT
BRANCH   2   8
HETATM    8  C   UNL     2     -11.183  15.724  64.923  1.00  0.00    -0.350 C  
HETATM    9  H   UNL     2     -11.987  17.195  63.865  1.00  0.00     0.000 HD 
HETATM   10  O   UNL     2     -12.100  16.257  63.966  1.00  0.00    -0.928 OA 
ENDBRANCH   2   8
BRANCH   2  11
HETATM   11  C   UNL     2     -11.197  13.755  66.548  1.00  0.00    -0.312 C  
HETATM   12  H   UNL     2     -12.361  13.406  68.118  1.00  0.00     0.000 HD 
HETATM   13  O   UNL     2     -12.465  13.688  67.217  1.00  0.00    -0.232 OA 
BRANCH  11  14
HETATM   14  C   UNL     2     -10.514  12.377  66.594  1.00  0.00    -0.229 C  
HETATM   15  H   UNL     2     -11.091  10.509  66.880  1.00  0.00     0.000 HD 
HETATM   16  O   UNL     2     -11.513  11.360  66.852  1.00  0.00    -0.445 OA 
BRANCH  14  17
HETATM   17  C   UNL     2      -9.428  12.239  67.655  1.00  0.00    -0.188 C  
HETATM   18  C   UNL     2      -8.745  13.586  67.955  1.00  0.00    -0.181 C  
HETATM   19  H   UNL     2      -7.748  11.224  67.817  1.00  0.00     0.000 HD 
HETATM   20  O   UNL     2      -8.424  11.310  67.156  1.00  0.00    -0.139 OA 
HETATM   21  O   UNL     2      -7.824  13.952  67.119  1.00  0.00    -0.139 OA 
HETATM   22  O   UNL     2      -8.812  14.106  69.065  1.00  0.00    -0.043 OA 
ENDBRANCH  14  17
ENDBRANCH  11  14
ENDBRANCH   2  11
BRANCH   3  23
HETATM   23  C   UNL     3     -11.605   7.753  71.076  1.00  0.00    -0.283 C  
HETATM   24  O   UNL     3     -11.897   7.036  69.870  1.00  0.00    -0.579 OA 
HETATM   25  H   UNL     3     -11.101   7.001  69.352  1.00  0.00     0.000 HD 
BRANCH  23  26
HETATM   26  C   UNL     3     -10.919   9.083  70.690  1.00  0.00    -0.257 C  
HETATM   27  O   UNL     3     -11.051   9.314  69.278  1.00  0.00    -0.412 OA 
HETATM   28  H   UNL     3     -10.629  10.132  69.040  1.00  0.00     0.000 HD 
BRANCH  26  29
HETATM   29  C   UNL     3      -9.419   8.970  71.046  1.00  0.00    -0.274 C  
HETATM   30  C   UNL     3      -8.636   7.794  70.411  1.00  0.00    -0.137 C  
HETATM   31  O   UNL     3      -9.249   8.882  72.503  1.00  0.00    -0.334 OA 
HETATM   32  O   UNL     3      -8.759   7.556  69.197  1.00  0.00    -0.135 OA 
HETATM   33  O   UNL     3      -7.897   7.197  71.308  1.00  0.00    -0.096 OA 
HETATM   34  H   UNL     3      -8.327   8.813  72.722  1.00  0.00     0.000 HD 
ENDBRANCH  26  29
ENDBRANCH  23  26
ENDBRANCH   3  23
BRANCH   3  35
HETATM   35  C   UNL     3     -13.212   9.168  72.525  1.00  0.00    -0.397 C  
HETATM   36  O   UNL     3     -14.367   8.996  73.353  1.00  0.00    -1.143 OA 
HETATM   37  H   UNL     3     -14.572   9.840  73.737  1.00  0.00     0.000 HD 
ENDBRANCH   3  35
TORSDOF 8
ENDMDL
MODEL       37
REMARK 921   NORMALIZED FREE ENERGY PREDICTED BY IDOCK:   -5.75 KCAL/MOL
REMARK 922        TOTAL FREE ENERGY PREDICTED BY IDOCK:  -10.53 KCAL/MOL
REMARK 923 INTER-LIGAND FREE ENERGY PREDICTED BY IDOCK:   -8.35 KCAL/MOL
REMARK 924 INTRA-LIGAND FREE ENERGY PREDICTED BY IDOCK:   -2.18 KCAL/MOL
REMARK 927      BINDING AFFINITY PREDICTED BY RF-SCORE:    0.00 PKD
ROOT
HETATM    1 FE   UNL     1      -9.146  11.921  64.010  1.00  0.00    -0.365 Fe 
HETATM    2  C   UNL     2     -10.309  18.192  66.355  1.00  0.00    -0.394 C  
HETATM    3  C   UNL     3     -10.717   9.292  69.589  1.00  0.00    -0.230 C  
HETATM    4  H   UNL     3     -12.660   9.401  69.684  1.00  0.00     0.000 HD 
HETATM    5  H   UNL     2     -11.537  17.305  65.088  1.00  0.00     0.000 HD 
HETATM    6  O   UNL     2     -10.943  18.047  65.081  1.00  0.00    -0.645 OA 
HETATM    7  O   UNL     3     -11.942   9.815  70.149  1.00  0.00    -0.160 OA 
ENDROOT
BRANCH   2   8
HETATM    8  C   UNL     2      -9.352  19.388  66.344  1.00  0.00    -0.368 C  
HETATM    9  H   UNL     2      -7.579  19.844  65.585  1.00  0.00     0.000 HD 
HETATM   10  O   UNL     2      -8.172  19.102  65.592  1.00  0.00    -0.389 OA 
ENDBRANCH   2   8
BRANCH   2  11
HETATM   11  C   UNL     2      -9.601  16.878  66.737  1.00  0.00    -0.262 C  
HETATM   12  H   UNL     2      -8.393  16.227  68.172  1.00  0.00     0.000 HD 
HETATM   13  O   UNL     2      -8.828  17.037  67.936  1.00  0.00    -0.217 OA 
BRANCH  11  14
HETATM   14  C   UNL     2     -10.638  15.759  66.935  1.00  0.00    -0.317 C  
HETATM   15  H   UNL     2     -10.872  14.233  68.168  1.00  0.00     0.000 HD 
HETATM   16  O   UNL     2     -10.231  14.924  68.047  1.00  0.00    -0.225 OA 
BRANCH  14  17
HETATM   17  C   UNL     2     -10.837  14.853  65.724  1.00  0.00    -0.339 C  
HETATM   18  C   UNL     2     -12.150  14.053  65.818  1.00  0.00    -0.427 C  
HETATM   19  H   UNL     2      -9.849  13.351  64.919  1.00  0.00     0.000 HD 
HETATM   20  O   UNL     2      -9.725  13.916  65.673  1.00  0.00    -0.235 OA 
HETATM   21  O   UNL     2     -12.112  12.988  66.557  1.00  0.00    -0.398 OA 
HETATM   22  O   UNL     2     -13.053  14.203  65.000  1.00  0.00    -0.728 OA 
ENDBRANCH  14  17
ENDBRANCH  11  14
ENDBRANCH   2  11
BRANCH   3  23
HETATM   23  C   UNL     3     -10.779   9.564  68.091  1.00  0.00    -0.197 C  
HETATM   24  O   UNL     3     -11.855  10.482  67.854  1.00  0.00    -0.731 OA 
HETATM   25  H   UNL     3     -11.893  10.651  66.920  1.00  0.00     0.000 HD 
BRANCH  23  26
HETATM   26  C   UNL     3      -9.516  10.115  67.389  1.00  0.00    -0.153 C  
HETATM   27  O   UNL     3      -9.854  11.266  66.597  1.00  0.00    -0.198 OA 
HETATM   28  H   UNL     3      -9.078  11.605  66.166  1.00  0.00     0.000 HD 
BRANCH  26  29
HETATM   29  C   UNL     3      -8.959   9.009  66.464  1.00  0.00    -0.146 C  
HETATM   30  C   UNL     3      -8.233   9.474  65.177  1.00  0.00    -0.133 C  
HETATM   31  O   UNL     3     -10.037   8.095  66.061  1.00  0.00    -0.449 OA 
HETATM   32  O   UNL     3      -7.385  10.381  65.242  1.00  0.00    -0.144 OA 
HETATM   33  O   UNL     3      -8.637   8.781  64.146  1.00  0.00    -0.158 OA 
HETATM   34  H   UNL     3      -9.694   7.415  65.493  1.00  0.00     0.000 HD 
ENDBRANCH  26  29
ENDBRANCH  23  26
ENDBRANCH   3  23
BRANCH   3  35
HETATM   35  C   UNL     3      -9.562   9.959  70.338  1.00  0.00    -0.056 C  
HETATM   36  O   UNL     3      -9.370   9.241  71.560  1.00  0.00    -0.287 OA 
HETATM   37  H   UNL     3      -8.652   9.655  72.025  1.00  0.00     0.000 HD 
ENDBRANCH   3  35
TORSDOF 8
ENDMDL
MODEL       38
REMARK 921   NORMALIZED FREE ENERGY PREDICTED BY IDOCK:   -5.74 KCAL/MOL
REMARK 922        TOTAL FREE ENERGY PREDICTED BY IDOCK:  -10.52 KCAL/MOL
REMARK 923 INTER-LIGAND FREE ENERGY PREDICTED BY IDOCK:   -8.32 KCAL/MOL
REMARK 924 INTRA-LIGAND FREE ENERGY PREDICTED BY IDOCK:   -2.20 KCAL/MOL
REMARK 927      BINDING AFFINITY PREDICTED BY RF-SCORE:    0.00 PKD
ROOT
HETATM    1 FE   UNL     1     -11.964  15.510  63.356  1.00  0.00    -0.820 Fe 
HETATM    2  C   UNL     2      -7.845  19.228  67.280  1.00  0.00    -0.254 C  
HETATM    3  C   UNL     3      -8.702  10.183  64.579  1.00  0.00    -0.196 C  
HETATM    4  H   UNL     3      -9.203   9.674  66.392  1.00  0.00     0.000 HD 
HETATM    5  H   UNL     2      -9.681  18.759  67.838  1.00  0.00     0.000 HD 
HETATM    6  O   UNL     2      -9.203  19.545  67.599  1.00  0.00    -0.301 OA 
HETATM    7  O   UNL     3      -8.408   9.996  65.981  1.00  0.00    -0.120 OA 
ENDROOT
BRANCH   2   8
HETATM    8  C   UNL     2      -7.075  20.494  66.894  1.00  0.00    -0.290 C  
HETATM    9  H   UNL     2      -6.147  21.986  67.810  1.00  0.00     0.000 HD 
HETATM   10  O   UNL     2      -6.625  21.201  68.050  1.00  0.00    -0.301 OA 
ENDBRANCH   2   8
BRANCH   2  11
HETATM   11  C   UNL     2      -7.807  18.157  66.173  1.00  0.00    -0.204 C  
HETATM   12  H   UNL     2      -6.660  17.695  64.619  1.00  0.00     0.000 HD 
HETATM   13  O   UNL     2      -6.684  18.355  65.301  1.00  0.00    -0.490 OA 
BRANCH  11  14
HETATM   14  C   UNL     2      -7.734  16.753  66.799  1.00  0.00    -0.250 C  
HETATM   15  H   UNL     2      -6.376  15.325  66.944  1.00  0.00     0.000 HD 
HETATM   16  O   UNL     2      -6.420  16.192  66.557  1.00  0.00    -0.176 OA 
BRANCH  14  17
HETATM   17  C   UNL     2      -8.765  15.763  66.268  1.00  0.00    -0.323 C  
HETATM   18  C   UNL     2     -10.138  16.426  66.054  1.00  0.00    -0.353 C  
HETATM   19  H   UNL     2      -9.555  14.079  66.916  1.00  0.00     0.000 HD 
HETATM   20  O   UNL     2      -8.912  14.696  67.246  1.00  0.00    -0.184 OA 
HETATM   21  O   UNL     2     -10.874  16.560  67.113  1.00  0.00    -0.262 OA 
HETATM   22  O   UNL     2     -10.644  16.508  64.938  1.00  0.00    -0.689 OA 
ENDBRANCH  14  17
ENDBRANCH  11  14
ENDBRANCH   2  11
BRANCH   3  23
HETATM   23  C   UNL     3      -9.905  11.117  64.513  1.00  0.00    -0.280 C  
HETATM   24  O   UNL     3     -11.024  10.361  64.033  1.00  0.00    -0.023 OA 
HETATM   25  H   UNL     3     -11.773  10.944  63.992  1.00  0.00     0.000 HD 
BRANCH  23  26
HETATM   26  C   UNL     3     -10.339  11.849  65.804  1.00  0.00    -0.248 C  
HETATM   27  O   UNL     3     -11.366  11.100  66.474  1.00  0.00    -0.275 OA 
HETATM   28  H   UNL     3     -11.633  11.550  67.267  1.00  0.00     0.000 HD 
BRANCH  26  29
HETATM   29  C   UNL     3     -10.901  13.233  65.405  1.00  0.00    -0.291 C  
HETATM   30  C   UNL     3     -12.292  13.613  65.971  1.00  0.00    -0.445 C  
HETATM   31  O   UNL     3     -10.970  13.350  63.941  1.00  0.00    -0.547 OA 
HETATM   32  O   UNL     3     -12.536  13.435  67.177  1.00  0.00    -0.217 OA 
HETATM   33  O   UNL     3     -13.049  14.116  65.032  1.00  0.00    -0.728 OA 
HETATM   34  H   UNL     3     -11.315  14.201  63.696  1.00  0.00     0.000 HD 
ENDBRANCH  26  29
ENDBRANCH  23  26
ENDBRANCH   3  23
BRANCH   3  35
HETATM   35  C   UNL     3      -7.423  10.700  63.919  1.00  0.00     0.207 C  
HETATM   36  O   UNL     3      -6.366  10.577  64.875  1.00  0.00    -0.263 OA 
HETATM   37  H   UNL     3      -5.571  10.898  64.464  1.00  0.00     0.000 HD 
ENDBRANCH   3  35
TORSDOF 8
ENDMDL
MODEL       39
REMARK 921   NORMALIZED FREE ENERGY PREDICTED BY IDOCK:   -5.74 KCAL/MOL
REMARK 922        TOTAL FREE ENERGY PREDICTED BY IDOCK:  -10.52 KCAL/MOL
REMARK 923 INTER-LIGAND FREE ENERGY PREDICTED BY IDOCK:   -7.92 KCAL/MOL
REMARK 924 INTRA-LIGAND FREE ENERGY PREDICTED BY IDOCK:   -2.60 KCAL/MOL
REMARK 927      BINDING AFFINITY PREDICTED BY RF-SCORE:    0.00 PKD
ROOT
HETATM    1 FE   UNL     1     -11.740  15.497  65.499  1.00  0.00    -0.319 Fe 
HETATM    2  C   UNL     2      -7.169  19.388  68.686  1.00  0.00    -0.339 C  
HETATM    3  C   UNL     3      -8.376  10.214  66.630  1.00  0.00    -0.123 C  
HETATM    4  H   UNL     3      -8.660   9.815  68.516  1.00  0.00     0.000 HD 
HETATM    5  H   UNL     2      -8.928  18.972  69.484  1.00  0.00     0.000 HD 
HETATM    6  O   UNL     2      -8.479  19.737  69.145  1.00  0.00    -0.192 OA 
HETATM    7  O   UNL     3      -7.918  10.104  67.997  1.00  0.00    -0.100 OA 
ENDROOT
BRANCH   2   8
HETATM    8  C   UNL     2      -6.446  20.622  68.139  1.00  0.00    -0.303 C  
HETATM    9  H   UNL     2      -6.742  22.001  66.746  1.00  0.00     0.000 HD 
HETATM   10  O   UNL     2      -7.190  21.235  67.085  1.00  0.00    -0.475 OA 
ENDBRANCH   2   8
BRANCH   2  11
HETATM   11  C   UNL     2      -7.267  18.256  67.645  1.00  0.00    -0.210 C  
HETATM   12  H   UNL     2      -6.026  17.163  66.547  1.00  0.00     0.000 HD 
HETATM   13  O   UNL     2      -5.966  17.861  67.188  1.00  0.00    -0.132 OA 
BRANCH  11  14
HETATM   14  C   UNL     2      -7.992  17.042  68.253  1.00  0.00    -0.222 C  
HETATM   15  H   UNL     2      -7.735  15.083  68.258  1.00  0.00     0.000 HD 
HETATM   16  O   UNL     2      -7.287  15.832  67.883  1.00  0.00    -0.122 OA 
BRANCH  14  17
HETATM   17  C   UNL     2      -9.445  16.883  67.818  1.00  0.00    -0.237 C  
HETATM   18  C   UNL     2      -9.638  15.660  66.903  1.00  0.00    -0.230 C  
HETATM   19  H   UNL     2     -10.736  17.980  66.813  1.00  0.00     0.000 HD 
HETATM   20  O   UNL     2      -9.830  18.079  67.084  1.00  0.00    -0.295 OA 
HETATM   21  O   UNL     2      -9.327  15.832  65.656  1.00  0.00    -0.304 OA 
HETATM   22  O   UNL     2     -10.345  14.714  67.236  1.00  0.00    -0.253 OA 
ENDBRANCH  14  17
ENDBRANCH  11  14
ENDBRANCH   2  11
BRANCH   3  23
HETATM   23  C   UNL     3      -9.575  11.156  66.655  1.00  0.00    -0.190 C  
HETATM   24  O   UNL     3      -9.232  12.284  67.471  1.00  0.00    -0.171 OA 
HETATM   25  H   UNL     3      -9.979  12.870  67.486  1.00  0.00     0.000 HD 
BRANCH  23  26
HETATM   26  C   UNL     3     -10.121  11.687  65.309  1.00  0.00    -0.264 C  
HETATM   27  O   UNL     3      -9.536  12.965  65.009  1.00  0.00    -0.490 OA 
HETATM   28  H   UNL     3      -9.872  13.291  64.182  1.00  0.00     0.000 HD 
BRANCH  26  29
HETATM   29  C   UNL     3     -11.653  11.850  65.444  1.00  0.00    -0.223 C  
HETATM   30  C   UNL     3     -12.344  12.813  64.447  1.00  0.00    -0.424 C  
HETATM   31  O   UNL     3     -11.998  12.294  66.802  1.00  0.00    -0.586 OA 
HETATM   32  O   UNL     3     -12.072  12.744  63.236  1.00  0.00    -0.539 OA 
HETATM   33  O   UNL     3     -13.182  13.597  65.071  1.00  0.00    -0.729 OA 
HETATM   34  H   UNL     3     -12.939  12.394  66.885  1.00  0.00     0.000 HD 
ENDBRANCH  26  29
ENDBRANCH  23  26
ENDBRANCH   3  23
BRANCH   3  35
HETATM   35  C   UNL     3      -7.183  10.679  65.795  1.00  0.00    -0.104 C  
HETATM   36  O   UNL     3      -6.610  11.811  66.456  1.00  0.00    -0.344 OA 
HETATM   37  H   UNL     3      -5.868  12.100  65.937  1.00  0.00     0.000 HD 
ENDBRANCH   3  35
TORSDOF 8
ENDMDL
MODEL       40
REMARK 921   NORMALIZED FREE ENERGY PREDICTED BY IDOCK:   -5.73 KCAL/MOL
REMARK 922        TOTAL FREE ENERGY PREDICTED BY IDOCK:  -10.51 KCAL/MOL
REMARK 923 INTER-LIGAND FREE ENERGY PREDICTED BY IDOCK:   -9.34 KCAL/MOL
REMARK 924 INTRA-LIGAND FREE ENERGY PREDICTED BY IDOCK:   -1.17 KCAL/MOL
REMARK 927      BINDING AFFINITY PREDICTED BY RF-SCORE:    0.00 PKD
ROOT
HETATM    1 FE   UNL     1     -12.362  12.847  71.300  1.00  0.00    -0.301 Fe 
HETATM    2  C   UNL     2     -10.505  15.248  65.219  1.00  0.00    -0.411 C  
HETATM    3  C   UNL     3      -9.547   7.245  70.206  1.00  0.00    -0.165 C  
HETATM    4  H   UNL     3      -7.638   7.578  70.401  1.00  0.00     0.000 HD 
HETATM    5  H   UNL     2      -9.645  15.855  66.891  1.00  0.00     0.000 HD 
HETATM    6  O   UNL     2     -10.203  16.227  66.218  1.00  0.00    -0.296 OA 
HETATM    7  O   UNL     3      -8.210   7.365  69.673  1.00  0.00    -0.126 OA 
ENDROOT
BRANCH   2   8
HETATM    8  C   UNL     2     -11.404  15.847  64.135  1.00  0.00    -0.010 C  
HETATM    9  H   UNL     2     -11.988  17.645  63.538  1.00  0.00     0.000 HD 
HETATM   10  O   UNL     2     -11.430  17.273  64.211  1.00  0.00    -0.929 OA 
ENDBRANCH   2   8
BRANCH   2  11
HETATM   11  C   UNL     2     -11.131  14.005  65.881  1.00  0.00    -0.301 C  
HETATM   12  H   UNL     2     -11.994  13.542  67.608  1.00  0.00     0.000 HD 
HETATM   13  O   UNL     2     -11.607  14.307  67.200  1.00  0.00    -0.342 OA 
BRANCH  11  14
HETATM   14  C   UNL     2     -12.292  13.478  65.019  1.00  0.00    -0.428 C  
HETATM   15  H   UNL     2     -14.250  13.301  65.220  1.00  0.00     0.000 HD 
HETATM   16  O   UNL     2     -13.533  13.626  65.752  1.00  0.00    -0.318 OA 
BRANCH  14  17
HETATM   17  C   UNL     2     -12.169  12.014  64.609  1.00  0.00    -0.205 C  
HETATM   18  C   UNL     2     -10.698  11.563  64.531  1.00  0.00    -0.329 C  
HETATM   19  H   UNL     2     -12.696  10.950  63.038  1.00  0.00     0.000 HD 
HETATM   20  O   UNL     2     -12.772  11.862  63.294  1.00  0.00    -0.654 OA 
HETATM   21  O   UNL     2     -10.067  11.879  63.443  1.00  0.00    -0.410 OA 
HETATM   22  O   UNL     2     -10.255  10.688  65.268  1.00  0.00    -0.282 OA 
ENDBRANCH  14  17
ENDBRANCH  11  14
ENDBRANCH   2  11
BRANCH   3  23
HETATM   23  C   UNL     3      -9.845   8.559  70.920  1.00  0.00    -0.189 C  
HETATM   24  O   UNL     3     -10.499   9.428  69.986  1.00  0.00    -0.205 OA 
HETATM   25  H   UNL     3     -10.685  10.246  70.431  1.00  0.00     0.000 HD 
BRANCH  23  26
HETATM   26  C   UNL     3     -10.692   8.519  72.212  1.00  0.00    -0.341 C  
HETATM   27  O   UNL     3     -10.259   7.437  73.053  1.00  0.00    -0.226 OA 
HETATM   28  H   UNL     3     -10.779   7.413  73.848  1.00  0.00     0.000 HD 
BRANCH  26  29
HETATM   29  C   UNL     3     -12.168   8.290  71.813  1.00  0.00    -0.326 C  
HETATM   30  C   UNL     3     -13.165   9.431  72.136  1.00  0.00    -0.460 C  
HETATM   31  O   UNL     3     -12.678   7.063  72.440  1.00  0.00    -0.509 OA 
HETATM   32  O   UNL     3     -12.870  10.605  71.853  1.00  0.00    -0.445 OA 
HETATM   33  O   UNL     3     -14.251   8.951  72.680  1.00  0.00    -0.563 OA 
HETATM   34  H   UNL     3     -13.585   6.922  72.194  1.00  0.00     0.000 HD 
ENDBRANCH  26  29
ENDBRANCH  23  26
ENDBRANCH   3  23
BRANCH   3  35
HETATM   35  C   UNL     3     -10.467   6.902  69.034  1.00  0.00    -0.208 C  
HETATM   36  O   UNL     3     -11.396   5.915  69.490  1.00  0.00    -0.361 OA 
HETATM   37  H   UNL     3     -11.968   5.702  68.762  1.00  0.00     0.000 HD 
ENDBRANCH   3  35
TORSDOF 8
ENDMDL
MODEL       41
REMARK 921   NORMALIZED FREE ENERGY PREDICTED BY IDOCK:   -5.73 KCAL/MOL
REMARK 922        TOTAL FREE ENERGY PREDICTED BY IDOCK:  -10.50 KCAL/MOL
REMARK 923 INTER-LIGAND FREE ENERGY PREDICTED BY IDOCK:   -8.78 KCAL/MOL
REMARK 924 INTRA-LIGAND FREE ENERGY PREDICTED BY IDOCK:   -1.72 KCAL/MOL
REMARK 927      BINDING AFFINITY PREDICTED BY RF-SCORE:    0.00 PKD
ROOT
HETATM    1 FE   UNL     1     -11.936  10.357  67.862  1.00  0.00    -0.375 Fe 
HETATM    2  C   UNL     2      -5.874   8.925  70.580  1.00  0.00    -0.033 C  
HETATM    3  C   UNL     3     -10.422  16.497  67.143  1.00  0.00    -0.300 C  
HETATM    4  H   UNL     3      -9.205  16.555  65.623  1.00  0.00     0.000 HD 
HETATM    5  H   UNL     2      -6.356   8.371  68.746  1.00  0.00     0.000 HD 
HETATM    6  O   UNL     2      -6.178   7.949  69.578  1.00  0.00    -0.033 OA 
HETATM    7  O   UNL     3      -9.117  16.705  66.557  1.00  0.00    -0.236 OA 
ENDROOT
BRANCH   2   8
HETATM    8  C   UNL     2      -5.587   8.245  71.922  1.00  0.00    -0.038 C  
HETATM    9  H   UNL     2      -5.736   8.678  73.850  1.00  0.00     0.000 HD 
HETATM   10  O   UNL     2      -5.914   9.100  73.018  1.00  0.00    -0.260 OA 
ENDBRANCH   2   8
BRANCH   2  11
HETATM   11  C   UNL     2      -7.023   9.948  70.675  1.00  0.00    -0.064 C  
HETATM   12  H   UNL     2      -7.226  11.922  70.740  1.00  0.00     0.000 HD 
HETATM   13  O   UNL     2      -6.518  11.291  70.682  1.00  0.00    -0.286 OA 
BRANCH  11  14
HETATM   14  C   UNL     2      -7.991   9.765  69.493  1.00  0.00    -0.137 C  
HETATM   15  H   UNL     2      -8.500  10.806  67.893  1.00  0.00     0.000 HD 
HETATM   16  O   UNL     2      -7.902  10.919  68.623  1.00  0.00    -0.110 OA 
BRANCH  14  17
HETATM   17  C   UNL     2      -9.454   9.594  69.888  1.00  0.00    -0.231 C  
HETATM   18  C   UNL     2     -10.064   8.316  69.283  1.00  0.00    -0.199 C  
HETATM   19  H   UNL     2     -11.106  10.637  69.633  1.00  0.00     0.000 HD 
HETATM   20  O   UNL     2     -10.194  10.743  69.388  1.00  0.00    -0.217 OA 
HETATM   21  O   UNL     2     -10.450   8.401  68.048  1.00  0.00    -0.217 OA 
HETATM   22  O   UNL     2     -10.472   7.401  69.994  1.00  0.00    -0.215 OA 
ENDBRANCH  14  17
ENDBRANCH  11  14
ENDBRANCH   2  11
BRANCH   3  23
HETATM   23  C   UNL     3     -10.857  15.094  66.736  1.00  0.00    -0.322 C  
HETATM   24  O   UNL     3     -12.194  14.892  67.212  1.00  0.00    -0.441 OA 
HETATM   25  H   UNL     3     -12.465  14.018  66.958  1.00  0.00     0.000 HD 
BRANCH  23  26
HETATM   26  C   UNL     3     -10.820  14.718  65.237  1.00  0.00    -0.383 C  
HETATM   27  O   UNL     3     -10.571  15.889  64.440  1.00  0.00    -0.721 OA 
HETATM   28  H   UNL     3     -10.548  15.658  63.519  1.00  0.00     0.000 HD 
BRANCH  26  29
HETATM   29  C   UNL     3     -12.198  14.130  64.855  1.00  0.00    -0.438 C  
HETATM   30  C   UNL     3     -12.356  12.593  64.965  1.00  0.00    -0.497 C  
HETATM   31  O   UNL     3     -12.551  14.516  63.482  1.00  0.00    -1.034 OA 
HETATM   32  O   UNL     3     -11.958  12.004  65.985  1.00  0.00    -0.559 OA 
HETATM   33  O   UNL     3     -12.942  12.114  63.899  1.00  0.00    -0.726 OA 
HETATM   34  H   UNL     3     -13.398  14.154  63.247  1.00  0.00     0.000 HD 
ENDBRANCH  26  29
ENDBRANCH  23  26
ENDBRANCH   3  23
BRANCH   3  35
HETATM   35  C   UNL     3     -10.281  16.738  68.646  1.00  0.00    -0.298 C  
HETATM   36  O   UNL     3     -10.371  18.149  68.867  1.00  0.00    -0.408 OA 
HETATM   37  H   UNL     3     -10.283  18.298  69.801  1.00  0.00     0.000 HD 
ENDBRANCH   3  35
TORSDOF 8
ENDMDL
MODEL       42
REMARK 921   NORMALIZED FREE ENERGY PREDICTED BY IDOCK:   -5.72 KCAL/MOL
REMARK 922        TOTAL FREE ENERGY PREDICTED BY IDOCK:  -10.49 KCAL/MOL
REMARK 923 INTER-LIGAND FREE ENERGY PREDICTED BY IDOCK:   -8.97 KCAL/MOL
REMARK 924 INTRA-LIGAND FREE ENERGY PREDICTED BY IDOCK:   -1.52 KCAL/MOL
REMARK 927      BINDING AFFINITY PREDICTED BY RF-SCORE:    0.00 PKD
ROOT
HETATM    1 FE   UNL     1     -10.628   7.888  65.735  1.00  0.00    -0.443 Fe 
HETATM    2  C   UNL     2     -11.762  14.589  65.624  1.00  0.00    -0.335 C  
HETATM    3  C   UNL     3     -10.962   7.703  72.088  1.00  0.00    -0.257 C  
HETATM    4  H   UNL     3     -12.857   7.861  72.511  1.00  0.00     0.000 HD 
HETATM    5  H   UNL     2     -13.140  13.285  65.071  1.00  0.00     0.000 HD 
HETATM    6  O   UNL     2     -12.609  13.957  64.659  1.00  0.00    -0.616 OA 
HETATM    7  O   UNL     3     -12.096   8.418  72.627  1.00  0.00    -0.390 OA 
ENDROOT
BRANCH   2   8
HETATM    8  C   UNL     2     -10.908  15.671  64.960  1.00  0.00    -0.450 C  
HETATM    9  H   UNL     2     -11.110  17.036  63.537  1.00  0.00     0.000 HD 
HETATM   10  O   UNL     2     -11.641  16.364  63.948  1.00  0.00    -1.100 OA 
ENDBRANCH   2   8
BRANCH   2  11
HETATM   11  C   UNL     2     -10.909  13.525  66.342  1.00  0.00    -0.290 C  
HETATM   12  H   UNL     2      -8.991  13.029  66.474  1.00  0.00     0.000 HD 
HETATM   13  O   UNL     2      -9.517  13.684  66.031  1.00  0.00    -0.209 OA 
BRANCH  11  14
HETATM   14  C   UNL     2     -11.113  13.625  67.864  1.00  0.00    -0.261 C  
HETATM   15  H   UNL     2     -12.100  12.607  69.240  1.00  0.00     0.000 HD 
HETATM   16  O   UNL     2     -11.974  12.545  68.300  1.00  0.00    -0.328 OA 
BRANCH  14  17
HETATM   17  C   UNL     2     -11.735  14.934  68.339  1.00  0.00    -0.309 C  
HETATM   18  C   UNL     2     -10.664  15.962  68.750  1.00  0.00    -0.265 C  
HETATM   19  H   UNL     2     -12.956  15.459  69.793  1.00  0.00     0.000 HD 
HETATM   20  O   UNL     2     -12.568  14.644  69.497  1.00  0.00    -0.179 OA 
HETATM   21  O   UNL     2     -10.165  15.815  69.938  1.00  0.00    -0.284 OA 
HETATM   22  O   UNL     2     -10.536  17.028  68.155  1.00  0.00    -0.339 OA 
ENDBRANCH  14  17
ENDBRANCH  11  14
ENDBRANCH   2  11
BRANCH   3  23
HETATM   23  C   UNL     3     -11.317   7.360  70.646  1.00  0.00    -0.281 C  
HETATM   24  O   UNL     3     -11.906   8.523  70.049  1.00  0.00    -0.420 OA 
HETATM   25  H   UNL     3     -12.127   8.308  69.150  1.00  0.00     0.000 HD 
BRANCH  23  26
HETATM   26  C   UNL     3     -10.194   6.857  69.711  1.00  0.00    -0.196 C  
HETATM   27  O   UNL     3      -9.609   7.963  69.003  1.00  0.00    -0.154 OA 
HETATM   28  H   UNL     3      -8.918   7.654  68.428  1.00  0.00     0.000 HD 
BRANCH  26  29
HETATM   29  C   UNL     3     -10.820   5.878  68.691  1.00  0.00    -0.261 C  
HETATM   30  C   UNL     3      -9.859   4.882  67.997  1.00  0.00    -0.139 C  
HETATM   31  O   UNL     3     -11.524   6.624  67.638  1.00  0.00    -0.687 OA 
HETATM   32  O   UNL     3      -9.032   4.249  68.676  1.00  0.00    -0.101 OA 
HETATM   33  O   UNL     3     -10.089   4.841  66.711  1.00  0.00    -0.208 OA 
HETATM   34  H   UNL     3     -11.908   6.022  67.011  1.00  0.00     0.000 HD 
ENDBRANCH  26  29
ENDBRANCH  23  26
ENDBRANCH   3  23
BRANCH   3  35
HETATM   35  C   UNL     3      -9.738   8.599  72.275  1.00  0.00    -0.286 C  
HETATM   36  O   UNL     3      -9.920   9.754  71.449  1.00  0.00    -0.181 OA 
HETATM   37  H   UNL     3      -9.159  10.311  71.565  1.00  0.00     0.000 HD 
ENDBRANCH   3  35
TORSDOF 8
ENDMDL
MODEL       43
REMARK 921   NORMALIZED FREE ENERGY PREDICTED BY IDOCK:   -5.71 KCAL/MOL
REMARK 922        TOTAL FREE ENERGY PREDICTED BY IDOCK:  -10.48 KCAL/MOL
REMARK 923 INTER-LIGAND FREE ENERGY PREDICTED BY IDOCK:   -8.06 KCAL/MOL
REMARK 924 INTRA-LIGAND FREE ENERGY PREDICTED BY IDOCK:   -2.42 KCAL/MOL
REMARK 927      BINDING AFFINITY PREDICTED BY RF-SCORE:    0.00 PKD
ROOT
HETATM    1 FE   UNL     1      -7.603   8.837  66.509  1.00  0.00    -0.082 Fe 
HETATM    2  C   UNL     2     -11.372  14.339  65.200  1.00  0.00    -0.345 C  
HETATM    3  C   UNL     3     -11.285   7.202  71.436  1.00  0.00    -0.251 C  
HETATM    4  H   UNL     3     -12.912   6.474  70.648  1.00  0.00     0.000 HD 
HETATM    5  H   UNL     2     -11.431  12.732  64.052  1.00  0.00     0.000 HD 
HETATM    6  O   UNL     2     -11.138  13.633  63.977  1.00  0.00    -0.293 OA 
HETATM    7  O   UNL     3     -12.699   7.257  71.143  1.00  0.00    -0.350 OA 
ENDROOT
BRANCH   2   8
HETATM    8  C   UNL     2     -10.900  15.790  65.080  1.00  0.00    -0.443 C  
HETATM    9  H   UNL     2     -11.338  17.394  64.000  1.00  0.00     0.000 HD 
HETATM   10  O   UNL     2     -11.631  16.493  64.074  1.00  0.00    -1.154 OA 
ENDBRANCH   2   8
BRANCH   2  11
HETATM   11  C   UNL     2     -10.695  13.596  66.368  1.00  0.00    -0.281 C  
HETATM   12  H   UNL     2     -10.499  13.819  68.331  1.00  0.00     0.000 HD 
HETATM   13  O   UNL     2     -10.916  14.278  67.611  1.00  0.00    -0.267 OA 
BRANCH  11  14
HETATM   14  C   UNL     2     -11.236  12.159  66.463  1.00  0.00    -0.328 C  
HETATM   15  H   UNL     2     -12.468  11.174  67.654  1.00  0.00     0.000 HD 
HETATM   16  O   UNL     2     -12.134  12.062  67.595  1.00  0.00    -0.547 OA 
BRANCH  14  17
HETATM   17  C   UNL     2     -10.167  11.084  66.627  1.00  0.00    -0.235 C  
HETATM   18  C   UNL     2      -9.619  11.035  68.065  1.00  0.00    -0.170 C  
HETATM   19  H   UNL     2      -8.403  10.726  65.824  1.00  0.00     0.000 HD 
HETATM   20  O   UNL     2      -9.070  11.396  65.722  1.00  0.00    -0.211 OA 
HETATM   21  O   UNL     2      -8.717  11.919  68.357  1.00  0.00    -0.173 OA 
HETATM   22  O   UNL     2      -9.760  10.041  68.772  1.00  0.00    -0.159 OA 
ENDBRANCH  14  17
ENDBRANCH  11  14
ENDBRANCH   2  11
BRANCH   3  23
HETATM   23  C   UNL     3     -10.574   7.054  70.095  1.00  0.00    -0.228 C  
HETATM   24  O   UNL     3      -9.236   7.543  70.251  1.00  0.00    -0.157 OA 
HETATM   25  H   UNL     3      -8.793   7.451  69.415  1.00  0.00     0.000 HD 
BRANCH  23  26
HETATM   26  C   UNL     3     -10.501   5.650  69.452  1.00  0.00    -0.297 C  
HETATM   27  O   UNL     3      -9.292   4.986  69.854  1.00  0.00    -0.123 OA 
HETATM   28  H   UNL     3      -9.246   4.123  69.459  1.00  0.00     0.000 HD 
BRANCH  26  29
HETATM   29  C   UNL     3     -10.495   5.826  67.916  1.00  0.00    -0.228 C  
HETATM   30  C   UNL     3      -9.307   6.612  67.307  1.00  0.00    -0.132 C  
HETATM   31  O   UNL     3     -11.734   6.482  67.476  1.00  0.00    -0.596 OA 
HETATM   32  O   UNL     3      -8.146   6.349  67.666  1.00  0.00    -0.112 OA 
HETATM   33  O   UNL     3      -9.733   7.482  66.431  1.00  0.00    -0.184 OA 
HETATM   34  H   UNL     3     -11.730   6.590  66.532  1.00  0.00     0.000 HD 
ENDBRANCH  26  29
ENDBRANCH  23  26
ENDBRANCH   3  23
BRANCH   3  35
HETATM   35  C   UNL     3     -10.944   8.461  72.233  1.00  0.00    -0.361 C  
HETATM   36  O   UNL     3     -11.126   9.583  71.364  1.00  0.00    -0.351 OA 
HETATM   37  H   UNL     3     -10.914  10.366  71.859  1.00  0.00     0.000 HD 
ENDBRANCH   3  35
TORSDOF 8
ENDMDL
MODEL       44
REMARK 921   NORMALIZED FREE ENERGY PREDICTED BY IDOCK:   -5.71 KCAL/MOL
REMARK 922        TOTAL FREE ENERGY PREDICTED BY IDOCK:  -10.47 KCAL/MOL
REMARK 923 INTER-LIGAND FREE ENERGY PREDICTED BY IDOCK:   -8.31 KCAL/MOL
REMARK 924 INTRA-LIGAND FREE ENERGY PREDICTED BY IDOCK:   -2.16 KCAL/MOL
REMARK 927      BINDING AFFINITY PREDICTED BY RF-SCORE:    0.00 PKD
ROOT
HETATM    1 FE   UNL     1     -11.479   8.157  67.422  1.00  0.00    -0.497 Fe 
HETATM    2  C   UNL     2      -7.152   6.829  72.492  1.00  0.00    -0.075 C  
HETATM    3  C   UNL     3     -11.100  14.429  68.431  1.00  0.00    -0.255 C  
HETATM    4  H   UNL     3      -9.368  14.964  67.716  1.00  0.00     0.000 HD 
HETATM    5  H   UNL     2      -6.628   6.654  70.596  1.00  0.00     0.000 HD 
HETATM    6  O   UNL     2      -6.763   6.078  71.339  1.00  0.00    -0.052 OA 
HETATM    7  O   UNL     3      -9.745  14.908  68.587  1.00  0.00    -0.212 OA 
ENDROOT
BRANCH   2   8
HETATM    8  C   UNL     2      -7.370   5.900  73.689  1.00  0.00    -0.089 C  
HETATM    9  H   UNL     2      -7.732   3.978  74.011  1.00  0.00     0.000 HD 
HETATM   10  O   UNL     2      -7.598   4.554  73.268  1.00  0.00    -0.083 OA 
ENDBRANCH   2   8
BRANCH   2  11
HETATM   11  C   UNL     2      -8.402   7.671  72.167  1.00  0.00    -0.110 C  
HETATM   12  H   UNL     2      -9.358   9.232  72.935  1.00  0.00     0.000 HD 
HETATM   13  O   UNL     2      -8.588   8.714  73.136  1.00  0.00    -0.393 OA 
BRANCH  11  14
HETATM   14  C   UNL     2      -8.273   8.286  70.763  1.00  0.00    -0.114 C  
HETATM   15  H   UNL     2      -7.846  10.066  70.019  1.00  0.00     0.000 HD 
HETATM   16  O   UNL     2      -7.925   9.686  70.887  1.00  0.00    -0.307 OA 
BRANCH  14  17
HETATM   17  C   UNL     2      -9.533   8.195  69.909  1.00  0.00    -0.160 C  
HETATM   18  C   UNL     2     -10.380   9.479  70.000  1.00  0.00    -0.247 C  
HETATM   19  H   UNL     2     -11.115   7.022  69.863  1.00  0.00     0.000 HD 
HETATM   20  O   UNL     2     -10.330   7.078  70.395  1.00  0.00    -0.199 OA 
HETATM   21  O   UNL     2     -11.144   9.580  71.043  1.00  0.00    -0.303 OA 
HETATM   22  O   UNL     2     -10.583  10.184  69.016  1.00  0.00    -0.199 OA 
ENDBRANCH  14  17
ENDBRANCH  11  14
ENDBRANCH   2  11
BRANCH   3  23
HETATM   23  C   UNL     3     -11.005  13.115  67.664  1.00  0.00    -0.262 C  
HETATM   24  O   UNL     3     -12.281  12.467  67.743  1.00  0.00    -0.395 OA 
HETATM   25  H   UNL     3     -12.222  11.648  67.265  1.00  0.00     0.000 HD 
BRANCH  23  26
HETATM   26  C   UNL     3     -10.581  13.159  66.178  1.00  0.00    -0.279 C  
HETATM   27  O   UNL     3      -9.240  13.663  66.062  1.00  0.00    -0.489 OA 
HETATM   28  H   UNL     3      -8.979  13.690  65.148  1.00  0.00     0.000 HD 
BRANCH  26  29
HETATM   29  C   UNL     3     -11.545  14.109  65.431  1.00  0.00    -0.334 C  
HETATM   30  C   UNL     3     -12.578  13.453  64.481  1.00  0.00    -0.226 C  
HETATM   31  O   UNL     3     -10.783  15.092  64.648  1.00  0.00    -0.589 OA 
HETATM   32  O   UNL     3     -13.234  12.470  64.869  1.00  0.00    -0.787 OA 
HETATM   33  O   UNL     3     -12.620  14.087  63.339  1.00  0.00    -0.845 OA 
HETATM   34  H   UNL     3     -11.376  15.676  64.189  1.00  0.00     0.000 HD 
ENDBRANCH  26  29
ENDBRANCH  23  26
ENDBRANCH   3  23
BRANCH   3  35
HETATM   35  C   UNL     3     -11.706  14.338  69.831  1.00  0.00    -0.311 C  
HETATM   36  O   UNL     3     -11.412  13.035  70.343  1.00  0.00    -0.504 OA 
HETATM   37  H   UNL     3     -11.789  12.978  71.214  1.00  0.00     0.000 HD 
ENDBRANCH   3  35
TORSDOF 8
ENDMDL
MODEL       45
REMARK 921   NORMALIZED FREE ENERGY PREDICTED BY IDOCK:   -5.69 KCAL/MOL
REMARK 922        TOTAL FREE ENERGY PREDICTED BY IDOCK:  -10.45 KCAL/MOL
REMARK 923 INTER-LIGAND FREE ENERGY PREDICTED BY IDOCK:   -8.22 KCAL/MOL
REMARK 924 INTRA-LIGAND FREE ENERGY PREDICTED BY IDOCK:   -2.24 KCAL/MOL
REMARK 927      BINDING AFFINITY PREDICTED BY RF-SCORE:    0.00 PKD
ROOT
HETATM    1 FE   UNL     1      -9.136  16.149  70.171  1.00  0.00    -0.184 Fe 
HETATM    2  C   UNL     2     -12.615  13.751  64.848  1.00  0.00    -0.341 C  
HETATM    3  C   UNL     3      -6.089  20.410  66.556  1.00  0.00    -0.187 C  
HETATM    4  H   UNL     3      -7.398  21.806  66.188  1.00  0.00     0.000 HD 
HETATM    5  H   UNL     2     -13.465  14.875  66.233  1.00  0.00     0.000 HD 
HETATM    6  O   UNL     2     -13.521  13.975  65.933  1.00  0.00    -0.296 OA 
HETATM    7  O   UNL     3      -6.963  21.141  65.666  1.00  0.00     0.089 OA 
ENDROOT
BRANCH   2   8
HETATM    8  C   UNL     2     -12.705  12.301  64.364  1.00  0.00    -0.288 C  
HETATM    9  H   UNL     2     -13.010  11.337  62.660  1.00  0.00     0.000 HD 
HETATM   10  O   UNL     2     -12.954  12.237  62.959  1.00  0.00    -0.516 OA 
ENDBRANCH   2   8
BRANCH   2  11
HETATM   11  C   UNL     2     -11.186  14.141  65.273  1.00  0.00    -0.326 C  
HETATM   12  H   UNL     2      -9.350  14.017  64.529  1.00  0.00     0.000 HD 
HETATM   13  O   UNL     2     -10.231  13.776  64.267  1.00  0.00    -0.322 OA 
BRANCH  11  14
HETATM   14  C   UNL     2     -11.109  15.655  65.536  1.00  0.00    -0.226 C  
HETATM   15  H   UNL     2     -10.821  17.278  64.447  1.00  0.00     0.000 HD 
HETATM   16  O   UNL     2     -10.869  16.343  64.284  1.00  0.00    -0.681 OA 
BRANCH  14  17
HETATM   17  C   UNL     2     -10.017  16.078  66.513  1.00  0.00    -0.279 C  
HETATM   18  C   UNL     2     -10.564  16.999  67.619  1.00  0.00    -0.333 C  
HETATM   19  H   UNL     2      -8.318  17.065  66.376  1.00  0.00     0.000 HD 
HETATM   20  O   UNL     2      -8.998  16.802  65.767  1.00  0.00    -0.508 OA 
HETATM   21  O   UNL     2     -10.703  18.248  67.298  1.00  0.00    -0.404 OA 
HETATM   22  O   UNL     2     -10.545  16.665  68.801  1.00  0.00    -0.296 OA 
ENDBRANCH  14  17
ENDBRANCH  11  14
ENDBRANCH   2  11
BRANCH   3  23
HETATM   23  C   UNL     3      -6.968  19.892  67.689  1.00  0.00    -0.247 C  
HETATM   24  O   UNL     3      -8.284  19.677  67.163  1.00  0.00    -0.271 OA 
HETATM   25  H   UNL     3      -8.831  19.354  67.870  1.00  0.00     0.000 HD 
BRANCH  23  26
HETATM   26  C   UNL     3      -6.532  18.607  68.430  1.00  0.00    -0.226 C  
HETATM   27  O   UNL     3      -7.667  17.991  69.060  1.00  0.00    -0.226 OA 
HETATM   28  H   UNL     3      -7.399  17.201  69.515  1.00  0.00     0.000 HD 
BRANCH  26  29
HETATM   29  C   UNL     3      -5.504  19.004  69.515  1.00  0.00    -0.208 C  
HETATM   30  C   UNL     3      -5.327  18.023  70.701  1.00  0.00    -0.261 C  
HETATM   31  O   UNL     3      -5.839  20.321  70.073  1.00  0.00    -0.305 OA 
HETATM   32  O   UNL     3      -5.200  16.807  70.481  1.00  0.00    -0.198 OA 
HETATM   33  O   UNL     3      -5.319  18.672  71.836  1.00  0.00    -0.566 OA 
HETATM   34  H   UNL     3      -5.207  20.565  70.740  1.00  0.00     0.000 HD 
ENDBRANCH  26  29
ENDBRANCH  23  26
ENDBRANCH   3  23
BRANCH   3  35
HETATM   35  C   UNL     3      -5.390  19.340  65.716  1.00  0.00    -0.154 C  
HETATM   36  O   UNL     3      -6.386  18.709  64.906  1.00  0.00    -0.457 OA 
HETATM   37  H   UNL     3      -5.951  18.045  64.384  1.00  0.00     0.000 HD 
ENDBRANCH   3  35
TORSDOF 8
ENDMDL
MODEL       46
REMARK 921   NORMALIZED FREE ENERGY PREDICTED BY IDOCK:   -5.69 KCAL/MOL
REMARK 922        TOTAL FREE ENERGY PREDICTED BY IDOCK:  -10.45 KCAL/MOL
REMARK 923 INTER-LIGAND FREE ENERGY PREDICTED BY IDOCK:   -9.01 KCAL/MOL
REMARK 924 INTRA-LIGAND FREE ENERGY PREDICTED BY IDOCK:   -1.44 KCAL/MOL
REMARK 927      BINDING AFFINITY PREDICTED BY RF-SCORE:    0.00 PKD
ROOT
HETATM    1 FE   UNL     1     -13.072  11.832  70.508  1.00  0.00    -0.247 Fe 
HETATM    2  C   UNL     2      -9.957  16.439  66.602  1.00  0.00    -0.272 C  
HETATM    3  C   UNL     3      -9.443   7.119  68.244  1.00  0.00    -0.133 C  
HETATM    4  H   UNL     3      -7.705   7.350  69.094  1.00  0.00     0.000 HD 
HETATM    5  H   UNL     2      -9.647  16.338  68.550  1.00  0.00     0.000 HD 
HETATM    6  O   UNL     2     -10.046  16.945  67.937  1.00  0.00    -0.268 OA 
HETATM    7  O   UNL     3      -8.035   7.441  68.207  1.00  0.00    -0.119 OA 
ENDROOT
BRANCH   2   8
HETATM    8  C   UNL     2     -10.599  17.417  65.614  1.00  0.00    -0.153 C  
HETATM    9  H   UNL     2     -10.480  19.344  65.166  1.00  0.00     0.000 HD 
HETATM   10  O   UNL     2     -10.081  18.738  65.779  1.00  0.00    -0.519 OA 
ENDBRANCH   2   8
BRANCH   2  11
HETATM   11  C   UNL     2     -10.589  15.036  66.533  1.00  0.00    -0.305 C  
HETATM   12  H   UNL     2     -12.244  14.141  67.168  1.00  0.00     0.000 HD 
HETATM   13  O   UNL     2     -11.854  15.006  67.210  1.00  0.00    -0.307 OA 
BRANCH  11  14
HETATM   14  C   UNL     2     -10.777  14.613  65.066  1.00  0.00    -0.430 C  
HETATM   15  H   UNL     2     -12.281  14.536  63.786  1.00  0.00     0.000 HD 
HETATM   16  O   UNL     2     -12.165  14.797  64.693  1.00  0.00    -0.442 OA 
BRANCH  14  17
HETATM   17  C   UNL     2     -10.405  13.165  64.766  1.00  0.00    -0.350 C  
HETATM   18  C   UNL     2     -11.651  12.283  64.563  1.00  0.00    -0.353 C  
HETATM   19  H   UNL     2      -9.418  11.747  65.712  1.00  0.00     0.000 HD 
HETATM   20  O   UNL     2      -9.650  12.649  65.898  1.00  0.00    -0.236 OA 
HETATM   21  O   UNL     2     -12.232  11.867  65.645  1.00  0.00    -0.413 OA 
HETATM   22  O   UNL     2     -11.880  11.733  63.489  1.00  0.00    -0.465 OA 
ENDBRANCH  14  17
ENDBRANCH  11  14
ENDBRANCH   2  11
BRANCH   3  23
HETATM   23  C   UNL     3     -10.068   8.044  69.282  1.00  0.00    -0.198 C  
HETATM   24  O   UNL     3     -10.940   8.951  68.594  1.00  0.00    -0.438 OA 
HETATM   25  H   UNL     3     -11.329   9.528  69.241  1.00  0.00     0.000 HD 
BRANCH  23  26
HETATM   26  C   UNL     3     -10.859   7.413  70.450  1.00  0.00    -0.243 C  
HETATM   27  O   UNL     3     -12.099   6.867  69.969  1.00  0.00    -0.637 OA 
HETATM   28  H   UNL     3     -12.585   6.478  70.687  1.00  0.00     0.000 HD 
BRANCH  26  29
HETATM   29  C   UNL     3     -11.162   8.524  71.481  1.00  0.00    -0.279 C  
HETATM   30  C   UNL     3     -12.647   8.726  71.876  1.00  0.00    -0.371 C  
HETATM   31  O   UNL     3     -10.651   9.815  71.000  1.00  0.00    -0.314 OA 
HETATM   32  O   UNL     3     -13.347   7.740  72.160  1.00  0.00    -0.212 OA 
HETATM   33  O   UNL     3     -12.956   9.995  71.867  1.00  0.00    -0.408 OA 
HETATM   34  H   UNL     3     -10.837  10.498  71.634  1.00  0.00     0.000 HD 
ENDBRANCH  26  29
ENDBRANCH  23  26
ENDBRANCH   3  23
BRANCH   3  35
HETATM   35  C   UNL     3      -9.973   7.266  66.818  1.00  0.00    -0.217 C  
HETATM   36  O   UNL     3     -11.371   6.960  66.845  1.00  0.00    -0.681 OA 
HETATM   37  H   UNL     3     -11.701   7.052  65.958  1.00  0.00     0.000 HD 
ENDBRANCH   3  35
TORSDOF 8
ENDMDL
MODEL       47
REMARK 921   NORMALIZED FREE ENERGY PREDICTED BY IDOCK:   -5.68 KCAL/MOL
REMARK 922        TOTAL FREE ENERGY PREDICTED BY IDOCK:  -10.43 KCAL/MOL
REMARK 923 INTER-LIGAND FREE ENERGY PREDICTED BY IDOCK:   -7.69 KCAL/MOL
REMARK 924 INTRA-LIGAND FREE ENERGY PREDICTED BY IDOCK:   -2.74 KCAL/MOL
REMARK 927      BINDING AFFINITY PREDICTED BY RF-SCORE:    0.00 PKD
ROOT
HETATM    1 FE   UNL     1     -13.616  10.209  69.908  1.00  0.00    -0.596 Fe 
HETATM    2  C   UNL     2      -9.878  15.448  67.725  1.00  0.00    -0.220 C  
HETATM    3  C   UNL     3      -9.160   6.008  68.175  1.00  0.00    -0.118 C  
HETATM    4  H   UNL     3      -7.753   6.165  69.513  1.00  0.00     0.000 HD 
HETATM    5  H   UNL     2     -10.122  15.065  69.647  1.00  0.00     0.000 HD 
HETATM    6  O   UNL     2     -10.376  15.744  69.033  1.00  0.00    -0.202 OA 
HETATM    7  O   UNL     3      -7.826   6.377  68.590  1.00  0.00    -0.099 OA 
ENDROOT
BRANCH   2   8
HETATM    8  C   UNL     2     -10.288  16.542  66.735  1.00  0.00    -0.296 C  
HETATM    9  H   UNL     2      -9.407  17.755  65.439  1.00  0.00     0.000 HD 
HETATM   10  O   UNL     2      -9.153  17.077  66.053  1.00  0.00    -0.464 OA 
ENDBRANCH   2   8
BRANCH   2  11
HETATM   11  C   UNL     2     -10.361  14.051  67.288  1.00  0.00    -0.264 C  
HETATM   12  H   UNL     2      -9.735  12.589  66.100  1.00  0.00     0.000 HD 
HETATM   13  O   UNL     2      -9.438  13.450  66.368  1.00  0.00    -0.262 OA 
BRANCH  11  14
HETATM   14  C   UNL     2     -10.529  13.143  68.519  1.00  0.00    -0.251 C  
HETATM   15  H   UNL     2      -9.884  11.360  69.075  1.00  0.00     0.000 HD 
HETATM   16  O   UNL     2      -9.780  11.921  68.314  1.00  0.00    -0.192 OA 
BRANCH  14  17
HETATM   17  C   UNL     2     -11.970  12.756  68.834  1.00  0.00    -0.244 C  
HETATM   18  C   UNL     2     -12.230  12.702  70.351  1.00  0.00    -0.288 C  
HETATM   19  H   UNL     2     -13.113  11.193  68.470  1.00  0.00     0.000 HD 
HETATM   20  O   UNL     2     -12.215  11.435  68.274  1.00  0.00    -0.588 OA 
HETATM   21  O   UNL     2     -11.851  11.618  70.953  1.00  0.00    -0.191 OA 
HETATM   22  O   UNL     2     -13.033  13.458  70.891  1.00  0.00    -0.230 OA 
ENDBRANCH  14  17
ENDBRANCH  11  14
ENDBRANCH   2  11
BRANCH   3  23
HETATM   23  C   UNL     3     -10.118   6.746  69.102  1.00  0.00    -0.171 C  
HETATM   24  O   UNL     3     -11.149   5.829  69.491  1.00  0.00    -0.366 OA 
HETATM   25  H   UNL     3     -11.746   6.290  70.069  1.00  0.00     0.000 HD 
BRANCH  23  26
HETATM   26  C   UNL     3      -9.548   7.398  70.383  1.00  0.00    -0.165 C  
HETATM   27  O   UNL     3      -9.451   6.421  71.433  1.00  0.00    -0.156 OA 
HETATM   28  H   UNL     3      -9.101   6.821  72.220  1.00  0.00     0.000 HD 
BRANCH  26  29
HETATM   29  C   UNL     3     -10.516   8.520  70.823  1.00  0.00    -0.200 C  
HETATM   30  C   UNL     3     -11.371   8.250  72.086  1.00  0.00    -0.352 C  
HETATM   31  O   UNL     3     -11.436   8.855  69.727  1.00  0.00    -0.446 OA 
HETATM   32  O   UNL     3     -10.832   7.788  73.107  1.00  0.00    -0.389 OA 
HETATM   33  O   UNL     3     -12.615   8.590  71.880  1.00  0.00    -0.316 OA 
HETATM   34  H   UNL     3     -12.031   9.544  69.998  1.00  0.00     0.000 HD 
ENDBRANCH  26  29
ENDBRANCH  23  26
ENDBRANCH   3  23
BRANCH   3  35
HETATM   35  C   UNL     3      -9.278   6.350  66.690  1.00  0.00    -0.151 C  
HETATM   36  O   UNL     3     -10.633   6.108  66.298  1.00  0.00    -0.474 OA 
HETATM   37  H   UNL     3     -10.706   6.321  65.375  1.00  0.00     0.000 HD 
ENDBRANCH   3  35
TORSDOF 8
ENDMDL
MODEL       48
REMARK 921   NORMALIZED FREE ENERGY PREDICTED BY IDOCK:   -5.66 KCAL/MOL
REMARK 922        TOTAL FREE ENERGY PREDICTED BY IDOCK:  -10.40 KCAL/MOL
REMARK 923 INTER-LIGAND FREE ENERGY PREDICTED BY IDOCK:   -8.03 KCAL/MOL
REMARK 924 INTRA-LIGAND FREE ENERGY PREDICTED BY IDOCK:   -2.37 KCAL/MOL
REMARK 927      BINDING AFFINITY PREDICTED BY RF-SCORE:    0.00 PKD
ROOT
HETATM    1 FE   UNL     1      -9.268  13.653  69.571  1.00  0.00    -0.364 Fe 
HETATM    2  C   UNL     2     -11.178   7.441  71.560  1.00  0.00    -0.243 C  
HETATM    3  C   UNL     3     -10.504  12.332  63.469  1.00  0.00    -0.424 C  
HETATM    4  H   UNL     3     -12.446  12.371  63.315  1.00  0.00     0.000 HD 
HETATM    5  H   UNL     2     -12.291   9.037  71.900  1.00  0.00     0.000 HD 
HETATM    6  O   UNL     2     -11.792   8.412  72.413  1.00  0.00    -0.372 OA 
HETATM    7  O   UNL     3     -11.783  11.691  63.265  1.00  0.00    -0.343 OA 
ENDROOT
BRANCH   2   8
HETATM    8  C   UNL     2     -10.374   6.434  72.386  1.00  0.00    -0.190 C  
HETATM    9  H   UNL     2     -10.571   4.569  73.027  1.00  0.00     0.000 HD 
HETATM   10  O   UNL     2     -11.070   5.193  72.515  1.00  0.00    -0.236 OA 
ENDBRANCH   2   8
BRANCH   2  11
HETATM   11  C   UNL     2     -10.316   8.151  70.498  1.00  0.00    -0.202 C  
HETATM   12  H   UNL     2      -8.395   8.282  70.018  1.00  0.00     0.000 HD 
HETATM   13  O   UNL     2      -8.926   7.844  70.672  1.00  0.00    -0.145 OA 
BRANCH  11  14
HETATM   14  C   UNL     2     -10.766   7.732  69.088  1.00  0.00    -0.126 C  
HETATM   15  H   UNL     2     -11.609   6.141  68.274  1.00  0.00     0.000 HD 
HETATM   16  O   UNL     2     -11.332   6.400  69.145  1.00  0.00    -0.364 OA 
BRANCH  14  17
HETATM   17  C   UNL     2      -9.656   7.719  68.042  1.00  0.00    -0.150 C  
HETATM   18  C   UNL     2      -9.522   9.078  67.331  1.00  0.00    -0.144 C  
HETATM   19  H   UNL     2      -9.291   6.697  66.397  1.00  0.00     0.000 HD 
HETATM   20  O   UNL     2      -9.982   6.706  67.049  1.00  0.00    -0.147 OA 
HETATM   21  O   UNL     2     -10.366   9.301  66.372  1.00  0.00    -0.251 OA 
HETATM   22  O   UNL     2      -8.499   9.751  67.420  1.00  0.00    -0.121 OA 
ENDBRANCH  14  17
ENDBRANCH  11  14
ENDBRANCH   2  11
BRANCH   3  23
HETATM   23  C   UNL     3     -10.600  13.068  64.801  1.00  0.00    -0.362 C  
HETATM   24  O   UNL     3     -10.885  14.445  64.524  1.00  0.00    -0.567 OA 
HETATM   25  H   UNL     3     -10.944  14.903  65.354  1.00  0.00     0.000 HD 
BRANCH  23  26
HETATM   26  C   UNL     3     -11.623  12.567  65.846  1.00  0.00    -0.405 C  
HETATM   27  O   UNL     3     -12.833  13.338  65.760  1.00  0.00    -0.385 OA 
HETATM   28  H   UNL     3     -13.463  13.030  66.403  1.00  0.00     0.000 HD 
BRANCH  26  29
HETATM   29  C   UNL     3     -11.004  12.752  67.251  1.00  0.00    -0.262 C  
HETATM   30  C   UNL     3     -11.804  12.181  68.448  1.00  0.00    -0.303 C  
HETATM   31  O   UNL     3     -10.765  14.177  67.516  1.00  0.00    -0.265 OA 
HETATM   32  O   UNL     3     -12.271  11.030  68.384  1.00  0.00    -0.586 OA 
HETATM   33  O   UNL     3     -11.857  13.050  69.422  1.00  0.00    -0.306 OA 
HETATM   34  H   UNL     3     -10.384  14.290  68.379  1.00  0.00     0.000 HD 
ENDBRANCH  26  29
ENDBRANCH  23  26
ENDBRANCH   3  23
BRANCH   3  35
HETATM   35  C   UNL     3      -9.438  11.239  63.390  1.00  0.00    -0.293 C  
HETATM   36  O   UNL     3     -10.072   9.996  63.708  1.00  0.00    -0.471 OA 
HETATM   37  H   UNL     3      -9.410   9.317  63.659  1.00  0.00     0.000 HD 
ENDBRANCH   3  35
TORSDOF 8
ENDMDL
MODEL       49
REMARK 921   NORMALIZED FREE ENERGY PREDICTED BY IDOCK:   -5.65 KCAL/MOL
REMARK 922        TOTAL FREE ENERGY PREDICTED BY IDOCK:  -10.38 KCAL/MOL
REMARK 923 INTER-LIGAND FREE ENERGY PREDICTED BY IDOCK:   -7.95 KCAL/MOL
REMARK 924 INTRA-LIGAND FREE ENERGY PREDICTED BY IDOCK:   -2.44 KCAL/MOL
REMARK 927      BINDING AFFINITY PREDICTED BY RF-SCORE:    0.00 PKD
ROOT
HETATM    1 FE   UNL     1      -9.151  13.731  65.452  1.00  0.00    -0.453 Fe 
HETATM    2  C   UNL     2      -8.561   7.365  67.756  1.00  0.00    -0.120 C  
HETATM    3  C   UNL     3     -11.864  15.686  70.867  1.00  0.00    -0.388 C  
HETATM    4  H   UNL     3     -10.413  15.793  72.163  1.00  0.00     0.000 HD 
HETATM    5  H   UNL     2      -7.001   8.565  67.585  1.00  0.00     0.000 HD 
HETATM    6  O   UNL     2      -7.316   7.767  67.176  1.00  0.00    -0.087 OA 
HETATM    7  O   UNL     3     -11.174  15.235  72.054  1.00  0.00    -0.419 OA 
ENDROOT
BRANCH   2   8
HETATM    8  C   UNL     2      -9.069   6.080  67.096  1.00  0.00    -0.113 C  
HETATM    9  H   UNL     2      -8.500   4.188  66.931  1.00  0.00     0.000 HD 
HETATM   10  O   UNL     2      -8.184   4.986  67.340  1.00  0.00    -0.106 OA 
ENDBRANCH   2   8
BRANCH   2  11
HETATM   11  C   UNL     2      -9.579   8.518  67.656  1.00  0.00    -0.153 C  
HETATM   12  H   UNL     2     -11.013   9.308  68.779  1.00  0.00     0.000 HD 
HETATM   13  O   UNL     2     -10.386   8.597  68.840  1.00  0.00    -0.208 OA 
BRANCH  11  14
HETATM   14  C   UNL     2      -8.844   9.852  67.441  1.00  0.00    -0.132 C  
HETATM   15  H   UNL     2      -8.293  11.376  68.573  1.00  0.00     0.000 HD 
HETATM   16  O   UNL     2      -8.747  10.551  68.706  1.00  0.00    -0.137 OA 
BRANCH  14  17
HETATM   17  C   UNL     2      -9.509  10.793  66.442  1.00  0.00    -0.171 C  
HETATM   18  C   UNL     2     -10.564  11.691  67.115  1.00  0.00    -0.232 C  
HETATM   19  H   UNL     2     -10.582  10.569  64.805  1.00  0.00     0.000 HD 
HETATM   20  O   UNL     2     -10.168   9.983  65.428  1.00  0.00    -0.289 OA 
HETATM   21  O   UNL     2     -11.725  11.148  67.315  1.00  0.00    -0.540 OA 
HETATM   22  O   UNL     2     -10.440  12.912  67.148  1.00  0.00    -0.236 OA 
ENDBRANCH  14  17
ENDBRANCH  11  14
ENDBRANCH   2  11
BRANCH   3  23
HETATM   23  C   UNL     3     -10.843  15.644  69.735  1.00  0.00    -0.308 C  
HETATM   24  O   UNL     3     -10.477  14.274  69.524  1.00  0.00    -0.427 OA 
HETATM   25  H   UNL     3      -9.841  14.248  68.819  1.00  0.00     0.000 HD 
BRANCH  23  26
HETATM   26  C   UNL     3     -11.234  16.252  68.369  1.00  0.00    -0.349 C  
HETATM   27  O   UNL     3     -11.765  15.231  67.508  1.00  0.00    -0.291 OA 
HETATM   28  H   UNL     3     -12.005  15.605  66.667  1.00  0.00     0.000 HD 
BRANCH  26  29
HETATM   29  C   UNL     3      -9.959  16.845  67.725  1.00  0.00    -0.278 C  
HETATM   30  C   UNL     3      -9.704  16.502  66.236  1.00  0.00    -0.305 C  
HETATM   31  O   UNL     3      -8.770  16.438  68.486  1.00  0.00    -0.204 OA 
HETATM   32  O   UNL     3     -10.630  16.602  65.413  1.00  0.00    -0.537 OA 
HETATM   33  O   UNL     3      -8.459  16.150  66.054  1.00  0.00    -0.319 OA 
HETATM   34  H   UNL     3      -7.987  16.802  68.090  1.00  0.00     0.000 HD 
ENDBRANCH  26  29
ENDBRANCH  23  26
ENDBRANCH   3  23
BRANCH   3  35
HETATM   35  C   UNL     3     -13.088  14.787  70.691  1.00  0.00    -0.293 C  
HETATM   36  O   UNL     3     -14.248  15.588  70.932  1.00  0.00    -0.853 OA 
HETATM   37  H   UNL     3     -15.009  15.030  70.823  1.00  0.00     0.000 HD 
ENDBRANCH   3  35
TORSDOF 8
ENDMDL
MODEL       50
REMARK 921   NORMALIZED FREE ENERGY PREDICTED BY IDOCK:   -5.64 KCAL/MOL
REMARK 922        TOTAL FREE ENERGY PREDICTED BY IDOCK:  -10.38 KCAL/MOL
REMARK 923 INTER-LIGAND FREE ENERGY PREDICTED BY IDOCK:   -8.87 KCAL/MOL
REMARK 924 INTRA-LIGAND FREE ENERGY PREDICTED BY IDOCK:   -1.51 KCAL/MOL
REMARK 927      BINDING AFFINITY PREDICTED BY RF-SCORE:    0.00 PKD
ROOT
HETATM    1 FE   UNL     1      -7.867  12.611  69.749  1.00  0.00    -0.315 Fe 
HETATM    2  C   UNL     2     -12.077  14.094  64.624  1.00  0.00    -0.452 C  
HETATM    3  C   UNL     3     -11.934   8.352  72.164  1.00  0.00    -0.374 C  
HETATM    4  H   UNL     3     -11.809   6.797  70.996  1.00  0.00     0.000 HD 
HETATM    5  H   UNL     2     -10.434  13.031  64.355  1.00  0.00     0.000 HD 
HETATM    6  O   UNL     2     -10.762  13.886  64.101  1.00  0.00    -0.235 OA 
HETATM    7  O   UNL     3     -12.477   7.448  71.176  1.00  0.00    -0.336 OA 
ENDROOT
BRANCH   2   8
HETATM    8  C   UNL     2     -12.606  15.471  64.216  1.00  0.00     0.310 C  
HETATM    9  H   UNL     2     -11.865  17.235  63.698  1.00  0.00     0.000 HD 
HETATM   10  O   UNL     2     -11.537  16.380  63.951  1.00  0.00    -1.100 OA 
ENDBRANCH   2   8
BRANCH   2  11
HETATM   11  C   UNL     2     -12.066  13.899  66.153  1.00  0.00    -0.448 C  
HETATM   12  H   UNL     2     -12.183  12.391  67.439  1.00  0.00     0.000 HD 
HETATM   13  O   UNL     2     -12.190  12.511  66.497  1.00  0.00    -0.569 OA 
BRANCH  11  14
HETATM   14  C   UNL     2     -10.765  14.465  66.747  1.00  0.00    -0.292 C  
HETATM   15  H   UNL     2      -9.304  13.783  67.890  1.00  0.00     0.000 HD 
HETATM   16  O   UNL     2     -10.108  13.433  67.523  1.00  0.00    -0.223 OA 
BRANCH  14  17
HETATM   17  C   UNL     2     -10.952  15.677  67.654  1.00  0.00    -0.315 C  
HETATM   18  C   UNL     2     -10.090  16.870  67.200  1.00  0.00    -0.287 C  
HETATM   19  H   UNL     2     -10.668  16.055  69.566  1.00  0.00     0.000 HD 
HETATM   20  O   UNL     2     -10.552  15.300  69.001  1.00  0.00    -0.227 OA 
HETATM   21  O   UNL     2      -8.846  16.840  67.566  1.00  0.00    -0.198 OA 
HETATM   22  O   UNL     2     -10.597  17.924  66.827  1.00  0.00    -0.328 OA 
ENDBRANCH  14  17
ENDBRANCH  11  14
ENDBRANCH   2  11
BRANCH   3  23
HETATM   23  C   UNL     3     -10.628   8.886  71.585  1.00  0.00    -0.352 C  
HETATM   24  O   UNL     3      -9.604   8.710  72.573  1.00  0.00    -0.278 OA 
HETATM   25  H   UNL     3      -8.791   9.043  72.212  1.00  0.00     0.000 HD 
BRANCH  23  26
HETATM   26  C   UNL     3     -10.116   8.292  70.253  1.00  0.00    -0.192 C  
HETATM   27  O   UNL     3      -8.768   7.820  70.409  1.00  0.00    -0.136 OA 
HETATM   28  H   UNL     3      -8.453   7.455  69.590  1.00  0.00     0.000 HD 
BRANCH  26  29
HETATM   29  C   UNL     3     -10.141   9.412  69.187  1.00  0.00    -0.195 C  
HETATM   30  C   UNL     3      -8.989   9.417  68.152  1.00  0.00    -0.128 C  
HETATM   31  O   UNL     3     -10.161  10.730  69.837  1.00  0.00    -0.439 OA 
HETATM   32  O   UNL     3      -8.664   8.359  67.587  1.00  0.00    -0.135 OA 
HETATM   33  O   UNL     3      -8.509  10.624  68.005  1.00  0.00    -0.115 OA 
HETATM   34  H   UNL     3     -10.176  11.418  69.182  1.00  0.00     0.000 HD 
ENDBRANCH  26  29
ENDBRANCH  23  26
ENDBRANCH   3  23
BRANCH   3  35
HETATM   35  C   UNL     3     -13.009   9.399  72.453  1.00  0.00    -0.351 C  
HETATM   36  O   UNL     3     -14.007   8.777  73.268  1.00  0.00    -1.160 OA 
HETATM   37  H   UNL     3     -14.676   9.428  73.448  1.00  0.00     0.000 HD 
ENDBRANCH   3  35
TORSDOF 8
ENDMDL
MODEL       51
REMARK 921   NORMALIZED FREE ENERGY PREDICTED BY IDOCK:   -5.64 KCAL/MOL
REMARK 922        TOTAL FREE ENERGY PREDICTED BY IDOCK:  -10.38 KCAL/MOL
REMARK 923 INTER-LIGAND FREE ENERGY PREDICTED BY IDOCK:   -7.90 KCAL/MOL
REMARK 924 INTRA-LIGAND FREE ENERGY PREDICTED BY IDOCK:   -2.48 KCAL/MOL
REMARK 927      BINDING AFFINITY PREDICTED BY RF-SCORE:    0.00 PKD
ROOT
HETATM    1 FE   UNL     1      -7.818  12.447  69.747  1.00  0.00    -0.325 Fe 
HETATM    2  C   UNL     2     -11.172   6.909  71.815  1.00  0.00    -0.252 C  
HETATM    3  C   UNL     3     -10.914  12.529  64.187  1.00  0.00    -0.381 C  
HETATM    4  H   UNL     3     -12.699  13.192  64.598  1.00  0.00     0.000 HD 
HETATM    5  H   UNL     2     -11.550   8.700  72.558  1.00  0.00     0.000 HD 
HETATM    6  O   UNL     2     -11.183   7.880  72.866  1.00  0.00    -0.398 OA 
HETATM    7  O   UNL     3     -12.342  12.357  64.319  1.00  0.00    -0.432 OA 
ENDROOT
BRANCH   2   8
HETATM    8  C   UNL     2     -10.580   5.588  72.312  1.00  0.00    -0.224 C  
HETATM    9  H   UNL     2     -11.057   4.154  73.595  1.00  0.00     0.000 HD 
HETATM   10  O   UNL     2     -11.424   4.974  73.287  1.00  0.00    -0.332 OA 
ENDBRANCH   2   8
BRANCH   2  11
HETATM   11  C   UNL     2     -10.414   7.470  70.596  1.00  0.00    -0.216 C  
HETATM   12  H   UNL     2     -10.580   7.425  68.619  1.00  0.00     0.000 HD 
HETATM   13  O   UNL     2     -11.047   7.079  69.369  1.00  0.00    -0.222 OA 
BRANCH  11  14
HETATM   14  C   UNL     2     -10.348   9.005  70.678  1.00  0.00    -0.229 C  
HETATM   15  H   UNL     2     -11.494  10.514  70.117  1.00  0.00     0.000 HD 
HETATM   16  O   UNL     2     -11.536   9.566  70.067  1.00  0.00    -0.209 OA 
BRANCH  14  17
HETATM   17  C   UNL     2      -9.136   9.629  69.992  1.00  0.00    -0.237 C  
HETATM   18  C   UNL     2      -9.504  10.244  68.629  1.00  0.00    -0.169 C  
HETATM   19  H   UNL     2      -7.395   8.970  69.351  1.00  0.00     0.000 HD 
HETATM   20  O   UNL     2      -8.149   8.582  69.778  1.00  0.00    -0.110 OA 
HETATM   21  O   UNL     2      -9.586   9.414  67.637  1.00  0.00    -0.131 OA 
HETATM   22  O   UNL     2      -9.391  11.449  68.417  1.00  0.00    -0.183 OA 
ENDBRANCH  14  17
ENDBRANCH  11  14
ENDBRANCH   2  11
BRANCH   3  23
HETATM   23  C   UNL     3     -10.417  13.044  65.533  1.00  0.00    -0.285 C  
HETATM   24  O   UNL     3      -9.104  12.510  65.751  1.00  0.00    -0.440 OA 
HETATM   25  H   UNL     3      -8.795  12.831  66.590  1.00  0.00     0.000 HD 
BRANCH  23  26
HETATM   26  C   UNL     3     -10.357  14.572  65.759  1.00  0.00    -0.331 C  
HETATM   27  O   UNL     3      -9.021  14.966  66.117  1.00  0.00    -0.466 OA 
HETATM   28  H   UNL     3      -8.984  15.905  66.256  1.00  0.00     0.000 HD 
BRANCH  26  29
HETATM   29  C   UNL     3     -11.316  14.923  66.920  1.00  0.00    -0.337 C  
HETATM   30  C   UNL     3     -10.874  14.502  68.344  1.00  0.00    -0.243 C  
HETATM   31  O   UNL     3     -12.642  14.341  66.675  1.00  0.00    -0.555 OA 
HETATM   32  O   UNL     3      -9.713  14.735  68.723  1.00  0.00    -0.214 OA 
HETATM   33  O   UNL     3     -11.865  13.940  68.984  1.00  0.00    -0.315 OA 
HETATM   34  H   UNL     3     -13.232  14.557  67.389  1.00  0.00     0.000 HD 
ENDBRANCH  26  29
ENDBRANCH  23  26
ENDBRANCH   3  23
BRANCH   3  35
HETATM   35  C   UNL     3     -10.341  11.184  63.738  1.00  0.00    -0.386 C  
HETATM   36  O   UNL     3     -10.377  10.304  64.866  1.00  0.00    -0.283 OA 
HETATM   37  H   UNL     3     -10.021   9.468  64.587  1.00  0.00     0.000 HD 
ENDBRANCH   3  35
TORSDOF 8
ENDMDL
MODEL       52
REMARK 921   NORMALIZED FREE ENERGY PREDICTED BY IDOCK:   -5.63 KCAL/MOL
REMARK 922        TOTAL FREE ENERGY PREDICTED BY IDOCK:  -10.37 KCAL/MOL
REMARK 923 INTER-LIGAND FREE ENERGY PREDICTED BY IDOCK:   -8.53 KCAL/MOL
REMARK 924 INTRA-LIGAND FREE ENERGY PREDICTED BY IDOCK:   -1.84 KCAL/MOL
REMARK 927      BINDING AFFINITY PREDICTED BY RF-SCORE:    0.00 PKD
ROOT
HETATM    1 FE   UNL     1     -13.420  11.043  72.623  1.00  0.00    -0.567 Fe 
HETATM    2  C   UNL     2      -9.705   6.465  69.242  1.00  0.00    -0.136 C  
HETATM    3  C   UNL     3     -11.227  15.818  69.032  1.00  0.00    -0.319 C  
HETATM    4  H   UNL     3     -12.146  15.644  67.322  1.00  0.00     0.000 HD 
HETATM    5  H   UNL     2     -11.662   6.601  69.011  1.00  0.00     0.000 HD 
HETATM    6  O   UNL     2     -11.044   5.976  69.369  1.00  0.00    -0.366 OA 
HETATM    7  O   UNL     3     -11.249  15.532  67.615  1.00  0.00    -0.323 OA 
ENDROOT
BRANCH   2   8
HETATM    8  C   UNL     2      -8.708   5.457  69.821  1.00  0.00    -0.106 C  
HETATM    9  H   UNL     2      -7.714   5.180  71.513  1.00  0.00     0.000 HD 
HETATM   10  O   UNL     2      -8.332   5.805  71.154  1.00  0.00    -0.120 OA 
ENDBRANCH   2   8
BRANCH   2  11
HETATM   11  C   UNL     2      -9.592   7.851  69.907  1.00  0.00    -0.168 C  
HETATM   12  H   UNL     2      -8.438   9.459  69.756  1.00  0.00     0.000 HD 
HETATM   13  O   UNL     2      -8.507   8.605  69.347  1.00  0.00    -0.122 OA 
BRANCH  11  14
HETATM   14  C   UNL     2     -10.908   8.628  69.733  1.00  0.00    -0.183 C  
HETATM   15  H   UNL     2     -11.512  10.193  68.688  1.00  0.00     0.000 HD 
HETATM   16  O   UNL     2     -10.698   9.713  68.796  1.00  0.00    -0.221 OA 
BRANCH  14  17
HETATM   17  C   UNL     2     -11.469   9.228  71.018  1.00  0.00    -0.319 C  
HETATM   18  C   UNL     2     -12.010   8.144  71.968  1.00  0.00    -0.340 C  
HETATM   19  H   UNL     2     -12.913  10.493  71.460  1.00  0.00     0.000 HD 
HETATM   20  O   UNL     2     -12.563  10.119  70.660  1.00  0.00    -0.305 OA 
HETATM   21  O   UNL     2     -13.200   7.701  71.703  1.00  0.00    -0.343 OA 
HETATM   22  O   UNL     2     -11.515   7.956  73.076  1.00  0.00    -0.383 OA 
ENDBRANCH  14  17
ENDBRANCH  11  14
ENDBRANCH   2  11
BRANCH   3  23
HETATM   23  C   UNL     3     -12.253  14.891  69.673  1.00  0.00    -0.261 C  
HETATM   24  O   UNL     3     -12.511  13.819  68.757  1.00  0.00    -0.381 OA 
HETATM   25  H   UNL     3     -13.151  13.242  69.156  1.00  0.00     0.000 HD 
BRANCH  23  26
HETATM   26  C   UNL     3     -11.928  14.275  71.053  1.00  0.00    -0.303 C  
HETATM   27  O   UNL     3     -12.024  12.842  70.989  1.00  0.00    -0.409 OA 
HETATM   28  H   UNL     3     -11.825  12.463  71.837  1.00  0.00     0.000 HD 
BRANCH  26  29
HETATM   29  C   UNL     3     -12.963  14.806  72.072  1.00  0.00    -0.330 C  
HETATM   30  C   UNL     3     -12.460  15.855  73.095  1.00  0.00    -0.497 C  
HETATM   31  O   UNL     3     -13.548  13.691  72.829  1.00  0.00    -0.672 OA 
HETATM   32  O   UNL     3     -11.778  16.818  72.705  1.00  0.00    -0.429 OA 
HETATM   33  O   UNL     3     -12.874  15.558  74.298  1.00  0.00    -0.456 OA 
HETATM   34  H   UNL     3     -14.183  14.018  73.455  1.00  0.00     0.000 HD 
ENDBRANCH  26  29
ENDBRANCH  23  26
ENDBRANCH   3  23
BRANCH   3  35
HETATM   35  C   UNL     3      -9.784  15.637  69.503  1.00  0.00    -0.287 C  
HETATM   36  O   UNL     3      -8.961  15.529  68.337  1.00  0.00    -0.180 OA 
HETATM   37  H   UNL     3      -8.064  15.416  68.630  1.00  0.00     0.000 HD 
ENDBRANCH   3  35
TORSDOF 8
ENDMDL
MODEL       53
REMARK 921   NORMALIZED FREE ENERGY PREDICTED BY IDOCK:   -5.61 KCAL/MOL
REMARK 922        TOTAL FREE ENERGY PREDICTED BY IDOCK:  -10.33 KCAL/MOL
REMARK 923 INTER-LIGAND FREE ENERGY PREDICTED BY IDOCK:   -8.55 KCAL/MOL
REMARK 924 INTRA-LIGAND FREE ENERGY PREDICTED BY IDOCK:   -1.78 KCAL/MOL
REMARK 927      BINDING AFFINITY PREDICTED BY RF-SCORE:    0.00 PKD
ROOT
HETATM    1 FE   UNL     1      -8.984  12.595  64.752  1.00  0.00    -0.400 Fe 
HETATM    2  C   UNL     2      -9.939  18.245  68.407  1.00  0.00    -0.382 C  
HETATM    3  C   UNL     3     -10.101   8.869  69.790  1.00  0.00    -0.199 C  
HETATM    4  H   UNL     3     -12.029   8.928  70.060  1.00  0.00     0.000 HD 
HETATM    5  H   UNL     2     -11.268  17.614  67.088  1.00  0.00     0.000 HD 
HETATM    6  O   UNL     2     -10.676  18.351  67.185  1.00  0.00    -0.399 OA 
HETATM    7  O   UNL     3     -11.276   9.250  70.541  1.00  0.00    -0.246 OA 
ENDROOT
BRANCH   2   8
HETATM    8  C   UNL     2      -8.984  19.431  68.563  1.00  0.00    -0.370 C  
HETATM    9  H   UNL     2      -8.642  21.168  67.671  1.00  0.00     0.000 HD 
HETATM   10  O   UNL     2      -9.234  20.432  67.574  1.00  0.00    -0.363 OA 
ENDBRANCH   2   8
BRANCH   2  11
HETATM   11  C   UNL     2      -9.205  16.890  68.457  1.00  0.00    -0.260 C  
HETATM   12  H   UNL     2      -9.379  15.164  69.421  1.00  0.00     0.000 HD 
HETATM   13  O   UNL     2      -9.831  15.998  69.391  1.00  0.00    -0.242 OA 
BRANCH  11  14
HETATM   14  C   UNL     2      -9.189  16.248  67.059  1.00  0.00    -0.214 C  
HETATM   15  H   UNL     2      -9.557  14.457  66.308  1.00  0.00     0.000 HD 
HETATM   16  O   UNL     2      -9.567  14.854  67.172  1.00  0.00    -0.217 OA 
BRANCH  14  17
HETATM   17  C   UNL     2      -7.843  16.306  66.345  1.00  0.00    -0.214 C  
HETATM   18  C   UNL     2      -6.667  16.139  67.326  1.00  0.00    -0.198 C  
HETATM   19  H   UNL     2      -6.890  17.643  65.256  1.00  0.00     0.000 HD 
HETATM   20  O   UNL     2      -7.729  17.606  65.701  1.00  0.00    -0.527 OA 
HETATM   21  O   UNL     2      -6.320  17.203  67.980  1.00  0.00    -0.137 OA 
HETATM   22  O   UNL     2      -5.898  15.184  67.250  1.00  0.00    -0.326 OA 
ENDBRANCH  14  17
ENDBRANCH  11  14
ENDBRANCH   2  11
BRANCH   3  23
HETATM   23  C   UNL     3     -10.284   9.438  68.388  1.00  0.00    -0.197 C  
HETATM   24  O   UNL     3     -11.139   8.547  67.660  1.00  0.00    -0.475 OA 
HETATM   25  H   UNL     3     -11.253   8.902  66.786  1.00  0.00     0.000 HD 
BRANCH  23  26
HETATM   26  C   UNL     3     -10.847  10.870  68.242  1.00  0.00    -0.225 C  
HETATM   27  O   UNL     3     -12.284  10.841  68.273  1.00  0.00    -0.815 OA 
HETATM   28  H   UNL     3     -12.631  11.721  68.183  1.00  0.00     0.000 HD 
BRANCH  26  29
HETATM   29  C   UNL     3     -10.382  11.433  66.879  1.00  0.00    -0.227 C  
HETATM   30  C   UNL     3     -11.477  12.023  65.956  1.00  0.00    -0.338 C  
HETATM   31  O   UNL     3      -9.670  10.397  66.119  1.00  0.00    -0.190 OA 
HETATM   32  O   UNL     3     -12.321  12.805  66.424  1.00  0.00    -0.500 OA 
HETATM   33  O   UNL     3     -11.326  11.592  64.732  1.00  0.00    -0.284 OA 
HETATM   34  H   UNL     3      -9.384  10.743  65.282  1.00  0.00     0.000 HD 
ENDBRANCH  26  29
ENDBRANCH  23  26
ENDBRANCH   3  23
BRANCH   3  35
HETATM   35  C   UNL     3      -8.888   9.388  70.564  1.00  0.00    -0.239 C  
HETATM   36  O   UNL     3      -9.064   9.022  71.936  1.00  0.00    -0.365 OA 
HETATM   37  H   UNL     3      -8.310   9.344  72.416  1.00  0.00     0.000 HD 
ENDBRANCH   3  35
TORSDOF 8
ENDMDL
MODEL       54
REMARK 921   NORMALIZED FREE ENERGY PREDICTED BY IDOCK:   -5.60 KCAL/MOL
REMARK 922        TOTAL FREE ENERGY PREDICTED BY IDOCK:  -10.32 KCAL/MOL
REMARK 923 INTER-LIGAND FREE ENERGY PREDICTED BY IDOCK:   -8.69 KCAL/MOL
REMARK 924 INTRA-LIGAND FREE ENERGY PREDICTED BY IDOCK:   -1.64 KCAL/MOL
REMARK 927      BINDING AFFINITY PREDICTED BY RF-SCORE:    0.00 PKD
ROOT
HETATM    1 FE   UNL     1     -13.397  14.827  69.575  1.00  0.00    -0.556 Fe 
HETATM    2  C   UNL     2      -8.157  18.706  67.655  1.00  0.00    -0.247 C  
HETATM    3  C   UNL     3     -10.312   9.483  68.016  1.00  0.00    -0.214 C  
HETATM    4  H   UNL     3      -8.994   9.216  69.427  1.00  0.00     0.000 HD 
HETATM    5  H   UNL     2      -8.605  18.419  69.558  1.00  0.00     0.000 HD 
HETATM    6  O   UNL     2      -8.612  19.141  68.941  1.00  0.00    -0.348 OA 
HETATM    7  O   UNL     3      -8.952   9.439  68.504  1.00  0.00    -0.128 OA 
ENDROOT
BRANCH   2   8
HETATM    8  C   UNL     2      -8.169  19.870  66.660  1.00  0.00    -0.323 C  
HETATM    9  H   UNL     2      -7.052  21.451  66.235  1.00  0.00     0.000 HD 
HETATM   10  O   UNL     2      -7.045  20.729  66.853  1.00  0.00    -0.288 OA 
ENDBRANCH   2   8
BRANCH   2  11
HETATM   11  C   UNL     2      -9.010  17.515  67.177  1.00  0.00    -0.238 C  
HETATM   12  H   UNL     2      -9.206  16.419  65.533  1.00  0.00     0.000 HD 
HETATM   13  O   UNL     2      -8.680  17.153  65.828  1.00  0.00    -0.527 OA 
BRANCH  11  14
HETATM   14  C   UNL     2      -8.797  16.307  68.104  1.00  0.00    -0.183 C  
HETATM   15  H   UNL     2      -7.244  15.360  68.877  1.00  0.00     0.000 HD 
HETATM   16  O   UNL     2      -7.376  16.106  68.304  1.00  0.00    -0.133 OA 
BRANCH  14  17
HETATM   17  C   UNL     2      -9.381  14.996  67.589  1.00  0.00    -0.194 C  
HETATM   18  C   UNL     2     -10.843  15.160  67.134  1.00  0.00    -0.320 C  
HETATM   19  H   UNL     2      -9.703  13.208  68.352  1.00  0.00     0.000 HD 
HETATM   20  O   UNL     2      -9.339  14.025  68.673  1.00  0.00    -0.196 OA 
HETATM   21  O   UNL     2     -11.735  15.140  68.075  1.00  0.00    -0.345 OA 
HETATM   22  O   UNL     2     -11.175  14.979  65.965  1.00  0.00    -0.343 OA 
ENDBRANCH  14  17
ENDBRANCH  11  14
ENDBRANCH   2  11
BRANCH   3  23
HETATM   23  C   UNL     3     -11.054  10.476  68.904  1.00  0.00    -0.261 C  
HETATM   24  O   UNL     3     -12.277  10.828  68.243  1.00  0.00    -0.815 OA 
HETATM   25  H   UNL     3     -12.738  11.447  68.796  1.00  0.00     0.000 HD 
BRANCH  23  26
HETATM   26  C   UNL     3     -11.394  10.059  70.352  1.00  0.00    -0.320 C  
HETATM   27  O   UNL     3     -11.469   8.627  70.448  1.00  0.00    -0.385 OA 
HETATM   28  H   UNL     3     -11.678   8.369  71.339  1.00  0.00     0.000 HD 
BRANCH  26  29
HETATM   29  C   UNL     3     -12.769  10.663  70.716  1.00  0.00    -0.378 C  
HETATM   30  C   UNL     3     -12.781  12.137  71.194  1.00  0.00    -0.253 C  
HETATM   31  O   UNL     3     -13.420   9.855  71.756  1.00  0.00    -0.382 OA 
HETATM   32  O   UNL     3     -12.142  12.994  70.560  1.00  0.00    -0.355 OA 
HETATM   33  O   UNL     3     -13.528  12.270  72.257  1.00  0.00    -0.520 OA 
HETATM   34  H   UNL     3     -14.265  10.226  71.980  1.00  0.00     0.000 HD 
ENDBRANCH  26  29
ENDBRANCH  23  26
ENDBRANCH   3  23
BRANCH   3  35
HETATM   35  C   UNL     3     -10.243   9.841  66.532  1.00  0.00    -0.219 C  
HETATM   36  O   UNL     3     -10.194  11.268  66.435  1.00  0.00    -0.216 OA 
HETATM   37  H   UNL     3     -10.152  11.491  65.513  1.00  0.00     0.000 HD 
ENDBRANCH   3  35
TORSDOF 8
ENDMDL
MODEL       55
REMARK 921   NORMALIZED FREE ENERGY PREDICTED BY IDOCK:   -5.60 KCAL/MOL
REMARK 922        TOTAL FREE ENERGY PREDICTED BY IDOCK:  -10.32 KCAL/MOL
REMARK 923 INTER-LIGAND FREE ENERGY PREDICTED BY IDOCK:   -8.10 KCAL/MOL
REMARK 924 INTRA-LIGAND FREE ENERGY PREDICTED BY IDOCK:   -2.22 KCAL/MOL
REMARK 927      BINDING AFFINITY PREDICTED BY RF-SCORE:    0.00 PKD
ROOT
HETATM    1 FE   UNL     1      -8.099  14.557  70.026  1.00  0.00    -0.346 Fe 
HETATM    2  C   UNL     2      -9.115   7.978  71.392  1.00  0.00    -0.141 C  
HETATM    3  C   UNL     3     -11.711  14.268  64.793  1.00  0.00    -0.415 C  
HETATM    4  H   UNL     3     -13.549  14.205  65.437  1.00  0.00     0.000 HD 
HETATM    5  H   UNL     2      -9.977   9.411  72.445  1.00  0.00     0.000 HD 
HETATM    6  O   UNL     2      -9.321   8.739  72.587  1.00  0.00    -0.300 OA 
HETATM    7  O   UNL     3     -12.971  13.590  64.999  1.00  0.00    -0.719 OA 
ENDROOT
BRANCH   2   8
HETATM    8  C   UNL     2      -8.058   6.895  71.621  1.00  0.00    -0.105 C  
HETATM    9  H   UNL     2      -7.918   4.923  71.477  1.00  0.00     0.000 HD 
HETATM   10  O   UNL     2      -8.575   5.595  71.335  1.00  0.00    -0.129 OA 
ENDBRANCH   2   8
BRANCH   2  11
HETATM   11  C   UNL     2      -8.748   8.922  70.231  1.00  0.00    -0.169 C  
HETATM   12  H   UNL     2      -7.641   8.858  68.584  1.00  0.00     0.000 HD 
HETATM   13  O   UNL     2      -7.867   8.276  69.300  1.00  0.00    -0.104 OA 
BRANCH  11  14
HETATM   14  C   UNL     2     -10.022   9.383  69.503  1.00  0.00    -0.191 C  
HETATM   15  H   UNL     2     -11.904   8.787  69.405  1.00  0.00     0.000 HD 
HETATM   16  O   UNL     2     -11.116   8.502  69.855  1.00  0.00    -0.218 OA 
BRANCH  14  17
HETATM   17  C   UNL     2      -9.916   9.405  67.982  1.00  0.00    -0.176 C  
HETATM   18  C   UNL     2     -10.331  10.769  67.398  1.00  0.00    -0.211 C  
HETATM   19  H   UNL     2     -10.740   8.396  66.504  1.00  0.00     0.000 HD 
HETATM   20  O   UNL     2     -10.806   8.383  67.452  1.00  0.00    -0.213 OA 
HETATM   21  O   UNL     2     -11.606  10.966  67.271  1.00  0.00    -0.475 OA 
HETATM   22  O   UNL     2      -9.534  11.473  66.785  1.00  0.00    -0.182 OA 
ENDBRANCH  14  17
ENDBRANCH  11  14
ENDBRANCH   2  11
BRANCH   3  23
HETATM   23  C   UNL     3     -11.251  14.746  66.166  1.00  0.00    -0.337 C  
HETATM   24  O   UNL     3     -11.655  13.766  67.131  1.00  0.00    -0.326 OA 
HETATM   25  H   UNL     3     -11.369  14.064  67.987  1.00  0.00     0.000 HD 
BRANCH  23  26
HETATM   26  C   UNL     3      -9.748  15.038  66.380  1.00  0.00    -0.283 C  
HETATM   27  O   UNL     3      -9.250  14.275  67.491  1.00  0.00    -0.186 OA 
HETATM   28  H   UNL     3      -8.326  14.454  67.623  1.00  0.00     0.000 HD 
BRANCH  26  29
HETATM   29  C   UNL     3      -9.591  16.544  66.688  1.00  0.00    -0.258 C  
HETATM   30  C   UNL     3     -10.144  17.041  68.047  1.00  0.00    -0.305 C  
HETATM   31  O   UNL     3     -10.222  17.347  65.631  1.00  0.00    -0.586 OA 
HETATM   32  O   UNL     3      -9.884  16.409  69.086  1.00  0.00    -0.260 OA 
HETATM   33  O   UNL     3     -10.834  18.139  67.889  1.00  0.00    -0.363 OA 
HETATM   34  H   UNL     3     -10.125  18.273  65.821  1.00  0.00     0.000 HD 
ENDBRANCH  26  29
ENDBRANCH  23  26
ENDBRANCH   3  23
BRANCH   3  35
HETATM   35  C   UNL     3     -10.781  13.279  64.090  1.00  0.00    -0.326 C  
HETATM   36  O   UNL     3     -11.484  12.757  62.959  1.00  0.00    -0.780 OA 
HETATM   37  H   UNL     3     -10.906  12.143  62.521  1.00  0.00     0.000 HD 
ENDBRANCH   3  35
TORSDOF 8
ENDMDL
MODEL       56
REMARK 921   NORMALIZED FREE ENERGY PREDICTED BY IDOCK:   -5.59 KCAL/MOL
REMARK 922        TOTAL FREE ENERGY PREDICTED BY IDOCK:  -10.31 KCAL/MOL
REMARK 923 INTER-LIGAND FREE ENERGY PREDICTED BY IDOCK:   -8.88 KCAL/MOL
REMARK 924 INTRA-LIGAND FREE ENERGY PREDICTED BY IDOCK:   -1.43 KCAL/MOL
REMARK 927      BINDING AFFINITY PREDICTED BY RF-SCORE:    0.00 PKD
ROOT
HETATM    1 FE   UNL     1     -12.069  16.026  63.173  1.00  0.00    -0.891 Fe 
HETATM    2  C   UNL     2      -7.956  19.465  67.349  1.00  0.00    -0.268 C  
HETATM    3  C   UNL     3      -9.860  10.424  65.234  1.00  0.00    -0.297 C  
HETATM    4  H   UNL     3     -10.661  10.167  66.992  1.00  0.00     0.000 HD 
HETATM    5  H   UNL     2      -9.899  19.321  67.678  1.00  0.00     0.000 HD 
HETATM    6  O   UNL     2      -9.278  20.004  67.450  1.00  0.00    -0.333 OA 
HETATM    7  O   UNL     3      -9.780  10.330  66.674  1.00  0.00    -0.172 OA 
ENDROOT
BRANCH   2   8
HETATM    8  C   UNL     2      -6.956  20.564  66.982  1.00  0.00    -0.293 C  
HETATM    9  H   UNL     2      -5.321  21.380  67.751  1.00  0.00     0.000 HD 
HETATM   10  O   UNL     2      -5.942  20.698  67.980  1.00  0.00    -0.240 OA 
ENDBRANCH   2   8
BRANCH   2  11
HETATM   11  C   UNL     2      -7.944  18.299  66.341  1.00  0.00    -0.261 C  
HETATM   12  H   UNL     2      -6.889  17.745  64.754  1.00  0.00     0.000 HD 
HETATM   13  O   UNL     2      -6.896  18.464  65.375  1.00  0.00    -0.496 OA 
BRANCH  11  14
HETATM   14  C   UNL     2      -7.760  16.964  67.082  1.00  0.00    -0.179 C  
HETATM   15  H   UNL     2      -8.630  15.189  67.060  1.00  0.00     0.000 HD 
HETATM   16  O   UNL     2      -8.744  16.015  66.603  1.00  0.00    -0.218 OA 
BRANCH  14  17
HETATM   17  C   UNL     2      -7.900  17.050  68.598  1.00  0.00    -0.257 C  
HETATM   18  C   UNL     2      -6.532  17.004  69.303  1.00  0.00    -0.231 C  
HETATM   19  H   UNL     2      -8.779  15.966  69.989  1.00  0.00     0.000 HD 
HETATM   20  O   UNL     2      -8.691  15.913  69.044  1.00  0.00    -0.206 OA 
HETATM   21  O   UNL     2      -6.015  15.825  69.460  1.00  0.00    -0.125 OA 
HETATM   22  O   UNL     2      -6.122  17.951  69.969  1.00  0.00    -0.222 OA 
ENDBRANCH  14  17
ENDBRANCH  11  14
ENDBRANCH   2  11
BRANCH   3  23
HETATM   23  C   UNL     3     -10.884  11.512  64.931  1.00  0.00    -0.283 C  
HETATM   24  O   UNL     3     -11.823  11.546  66.014  1.00  0.00    -0.282 OA 
HETATM   25  H   UNL     3     -12.462  12.223  65.824  1.00  0.00     0.000 HD 
BRANCH  23  26
HETATM   26  C   UNL     3     -10.378  12.952  64.690  1.00  0.00    -0.344 C  
HETATM   27  O   UNL     3      -9.591  13.393  65.809  1.00  0.00    -0.462 OA 
HETATM   28  H   UNL     3      -9.280  14.279  65.661  1.00  0.00     0.000 HD 
BRANCH  26  29
HETATM   29  C   UNL     3     -11.610  13.875  64.543  1.00  0.00    -0.393 C  
HETATM   30  C   UNL     3     -12.469  14.103  65.812  1.00  0.00    -0.466 C  
HETATM   31  O   UNL     3     -12.500  13.369  63.489  1.00  0.00    -0.738 OA 
HETATM   32  O   UNL     3     -11.913  14.376  66.890  1.00  0.00    -0.410 OA 
HETATM   33  O   UNL     3     -13.740  13.984  65.534  1.00  0.00    -0.415 OA 
HETATM   34  H   UNL     3     -13.257  13.936  63.399  1.00  0.00     0.000 HD 
ENDBRANCH  26  29
ENDBRANCH  23  26
ENDBRANCH   3  23
BRANCH   3  35
HETATM   35  C   UNL     3      -8.443  10.686  64.724  1.00  0.00    -0.100 C  
HETATM   36  O   UNL     3      -7.650  11.090  65.845  1.00  0.00    -0.301 OA 
HETATM   37  H   UNL     3      -6.769  11.252  65.527  1.00  0.00     0.000 HD 
ENDBRANCH   3  35
TORSDOF 8
ENDMDL
MODEL       57
REMARK 921   NORMALIZED FREE ENERGY PREDICTED BY IDOCK:   -5.58 KCAL/MOL
REMARK 922        TOTAL FREE ENERGY PREDICTED BY IDOCK:  -10.29 KCAL/MOL
REMARK 923 INTER-LIGAND FREE ENERGY PREDICTED BY IDOCK:   -8.03 KCAL/MOL
REMARK 924 INTRA-LIGAND FREE ENERGY PREDICTED BY IDOCK:   -2.26 KCAL/MOL
REMARK 927      BINDING AFFINITY PREDICTED BY RF-SCORE:    0.00 PKD
ROOT
HETATM    1 FE   UNL     1      -9.974  12.638  69.564  1.00  0.00    -0.395 Fe 
HETATM    2  C   UNL     2     -10.688   5.919  70.301  1.00  0.00    -0.313 C  
HETATM    3  C   UNL     3     -11.594  12.369  63.415  1.00  0.00    -0.462 C  
HETATM    4  H   UNL     3     -13.524  12.102  63.400  1.00  0.00     0.000 HD 
HETATM    5  H   UNL     2     -11.995   7.199  71.047  1.00  0.00     0.000 HD 
HETATM    6  O   UNL     2     -11.356   6.580  71.380  1.00  0.00    -0.268 OA 
HETATM    7  O   UNL     3     -12.773  11.571  63.163  1.00  0.00    -0.317 OA 
ENDROOT
BRANCH   2   8
HETATM    8  C   UNL     2      -9.658   4.922  70.838  1.00  0.00    -0.176 C  
HETATM    9  H   UNL     2      -9.027   3.091  70.417  1.00  0.00     0.000 HD 
HETATM   10  O   UNL     2      -9.666   3.710  70.083  1.00  0.00    -0.192 OA 
ENDBRANCH   2   8
BRANCH   2  11
HETATM   11  C   UNL     2     -10.057   6.965  69.361  1.00  0.00    -0.167 C  
HETATM   12  H   UNL     2      -9.458   7.065  67.471  1.00  0.00     0.000 HD 
HETATM   13  O   UNL     2      -9.846   6.421  68.050  1.00  0.00    -0.120 OA 
BRANCH  11  14
HETATM   14  C   UNL     2     -10.965   8.204  69.267  1.00  0.00     0.046 C  
HETATM   15  H   UNL     2     -11.485   9.487  67.856  1.00  0.00     0.000 HD 
HETATM   16  O   UNL     2     -10.924   8.721  67.914  1.00  0.00    -0.075 OA 
BRANCH  14  17
HETATM   17  C   UNL     2     -10.589   9.343  70.209  1.00  0.00    -0.250 C  
HETATM   18  C   UNL     2     -11.802  10.230  70.547  1.00  0.00    -0.329 C  
HETATM   19  H   UNL     2      -9.350  10.872  70.136  1.00  0.00     0.000 HD 
HETATM   20  O   UNL     2      -9.584  10.163  69.549  1.00  0.00    -0.214 OA 
HETATM   21  O   UNL     2     -12.115  11.123  69.660  1.00  0.00    -0.319 OA 
HETATM   22  O   UNL     2     -12.226  10.328  71.695  1.00  0.00    -0.372 OA 
ENDBRANCH  14  17
ENDBRANCH  11  14
ENDBRANCH   2  11
BRANCH   3  23
HETATM   23  C   UNL     3     -11.669  12.796  64.876  1.00  0.00    -0.352 C  
HETATM   24  O   UNL     3     -13.040  12.714  65.289  1.00  0.00    -0.611 OA 
HETATM   25  H   UNL     3     -13.086  12.980  66.200  1.00  0.00     0.000 HD 
BRANCH  23  26
HETATM   26  C   UNL     3     -10.811  12.033  65.911  1.00  0.00    -0.288 C  
HETATM   27  O   UNL     3     -11.655  11.253  66.774  1.00  0.00    -0.433 OA 
HETATM   28  H   UNL     3     -11.127  10.784  67.410  1.00  0.00     0.000 HD 
BRANCH  26  29
HETATM   29  C   UNL     3     -10.043  13.074  66.759  1.00  0.00    -0.247 C  
HETATM   30  C   UNL     3     -10.891  14.161  67.465  1.00  0.00    -0.275 C  
HETATM   31  O   UNL     3      -9.039  13.759  65.933  1.00  0.00    -0.472 OA 
HETATM   32  O   UNL     3     -11.912  13.835  68.093  1.00  0.00    -0.362 OA 
HETATM   33  O   UNL     3     -10.356  15.341  67.297  1.00  0.00    -0.256 OA 
HETATM   34  H   UNL     3      -8.568  14.398  66.454  1.00  0.00     0.000 HD 
ENDBRANCH  26  29
ENDBRANCH  23  26
ENDBRANCH   3  23
BRANCH   3  35
HETATM   35  C   UNL     3     -10.385  11.514  63.034  1.00  0.00    -0.238 C  
HETATM   36  O   UNL     3      -9.218  12.325  63.194  1.00  0.00    -0.576 OA 
HETATM   37  H   UNL     3      -8.466  11.794  62.958  1.00  0.00     0.000 HD 
ENDBRANCH   3  35
TORSDOF 8
ENDMDL
MODEL       58
REMARK 921   NORMALIZED FREE ENERGY PREDICTED BY IDOCK:   -5.57 KCAL/MOL
REMARK 922        TOTAL FREE ENERGY PREDICTED BY IDOCK:  -10.27 KCAL/MOL
REMARK 923 INTER-LIGAND FREE ENERGY PREDICTED BY IDOCK:   -8.04 KCAL/MOL
REMARK 924 INTRA-LIGAND FREE ENERGY PREDICTED BY IDOCK:   -2.23 KCAL/MOL
REMARK 927      BINDING AFFINITY PREDICTED BY RF-SCORE:    0.00 PKD
ROOT
HETATM    1 FE   UNL     1      -8.865  12.045  69.494  1.00  0.00    -0.354 Fe 
HETATM    2  C   UNL     2     -10.339   5.419  69.834  1.00  0.00    -0.307 C  
HETATM    3  C   UNL     3     -10.622  12.360  63.385  1.00  0.00    -0.332 C  
HETATM    4  H   UNL     3     -12.570  12.317  63.405  1.00  0.00     0.000 HD 
HETATM    5  H   UNL     2     -11.474   6.789  70.691  1.00  0.00     0.000 HD 
HETATM    6  O   UNL     2     -10.905   6.081  70.969  1.00  0.00    -0.257 OA 
HETATM    7  O   UNL     3     -11.890  11.720  63.116  1.00  0.00    -0.320 OA 
ENDROOT
BRANCH   2   8
HETATM    8  C   UNL     2      -9.421   4.278  70.281  1.00  0.00    -0.175 C  
HETATM    9  H   UNL     2      -9.182   2.348  69.897  1.00  0.00     0.000 HD 
HETATM   10  O   UNL     2      -9.752   3.056  69.619  1.00  0.00    -0.088 OA 
ENDBRANCH   2   8
BRANCH   2  11
HETATM   11  C   UNL     2      -9.609   6.444  68.944  1.00  0.00    -0.126 C  
HETATM   12  H   UNL     2      -9.052   6.603  67.045  1.00  0.00     0.000 HD 
HETATM   13  O   UNL     2      -9.501   5.971  67.593  1.00  0.00    -0.113 OA 
BRANCH  11  14
HETATM   14  C   UNL     2     -10.359   7.787  68.963  1.00  0.00    -0.211 C  
HETATM   15  H   UNL     2     -10.726   9.235  67.669  1.00  0.00     0.000 HD 
HETATM   16  O   UNL     2     -10.263   8.405  67.657  1.00  0.00    -0.204 OA 
BRANCH  14  17
HETATM   17  C   UNL     2      -9.844   8.792  69.989  1.00  0.00    -0.178 C  
HETATM   18  C   UNL     2     -10.996   9.499  70.727  1.00  0.00    -0.321 C  
HETATM   19  H   UNL     2      -8.737  10.419  69.924  1.00  0.00     0.000 HD 
HETATM   20  O   UNL     2      -9.058   9.794  69.285  1.00  0.00    -0.160 OA 
HETATM   21  O   UNL     2     -11.548  10.489  70.097  1.00  0.00    -0.275 OA 
HETATM   22  O   UNL     2     -11.156   9.373  71.938  1.00  0.00    -0.344 OA 
ENDBRANCH  14  17
ENDBRANCH  11  14
ENDBRANCH   2  11
BRANCH   3  23
HETATM   23  C   UNL     3     -10.620  12.698  64.872  1.00  0.00    -0.307 C  
HETATM   24  O   UNL     3     -10.117  14.032  65.019  1.00  0.00    -0.513 OA 
HETATM   25  H   UNL     3     -10.115  14.242  65.946  1.00  0.00     0.000 HD 
BRANCH  23  26
HETATM   26  C   UNL     3     -11.950  12.598  65.652  1.00  0.00    -0.452 C  
HETATM   27  O   UNL     3     -12.812  13.693  65.301  1.00  0.00    -0.672 OA 
HETATM   28  H   UNL     3     -13.630  13.632  65.780  1.00  0.00     0.000 HD 
BRANCH  26  29
HETATM   29  C   UNL     3     -11.628  12.671  67.162  1.00  0.00    -0.368 C  
HETATM   30  C   UNL     3     -11.139  14.036  67.707  1.00  0.00    -0.267 C  
HETATM   31  O   UNL     3     -10.618  11.664  67.515  1.00  0.00    -0.197 OA 
HETATM   32  O   UNL     3     -11.744  15.076  67.394  1.00  0.00    -0.338 OA 
HETATM   33  O   UNL     3     -10.101  13.875  68.484  1.00  0.00    -0.232 OA 
HETATM   34  H   UNL     3     -10.420  11.709  68.443  1.00  0.00     0.000 HD 
ENDBRANCH  26  29
ENDBRANCH  23  26
ENDBRANCH   3  23
BRANCH   3  35
HETATM   35  C   UNL     3      -9.528  11.399  62.921  1.00  0.00    -0.345 C  
HETATM   36  O   UNL     3     -10.140  10.124  62.701  1.00  0.00    -0.580 OA 
HETATM   37  H   UNL     3      -9.459   9.527  62.412  1.00  0.00     0.000 HD 
ENDBRANCH   3  35
TORSDOF 8
ENDMDL
MODEL       59
REMARK 921   NORMALIZED FREE ENERGY PREDICTED BY IDOCK:   -5.56 KCAL/MOL
REMARK 922        TOTAL FREE ENERGY PREDICTED BY IDOCK:  -10.25 KCAL/MOL
REMARK 923 INTER-LIGAND FREE ENERGY PREDICTED BY IDOCK:   -8.36 KCAL/MOL
REMARK 924 INTRA-LIGAND FREE ENERGY PREDICTED BY IDOCK:   -1.90 KCAL/MOL
REMARK 927      BINDING AFFINITY PREDICTED BY RF-SCORE:    0.00 PKD
ROOT
HETATM    1 FE   UNL     1     -12.031  11.326  71.297  1.00  0.00    -0.293 Fe 
HETATM    2  C   UNL     2      -8.950  15.310  66.733  1.00  0.00    -0.262 C  
HETATM    3  C   UNL     3     -10.391   6.048  68.141  1.00  0.00    -0.205 C  
HETATM    4  H   UNL     3      -8.494   5.795  68.508  1.00  0.00     0.000 HD 
HETATM    5  H   UNL     2      -8.195  15.001  68.532  1.00  0.00     0.000 HD 
HETATM    6  O   UNL     2      -8.570  15.727  68.048  1.00  0.00    -0.160 OA 
HETATM    7  O   UNL     3      -9.003   6.024  67.739  1.00  0.00    -0.114 OA 
ENDROOT
BRANCH   2   8
HETATM    8  C   UNL     2      -9.555  16.480  65.952  1.00  0.00    -0.248 C  
HETATM    9  H   UNL     2     -10.806  16.746  64.438  1.00  0.00     0.000 HD 
HETATM   10  O   UNL     2     -10.430  16.020  64.922  1.00  0.00    -0.574 OA 
ENDBRANCH   2   8
BRANCH   2  11
HETATM   11  C   UNL     2      -9.910  14.108  66.826  1.00  0.00    -0.272 C  
HETATM   12  H   UNL     2     -10.061  12.289  66.045  1.00  0.00     0.000 HD 
HETATM   13  O   UNL     2      -9.470  13.029  65.987  1.00  0.00    -0.209 OA 
BRANCH  11  14
HETATM   14  C   UNL     2     -10.009  13.623  68.283  1.00  0.00    -0.236 C  
HETATM   15  H   UNL     2      -9.167  12.208  69.375  1.00  0.00     0.000 HD 
HETATM   16  O   UNL     2      -9.106  12.507  68.475  1.00  0.00    -0.162 OA 
BRANCH  14  17
HETATM   17  C   UNL     2     -11.401  13.172  68.712  1.00  0.00    -0.291 C  
HETATM   18  C   UNL     2     -11.662  11.698  68.349  1.00  0.00    -0.307 C  
HETATM   19  H   UNL     2     -13.245  13.719  68.290  1.00  0.00     0.000 HD 
HETATM   20  O   UNL     2     -12.378  14.001  68.022  1.00  0.00    -0.239 OA 
HETATM   21  O   UNL     2     -12.012  11.471  67.121  1.00  0.00    -0.581 OA 
HETATM   22  O   UNL     2     -11.862  10.850  69.214  1.00  0.00    -0.302 OA 
ENDBRANCH  14  17
ENDBRANCH  11  14
ENDBRANCH   2  11
BRANCH   3  23
HETATM   23  C   UNL     3     -10.482   7.022  69.310  1.00  0.00    -0.210 C  
HETATM   24  O   UNL     3     -10.984   8.267  68.807  1.00  0.00    -0.428 OA 
HETATM   25  H   UNL     3     -11.041   8.874  69.536  1.00  0.00     0.000 HD 
BRANCH  23  26
HETATM   26  C   UNL     3     -11.333   6.622  70.537  1.00  0.00    -0.358 C  
HETATM   27  O   UNL     3     -12.583   7.331  70.523  1.00  0.00    -0.591 OA 
HETATM   28  H   UNL     3     -13.107   7.085  71.277  1.00  0.00     0.000 HD 
BRANCH  26  29
HETATM   29  C   UNL     3     -10.548   7.006  71.812  1.00  0.00    -0.210 C  
HETATM   30  C   UNL     3     -10.430   8.517  72.132  1.00  0.00    -0.342 C  
HETATM   31  O   UNL     3      -9.186   6.456  71.754  1.00  0.00    -0.144 OA 
HETATM   32  O   UNL     3     -11.439   9.240  72.072  1.00  0.00    -0.355 OA 
HETATM   33  O   UNL     3      -9.202   8.824  72.456  1.00  0.00    -0.347 OA 
HETATM   34  H   UNL     3      -8.704   6.693  72.538  1.00  0.00     0.000 HD 
ENDBRANCH  26  29
ENDBRANCH  23  26
ENDBRANCH   3  23
BRANCH   3  35
HETATM   35  C   UNL     3     -11.209   6.418  66.904  1.00  0.00    -0.133 C  
HETATM   36  O   UNL     3     -11.195   5.288  66.025  1.00  0.00    -0.780 OA 
HETATM   37  H   UNL     3     -11.704   5.518  65.256  1.00  0.00     0.000 HD 
ENDBRANCH   3  35
TORSDOF 8
ENDMDL
MODEL       60
REMARK 921   NORMALIZED FREE ENERGY PREDICTED BY IDOCK:   -5.55 KCAL/MOL
REMARK 922        TOTAL FREE ENERGY PREDICTED BY IDOCK:  -10.24 KCAL/MOL
REMARK 923 INTER-LIGAND FREE ENERGY PREDICTED BY IDOCK:   -8.43 KCAL/MOL
REMARK 924 INTRA-LIGAND FREE ENERGY PREDICTED BY IDOCK:   -1.82 KCAL/MOL
REMARK 927      BINDING AFFINITY PREDICTED BY RF-SCORE:    0.00 PKD
ROOT
HETATM    1 FE   UNL     1     -11.550  13.546  70.035  1.00  0.00    -0.241 Fe 
HETATM    2  C   UNL     2     -11.895   6.861  71.206  1.00  0.00    -0.341 C  
HETATM    3  C   UNL     3     -12.174  12.714  63.756  1.00  0.00    -0.514 C  
HETATM    4  H   UNL     3     -14.055  12.289  63.475  1.00  0.00     0.000 HD 
HETATM    5  H   UNL     2     -13.389   8.078  71.641  1.00  0.00     0.000 HD 
HETATM    6  O   UNL     2     -12.768   7.538  72.116  1.00  0.00    -0.240 OA 
HETATM    7  O   UNL     3     -13.240  11.806  63.398  1.00  0.00    -0.569 OA 
ENDROOT
BRANCH   2   8
HETATM    8  C   UNL     2     -10.893   5.991  71.971  1.00  0.00    -0.252 C  
HETATM    9  H   UNL     2     -10.934   4.578  73.360  1.00  0.00     0.000 HD 
HETATM   10  O   UNL     2     -11.556   5.117  72.886  1.00  0.00    -0.297 OA 
ENDBRANCH   2   8
BRANCH   2  11
HETATM   11  C   UNL     2     -11.201   7.886  70.288  1.00  0.00    -0.200 C  
HETATM   12  H   UNL     2     -11.102   9.861  70.108  1.00  0.00     0.000 HD 
HETATM   13  O   UNL     2     -11.530   9.229  70.674  1.00  0.00    -0.266 OA 
BRANCH  11  14
HETATM   14  C   UNL     2      -9.676   7.692  70.338  1.00  0.00    -0.179 C  
HETATM   15  H   UNL     2      -8.117   8.780  70.876  1.00  0.00     0.000 HD 
HETATM   16  O   UNL     2      -9.059   8.900  70.845  1.00  0.00    -0.188 OA 
BRANCH  14  17
HETATM   17  C   UNL     2      -9.029   7.370  68.995  1.00  0.00    -0.131 C  
HETATM   18  C   UNL     2      -8.427   8.624  68.335  1.00  0.00    -0.131 C  
HETATM   19  H   UNL     2      -9.654   6.630  67.280  1.00  0.00     0.000 HD 
HETATM   20  O   UNL     2     -10.057   6.831  68.117  1.00  0.00    -0.150 OA 
HETATM   21  O   UNL     2      -9.263   9.388  67.703  1.00  0.00    -0.128 OA 
HETATM   22  O   UNL     2      -7.222   8.722  68.122  1.00  0.00    -0.080 OA 
ENDBRANCH  14  17
ENDBRANCH  11  14
ENDBRANCH   2  11
BRANCH   3  23
HETATM   23  C   UNL     3     -12.505  13.235  65.150  1.00  0.00    -0.470 C  
HETATM   24  O   UNL     3     -11.851  12.387  66.103  1.00  0.00    -0.459 OA 
HETATM   25  H   UNL     3     -12.058  12.711  66.972  1.00  0.00     0.000 HD 
BRANCH  23  26
HETATM   26  C   UNL     3     -12.152  14.701  65.491  1.00  0.00    -0.222 C  
HETATM   27  O   UNL     3     -11.168  15.199  64.570  1.00  0.00    -0.601 OA 
HETATM   28  H   UNL     3     -10.951  16.100  64.779  1.00  0.00     0.000 HD 
BRANCH  26  29
HETATM   29  C   UNL     3     -11.567  14.733  66.922  1.00  0.00    -0.327 C  
HETATM   30  C   UNL     3     -10.198  14.041  67.134  1.00  0.00    -0.258 C  
HETATM   31  O   UNL     3     -12.518  14.139  67.872  1.00  0.00    -0.524 OA 
HETATM   32  O   UNL     3      -9.269  14.256  66.337  1.00  0.00    -0.264 OA 
HETATM   33  O   UNL     3     -10.222  13.294  68.206  1.00  0.00    -0.239 OA 
HETATM   34  H   UNL     3     -12.158  14.159  68.752  1.00  0.00     0.000 HD 
ENDBRANCH  26  29
ENDBRANCH  23  26
ENDBRANCH   3  23
BRANCH   3  35
HETATM   35  C   UNL     3     -10.863  11.937  63.632  1.00  0.00    -0.444 C  
HETATM   36  O   UNL     3      -9.793  12.884  63.702  1.00  0.00    -0.710 OA 
HETATM   37  H   UNL     3      -8.978  12.401  63.625  1.00  0.00     0.000 HD 
ENDBRANCH   3  35
TORSDOF 8
ENDMDL
MODEL       61
REMARK 921   NORMALIZED FREE ENERGY PREDICTED BY IDOCK:   -5.55 KCAL/MOL
REMARK 922        TOTAL FREE ENERGY PREDICTED BY IDOCK:  -10.24 KCAL/MOL
REMARK 923 INTER-LIGAND FREE ENERGY PREDICTED BY IDOCK:   -8.54 KCAL/MOL
REMARK 924 INTRA-LIGAND FREE ENERGY PREDICTED BY IDOCK:   -1.71 KCAL/MOL
REMARK 927      BINDING AFFINITY PREDICTED BY RF-SCORE:    0.00 PKD
ROOT
HETATM    1 FE   UNL     1      -6.947  12.843  68.008  1.00  0.00    -0.065 Fe 
HETATM    2  C   UNL     2      -9.674   7.517  71.230  1.00  0.00    -0.164 C  
HETATM    3  C   UNL     3     -11.866  13.223  63.986  1.00  0.00    -0.455 C  
HETATM    4  H   UNL     3     -13.322  14.002  65.022  1.00  0.00     0.000 HD 
HETATM    5  H   UNL     2      -9.626   9.318  72.041  1.00  0.00     0.000 HD 
HETATM    6  O   UNL     2      -9.229   8.470  72.200  1.00  0.00    -0.227 OA 
HETATM    7  O   UNL     3     -13.153  13.148  64.640  1.00  0.00    -0.699 OA 
ENDROOT
BRANCH   2   8
HETATM    8  C   UNL     2      -9.034   6.151  71.488  1.00  0.00    -0.143 C  
HETATM    9  H   UNL     2      -9.622   4.318  71.961  1.00  0.00     0.000 HD 
HETATM   10  O   UNL     2     -10.020   5.166  71.801  1.00  0.00    -0.173 OA 
ENDBRANCH   2   8
BRANCH   2  11
HETATM   11  C   UNL     2      -9.384   8.044  69.812  1.00  0.00    -0.159 C  
HETATM   12  H   UNL     2      -8.950   7.288  68.028  1.00  0.00     0.000 HD 
HETATM   13  O   UNL     2      -9.128   6.964  68.902  1.00  0.00    -0.135 OA 
BRANCH  11  14
HETATM   14  C   UNL     2     -10.574   8.877  69.305  1.00  0.00    -0.207 C  
HETATM   15  H   UNL     2     -11.507   9.129  67.581  1.00  0.00     0.000 HD 
HETATM   16  O   UNL     2     -10.772   8.614  67.894  1.00  0.00    -0.194 OA 
BRANCH  14  17
HETATM   17  C   UNL     2     -10.417  10.384  69.477  1.00  0.00    -0.247 C  
HETATM   18  C   UNL     2     -11.765  11.118  69.353  1.00  0.00    -0.332 C  
HETATM   19  H   UNL     2      -9.429  11.807  68.539  1.00  0.00     0.000 HD 
HETATM   20  O   UNL     2      -9.527  10.868  68.432  1.00  0.00    -0.164 OA 
HETATM   21  O   UNL     2     -12.179  11.341  68.145  1.00  0.00    -0.622 OA 
HETATM   22  O   UNL     2     -12.242  11.746  70.294  1.00  0.00    -0.324 OA 
ENDBRANCH  14  17
ENDBRANCH  11  14
ENDBRANCH   2  11
BRANCH   3  23
HETATM   23  C   UNL     3     -10.872  13.682  65.047  1.00  0.00    -0.352 C  
HETATM   24  O   UNL     3      -9.571  13.717  64.446  1.00  0.00    -0.419 OA 
HETATM   25  H   UNL     3      -8.952  14.003  65.108  1.00  0.00     0.000 HD 
BRANCH  23  26
HETATM   26  C   UNL     3     -11.114  15.041  65.745  1.00  0.00    -0.346 C  
HETATM   27  O   UNL     3     -10.121  15.993  65.329  1.00  0.00    -0.475 OA 
HETATM   28  H   UNL     3     -10.269  16.828  65.758  1.00  0.00     0.000 HD 
BRANCH  26  29
HETATM   29  C   UNL     3     -11.001  14.824  67.271  1.00  0.00    -0.318 C  
HETATM   30  C   UNL     3     -10.500  16.025  68.112  1.00  0.00    -0.269 C  
HETATM   31  O   UNL     3     -10.120  13.683  67.557  1.00  0.00    -0.233 OA 
HETATM   32  O   UNL     3     -10.983  17.154  67.921  1.00  0.00    -0.343 OA 
HETATM   33  O   UNL     3      -9.593  15.638  68.970  1.00  0.00    -0.209 OA 
HETATM   34  H   UNL     3     -10.051  13.550  68.495  1.00  0.00     0.000 HD 
ENDBRANCH  26  29
ENDBRANCH  23  26
ENDBRANCH   3  23
BRANCH   3  35
HETATM   35  C   UNL     3     -11.594  11.850  63.373  1.00  0.00    -0.382 C  
HETATM   36  O   UNL     3     -12.838  11.349  62.872  1.00  0.00    -0.881 OA 
HETATM   37  H   UNL     3     -12.669  10.495  62.490  1.00  0.00     0.000 HD 
ENDBRANCH   3  35
TORSDOF 8
ENDMDL
MODEL       62
REMARK 921   NORMALIZED FREE ENERGY PREDICTED BY IDOCK:   -5.52 KCAL/MOL
REMARK 922        TOTAL FREE ENERGY PREDICTED BY IDOCK:  -10.20 KCAL/MOL
REMARK 923 INTER-LIGAND FREE ENERGY PREDICTED BY IDOCK:   -8.98 KCAL/MOL
REMARK 924 INTRA-LIGAND FREE ENERGY PREDICTED BY IDOCK:   -1.23 KCAL/MOL
REMARK 927      BINDING AFFINITY PREDICTED BY RF-SCORE:    0.00 PKD
ROOT
HETATM    1 FE   UNL     1      -9.824   7.077  65.949  1.00  0.00    -0.313 Fe 
HETATM    2  C   UNL     2     -12.549  13.286  65.487  1.00  0.00    -0.446 C  
HETATM    3  C   UNL     3      -9.664   7.368  72.305  1.00  0.00    -0.155 C  
HETATM    4  H   UNL     3     -11.508   7.111  72.882  1.00  0.00     0.000 HD 
HETATM    5  H   UNL     2     -13.605  11.652  65.146  1.00  0.00     0.000 HD 
HETATM    6  O   UNL     2     -13.283  12.392  64.645  1.00  0.00    -0.822 OA 
HETATM    7  O   UNL     3     -10.898   7.840  72.893  1.00  0.00    -0.339 OA 
ENDROOT
BRANCH   2   8
HETATM    8  C   UNL     2     -12.029  14.478  64.679  1.00  0.00    -0.468 C  
HETATM    9  H   UNL     2     -12.250  15.227  62.857  1.00  0.00     0.000 HD 
HETATM   10  O   UNL     2     -12.572  14.487  63.358  1.00  0.00    -0.673 OA 
ENDBRANCH   2   8
BRANCH   2  11
HETATM   11  C   UNL     2     -11.416  12.520  66.198  1.00  0.00    -0.377 C  
HETATM   12  H   UNL     2     -10.079  11.125  65.742  1.00  0.00     0.000 HD 
HETATM   13  O   UNL     2     -10.777  11.597  65.304  1.00  0.00    -0.279 OA 
BRANCH  11  14
HETATM   14  C   UNL     2     -10.376  13.510  66.749  1.00  0.00    -0.264 C  
HETATM   15  H   UNL     2      -8.407  13.679  66.710  1.00  0.00     0.000 HD 
HETATM   16  O   UNL     2      -9.050  13.068  66.369  1.00  0.00    -0.179 OA 
BRANCH  14  17
HETATM   17  C   UNL     2     -10.392  13.674  68.265  1.00  0.00    -0.251 C  
HETATM   18  C   UNL     2     -11.665  14.393  68.750  1.00  0.00    -0.337 C  
HETATM   19  H   UNL     2      -9.246  14.574  69.591  1.00  0.00     0.000 HD 
HETATM   20  O   UNL     2      -9.236  14.472  68.646  1.00  0.00    -0.194 OA 
HETATM   21  O   UNL     2     -11.658  15.686  68.651  1.00  0.00    -0.356 OA 
HETATM   22  O   UNL     2     -12.477  13.835  69.483  1.00  0.00    -0.271 OA 
ENDBRANCH  14  17
ENDBRANCH  11  14
ENDBRANCH   2  11
BRANCH   3  23
HETATM   23  C   UNL     3     -10.025   6.827  70.926  1.00  0.00    -0.186 C  
HETATM   24  O   UNL     3     -10.191   5.408  71.040  1.00  0.00    -0.206 OA 
HETATM   25  H   UNL     3     -10.415   5.072  70.180  1.00  0.00     0.000 HD 
BRANCH  23  26
HETATM   26  C   UNL     3     -11.271   7.401  70.213  1.00  0.00    -0.247 C  
HETATM   27  O   UNL     3     -11.846   6.407  69.349  1.00  0.00    -0.577 OA 
HETATM   28  H   UNL     3     -12.612   6.759  68.911  1.00  0.00     0.000 HD 
BRANCH  26  29
HETATM   29  C   UNL     3     -10.824   8.613  69.364  1.00  0.00    -0.095 C  
HETATM   30  C   UNL     3     -11.458   9.982  69.712  1.00  0.00    -0.184 C  
HETATM   31  O   UNL     3     -11.076   8.355  67.940  1.00  0.00    -0.470 OA 
HETATM   32  O   UNL     3     -11.520  10.348  70.899  1.00  0.00    -0.344 OA 
HETATM   33  O   UNL     3     -11.844  10.599  68.627  1.00  0.00    -0.371 OA 
HETATM   34  H   UNL     3     -10.801   9.100  67.418  1.00  0.00     0.000 HD 
ENDBRANCH  26  29
ENDBRANCH  23  26
ENDBRANCH   3  23
BRANCH   3  35
HETATM   35  C   UNL     3      -8.683   8.540  72.323  1.00  0.00    -0.190 C  
HETATM   36  O   UNL     3      -8.036   8.541  73.599  1.00  0.00    -0.381 OA 
HETATM   37  H   UNL     3      -7.426   9.270  73.610  1.00  0.00     0.000 HD 
ENDBRANCH   3  35
TORSDOF 8
ENDMDL
MODEL       63
REMARK 921   NORMALIZED FREE ENERGY PREDICTED BY IDOCK:   -5.51 KCAL/MOL
REMARK 922        TOTAL FREE ENERGY PREDICTED BY IDOCK:  -10.18 KCAL/MOL
REMARK 923 INTER-LIGAND FREE ENERGY PREDICTED BY IDOCK:   -9.31 KCAL/MOL
REMARK 924 INTRA-LIGAND FREE ENERGY PREDICTED BY IDOCK:   -0.88 KCAL/MOL
REMARK 927      BINDING AFFINITY PREDICTED BY RF-SCORE:    0.00 PKD
ROOT
HETATM    1 FE   UNL     1      -9.163  13.856  69.631  1.00  0.00    -0.365 Fe 
HETATM    2  C   UNL     2     -10.784   7.597  71.724  1.00  0.00    -0.216 C  
HETATM    3  C   UNL     3     -10.958  12.575  63.660  1.00  0.00    -0.456 C  
HETATM    4  H   UNL     3     -12.906  12.585  63.692  1.00  0.00     0.000 HD 
HETATM    5  H   UNL     2     -11.882   9.172  72.187  1.00  0.00     0.000 HD 
HETATM    6  O   UNL     2     -11.328   8.550  72.643  1.00  0.00    -0.343 OA 
HETATM    7  O   UNL     3     -12.241  11.916  63.573  1.00  0.00    -0.524 OA 
ENDROOT
BRANCH   2   8
HETATM    8  C   UNL     2      -9.890   6.594  72.458  1.00  0.00    -0.165 C  
HETATM    9  H   UNL     2      -9.864   4.648  72.833  1.00  0.00     0.000 HD 
HETATM   10  O   UNL     2     -10.419   5.270  72.378  1.00  0.00    -0.201 OA 
ENDBRANCH   2   8
BRANCH   2  11
HETATM   11  C   UNL     2     -10.038   8.330  70.593  1.00  0.00    -0.191 C  
HETATM   12  H   UNL     2     -10.009  10.147  69.794  1.00  0.00     0.000 HD 
HETATM   13  O   UNL     2     -10.469   9.695  70.491  1.00  0.00    -0.264 OA 
BRANCH  11  14
HETATM   14  C   UNL     2      -8.521   8.284  70.845  1.00  0.00    -0.132 C  
HETATM   15  H   UNL     2      -7.135   9.560  71.440  1.00  0.00     0.000 HD 
HETATM   16  O   UNL     2      -8.072   9.589  71.284  1.00  0.00    -0.284 OA 
BRANCH  14  17
HETATM   17  C   UNL     2      -7.685   7.890  69.632  1.00  0.00    -0.103 C  
HETATM   18  C   UNL     2      -6.285   7.394  70.038  1.00  0.00    -0.027 C  
HETATM   19  H   UNL     2      -7.013   8.820  68.031  1.00  0.00     0.000 HD 
HETATM   20  O   UNL     2      -7.534   9.065  68.787  1.00  0.00    -0.075 OA 
HETATM   21  O   UNL     2      -5.409   8.316  70.291  1.00  0.00    -0.023 OA 
HETATM   22  O   UNL     2      -5.920   6.244  69.811  1.00  0.00    -0.017 OA 
ENDBRANCH  14  17
ENDBRANCH  11  14
ENDBRANCH   2  11
BRANCH   3  23
HETATM   23  C   UNL     3     -10.936  13.296  65.003  1.00  0.00    -0.313 C  
HETATM   24  O   UNL     3      -9.574  13.624  65.305  1.00  0.00    -0.534 OA 
HETATM   25  H   UNL     3      -9.561  14.073  66.142  1.00  0.00     0.000 HD 
BRANCH  23  26
HETATM   26  C   UNL     3     -11.786  14.577  65.165  1.00  0.00    -0.376 C  
HETATM   27  O   UNL     3     -12.908  14.542  64.267  1.00  0.00    -0.590 OA 
HETATM   28  H   UNL     3     -13.430  15.330  64.366  1.00  0.00     0.000 HD 
BRANCH  26  29
HETATM   29  C   UNL     3     -10.895  15.791  64.814  1.00  0.00    -0.344 C  
HETATM   30  C   UNL     3     -10.446  16.692  65.992  1.00  0.00    -0.298 C  
HETATM   31  O   UNL     3     -11.571  16.649  63.831  1.00  0.00    -1.582 OA 
HETATM   32  O   UNL     3      -9.994  16.172  67.027  1.00  0.00    -0.247 OA 
HETATM   33  O   UNL     3     -10.604  17.953  65.692  1.00  0.00    -0.587 OA 
HETATM   34  H   UNL     3     -11.023  17.395  63.616  1.00  0.00     0.000 HD 
ENDBRANCH  26  29
ENDBRANCH  23  26
ENDBRANCH   3  23
BRANCH   3  35
HETATM   35  C   UNL     3      -9.889  11.499  63.468  1.00  0.00    -0.383 C  
HETATM   36  O   UNL     3     -10.426  10.512  62.581  1.00  0.00    -0.668 OA 
HETATM   37  H   UNL     3      -9.762   9.843  62.461  1.00  0.00     0.000 HD 
ENDBRANCH   3  35
TORSDOF 8
ENDMDL
MODEL       64
REMARK 921   NORMALIZED FREE ENERGY PREDICTED BY IDOCK:   -5.50 KCAL/MOL
REMARK 922        TOTAL FREE ENERGY PREDICTED BY IDOCK:  -10.17 KCAL/MOL
REMARK 923 INTER-LIGAND FREE ENERGY PREDICTED BY IDOCK:   -8.74 KCAL/MOL
REMARK 924 INTRA-LIGAND FREE ENERGY PREDICTED BY IDOCK:   -1.44 KCAL/MOL
REMARK 927      BINDING AFFINITY PREDICTED BY RF-SCORE:    0.00 PKD
ROOT
HETATM    1 FE   UNL     1     -12.238  15.042  65.816  1.00  0.00    -0.334 Fe 
HETATM    2  C   UNL     2     -13.116  14.624  72.543  1.00  0.00    -0.414 C  
HETATM    3  C   UNL     3      -9.225   9.439  65.628  1.00  0.00    -0.226 C  
HETATM    4  H   UNL     3     -10.621   8.094  65.832  1.00  0.00     0.000 HD 
HETATM    5  H   UNL     2     -14.608  14.366  71.274  1.00  0.00     0.000 HD 
HETATM    6  O   UNL     2     -14.355  15.001  71.934  1.00  0.00    -0.482 OA 
HETATM    7  O   UNL     3      -9.898   8.397  66.370  1.00  0.00    -0.253 OA 
ENDROOT
BRANCH   2   8
HETATM    8  C   UNL     2     -12.707  15.647  73.605  1.00  0.00    -0.596 C  
HETATM    9  H   UNL     2     -13.476  17.259  74.466  1.00  0.00     0.000 HD 
HETATM   10  O   UNL     2     -13.730  16.624  73.806  1.00  0.00    -0.295 OA 
ENDBRANCH   2   8
BRANCH   2  11
HETATM   11  C   UNL     2     -12.037  14.442  71.457  1.00  0.00    -0.300 C  
HETATM   12  H   UNL     2     -11.514  13.064  70.127  1.00  0.00     0.000 HD 
HETATM   13  O   UNL     2     -12.179  13.176  70.796  1.00  0.00    -0.361 OA 
BRANCH  11  14
HETATM   14  C   UNL     2     -12.130  15.579  70.425  1.00  0.00    -0.392 C  
HETATM   15  H   UNL     2     -12.796  15.774  68.575  1.00  0.00     0.000 HD 
HETATM   16  O   UNL     2     -12.739  15.072  69.213  1.00  0.00     0.061 OA 
BRANCH  14  17
HETATM   17  C   UNL     2     -10.793  16.206  70.045  1.00  0.00    -0.349 C  
HETATM   18  C   UNL     2     -10.832  16.827  68.636  1.00  0.00    -0.336 C  
HETATM   19  H   UNL     2      -8.949  15.550  69.826  1.00  0.00     0.000 HD 
HETATM   20  O   UNL     2      -9.781  15.160  70.063  1.00  0.00    -0.122 OA 
HETATM   21  O   UNL     2     -10.679  16.001  67.648  1.00  0.00    -0.310 OA 
HETATM   22  O   UNL     2     -10.674  18.032  68.461  1.00  0.00    -0.244 OA 
ENDBRANCH  14  17
ENDBRANCH  11  14
ENDBRANCH   2  11
BRANCH   3  23
HETATM   23  C   UNL     3     -10.286  10.482  65.296  1.00  0.00    -0.282 C  
HETATM   24  O   UNL     3     -10.925  10.865  66.521  1.00  0.00    -0.223 OA 
HETATM   25  H   UNL     3     -11.586  11.515  66.314  1.00  0.00     0.000 HD 
BRANCH  23  26
HETATM   26  C   UNL     3      -9.847  11.770  64.561  1.00  0.00    -0.202 C  
HETATM   27  O   UNL     3      -9.928  12.897  65.449  1.00  0.00    -0.369 OA 
HETATM   28  H   UNL     3      -9.659  13.688  64.997  1.00  0.00     0.000 HD 
BRANCH  26  29
HETATM   29  C   UNL     3     -10.808  11.993  63.370  1.00  0.00    -0.405 C  
HETATM   30  C   UNL     3     -12.283  12.318  63.713  1.00  0.00    -0.546 C  
HETATM   31  O   UNL     3     -10.805  10.817  62.489  1.00  0.00    -0.488 OA 
HETATM   32  O   UNL     3     -12.540  13.174  64.577  1.00  0.00    -0.594 OA 
HETATM   33  O   UNL     3     -13.093  11.605  62.976  1.00  0.00    -0.436 OA 
HETATM   34  H   UNL     3     -11.394  10.955  61.757  1.00  0.00     0.000 HD 
ENDBRANCH  26  29
ENDBRANCH  23  26
ENDBRANCH   3  23
BRANCH   3  35
HETATM   35  C   UNL     3      -8.063   9.925  66.493  1.00  0.00    -0.117 C  
HETATM   36  O   UNL     3      -8.419   9.697  67.860  1.00  0.00    -0.121 OA 
HETATM   37  H   UNL     3      -7.697  10.000  68.398  1.00  0.00     0.000 HD 
ENDBRANCH   3  35
TORSDOF 8
ENDMDL
MODEL       65
REMARK 921   NORMALIZED FREE ENERGY PREDICTED BY IDOCK:   -5.48 KCAL/MOL
REMARK 922        TOTAL FREE ENERGY PREDICTED BY IDOCK:  -10.14 KCAL/MOL
REMARK 923 INTER-LIGAND FREE ENERGY PREDICTED BY IDOCK:   -8.36 KCAL/MOL
REMARK 924 INTRA-LIGAND FREE ENERGY PREDICTED BY IDOCK:   -1.78 KCAL/MOL
REMARK 927      BINDING AFFINITY PREDICTED BY RF-SCORE:    0.00 PKD
ROOT
HETATM    1 FE   UNL     1     -10.377  12.257  66.595  1.00  0.00    -0.206 Fe 
HETATM    2  C   UNL     2      -9.793   6.617  70.341  1.00  0.00    -0.175 C  
HETATM    3  C   UNL     3     -12.536  15.607  71.557  1.00  0.00    -0.447 C  
HETATM    4  H   UNL     3     -10.974  15.948  72.670  1.00  0.00     0.000 HD 
HETATM    5  H   UNL     2      -8.216   7.655  69.760  1.00  0.00     0.000 HD 
HETATM    6  O   UNL     2      -8.592   6.800  69.585  1.00  0.00    -0.131 OA 
HETATM    7  O   UNL     3     -11.759  15.421  72.761  1.00  0.00    -0.439 OA 
ENDROOT
BRANCH   2   8
HETATM    8  C   UNL     2     -10.399   5.239  70.060  1.00  0.00    -0.295 C  
HETATM    9  H   UNL     2     -10.556   3.488  70.975  1.00  0.00     0.000 HD 
HETATM   10  O   UNL     2     -10.180   4.343  71.150  1.00  0.00    -0.157 OA 
ENDBRANCH   2   8
BRANCH   2  11
HETATM   11  C   UNL     2     -10.777   7.763  70.041  1.00  0.00    -0.244 C  
HETATM   12  H   UNL     2     -12.679   8.198  70.410  1.00  0.00     0.000 HD 
HETATM   13  O   UNL     2     -12.072   7.491  70.595  1.00  0.00    -0.212 OA 
BRANCH  11  14
HETATM   14  C   UNL     2     -10.237   9.086  70.613  1.00  0.00    -0.229 C  
HETATM   15  H   UNL     2     -10.831  10.405  71.958  1.00  0.00     0.000 HD 
HETATM   16  O   UNL     2     -11.165   9.589  71.605  1.00  0.00    -0.378 OA 
BRANCH  14  17
HETATM   17  C   UNL     2     -10.022  10.187  69.580  1.00  0.00    -0.235 C  
HETATM   18  C   UNL     2     -11.022  10.082  68.414  1.00  0.00    -0.217 C  
HETATM   19  H   UNL     2      -8.539  10.737  68.406  1.00  0.00     0.000 HD 
HETATM   20  O   UNL     2      -8.674  10.051  69.049  1.00  0.00    -0.137 OA 
HETATM   21  O   UNL     2     -10.729   9.218  67.492  1.00  0.00    -0.277 OA 
HETATM   22  O   UNL     2     -11.841  10.969  68.188  1.00  0.00    -0.573 OA 
ENDBRANCH  14  17
ENDBRANCH  11  14
ENDBRANCH   2  11
BRANCH   3  23
HETATM   23  C   UNL     3     -11.622  15.238  70.394  1.00  0.00    -0.308 C  
HETATM   24  O   UNL     3     -11.383  13.826  70.454  1.00  0.00    -0.499 OA 
HETATM   25  H   UNL     3     -10.812  13.596  69.730  1.00  0.00     0.000 HD 
BRANCH  23  26
HETATM   26  C   UNL     3     -12.078  15.586  68.959  1.00  0.00    -0.221 C  
HETATM   27  O   UNL     3     -12.483  14.394  68.267  1.00  0.00    -0.587 OA 
HETATM   28  H   UNL     3     -12.764  14.608  67.384  1.00  0.00     0.000 HD 
BRANCH  26  29
HETATM   29  C   UNL     3     -10.881  16.221  68.215  1.00  0.00    -0.340 C  
HETATM   30  C   UNL     3      -9.593  15.366  68.105  1.00  0.00    -0.203 C  
HETATM   31  O   UNL     3     -10.514  17.498  68.842  1.00  0.00    -0.349 OA 
HETATM   32  O   UNL     3      -9.673  14.176  67.755  1.00  0.00    -0.215 OA 
HETATM   33  O   UNL     3      -8.540  16.081  68.399  1.00  0.00    -0.173 OA 
HETATM   34  H   UNL     3      -9.778  17.888  68.385  1.00  0.00     0.000 HD 
ENDBRANCH  26  29
ENDBRANCH  23  26
ENDBRANCH   3  23
BRANCH   3  35
HETATM   35  C   UNL     3     -13.799  14.759  71.703  1.00  0.00    -0.450 C  
HETATM   36  O   UNL     3     -13.562  13.811  72.749  1.00  0.00    -0.666 OA 
HETATM   37  H   UNL     3     -14.348  13.284  72.840  1.00  0.00     0.000 HD 
ENDBRANCH   3  35
TORSDOF 8
ENDMDL
MODEL       66
REMARK 921   NORMALIZED FREE ENERGY PREDICTED BY IDOCK:   -5.47 KCAL/MOL
REMARK 922        TOTAL FREE ENERGY PREDICTED BY IDOCK:  -10.12 KCAL/MOL
REMARK 923 INTER-LIGAND FREE ENERGY PREDICTED BY IDOCK:   -8.01 KCAL/MOL
REMARK 924 INTRA-LIGAND FREE ENERGY PREDICTED BY IDOCK:   -2.12 KCAL/MOL
REMARK 927      BINDING AFFINITY PREDICTED BY RF-SCORE:    0.00 PKD
ROOT
HETATM    1 FE   UNL     1      -7.223  11.031  67.557  1.00  0.00    -0.079 Fe 
HETATM    2  C   UNL     2     -11.519   7.803  71.717  1.00  0.00    -0.266 C  
HETATM    3  C   UNL     3     -11.993  13.247  63.973  1.00  0.00    -0.465 C  
HETATM    4  H   UNL     3     -12.799  14.683  65.015  1.00  0.00     0.000 HD 
HETATM    5  H   UNL     2     -10.574   9.450  72.261  1.00  0.00     0.000 HD 
HETATM    6  O   UNL     2     -10.570   8.530  72.502  1.00  0.00    -0.331 OA 
HETATM    7  O   UNL     3     -13.077  13.816  64.742  1.00  0.00    -0.651 OA 
ENDROOT
BRANCH   2   8
HETATM    8  C   UNL     2     -11.512   6.321  72.104  1.00  0.00    -0.307 C  
HETATM    9  H   UNL     2     -10.763   5.182  73.543  1.00  0.00     0.000 HD 
HETATM   10  O   UNL     2     -10.767   6.101  73.303  1.00  0.00    -0.242 OA 
ENDBRANCH   2   8
BRANCH   2  11
HETATM   11  C   UNL     2     -11.231   8.019  70.219  1.00  0.00    -0.190 C  
HETATM   12  H   UNL     2     -11.151   9.541  68.946  1.00  0.00     0.000 HD 
HETATM   13  O   UNL     2     -11.329   9.408  69.870  1.00  0.00    -0.202 OA 
BRANCH  11  14
HETATM   14  C   UNL     2      -9.827   7.496  69.871  1.00  0.00    -0.187 C  
HETATM   15  H   UNL     2      -8.102   8.292  69.326  1.00  0.00     0.000 HD 
HETATM   16  O   UNL     2      -8.970   8.616  69.542  1.00  0.00    -0.142 OA 
BRANCH  14  17
HETATM   17  C   UNL     2      -9.782   6.519  68.700  1.00  0.00    -0.127 C  
HETATM   18  C   UNL     2      -9.286   7.196  67.409  1.00  0.00    -0.127 C  
HETATM   19  H   UNL     2     -11.103   5.413  67.746  1.00  0.00     0.000 HD 
HETATM   20  O   UNL     2     -11.131   6.021  68.475  1.00  0.00    -0.313 OA 
HETATM   21  O   UNL     2     -10.172   7.878  66.751  1.00  0.00    -0.277 OA 
HETATM   22  O   UNL     2      -8.246   6.844  66.858  1.00  0.00    -0.111 OA 
ENDBRANCH  14  17
ENDBRANCH  11  14
ENDBRANCH   2  11
BRANCH   3  23
HETATM   23  C   UNL     3     -10.760  13.296  64.867  1.00  0.00    -0.351 C  
HETATM   24  O   UNL     3      -9.978  14.433  64.477  1.00  0.00    -0.614 OA 
HETATM   25  H   UNL     3      -9.210  14.463  65.035  1.00  0.00     0.000 HD 
BRANCH  23  26
HETATM   26  C   UNL     3     -10.963  13.357  66.399  1.00  0.00    -0.289 C  
HETATM   27  O   UNL     3     -11.054  14.724  66.831  1.00  0.00    -0.324 OA 
HETATM   28  H   UNL     3     -11.179  14.762  67.772  1.00  0.00     0.000 HD 
BRANCH  26  29
HETATM   29  C   UNL     3      -9.739  12.694  67.072  1.00  0.00    -0.225 C  
HETATM   30  C   UNL     3      -8.906  13.578  68.034  1.00  0.00    -0.181 C  
HETATM   31  O   UNL     3      -8.824  12.164  66.051  1.00  0.00    -0.403 OA 
HETATM   32  O   UNL     3      -9.484  14.271  68.889  1.00  0.00    -0.171 OA 
HETATM   33  O   UNL     3      -7.629  13.438  67.796  1.00  0.00    -0.125 OA 
HETATM   34  H   UNL     3      -8.072  11.756  66.465  1.00  0.00     0.000 HD 
ENDBRANCH  26  29
ENDBRANCH  23  26
ENDBRANCH   3  23
BRANCH   3  35
HETATM   35  C   UNL     3     -12.440  11.852  63.534  1.00  0.00    -0.492 C  
HETATM   36  O   UNL     3     -11.300  11.192  62.975  1.00  0.00    -0.812 OA 
HETATM   37  H   UNL     3     -11.578  10.324  62.702  1.00  0.00     0.000 HD 
ENDBRANCH   3  35
TORSDOF 8
ENDMDL
MODEL       67
REMARK 921   NORMALIZED FREE ENERGY PREDICTED BY IDOCK:   -5.46 KCAL/MOL
REMARK 922        TOTAL FREE ENERGY PREDICTED BY IDOCK:  -10.12 KCAL/MOL
REMARK 923 INTER-LIGAND FREE ENERGY PREDICTED BY IDOCK:   -8.97 KCAL/MOL
REMARK 924 INTRA-LIGAND FREE ENERGY PREDICTED BY IDOCK:   -1.15 KCAL/MOL
REMARK 927      BINDING AFFINITY PREDICTED BY RF-SCORE:    0.00 PKD
ROOT
HETATM    1 FE   UNL     1      -8.774  13.719  69.450  1.00  0.00    -0.338 Fe 
HETATM    2  C   UNL     2      -9.365   7.258  71.476  1.00  0.00    -0.148 C  
HETATM    3  C   UNL     3     -10.952  12.336  63.631  1.00  0.00    -0.471 C  
HETATM    4  H   UNL     3     -12.873  12.089  63.843  1.00  0.00     0.000 HD 
HETATM    5  H   UNL     2     -10.608   8.666  72.090  1.00  0.00     0.000 HD 
HETATM    6  O   UNL     2      -9.937   8.113  72.472  1.00  0.00    -0.248 OA 
HETATM    7  O   UNL     3     -12.142  11.516  63.640  1.00  0.00    -0.313 OA 
ENDROOT
BRANCH   2   8
HETATM    8  C   UNL     2      -8.283   6.368  72.091  1.00  0.00    -0.108 C  
HETATM    9  H   UNL     2      -7.882   5.541  73.848  1.00  0.00     0.000 HD 
HETATM   10  O   UNL     2      -8.554   6.094  73.467  1.00  0.00    -0.125 OA 
ENDBRANCH   2   8
BRANCH   2  11
HETATM   11  C   UNL     2      -8.832   8.107  70.306  1.00  0.00    -0.141 C  
HETATM   12  H   UNL     2      -7.097   8.420  69.393  1.00  0.00     0.000 HD 
HETATM   13  O   UNL     2      -7.425   7.897  70.114  1.00  0.00    -0.075 OA 
BRANCH  11  14
HETATM   14  C   UNL     2      -9.588   7.756  69.013  1.00  0.00    -0.155 C  
HETATM   15  H   UNL     2     -11.245   8.360  68.121  1.00  0.00     0.000 HD 
HETATM   16  O   UNL     2     -10.778   8.577  68.919  1.00  0.00    -0.182 OA 
BRANCH  14  17
HETATM   17  C   UNL     2     -10.022   6.298  68.903  1.00  0.00    -0.153 C  
HETATM   18  C   UNL     2      -9.673   5.698  67.529  1.00  0.00    -0.124 C  
HETATM   19  H   UNL     2     -11.736   5.334  69.013  1.00  0.00     0.000 HD 
HETATM   20  O   UNL     2     -11.466   6.242  69.081  1.00  0.00    -0.394 OA 
HETATM   21  O   UNL     2     -10.497   5.972  66.565  1.00  0.00    -0.211 OA 
HETATM   22  O   UNL     2      -8.885   4.763  67.418  1.00  0.00    -0.104 OA 
ENDBRANCH  14  17
ENDBRANCH  11  14
ENDBRANCH   2  11
BRANCH   3  23
HETATM   23  C   UNL     3     -10.895  13.026  64.990  1.00  0.00    -0.308 C  
HETATM   24  O   UNL     3      -9.521  13.313  65.280  1.00  0.00    -0.480 OA 
HETATM   25  H   UNL     3      -9.487  13.743  66.127  1.00  0.00     0.000 HD 
BRANCH  23  26
HETATM   26  C   UNL     3     -11.710  14.324  65.191  1.00  0.00    -0.368 C  
HETATM   27  O   UNL     3     -12.909  14.282  64.399  1.00  0.00    -0.619 OA 
HETATM   28  H   UNL     3     -13.410  15.080  64.522  1.00  0.00     0.000 HD 
BRANCH  26  29
HETATM   29  C   UNL     3     -10.839  15.514  64.728  1.00  0.00    -0.363 C  
HETATM   30  C   UNL     3     -10.273  16.438  65.835  1.00  0.00    -0.359 C  
HETATM   31  O   UNL     3     -11.590  16.357  63.787  1.00  0.00    -1.605 OA 
HETATM   32  O   UNL     3      -9.735  15.938  66.838  1.00  0.00    -0.223 OA 
HETATM   33  O   UNL     3     -10.441  17.694  65.516  1.00  0.00    -0.636 OA 
HETATM   34  H   UNL     3     -11.055  17.088  63.503  1.00  0.00     0.000 HD 
ENDBRANCH  26  29
ENDBRANCH  23  26
ENDBRANCH   3  23
BRANCH   3  35
HETATM   35  C   UNL     3      -9.776  11.414  63.306  1.00  0.00    -0.394 C  
HETATM   36  O   UNL     3      -9.799  10.338  64.248  1.00  0.00    -0.329 OA 
HETATM   37  H   UNL     3      -9.069   9.765  64.045  1.00  0.00     0.000 HD 
ENDBRANCH   3  35
TORSDOF 8
ENDMDL
MODEL       68
REMARK 921   NORMALIZED FREE ENERGY PREDICTED BY IDOCK:   -5.45 KCAL/MOL
REMARK 922        TOTAL FREE ENERGY PREDICTED BY IDOCK:  -10.10 KCAL/MOL
REMARK 923 INTER-LIGAND FREE ENERGY PREDICTED BY IDOCK:   -7.72 KCAL/MOL
REMARK 924 INTRA-LIGAND FREE ENERGY PREDICTED BY IDOCK:   -2.38 KCAL/MOL
REMARK 927      BINDING AFFINITY PREDICTED BY RF-SCORE:    0.00 PKD
ROOT
HETATM    1 FE   UNL     1     -10.178   6.737  65.604  1.00  0.00    -0.408 Fe 
HETATM    2  C   UNL     2      -9.703   8.275  72.207  1.00  0.00    -0.292 C  
HETATM    3  C   UNL     3     -11.367  12.792  64.041  1.00  0.00    -0.413 C  
HETATM    4  H   UNL     3      -9.654  13.708  64.183  1.00  0.00     0.000 HD 
HETATM    5  H   UNL     2      -8.114   7.841  71.116  1.00  0.00     0.000 HD 
HETATM    6  O   UNL     2      -8.592   7.452  71.839  1.00  0.00    -0.110 OA 
HETATM    7  O   UNL     3     -10.470  13.736  64.668  1.00  0.00    -0.416 OA 
ENDROOT
BRANCH   2   8
HETATM    8  C   UNL     2     -10.473   7.648  73.371  1.00  0.00    -0.301 C  
HETATM    9  H   UNL     2     -10.877   5.832  74.058  1.00  0.00     0.000 HD 
HETATM   10  O   UNL     2     -10.399   6.222  73.335  1.00  0.00    -0.207 OA 
ENDBRANCH   2   8
BRANCH   2  11
HETATM   11  C   UNL     2     -10.598   8.521  70.976  1.00  0.00    -0.216 C  
HETATM   12  H   UNL     2     -12.536   8.505  70.546  1.00  0.00     0.000 HD 
HETATM   13  O   UNL     2     -11.985   8.353  71.304  1.00  0.00    -0.285 OA 
BRANCH  11  14
HETATM   14  C   UNL     2     -10.364   9.940  70.430  1.00  0.00    -0.260 C  
HETATM   15  H   UNL     2     -11.351  11.652  70.439  1.00  0.00     0.000 HD 
HETATM   16  O   UNL     2     -11.496  10.776  70.777  1.00  0.00    -0.306 OA 
BRANCH  14  17
HETATM   17  C   UNL     2     -10.177  10.020  68.918  1.00  0.00    -0.193 C  
HETATM   18  C   UNL     2     -10.964  11.192  68.304  1.00  0.00    -0.226 C  
HETATM   19  H   UNL     2     -10.548   8.827  67.395  1.00  0.00     0.000 HD 
HETATM   20  O   UNL     2     -10.665   8.778  68.337  1.00  0.00    -0.169 OA 
HETATM   21  O   UNL     2     -12.225  10.980  68.095  1.00  0.00    -0.578 OA 
HETATM   22  O   UNL     2     -10.393  12.122  67.740  1.00  0.00    -0.199 OA 
ENDBRANCH  14  17
ENDBRANCH  11  14
ENDBRANCH   2  11
BRANCH   3  23
HETATM   23  C   UNL     3     -10.643  11.450  64.039  1.00  0.00    -0.383 C  
HETATM   24  O   UNL     3     -10.892  10.818  62.776  1.00  0.00    -0.673 OA 
HETATM   25  H   UNL     3     -10.441   9.982  62.775  1.00  0.00     0.000 HD 
BRANCH  23  26
HETATM   26  C   UNL     3      -9.118  11.435  64.291  1.00  0.00     0.116 C  
HETATM   27  O   UNL     3      -8.416  11.226  63.054  1.00  0.00    -0.432 OA 
HETATM   28  H   UNL     3      -7.478  11.218  63.209  1.00  0.00     0.000 HD 
BRANCH  26  29
HETATM   29  C   UNL     3      -8.802  10.269  65.256  1.00  0.00    -0.180 C  
HETATM   30  C   UNL     3      -7.588   9.375  64.898  1.00  0.00    -0.110 C  
HETATM   31  O   UNL     3      -9.974   9.393  65.393  1.00  0.00    -0.435 OA 
HETATM   32  O   UNL     3      -6.512   9.902  64.569  1.00  0.00    -0.107 OA 
HETATM   33  O   UNL     3      -7.896   8.112  65.022  1.00  0.00    -0.112 OA 
HETATM   34  H   UNL     3      -9.779   8.676  65.986  1.00  0.00     0.000 HD 
ENDBRANCH  26  29
ENDBRANCH  23  26
ENDBRANCH   3  23
BRANCH   3  35
HETATM   35  C   UNL     3     -12.681  12.836  64.822  1.00  0.00    -0.393 C  
HETATM   36  O   UNL     3     -12.428  13.521  66.052  1.00  0.00    -0.432 OA 
HETATM   37  H   UNL     3     -13.244  13.549  66.537  1.00  0.00     0.000 HD 
ENDBRANCH   3  35
TORSDOF 8
ENDMDL
MODEL       69
REMARK 921   NORMALIZED FREE ENERGY PREDICTED BY IDOCK:   -5.45 KCAL/MOL
REMARK 922        TOTAL FREE ENERGY PREDICTED BY IDOCK:  -10.09 KCAL/MOL
REMARK 923 INTER-LIGAND FREE ENERGY PREDICTED BY IDOCK:   -7.95 KCAL/MOL
REMARK 924 INTRA-LIGAND FREE ENERGY PREDICTED BY IDOCK:   -2.14 KCAL/MOL
REMARK 927      BINDING AFFINITY PREDICTED BY RF-SCORE:    0.00 PKD
ROOT
HETATM    1 FE   UNL     1     -13.274  12.952  70.758  1.00  0.00    -0.258 Fe 
HETATM    2  C   UNL     2      -9.168  17.048  67.215  1.00  0.00    -0.221 C  
HETATM    3  C   UNL     3      -9.779   7.829  69.328  1.00  0.00    -0.165 C  
HETATM    4  H   UNL     3      -8.184   7.964  70.440  1.00  0.00     0.000 HD 
HETATM    5  H   UNL     2      -9.183  17.035  69.191  1.00  0.00     0.000 HD 
HETATM    6  O   UNL     2      -9.422  17.637  68.495  1.00  0.00    -0.281 OA 
HETATM    7  O   UNL     3      -8.359   8.030  69.508  1.00  0.00    -0.123 OA 
ENDROOT
BRANCH   2   8
HETATM    8  C   UNL     2      -9.553  18.017  66.094  1.00  0.00    -0.173 C  
HETATM    9  H   UNL     2     -10.886  18.116  64.630  1.00  0.00     0.000 HD 
HETATM   10  O   UNL     2     -10.648  17.514  65.326  1.00  0.00    -0.664 OA 
ENDBRANCH   2   8
BRANCH   2  11
HETATM   11  C   UNL     2      -9.908  15.700  67.106  1.00  0.00    -0.229 C  
HETATM   12  H   UNL     2      -9.586  13.913  66.305  1.00  0.00     0.000 HD 
HETATM   13  O   UNL     2      -9.131  14.743  66.371  1.00  0.00    -0.271 OA 
BRANCH  11  14
HETATM   14  C   UNL     2     -10.212  15.151  68.511  1.00  0.00    -0.231 C  
HETATM   15  H   UNL     2      -9.303  13.970  69.808  1.00  0.00     0.000 HD 
HETATM   16  O   UNL     2      -9.114  14.310  68.941  1.00  0.00    -0.143 OA 
BRANCH  14  17
HETATM   17  C   UNL     2     -11.492  14.328  68.610  1.00  0.00    -0.296 C  
HETATM   18  C   UNL     2     -11.197  12.820  68.707  1.00  0.00    -0.283 C  
HETATM   19  H   UNL     2     -13.078  14.059  67.472  1.00  0.00     0.000 HD 
HETATM   20  O   UNL     2     -12.280  14.571  67.411  1.00  0.00    -0.333 OA 
HETATM   21  O   UNL     2     -10.947  12.219  67.586  1.00  0.00    -0.225 OA 
HETATM   22  O   UNL     2     -11.508  12.168  69.700  1.00  0.00    -0.280 OA 
ENDBRANCH  14  17
ENDBRANCH  11  14
ENDBRANCH   2  11
BRANCH   3  23
HETATM   23  C   UNL     3     -10.474   8.862  70.207  1.00  0.00    -0.210 C  
HETATM   24  O   UNL     3     -11.568   9.410  69.461  1.00  0.00    -0.437 OA 
HETATM   25  H   UNL     3     -12.001  10.054  70.009  1.00  0.00     0.000 HD 
BRANCH  23  26
HETATM   26  C   UNL     3     -11.010   8.414  71.586  1.00  0.00    -0.278 C  
HETATM   27  O   UNL     3     -10.492   7.115  71.919  1.00  0.00    -0.197 OA 
HETATM   28  H   UNL     3     -10.822   6.840  72.767  1.00  0.00     0.000 HD 
BRANCH  26  29
HETATM   29  C   UNL     3     -12.552   8.337  71.500  1.00  0.00    -0.309 C  
HETATM   30  C   UNL     3     -13.347   9.499  72.146  1.00  0.00    -0.461 C  
HETATM   31  O   UNL     3     -13.032   7.083  72.098  1.00  0.00    -0.528 OA 
HETATM   32  O   UNL     3     -13.010  10.674  71.924  1.00  0.00    -0.458 OA 
HETATM   33  O   UNL     3     -14.335   9.035  72.865  1.00  0.00    -0.550 OA 
HETATM   34  H   UNL     3     -13.979   7.036  72.045  1.00  0.00     0.000 HD 
ENDBRANCH  26  29
ENDBRANCH  23  26
ENDBRANCH   3  23
BRANCH   3  35
HETATM   35  C   UNL     3     -10.060   7.936  67.829  1.00  0.00    -0.192 C  
HETATM   36  O   UNL     3      -9.813   9.291  67.441  1.00  0.00    -0.159 OA 
HETATM   37  H   UNL     3      -9.988   9.358  66.510  1.00  0.00     0.000 HD 
ENDBRANCH   3  35
TORSDOF 8
ENDMDL
MODEL       70
REMARK 921   NORMALIZED FREE ENERGY PREDICTED BY IDOCK:   -5.44 KCAL/MOL
REMARK 922        TOTAL FREE ENERGY PREDICTED BY IDOCK:  -10.08 KCAL/MOL
REMARK 923 INTER-LIGAND FREE ENERGY PREDICTED BY IDOCK:   -8.10 KCAL/MOL
REMARK 924 INTRA-LIGAND FREE ENERGY PREDICTED BY IDOCK:   -1.98 KCAL/MOL
REMARK 927      BINDING AFFINITY PREDICTED BY RF-SCORE:    0.00 PKD
ROOT
HETATM    1 FE   UNL     1     -11.150   6.442  66.197  1.00  0.00    -0.438 Fe 
HETATM    2  C   UNL     2     -12.541  13.007  65.119  1.00  0.00    -0.469 C  
HETATM    3  C   UNL     3     -11.130   7.244  72.511  1.00  0.00    -0.293 C  
HETATM    4  H   UNL     3     -13.005   7.411  73.017  1.00  0.00     0.000 HD 
HETATM    5  H   UNL     2     -13.896  11.593  64.858  1.00  0.00     0.000 HD 
HETATM    6  O   UNL     2     -13.415  12.208  64.316  1.00  0.00    -0.708 OA 
HETATM    7  O   UNL     3     -12.260   8.002  73.000  1.00  0.00    -0.155 OA 
ENDROOT
BRANCH   2   8
HETATM    8  C   UNL     2     -11.765  13.997  64.246  1.00  0.00    -0.367 C  
HETATM    9  H   UNL     2     -12.087  15.741  63.362  1.00  0.00     0.000 HD 
HETATM   10  O   UNL     2     -12.568  15.127  63.903  1.00  0.00    -0.794 OA 
ENDBRANCH   2   8
BRANCH   2  11
HETATM   11  C   UNL     2     -11.610  12.094  65.941  1.00  0.00    -0.364 C  
HETATM   12  H   UNL     2      -9.660  11.760  66.110  1.00  0.00     0.000 HD 
HETATM   13  O   UNL     2     -10.234  12.322  65.603  1.00  0.00    -0.250 OA 
BRANCH  11  14
HETATM   14  C   UNL     2     -11.821  12.343  67.445  1.00  0.00    -0.289 C  
HETATM   15  H   UNL     2     -11.356  13.767  68.734  1.00  0.00     0.000 HD 
HETATM   16  O   UNL     2     -11.226  13.613  67.805  1.00  0.00    -0.266 OA 
BRANCH  14  17
HETATM   17  C   UNL     2     -11.224  11.277  68.358  1.00  0.00    -0.262 C  
HETATM   18  C   UNL     2     -12.061  11.084  69.636  1.00  0.00    -0.340 C  
HETATM   19  H   UNL     2      -9.515  11.041  69.308  1.00  0.00     0.000 HD 
HETATM   20  O   UNL     2      -9.887  11.705  68.739  1.00  0.00    -0.193 OA 
HETATM   21  O   UNL     2     -11.858  11.948  70.581  1.00  0.00    -0.280 OA 
HETATM   22  O   UNL     2     -12.616  10.017  69.885  1.00  0.00     0.063 OA 
ENDBRANCH  14  17
ENDBRANCH  11  14
ENDBRANCH   2  11
BRANCH   3  23
HETATM   23  C   UNL     3     -11.550   6.669  71.163  1.00  0.00    -0.332 C  
HETATM   24  O   UNL     3     -12.676   7.422  70.695  1.00  0.00    -0.576 OA 
HETATM   25  H   UNL     3     -12.938   7.064  69.855  1.00  0.00     0.000 HD 
BRANCH  23  26
HETATM   26  C   UNL     3     -10.503   6.616  70.027  1.00  0.00    -0.212 C  
HETATM   27  O   UNL     3     -10.870   7.524  68.975  1.00  0.00    -0.366 OA 
HETATM   28  H   UNL     3     -10.227   7.491  68.277  1.00  0.00     0.000 HD 
BRANCH  26  29
HETATM   29  C   UNL     3     -10.476   5.175  69.466  1.00  0.00    -0.163 C  
HETATM   30  C   UNL     3      -9.256   4.300  69.846  1.00  0.00    -0.138 C  
HETATM   31  O   UNL     3     -10.565   5.200  68.000  1.00  0.00    -0.080 OA 
HETATM   32  O   UNL     3      -8.873   4.258  71.028  1.00  0.00    -0.100 OA 
HETATM   33  O   UNL     3      -8.790   3.680  68.795  1.00  0.00    -0.095 OA 
HETATM   34  H   UNL     3     -10.549   4.315  67.655  1.00  0.00     0.000 HD 
ENDBRANCH  26  29
ENDBRANCH  23  26
ENDBRANCH   3  23
BRANCH   3  35
HETATM   35  C   UNL     3      -9.933   8.194  72.484  1.00  0.00    -0.302 C  
HETATM   36  O   UNL     3     -10.255   9.268  71.595  1.00  0.00    -0.332 OA 
HETATM   37  H   UNL     3      -9.511   9.858  71.578  1.00  0.00     0.000 HD 
ENDBRANCH   3  35
TORSDOF 8
ENDMDL
MODEL       71
REMARK 921   NORMALIZED FREE ENERGY PREDICTED BY IDOCK:   -5.44 KCAL/MOL
REMARK 922        TOTAL FREE ENERGY PREDICTED BY IDOCK:  -10.08 KCAL/MOL
REMARK 923 INTER-LIGAND FREE ENERGY PREDICTED BY IDOCK:   -8.17 KCAL/MOL
REMARK 924 INTRA-LIGAND FREE ENERGY PREDICTED BY IDOCK:   -1.91 KCAL/MOL
REMARK 927      BINDING AFFINITY PREDICTED BY RF-SCORE:    0.00 PKD
ROOT
HETATM    1 FE   UNL     1      -7.481   9.506  68.527  1.00  0.00    -0.071 Fe 
HETATM    2  C   UNL     2     -11.193  13.960  64.982  1.00  0.00    -0.342 C  
HETATM    3  C   UNL     3     -12.528   7.664  71.940  1.00  0.00    -0.308 C  
HETATM    4  H   UNL     3     -13.581   6.543  70.743  1.00  0.00     0.000 HD 
HETATM    5  H   UNL     2     -10.553  12.267  64.191  1.00  0.00     0.000 HD 
HETATM    6  O   UNL     2     -10.392  13.196  64.075  1.00  0.00    -0.396 OA 
HETATM    7  O   UNL     3     -13.701   7.399  71.138  1.00  0.00    -0.312 OA 
ENDROOT
BRANCH   2   8
HETATM    8  C   UNL     2     -10.933  15.457  64.797  1.00  0.00    -0.393 C  
HETATM    9  H   UNL     2     -11.693  16.963  63.755  1.00  0.00     0.000 HD 
HETATM   10  O   UNL     2     -11.855  16.034  63.870  1.00  0.00    -0.810 OA 
ENDBRANCH   2   8
BRANCH   2  11
HETATM   11  C   UNL     2     -10.933  13.494  66.427  1.00  0.00    -0.293 C  
HETATM   12  H   UNL     2     -11.581  13.938  68.251  1.00  0.00     0.000 HD 
HETATM   13  O   UNL     2     -11.741  14.225  67.360  1.00  0.00    -0.354 OA 
BRANCH  11  14
HETATM   14  C   UNL     2     -11.226  11.989  66.557  1.00  0.00    -0.334 C  
HETATM   15  H   UNL     2     -12.403  10.856  67.670  1.00  0.00     0.000 HD 
HETATM   16  O   UNL     2     -12.221  11.786  67.590  1.00  0.00    -0.534 OA 
BRANCH  14  17
HETATM   17  C   UNL     2     -10.015  11.130  66.905  1.00  0.00    -0.198 C  
HETATM   18  C   UNL     2      -9.324  10.576  65.645  1.00  0.00    -0.200 C  
HETATM   19  H   UNL     2      -9.719   9.475  67.931  1.00  0.00     0.000 HD 
HETATM   20  O   UNL     2     -10.473  10.010  67.714  1.00  0.00    -0.200 OA 
HETATM   21  O   UNL     2      -9.868   9.524  65.118  1.00  0.00    -0.248 OA 
HETATM   22  O   UNL     2      -8.171  10.884  65.359  1.00  0.00    -0.124 OA 
ENDBRANCH  14  17
ENDBRANCH  11  14
ENDBRANCH   2  11
BRANCH   3  23
HETATM   23  C   UNL     3     -11.331   7.528  71.006  1.00  0.00    -0.273 C  
HETATM   24  O   UNL     3     -11.760   7.886  69.686  1.00  0.00    -0.269 OA 
HETATM   25  H   UNL     3     -11.013   7.801  69.104  1.00  0.00     0.000 HD 
BRANCH  23  26
HETATM   26  C   UNL     3     -10.051   8.333  71.328  1.00  0.00    -0.198 C  
HETATM   27  O   UNL     3      -9.937   9.456  70.439  1.00  0.00    -0.216 OA 
HETATM   28  H   UNL     3      -9.150   9.951  70.638  1.00  0.00     0.000 HD 
BRANCH  26  29
HETATM   29  C   UNL     3      -8.834   7.401  71.125  1.00  0.00    -0.142 C  
HETATM   30  C   UNL     3      -7.509   8.068  70.678  1.00  0.00    -0.068 C  
HETATM   31  O   UNL     3      -9.156   6.352  70.148  1.00  0.00    -0.152 OA 
HETATM   32  O   UNL     3      -7.112   9.096  71.253  1.00  0.00    -0.173 OA 
HETATM   33  O   UNL     3      -6.961   7.392  69.704  1.00  0.00    -0.051 OA 
HETATM   34  H   UNL     3      -8.408   5.780  70.023  1.00  0.00     0.000 HD 
ENDBRANCH  26  29
ENDBRANCH  23  26
ENDBRANCH   3  23
BRANCH   3  35
HETATM   35  C   UNL     3     -12.722   9.040  72.576  1.00  0.00    -0.303 C  
HETATM   36  O   UNL     3     -13.942   9.002  73.322  1.00  0.00    -1.205 OA 
HETATM   37  H   UNL     3     -14.062   9.858  73.717  1.00  0.00     0.000 HD 
ENDBRANCH   3  35
TORSDOF 8
ENDMDL
MODEL       72
REMARK 921   NORMALIZED FREE ENERGY PREDICTED BY IDOCK:   -5.42 KCAL/MOL
REMARK 922        TOTAL FREE ENERGY PREDICTED BY IDOCK:  -10.05 KCAL/MOL
REMARK 923 INTER-LIGAND FREE ENERGY PREDICTED BY IDOCK:   -7.58 KCAL/MOL
REMARK 924 INTRA-LIGAND FREE ENERGY PREDICTED BY IDOCK:   -2.47 KCAL/MOL
REMARK 927      BINDING AFFINITY PREDICTED BY RF-SCORE:    0.00 PKD
ROOT
HETATM    1 FE   UNL     1     -10.233  12.675  68.965  1.00  0.00    -0.205 Fe 
HETATM    2  C   UNL     2     -10.885   6.179  70.851  1.00  0.00    -0.281 C  
HETATM    3  C   UNL     3      -9.094  11.048  62.919  1.00  0.00    -0.317 C  
HETATM    4  H   UNL     3     -10.823  10.523  62.190  1.00  0.00     0.000 HD 
HETATM    5  H   UNL     2     -12.442   7.385  70.698  1.00  0.00     0.000 HD 
HETATM    6  O   UNL     2     -11.976   6.932  71.390  1.00  0.00    -0.309 OA 
HETATM    7  O   UNL     3     -10.018  10.064  62.402  1.00  0.00     0.072 OA 
ENDROOT
BRANCH   2   8
HETATM    8  C   UNL     2     -10.134   5.448  71.967  1.00  0.00    -0.190 C  
HETATM    9  H   UNL     2      -8.661   5.826  73.239  1.00  0.00     0.000 HD 
HETATM   10  O   UNL     2      -9.127   6.280  72.546  1.00  0.00    -0.141 OA 
ENDBRANCH   2   8
BRANCH   2  11
HETATM   11  C   UNL     2      -9.965   7.107  70.034  1.00  0.00    -0.179 C  
HETATM   12  H   UNL     2      -8.681   6.944  68.529  1.00  0.00     0.000 HD 
HETATM   13  O   UNL     2      -9.248   6.372  69.032  1.00  0.00    -0.130 OA 
BRANCH  11  14
HETATM   14  C   UNL     2     -10.795   8.217  69.366  1.00  0.00    -0.084 C  
HETATM   15  H   UNL     2     -11.094   8.861  67.522  1.00  0.00     0.000 HD 
HETATM   16  O   UNL     2     -10.581   8.175  67.935  1.00  0.00    -0.212 OA 
BRANCH  14  17
HETATM   17  C   UNL     2     -10.471   9.630  69.842  1.00  0.00    -0.253 C  
HETATM   18  C   UNL     2     -11.744  10.471  70.048  1.00  0.00    -0.312 C  
HETATM   19  H   UNL     2      -9.448  11.151  69.121  1.00  0.00     0.000 HD 
HETATM   20  O   UNL     2      -9.650  10.271  68.825  1.00  0.00    -0.160 OA 
HETATM   21  O   UNL     2     -12.257  10.993  68.978  1.00  0.00    -0.483 OA 
HETATM   22  O   UNL     2     -12.056  10.902  71.155  1.00  0.00    -0.334 OA 
ENDBRANCH  14  17
ENDBRANCH  11  14
ENDBRANCH   2  11
BRANCH   3  23
HETATM   23  C   UNL     3      -9.798  11.725  64.089  1.00  0.00    -0.223 C  
HETATM   24  O   UNL     3      -9.813  13.136  63.836  1.00  0.00    -0.735 OA 
HETATM   25  H   UNL     3     -10.251  13.558  64.566  1.00  0.00     0.000 HD 
BRANCH  23  26
HETATM   26  C   UNL     3     -11.238  11.285  64.436  1.00  0.00    -0.126 C  
HETATM   27  O   UNL     3     -12.145  11.701  63.402  1.00  0.00    -0.751 OA 
HETATM   28  H   UNL     3     -13.030  11.431  63.615  1.00  0.00     0.000 HD 
BRANCH  26  29
HETATM   29  C   UNL     3     -11.641  11.964  65.765  1.00  0.00    -0.215 C  
HETATM   30  C   UNL     3     -12.330  13.348  65.663  1.00  0.00    -0.470 C  
HETATM   31  O   UNL     3     -10.465  12.116  66.634  1.00  0.00    -0.215 OA 
HETATM   32  O   UNL     3     -13.257  13.516  64.852  1.00  0.00    -0.661 OA 
HETATM   33  O   UNL     3     -11.807  14.186  66.518  1.00  0.00    -0.381 OA 
HETATM   34  H   UNL     3     -10.713  12.534  67.450  1.00  0.00     0.000 HD 
ENDBRANCH  26  29
ENDBRANCH  23  26
ENDBRANCH   3  23
BRANCH   3  35
HETATM   35  C   UNL     3      -7.799  10.309  63.260  1.00  0.00    -0.139 C  
HETATM   36  O   UNL     3      -7.691  10.270  64.687  1.00  0.00    -0.149 OA 
HETATM   37  H   UNL     3      -6.886   9.810  64.899  1.00  0.00     0.000 HD 
ENDBRANCH   3  35
TORSDOF 8
ENDMDL
MODEL       73
REMARK 921   NORMALIZED FREE ENERGY PREDICTED BY IDOCK:   -5.38 KCAL/MOL
REMARK 922        TOTAL FREE ENERGY PREDICTED BY IDOCK:  -10.00 KCAL/MOL
REMARK 923 INTER-LIGAND FREE ENERGY PREDICTED BY IDOCK:   -8.16 KCAL/MOL
REMARK 924 INTRA-LIGAND FREE ENERGY PREDICTED BY IDOCK:   -1.84 KCAL/MOL
REMARK 927      BINDING AFFINITY PREDICTED BY RF-SCORE:    0.00 PKD
ROOT
HETATM    1 FE   UNL     1     -12.849  10.469  68.838  1.00  0.00    -0.508 Fe 
HETATM    2  C   UNL     2     -10.206  16.658  67.892  1.00  0.00    -0.284 C  
HETATM    3  C   UNL     3      -7.461   8.314  71.452  1.00  0.00    -0.085 C  
HETATM    4  H   UNL     3      -7.414   9.078  73.243  1.00  0.00     0.000 HD 
HETATM    5  H   UNL     2     -11.552  16.297  69.293  1.00  0.00     0.000 HD 
HETATM    6  O   UNL     2     -11.503  16.791  68.482  1.00  0.00    -0.198 OA 
HETATM    7  O   UNL     3      -6.908   9.202  72.448  1.00  0.00    -0.313 OA 
ENDROOT
BRANCH   2   8
HETATM    8  C   UNL     2     -10.128  17.453  66.585  1.00  0.00    -0.317 C  
HETATM    9  H   UNL     2      -9.384  17.215  64.764  1.00  0.00     0.000 HD 
HETATM   10  O   UNL     2      -9.432  16.722  65.574  1.00  0.00    -0.490 OA 
ENDBRANCH   2   8
BRANCH   2  11
HETATM   11  C   UNL     2      -9.875  15.166  67.692  1.00  0.00    -0.219 C  
HETATM   12  H   UNL     2      -8.763  13.780  68.578  1.00  0.00     0.000 HD 
HETATM   13  O   UNL     2      -8.967  14.699  68.700  1.00  0.00    -0.179 OA 
BRANCH  11  14
HETATM   14  C   UNL     2     -11.166  14.330  67.732  1.00  0.00    -0.291 C  
HETATM   15  H   UNL     2     -12.040  13.117  69.024  1.00  0.00     0.000 HD 
HETATM   16  O   UNL     2     -11.243  13.634  69.000  1.00  0.00    -0.253 OA 
BRANCH  14  17
HETATM   17  C   UNL     2     -11.286  13.289  66.624  1.00  0.00    -0.321 C  
HETATM   18  C   UNL     2     -11.969  13.864  65.369  1.00  0.00    -0.381 C  
HETATM   19  H   UNL     2     -12.165  11.536  66.436  1.00  0.00     0.000 HD 
HETATM   20  O   UNL     2     -12.091  12.185  67.126  1.00  0.00    -0.575 OA 
HETATM   21  O   UNL     2     -13.265  13.916  65.404  1.00  0.00    -0.750 OA 
HETATM   22  O   UNL     2     -11.378  13.944  64.296  1.00  0.00    -0.365 OA 
ENDBRANCH  14  17
ENDBRANCH  11  14
ENDBRANCH   2  11
BRANCH   3  23
HETATM   23  C   UNL     3      -8.944   8.651  71.352  1.00  0.00    -0.222 C  
HETATM   24  O   UNL     3      -9.094   9.694  70.380  1.00  0.00    -0.246 OA 
HETATM   25  H   UNL     3     -10.018   9.905  70.318  1.00  0.00     0.000 HD 
BRANCH  23  26
HETATM   26  C   UNL     3      -9.935   7.519  70.996  1.00  0.00    -0.186 C  
HETATM   27  O   UNL     3      -9.940   7.295  69.576  1.00  0.00    -0.166 OA 
HETATM   28  H   UNL     3     -10.548   6.599  69.358  1.00  0.00     0.000 HD 
BRANCH  26  29
HETATM   29  C   UNL     3     -11.348   7.959  71.444  1.00  0.00    -0.252 C  
HETATM   30  C   UNL     3     -12.369   6.832  71.741  1.00  0.00    -0.356 C  
HETATM   31  O   UNL     3     -11.946   8.846  70.437  1.00  0.00    -0.477 OA 
HETATM   32  O   UNL     3     -12.030   5.863  72.442  1.00  0.00    -0.298 OA 
HETATM   33  O   UNL     3     -13.521   7.098  71.185  1.00  0.00    -0.316 OA 
HETATM   34  H   UNL     3     -12.814   9.116  70.712  1.00  0.00     0.000 HD 
ENDBRANCH  26  29
ENDBRANCH  23  26
ENDBRANCH   3  23
BRANCH   3  35
HETATM   35  C   UNL     3      -6.648   8.513  70.173  1.00  0.00    -0.038 C  
HETATM   36  O   UNL     3      -7.103   7.550  69.218  1.00  0.00    -0.072 OA 
HETATM   37  H   UNL     3      -6.597   7.674  68.423  1.00  0.00     0.000 HD 
ENDBRANCH   3  35
TORSDOF 8
ENDMDL
MODEL       74
REMARK 921   NORMALIZED FREE ENERGY PREDICTED BY IDOCK:   -5.38 KCAL/MOL
REMARK 922        TOTAL FREE ENERGY PREDICTED BY IDOCK:   -9.99 KCAL/MOL
REMARK 923 INTER-LIGAND FREE ENERGY PREDICTED BY IDOCK:   -7.82 KCAL/MOL
REMARK 924 INTRA-LIGAND FREE ENERGY PREDICTED BY IDOCK:   -2.17 KCAL/MOL
REMARK 927      BINDING AFFINITY PREDICTED BY RF-SCORE:    0.00 PKD
ROOT
HETATM    1 FE   UNL     1      -8.698  11.748  69.519  1.00  0.00    -0.357 Fe 
HETATM    2  C   UNL     2     -10.219   5.128  69.299  1.00  0.00    -0.206 C  
HETATM    3  C   UNL     3     -11.976  12.915  64.190  1.00  0.00    -0.423 C  
HETATM    4  H   UNL     3     -13.852  12.851  64.712  1.00  0.00     0.000 HD 
HETATM    5  H   UNL     2     -11.053   6.351  70.608  1.00  0.00     0.000 HD 
HETATM    6  O   UNL     2     -10.452   5.615  70.624  1.00  0.00    -0.236 OA 
HETATM    7  O   UNL     3     -13.287  12.308  64.174  1.00  0.00    -0.731 OA 
ENDROOT
BRANCH   2   8
HETATM    8  C   UNL     2      -9.249   3.944  69.326  1.00  0.00    -0.157 C  
HETATM    9  H   UNL     2      -8.968   2.252  68.332  1.00  0.00     0.000 HD 
HETATM   10  O   UNL     2      -9.570   2.987  68.316  1.00  0.00    -0.180 OA 
ENDBRANCH   2   8
BRANCH   2  11
HETATM   11  C   UNL     2      -9.717   6.277  68.403  1.00  0.00    -0.124 C  
HETATM   12  H   UNL     2      -9.737   6.746  66.474  1.00  0.00     0.000 HD 
HETATM   13  O   UNL     2     -10.046   6.038  67.026  1.00  0.00    -0.146 OA 
BRANCH  11  14
HETATM   14  C   UNL     2     -10.336   7.610  68.859  1.00  0.00    -0.212 C  
HETATM   15  H   UNL     2     -11.322   9.092  68.000  1.00  0.00     0.000 HD 
HETATM   16  O   UNL     2     -10.940   8.268  67.719  1.00  0.00    -0.057 OA 
BRANCH  14  17
HETATM   17  C   UNL     2      -9.350   8.588  69.489  1.00  0.00    -0.161 C  
HETATM   18  C   UNL     2      -9.990   9.380  70.645  1.00  0.00    -0.284 C  
HETATM   19  H   UNL     2      -8.312  10.137  68.854  1.00  0.00     0.000 HD 
HETATM   20  O   UNL     2      -8.926   9.527  68.462  1.00  0.00    -0.127 OA 
HETATM   21  O   UNL     2     -10.716  10.397  70.300  1.00  0.00    -0.282 OA 
HETATM   22  O   UNL     2      -9.578   9.278  71.797  1.00  0.00    -0.291 OA 
ENDBRANCH  14  17
ENDBRANCH  11  14
ENDBRANCH   2  11
BRANCH   3  23
HETATM   23  C   UNL     3     -11.577  13.037  65.656  1.00  0.00    -0.354 C  
HETATM   24  O   UNL     3     -10.818  11.872  66.004  1.00  0.00    -0.277 OA 
HETATM   25  H   UNL     3     -10.570  11.948  66.918  1.00  0.00     0.000 HD 
BRANCH  23  26
HETATM   26  C   UNL     3     -10.775  14.282  66.099  1.00  0.00    -0.295 C  
HETATM   27  O   UNL     3      -9.369  13.981  66.122  1.00  0.00    -0.456 OA 
HETATM   28  H   UNL     3      -8.876  14.746  66.395  1.00  0.00     0.000 HD 
BRANCH  26  29
HETATM   29  C   UNL     3     -11.233  14.666  67.525  1.00  0.00    -0.333 C  
HETATM   30  C   UNL     3     -10.462  14.023  68.705  1.00  0.00    -0.247 C  
HETATM   31  O   UNL     3     -12.658  14.351  67.702  1.00  0.00    -0.525 OA 
HETATM   32  O   UNL     3      -9.219  14.011  68.693  1.00  0.00    -0.189 OA 
HETATM   33  O   UNL     3     -11.293  13.574  69.607  1.00  0.00    -0.234 OA 
HETATM   34  H   UNL     3     -12.939  14.587  68.578  1.00  0.00     0.000 HD 
ENDBRANCH  26  29
ENDBRANCH  23  26
ENDBRANCH   3  23
BRANCH   3  35
HETATM   35  C   UNL     3     -11.068  12.041  63.325  1.00  0.00    -0.320 C  
HETATM   36  O   UNL     3      -9.764  12.631  63.337  1.00  0.00    -0.620 OA 
HETATM   37  H   UNL     3      -9.199  12.087  62.800  1.00  0.00     0.000 HD 
ENDBRANCH   3  35
TORSDOF 8
ENDMDL
MODEL       75
REMARK 921   NORMALIZED FREE ENERGY PREDICTED BY IDOCK:   -5.37 KCAL/MOL
REMARK 922        TOTAL FREE ENERGY PREDICTED BY IDOCK:   -9.98 KCAL/MOL
REMARK 923 INTER-LIGAND FREE ENERGY PREDICTED BY IDOCK:   -7.86 KCAL/MOL
REMARK 924 INTRA-LIGAND FREE ENERGY PREDICTED BY IDOCK:   -2.12 KCAL/MOL
REMARK 927      BINDING AFFINITY PREDICTED BY RF-SCORE:    0.00 PKD
ROOT
HETATM    1 FE   UNL     1      -9.186  12.325  63.285  1.00  0.00    -0.459 Fe 
HETATM    2  C   UNL     2     -10.255  18.451  66.027  1.00  0.00    -0.336 C  
HETATM    3  C   UNL     3      -9.818   9.436  68.921  1.00  0.00    -0.171 C  
HETATM    4  H   UNL     3     -11.729   9.450  69.298  1.00  0.00     0.000 HD 
HETATM    5  H   UNL     2     -11.616  17.550  64.914  1.00  0.00     0.000 HD 
HETATM    6  O   UNL     2     -11.062  18.319  64.852  1.00  0.00    -0.615 OA 
HETATM    7  O   UNL     3     -10.970   9.881  69.672  1.00  0.00    -0.233 OA 
ENDROOT
BRANCH   2   8
HETATM    8  C   UNL     2      -9.361  19.690  65.927  1.00  0.00    -0.141 C  
HETATM    9  H   UNL     2      -8.873  21.244  67.056  1.00  0.00     0.000 HD 
HETATM   10  O   UNL     2      -9.428  20.476  67.118  1.00  0.00    -0.412 OA 
ENDBRANCH   2   8
BRANCH   2  11
HETATM   11  C   UNL     2      -9.445  17.159  66.250  1.00  0.00    -0.243 C  
HETATM   12  H   UNL     2      -7.542  16.595  66.201  1.00  0.00     0.000 HD 
HETATM   13  O   UNL     2      -8.041  17.391  66.063  1.00  0.00    -0.483 OA 
BRANCH  11  14
HETATM   14  C   UNL     2      -9.696  16.617  67.668  1.00  0.00    -0.250 C  
HETATM   15  H   UNL     2      -8.708  16.589  69.379  1.00  0.00     0.000 HD 
HETATM   16  O   UNL     2      -8.553  16.923  68.503  1.00  0.00    -0.233 OA 
BRANCH  14  17
HETATM   17  C   UNL     2      -9.935  15.113  67.743  1.00  0.00    -0.225 C  
HETATM   18  C   UNL     2     -11.142  14.768  68.635  1.00  0.00    -0.262 C  
HETATM   19  H   UNL     2      -8.894  13.558  68.358  1.00  0.00     0.000 HD 
HETATM   20  O   UNL     2      -8.746  14.495  68.311  1.00  0.00    -0.160 OA 
HETATM   21  O   UNL     2     -10.916  14.755  69.912  1.00  0.00    -0.249 OA 
HETATM   22  O   UNL     2     -12.140  14.217  68.180  1.00  0.00    -0.343 OA 
ENDBRANCH  14  17
ENDBRANCH  11  14
ENDBRANCH   2  11
BRANCH   3  23
HETATM   23  C   UNL     3     -10.108   9.756  67.459  1.00  0.00    -0.197 C  
HETATM   24  O   UNL     3     -11.072   8.807  66.984  1.00  0.00    -0.255 OA 
HETATM   25  H   UNL     3     -11.252   9.006  66.073  1.00  0.00     0.000 HD 
BRANCH  23  26
HETATM   26  C   UNL     3     -10.615  11.172  67.102  1.00  0.00    -0.244 C  
HETATM   27  O   UNL     3     -12.026  11.270  67.354  1.00  0.00    -0.581 OA 
HETATM   28  H   UNL     3     -12.338  12.141  67.135  1.00  0.00     0.000 HD 
BRANCH  26  29
HETATM   29  C   UNL     3     -10.351  11.411  65.597  1.00  0.00    -0.257 C  
HETATM   30  C   UNL     3     -11.527  11.980  64.764  1.00  0.00    -0.298 C  
HETATM   31  O   UNL     3      -9.913  10.165  64.955  1.00  0.00    -0.329 OA 
HETATM   32  O   UNL     3     -12.177  12.947  65.197  1.00  0.00    -0.415 OA 
HETATM   33  O   UNL     3     -11.655  11.322  63.643  1.00  0.00    -0.223 OA 
HETATM   34  H   UNL     3      -9.752  10.312  64.030  1.00  0.00     0.000 HD 
ENDBRANCH  26  29
ENDBRANCH  23  26
ENDBRANCH   3  23
BRANCH   3  35
HETATM   35  C   UNL     3      -8.596  10.130  69.522  1.00  0.00    -0.164 C  
HETATM   36  O   UNL     3      -7.601  10.214  68.497  1.00  0.00    -0.084 OA 
HETATM   37  H   UNL     3      -6.841  10.646  68.871  1.00  0.00     0.000 HD 
ENDBRANCH   3  35
TORSDOF 8
ENDMDL
MODEL       76
REMARK 921   NORMALIZED FREE ENERGY PREDICTED BY IDOCK:   -5.36 KCAL/MOL
REMARK 922        TOTAL FREE ENERGY PREDICTED BY IDOCK:   -9.96 KCAL/MOL
REMARK 923 INTER-LIGAND FREE ENERGY PREDICTED BY IDOCK:   -8.87 KCAL/MOL
REMARK 924 INTRA-LIGAND FREE ENERGY PREDICTED BY IDOCK:   -1.09 KCAL/MOL
REMARK 927      BINDING AFFINITY PREDICTED BY RF-SCORE:    0.00 PKD
ROOT
HETATM    1 FE   UNL     1      -7.733  10.450  69.310  1.00  0.00    -0.072 Fe 
HETATM    2  C   UNL     2     -11.288  13.983  64.720  1.00  0.00    -0.366 C  
HETATM    3  C   UNL     3     -13.008   7.831  71.723  1.00  0.00    -0.323 C  
HETATM    4  H   UNL     3     -13.558   6.486  70.425  1.00  0.00     0.000 HD 
HETATM    5  H   UNL     2     -10.204  12.410  64.219  1.00  0.00     0.000 HD 
HETATM    6  O   UNL     2     -10.186  13.348  64.066  1.00  0.00    -0.336 OA 
HETATM    7  O   UNL     3     -13.910   7.319  70.716  1.00  0.00     0.017 OA 
ENDROOT
BRANCH   2   8
HETATM    8  C   UNL     2     -11.259  15.494  64.474  1.00  0.00    -0.315 C  
HETATM    9  H   UNL     2     -12.381  16.859  63.575  1.00  0.00     0.000 HD 
HETATM   10  O   UNL     2     -12.399  15.921  63.727  1.00  0.00    -0.791 OA 
ENDBRANCH   2   8
BRANCH   2  11
HETATM   11  C   UNL     2     -11.276  13.632  66.221  1.00  0.00    -0.305 C  
HETATM   12  H   UNL     2     -12.358  14.049  67.832  1.00  0.00     0.000 HD 
HETATM   13  O   UNL     2     -12.366  14.265  66.908  1.00  0.00    -0.408 OA 
BRANCH  11  14
HETATM   14  C   UNL     2     -11.364  12.107  66.406  1.00  0.00    -0.356 C  
HETATM   15  H   UNL     2     -12.199  10.874  67.705  1.00  0.00     0.000 HD 
HETATM   16  O   UNL     2     -12.146  11.816  67.590  1.00  0.00    -0.598 OA 
BRANCH  14  17
HETATM   17  C   UNL     2     -10.019  11.404  66.555  1.00  0.00    -0.211 C  
HETATM   18  C   UNL     2     -10.133   9.890  66.299  1.00  0.00    -0.241 C  
HETATM   19  H   UNL     2      -8.711  11.174  68.010  1.00  0.00     0.000 HD 
HETATM   20  O   UNL     2      -9.549  11.612  67.917  1.00  0.00    -0.170 OA 
HETATM   21  O   UNL     2     -10.567   9.179  67.293  1.00  0.00    -0.271 OA 
HETATM   22  O   UNL     2      -9.543   9.350  65.367  1.00  0.00    -0.273 OA 
ENDBRANCH  14  17
ENDBRANCH  11  14
ENDBRANCH   2  11
BRANCH   3  23
HETATM   23  C   UNL     3     -11.629   7.886  71.075  1.00  0.00    -0.282 C  
HETATM   24  O   UNL     3     -10.934   9.018  71.614  1.00  0.00    -0.315 OA 
HETATM   25  H   UNL     3     -10.075   9.052  71.210  1.00  0.00     0.000 HD 
BRANCH  23  26
HETATM   26  C   UNL     3     -10.707   6.652  71.202  1.00  0.00    -0.234 C  
HETATM   27  O   UNL     3     -11.021   5.694  70.178  1.00  0.00    -0.313 OA 
HETATM   28  H   UNL     3     -10.454   4.935  70.255  1.00  0.00     0.000 HD 
BRANCH  26  29
HETATM   29  C   UNL     3     -10.950   6.011  72.587  1.00  0.00    -0.264 C  
HETATM   30  C   UNL     3      -9.965   6.397  73.719  1.00  0.00    -0.237 C  
HETATM   31  O   UNL     3     -10.947   4.546  72.475  1.00  0.00    -0.127 OA 
HETATM   32  O   UNL     3      -9.669   7.591  73.897  1.00  0.00    -0.281 OA 
HETATM   33  O   UNL     3      -9.580   5.335  74.374  1.00  0.00    -0.130 OA 
HETATM   34  H   UNL     3     -11.096   4.152  73.327  1.00  0.00     0.000 HD 
ENDBRANCH  26  29
ENDBRANCH  23  26
ENDBRANCH   3  23
BRANCH   3  35
HETATM   35  C   UNL     3     -13.575   9.172  72.191  1.00  0.00    -0.474 C  
HETATM   36  O   UNL     3     -14.185   8.958  73.468  1.00  0.00    -1.194 OA 
HETATM   37  H   UNL     3     -14.537   9.791  73.760  1.00  0.00     0.000 HD 
ENDBRANCH   3  35
TORSDOF 8
ENDMDL
MODEL       77
REMARK 921   NORMALIZED FREE ENERGY PREDICTED BY IDOCK:   -5.31 KCAL/MOL
REMARK 922        TOTAL FREE ENERGY PREDICTED BY IDOCK:   -9.89 KCAL/MOL
REMARK 923 INTER-LIGAND FREE ENERGY PREDICTED BY IDOCK:   -9.16 KCAL/MOL
REMARK 924 INTRA-LIGAND FREE ENERGY PREDICTED BY IDOCK:   -0.73 KCAL/MOL
REMARK 927      BINDING AFFINITY PREDICTED BY RF-SCORE:    0.00 PKD
ROOT
HETATM    1 FE   UNL     1      -7.691  12.040  69.741  1.00  0.00    -0.332 Fe 
HETATM    2  C   UNL     2     -11.826  13.866  64.665  1.00  0.00    -0.407 C  
HETATM    3  C   UNL     3     -12.061   8.120  72.200  1.00  0.00    -0.357 C  
HETATM    4  H   UNL     3     -12.076   6.563  71.029  1.00  0.00     0.000 HD 
HETATM    5  H   UNL     2     -10.277  12.675  64.376  1.00  0.00     0.000 HD 
HETATM    6  O   UNL     2     -10.537  13.553  64.127  1.00  0.00    -0.365 OA 
HETATM    7  O   UNL     3     -12.687   7.266  71.217  1.00  0.00    -0.362 OA 
ENDROOT
BRANCH   2   8
HETATM    8  C   UNL     2     -12.246  15.282  64.264  1.00  0.00    -0.189 C  
HETATM    9  H   UNL     2     -11.384  17.043  63.969  1.00  0.00     0.000 HD 
HETATM   10  O   UNL     2     -11.123  16.164  64.218  1.00  0.00    -0.653 OA 
ENDBRANCH   2   8
BRANCH   2  11
HETATM   11  C   UNL     2     -11.813  13.668  66.194  1.00  0.00    -0.392 C  
HETATM   12  H   UNL     2     -12.324  12.258  67.494  1.00  0.00     0.000 HD 
HETATM   13  O   UNL     2     -12.332  12.380  66.552  1.00  0.00    -0.511 OA 
BRANCH  11  14
HETATM   14  C   UNL     2     -10.380  13.817  66.732  1.00  0.00    -0.272 C  
HETATM   15  H   UNL     2      -8.819  12.630  66.981  1.00  0.00     0.000 HD 
HETATM   16  O   UNL     2      -9.705  12.538  66.648  1.00  0.00    -0.229 OA 
BRANCH  14  17
HETATM   17  C   UNL     2     -10.287  14.294  68.178  1.00  0.00    -0.233 C  
HETATM   18  C   UNL     2     -10.845  15.720  68.347  1.00  0.00    -0.297 C  
HETATM   19  H   UNL     2      -8.827  14.593  69.465  1.00  0.00     0.000 HD 
HETATM   20  O   UNL     2      -8.885  14.296  68.565  1.00  0.00    -0.179 OA 
HETATM   21  O   UNL     2     -10.043  16.684  68.020  1.00  0.00    -0.247 OA 
HETATM   22  O   UNL     2     -11.827  15.946  69.050  1.00  0.00    -0.389 OA 
ENDBRANCH  14  17
ENDBRANCH  11  14
ENDBRANCH   2  11
BRANCH   3  23
HETATM   23  C   UNL     3     -10.723   8.548  71.606  1.00  0.00    -0.281 C  
HETATM   24  O   UNL     3      -9.895   7.382  71.502  1.00  0.00    -0.173 OA 
HETATM   25  H   UNL     3      -9.062   7.649  71.133  1.00  0.00     0.000 HD 
BRANCH  23  26
HETATM   26  C   UNL     3     -10.721   9.261  70.235  1.00  0.00    -0.243 C  
HETATM   27  O   UNL     3     -12.056   9.662  69.884  1.00  0.00    -0.458 OA 
HETATM   28  H   UNL     3     -12.055  10.101  69.041  1.00  0.00     0.000 HD 
BRANCH  26  29
HETATM   29  C   UNL     3     -10.197   8.265  69.176  1.00  0.00    -0.218 C  
HETATM   30  C   UNL     3      -9.827   8.848  67.789  1.00  0.00    -0.166 C  
HETATM   31  O   UNL     3     -11.178   7.192  68.960  1.00  0.00    -0.460 OA 
HETATM   32  O   UNL     3      -9.136   9.879  67.719  1.00  0.00    -0.131 OA 
HETATM   33  O   UNL     3     -10.318   8.106  66.833  1.00  0.00    -0.303 OA 
HETATM   34  H   UNL     3     -10.855   6.579  68.309  1.00  0.00     0.000 HD 
ENDBRANCH  26  29
ENDBRANCH  23  26
ENDBRANCH   3  23
BRANCH   3  35
HETATM   35  C   UNL     3     -13.045   9.251  72.502  1.00  0.00    -0.343 C  
HETATM   36  O   UNL     3     -14.294   8.651  72.858  1.00  0.00    -0.973 OA 
HETATM   37  H   UNL     3     -14.905   9.353  73.047  1.00  0.00     0.000 HD 
ENDBRANCH   3  35
TORSDOF 8
ENDMDL
MODEL       78
REMARK 921   NORMALIZED FREE ENERGY PREDICTED BY IDOCK:   -5.31 KCAL/MOL
REMARK 922        TOTAL FREE ENERGY PREDICTED BY IDOCK:   -9.88 KCAL/MOL
REMARK 923 INTER-LIGAND FREE ENERGY PREDICTED BY IDOCK:   -7.25 KCAL/MOL
REMARK 924 INTRA-LIGAND FREE ENERGY PREDICTED BY IDOCK:   -2.63 KCAL/MOL
REMARK 927      BINDING AFFINITY PREDICTED BY RF-SCORE:    0.00 PKD
ROOT
HETATM    1 FE   UNL     1     -10.652   9.945  64.484  1.00  0.00    -0.321 Fe 
HETATM    2  C   UNL     2      -7.468   6.432  69.353  1.00  0.00    -0.094 C  
HETATM    3  C   UNL     3     -11.337  15.016  68.269  1.00  0.00    -0.318 C  
HETATM    4  H   UNL     3      -9.573  15.838  68.357  1.00  0.00     0.000 HD 
HETATM    5  H   UNL     2      -6.504   7.171  67.795  1.00  0.00     0.000 HD 
HETATM    6  O   UNL     2      -6.729   6.312  68.133  1.00  0.00    -0.062 OA 
HETATM    7  O   UNL     3     -10.129  15.377  68.975  1.00  0.00    -0.212 OA 
ENDROOT
BRANCH   2   8
HETATM    8  C   UNL     2      -7.831   5.048  69.898  1.00  0.00    -0.070 C  
HETATM    9  H   UNL     2      -7.585   3.152  69.376  1.00  0.00     0.000 HD 
HETATM   10  O   UNL     2      -7.359   4.010  69.037  1.00  0.00    -0.053 OA 
ENDBRANCH   2   8
BRANCH   2  11
HETATM   11  C   UNL     2      -8.709   7.317  69.125  1.00  0.00    -0.136 C  
HETATM   12  H   UNL     2     -10.491   7.585  69.957  1.00  0.00     0.000 HD 
HETATM   13  O   UNL     2      -9.727   7.039  70.098  1.00  0.00    -0.174 OA 
BRANCH  11  14
HETATM   14  C   UNL     2      -8.316   8.803  69.196  1.00  0.00    -0.125 C  
HETATM   15  H   UNL     2      -7.702  10.050  70.600  1.00  0.00     0.000 HD 
HETATM   16  O   UNL     2      -7.944   9.132  70.556  1.00  0.00    -0.119 OA 
BRANCH  14  17
HETATM   17  C   UNL     2      -9.412   9.773  68.768  1.00  0.00    -0.154 C  
HETATM   18  C   UNL     2      -9.718   9.664  67.263  1.00  0.00    -0.166 C  
HETATM   19  H   UNL     2      -9.638  11.730  68.786  1.00  0.00     0.000 HD 
HETATM   20  O   UNL     2      -8.955  11.125  69.052  1.00  0.00    -0.126 OA 
HETATM   21  O   UNL     2      -8.907  10.297  66.473  1.00  0.00    -0.135 OA 
HETATM   22  O   UNL     2     -10.820   9.306  66.856  1.00  0.00    -0.144 OA 
ENDBRANCH  14  17
ENDBRANCH  11  14
ENDBRANCH   2  11
BRANCH   3  23
HETATM   23  C   UNL     3     -10.899  14.216  67.048  1.00  0.00    -0.295 C  
HETATM   24  O   UNL     3     -10.200  13.053  67.511  1.00  0.00    -0.218 OA 
HETATM   25  H   UNL     3      -9.926  12.555  66.750  1.00  0.00     0.000 HD 
BRANCH  23  26
HETATM   26  C   UNL     3     -11.978  13.757  66.041  1.00  0.00    -0.414 C  
HETATM   27  O   UNL     3     -12.410  12.422  66.355  1.00  0.00    -0.539 OA 
HETATM   28  H   UNL     3     -13.074  12.140  65.736  1.00  0.00     0.000 HD 
BRANCH  26  29
HETATM   29  C   UNL     3     -11.353  13.768  64.628  1.00  0.00    -0.372 C  
HETATM   30  C   UNL     3     -11.707  12.581  63.697  1.00  0.00    -0.515 C  
HETATM   31  O   UNL     3      -9.888  13.837  64.722  1.00  0.00    -0.615 OA 
HETATM   32  O   UNL     3     -12.890  12.216  63.589  1.00  0.00    -0.746 OA 
HETATM   33  O   UNL     3     -10.634  12.122  63.110  1.00  0.00    -0.380 OA 
HETATM   34  H   UNL     3      -9.504  13.844  63.853  1.00  0.00     0.000 HD 
ENDBRANCH  26  29
ENDBRANCH  23  26
ENDBRANCH   3  23
BRANCH   3  35
HETATM   35  C   UNL     3     -12.231  14.274  69.262  1.00  0.00    -0.252 C  
HETATM   36  O   UNL     3     -11.378  13.529  70.136  1.00  0.00    -0.496 OA 
HETATM   37  H   UNL     3     -11.933  13.068  70.754  1.00  0.00     0.000 HD 
ENDBRANCH   3  35
TORSDOF 8
ENDMDL
MODEL       79
REMARK 921   NORMALIZED FREE ENERGY PREDICTED BY IDOCK:   -5.30 KCAL/MOL
REMARK 922        TOTAL FREE ENERGY PREDICTED BY IDOCK:   -9.88 KCAL/MOL
REMARK 923 INTER-LIGAND FREE ENERGY PREDICTED BY IDOCK:   -7.22 KCAL/MOL
REMARK 924 INTRA-LIGAND FREE ENERGY PREDICTED BY IDOCK:   -2.65 KCAL/MOL
REMARK 927      BINDING AFFINITY PREDICTED BY RF-SCORE:    0.00 PKD
ROOT
HETATM    1 FE   UNL     1     -10.422  13.932  68.919  1.00  0.00    -0.204 Fe 
HETATM    2  C   UNL     2     -11.874   7.983  71.865  1.00  0.00    -0.307 C  
HETATM    3  C   UNL     3      -9.127  11.125  63.356  1.00  0.00    -0.157 C  
HETATM    4  H   UNL     3     -10.858  10.644  62.604  1.00  0.00     0.000 HD 
HETATM    5  H   UNL     2     -13.281   9.284  71.386  1.00  0.00     0.000 HD 
HETATM    6  O   UNL     2     -12.906   8.922  72.181  1.00  0.00    -0.357 OA 
HETATM    7  O   UNL     3     -10.121  10.157  62.953  1.00  0.00     0.084 OA 
ENDROOT
BRANCH   2   8
HETATM    8  C   UNL     2     -11.270   7.400  73.146  1.00  0.00    -0.247 C  
HETATM    9  H   UNL     2     -10.671   5.633  73.816  1.00  0.00     0.000 HD 
HETATM   10  O   UNL     2     -11.046   5.995  73.022  1.00  0.00    -0.260 OA 
ENDBRANCH   2   8
BRANCH   2  11
HETATM   11  C   UNL     2     -10.816   8.653  70.969  1.00  0.00    -0.247 C  
HETATM   12  H   UNL     2      -8.845   8.893  70.956  1.00  0.00     0.000 HD 
HETATM   13  O   UNL     2      -9.497   8.480  71.508  1.00  0.00    -0.177 OA 
BRANCH  11  14
HETATM   14  C   UNL     2     -10.876   8.063  69.550  1.00  0.00    -0.129 C  
HETATM   15  H   UNL     2     -11.332   6.313  68.751  1.00  0.00     0.000 HD 
HETATM   16  O   UNL     2     -11.295   6.678  69.628  1.00  0.00    -0.335 OA 
BRANCH  14  17
HETATM   17  C   UNL     2      -9.557   8.105  68.784  1.00  0.00    -0.149 C  
HETATM   18  C   UNL     2      -9.593   9.132  67.638  1.00  0.00    -0.149 C  
HETATM   19  H   UNL     2      -8.500   6.811  67.741  1.00  0.00     0.000 HD 
HETATM   20  O   UNL     2      -9.321   6.785  68.218  1.00  0.00    -0.126 OA 
HETATM   21  O   UNL     2     -10.168   8.740  66.544  1.00  0.00    -0.288 OA 
HETATM   22  O   UNL     2      -8.846  10.107  67.627  1.00  0.00    -0.125 OA 
ENDBRANCH  14  17
ENDBRANCH  11  14
ENDBRANCH   2  11
BRANCH   3  23
HETATM   23  C   UNL     3      -9.818  12.070  64.333  1.00  0.00    -0.155 C  
HETATM   24  O   UNL     3      -9.861  13.370  63.732  1.00  0.00    -0.543 OA 
HETATM   25  H   UNL     3     -10.291  13.959  64.341  1.00  0.00     0.000 HD 
BRANCH  23  26
HETATM   26  C   UNL     3     -11.245  11.717  64.813  1.00  0.00    -0.234 C  
HETATM   27  O   UNL     3     -12.212  12.129  63.833  1.00  0.00    -0.450 OA 
HETATM   28  H   UNL     3     -13.089  11.913  64.128  1.00  0.00     0.000 HD 
BRANCH  26  29
HETATM   29  C   UNL     3     -11.508  12.475  66.135  1.00  0.00    -0.377 C  
HETATM   30  C   UNL     3     -12.258  13.826  66.028  1.00  0.00    -0.457 C  
HETATM   31  O   UNL     3     -10.241  12.724  66.837  1.00  0.00    -0.233 OA 
HETATM   32  O   UNL     3     -13.284  13.907  65.330  1.00  0.00    -0.750 OA 
HETATM   33  O   UNL     3     -11.668  14.737  66.754  1.00  0.00    -0.366 OA 
HETATM   34  H   UNL     3     -10.403  13.190  67.649  1.00  0.00     0.000 HD 
ENDBRANCH  26  29
ENDBRANCH  23  26
ENDBRANCH   3  23
BRANCH   3  35
HETATM   35  C   UNL     3      -7.941  10.341  63.918  1.00  0.00    -0.126 C  
HETATM   36  O   UNL     3      -7.607  10.915  65.186  1.00  0.00    -0.359 OA 
HETATM   37  H   UNL     3      -6.870  10.428  65.535  1.00  0.00     0.000 HD 
ENDBRANCH   3  35
TORSDOF 8
ENDMDL
MODEL       80
REMARK 921   NORMALIZED FREE ENERGY PREDICTED BY IDOCK:   -5.30 KCAL/MOL
REMARK 922        TOTAL FREE ENERGY PREDICTED BY IDOCK:   -9.87 KCAL/MOL
REMARK 923 INTER-LIGAND FREE ENERGY PREDICTED BY IDOCK:   -7.82 KCAL/MOL
REMARK 924 INTRA-LIGAND FREE ENERGY PREDICTED BY IDOCK:   -2.05 KCAL/MOL
REMARK 927      BINDING AFFINITY PREDICTED BY RF-SCORE:    0.00 PKD
ROOT
HETATM    1 FE   UNL     1      -8.471  13.222  69.383  1.00  0.00    -0.336 Fe 
HETATM    2  C   UNL     2     -10.952   7.352  71.745  1.00  0.00    -0.234 C  
HETATM    3  C   UNL     3     -10.704  12.079  63.533  1.00  0.00    -0.455 C  
HETATM    4  H   UNL     3     -12.623  12.395  63.641  1.00  0.00     0.000 HD 
HETATM    5  H   UNL     2     -11.770   9.092  72.198  1.00  0.00     0.000 HD 
HETATM    6  O   UNL     2     -11.299   8.403  72.652  1.00  0.00    -0.372 OA 
HETATM    7  O   UNL     3     -12.076  11.628  63.517  1.00  0.00    -0.441 OA 
ENDROOT
BRANCH   2   8
HETATM    8  C   UNL     2     -10.192   6.242  72.476  1.00  0.00    -0.184 C  
HETATM    9  H   UNL     2     -10.341   5.234  74.176  1.00  0.00     0.000 HD 
HETATM   10  O   UNL     2     -10.812   5.923  73.723  1.00  0.00    -0.245 OA 
ENDBRANCH   2   8
BRANCH   2  11
HETATM   11  C   UNL     2     -10.151   7.930  70.561  1.00  0.00    -0.192 C  
HETATM   12  H   UNL     2      -8.358   7.683  69.745  1.00  0.00     0.000 HD 
HETATM   13  O   UNL     2      -8.851   7.328  70.474  1.00  0.00    -0.150 OA 
BRANCH  11  14
HETATM   14  C   UNL     2     -10.916   7.701  69.246  1.00  0.00    -0.014 C  
HETATM   15  H   UNL     2     -11.720   6.155  68.314  1.00  0.00     0.000 HD 
HETATM   16  O   UNL     2     -11.247   6.296  69.126  1.00  0.00    -0.376 OA 
BRANCH  14  17
HETATM   17  C   UNL     2     -10.156   8.106  67.987  1.00  0.00    -0.197 C  
HETATM   18  C   UNL     2     -10.285   9.614  67.701  1.00  0.00    -0.216 C  
HETATM   19  H   UNL     2     -10.244   7.623  66.080  1.00  0.00     0.000 HD 
HETATM   20  O   UNL     2     -10.717   7.370  66.864  1.00  0.00    -0.346 OA 
HETATM   21  O   UNL     2     -11.379   9.986  67.111  1.00  0.00    -0.113 OA 
HETATM   22  O   UNL     2      -9.306  10.355  67.709  1.00  0.00    -0.144 OA 
ENDBRANCH  14  17
ENDBRANCH  11  14
ENDBRANCH   2  11
BRANCH   3  23
HETATM   23  C   UNL     3     -10.512  12.824  64.850  1.00  0.00    -0.321 C  
HETATM   24  O   UNL     3      -9.729  13.995  64.583  1.00  0.00    -0.539 OA 
HETATM   25  H   UNL     3      -9.610  14.458  65.403  1.00  0.00     0.000 HD 
BRANCH  23  26
HETATM   26  C   UNL     3     -11.767  13.256  65.641  1.00  0.00    -0.356 C  
HETATM   27  O   UNL     3     -12.456  14.304  64.940  1.00  0.00    -0.504 OA 
HETATM   28  H   UNL     3     -13.228  14.570  65.426  1.00  0.00     0.000 HD 
BRANCH  26  29
HETATM   29  C   UNL     3     -11.308  13.785  67.019  1.00  0.00    -0.326 C  
HETATM   30  C   UNL     3     -10.441  15.070  67.021  1.00  0.00    -0.278 C  
HETATM   31  O   UNL     3     -10.561  12.745  67.739  1.00  0.00    -0.215 OA 
HETATM   32  O   UNL     3     -10.786  16.045  66.331  1.00  0.00    -0.301 OA 
HETATM   33  O   UNL     3      -9.415  14.931  67.817  1.00  0.00    -0.199 OA 
HETATM   34  H   UNL     3     -10.278  13.070  68.586  1.00  0.00     0.000 HD 
ENDBRANCH  26  29
ENDBRANCH  23  26
ENDBRANCH   3  23
BRANCH   3  35
HETATM   35  C   UNL     3      -9.824  10.845  63.334  1.00  0.00    -0.362 C  
HETATM   36  O   UNL     3     -10.266   9.848  64.261  1.00  0.00    -0.404 OA 
HETATM   37  H   UNL     3      -9.720   9.080  64.137  1.00  0.00     0.000 HD 
ENDBRANCH   3  35
TORSDOF 8
ENDMDL
MODEL       81
REMARK 921   NORMALIZED FREE ENERGY PREDICTED BY IDOCK:   -5.29 KCAL/MOL
REMARK 922        TOTAL FREE ENERGY PREDICTED BY IDOCK:   -9.86 KCAL/MOL
REMARK 923 INTER-LIGAND FREE ENERGY PREDICTED BY IDOCK:   -7.65 KCAL/MOL
REMARK 924 INTRA-LIGAND FREE ENERGY PREDICTED BY IDOCK:   -2.21 KCAL/MOL
REMARK 927      BINDING AFFINITY PREDICTED BY RF-SCORE:    0.00 PKD
ROOT
HETATM    1 FE   UNL     1     -12.703  11.370  69.665  1.00  0.00    -0.266 Fe 
HETATM    2  C   UNL     2     -10.257  16.916  66.590  1.00  0.00    -0.312 C  
HETATM    3  C   UNL     3      -7.123   8.350  69.169  1.00  0.00    -0.064 C  
HETATM    4  H   UNL     3      -5.974   9.161  70.517  1.00  0.00     0.000 HD 
HETATM    5  H   UNL     2     -10.614  16.867  68.532  1.00  0.00     0.000 HD 
HETATM    6  O   UNL     2     -10.965  17.311  67.769  1.00  0.00    -0.318 OA 
HETATM    7  O   UNL     3      -5.993   9.158  69.567  1.00  0.00    -0.033 OA 
ENDROOT
BRANCH   2   8
HETATM    8  C   UNL     2     -10.823  17.630  65.360  1.00  0.00     0.104 C  
HETATM    9  H   UNL     2     -11.529  17.143  63.573  1.00  0.00     0.000 HD 
HETATM   10  O   UNL     2     -11.178  16.699  64.336  1.00  0.00    -1.033 OA 
ENDBRANCH   2   8
BRANCH   2  11
HETATM   11  C   UNL     2     -10.298  15.381  66.448  1.00  0.00    -0.296 C  
HETATM   12  H   UNL     2      -9.010  13.871  66.493  1.00  0.00     0.000 HD 
HETATM   13  O   UNL     2      -8.985  14.816  66.580  1.00  0.00    -0.266 OA 
BRANCH  11  14
HETATM   14  C   UNL     2     -11.230  14.778  67.513  1.00  0.00    -0.332 C  
HETATM   15  H   UNL     2     -11.010  13.726  69.171  1.00  0.00     0.000 HD 
HETATM   16  O   UNL     2     -10.433  14.098  68.513  1.00  0.00    -0.239 OA 
BRANCH  14  17
HETATM   17  C   UNL     2     -12.250  13.779  66.976  1.00  0.00    -0.340 C  
HETATM   18  C   UNL     2     -11.663  12.359  66.877  1.00  0.00    -0.362 C  
HETATM   19  H   UNL     2     -13.282  13.589  65.309  1.00  0.00     0.000 HD 
HETATM   20  O   UNL     2     -12.647  14.211  65.644  1.00  0.00    -0.487 OA 
HETATM   21  O   UNL     2     -10.937  12.118  65.830  1.00  0.00    -0.271 OA 
HETATM   22  O   UNL     2     -12.115  11.430  67.540  1.00  0.00    -0.592 OA 
ENDBRANCH  14  17
ENDBRANCH  11  14
ENDBRANCH   2  11
BRANCH   3  23
HETATM   23  C   UNL     3      -8.344   8.955  69.852  1.00  0.00    -0.128 C  
HETATM   24  O   UNL     3      -7.886   9.972  70.752  1.00  0.00    -0.406 OA 
HETATM   25  H   UNL     3      -8.648  10.348  71.178  1.00  0.00     0.000 HD 
BRANCH  23  26
HETATM   26  C   UNL     3      -9.457   9.563  68.968  1.00  0.00    -0.158 C  
HETATM   27  O   UNL     3      -9.682  10.935  69.332  1.00  0.00    -0.402 OA 
HETATM   28  H   UNL     3     -10.366  11.309  68.788  1.00  0.00     0.000 HD 
BRANCH  26  29
HETATM   29  C   UNL     3     -10.754   8.756  69.206  1.00  0.00    -0.151 C  
HETATM   30  C   UNL     3     -11.199   8.566  70.678  1.00  0.00    -0.252 C  
HETATM   31  O   UNL     3     -10.641   7.423  68.600  1.00  0.00    -0.227 OA 
HETATM   32  O   UNL     3     -11.207   9.541  71.449  1.00  0.00    -0.351 OA 
HETATM   33  O   UNL     3     -11.539   7.324  70.898  1.00  0.00    -0.282 OA 
HETATM   34  H   UNL     3     -11.438   6.927  68.747  1.00  0.00     0.000 HD 
ENDBRANCH  26  29
ENDBRANCH  23  26
ENDBRANCH   3  23
BRANCH   3  35
HETATM   35  C   UNL     3      -7.152   8.345  67.640  1.00  0.00    -0.083 C  
HETATM   36  O   UNL     3      -7.586   7.046  67.223  1.00  0.00    -0.103 OA 
HETATM   37  H   UNL     3      -7.604   7.043  66.273  1.00  0.00     0.000 HD 
ENDBRANCH   3  35
TORSDOF 8
ENDMDL
MODEL       82
REMARK 921   NORMALIZED FREE ENERGY PREDICTED BY IDOCK:   -5.27 KCAL/MOL
REMARK 922        TOTAL FREE ENERGY PREDICTED BY IDOCK:   -9.83 KCAL/MOL
REMARK 923 INTER-LIGAND FREE ENERGY PREDICTED BY IDOCK:   -8.66 KCAL/MOL
REMARK 924 INTRA-LIGAND FREE ENERGY PREDICTED BY IDOCK:   -1.17 KCAL/MOL
REMARK 927      BINDING AFFINITY PREDICTED BY RF-SCORE:    0.00 PKD
ROOT
HETATM    1 FE   UNL     1      -8.196   8.952  68.065  1.00  0.00    -0.100 Fe 
HETATM    2  C   UNL     2     -11.663  13.868  64.903  1.00  0.00    -0.368 C  
HETATM    3  C   UNL     3     -13.148   7.548  71.809  1.00  0.00    -0.322 C  
HETATM    4  H   UNL     3     -14.398   6.578  70.671  1.00  0.00     0.000 HD 
HETATM    5  H   UNL     2     -11.265  12.141  64.031  1.00  0.00     0.000 HD 
HETATM    6  O   UNL     2     -11.015  13.051  63.923  1.00  0.00    -0.395 OA 
HETATM    7  O   UNL     3     -14.398   7.429  71.092  1.00  0.00    -0.373 OA 
ENDROOT
BRANCH   2   8
HETATM    8  C   UNL     2     -11.260  15.335  64.730  1.00  0.00    -0.396 C  
HETATM    9  H   UNL     2     -11.928  16.940  63.778  1.00  0.00     0.000 HD 
HETATM   10  O   UNL     2     -12.178  16.029  63.885  1.00  0.00    -0.883 OA 
ENDBRANCH   2   8
BRANCH   2  11
HETATM   11  C   UNL     2     -11.349  13.335  66.315  1.00  0.00    -0.309 C  
HETATM   12  H   UNL     2     -11.886  11.802  67.456  1.00  0.00     0.000 HD 
HETATM   13  O   UNL     2     -12.079  12.131  66.587  1.00  0.00    -0.622 OA 
BRANCH  11  14
HETATM   14  C   UNL     2      -9.840  13.068  66.454  1.00  0.00    -0.270 C  
HETATM   15  H   UNL     2      -8.681  11.474  66.590  1.00  0.00     0.000 HD 
HETATM   16  O   UNL     2      -9.613  11.639  66.504  1.00  0.00    -0.198 OA 
BRANCH  14  17
HETATM   17  C   UNL     2      -9.194  13.683  67.691  1.00  0.00    -0.213 C  
HETATM   18  C   UNL     2      -8.625  15.084  67.404  1.00  0.00    -0.192 C  
HETATM   19  H   UNL     2      -7.702  13.198  68.881  1.00  0.00     0.000 HD 
HETATM   20  O   UNL     2      -8.104  12.815  68.110  1.00  0.00    -0.141 OA 
HETATM   21  O   UNL     2      -7.462  15.116  66.832  1.00  0.00    -0.123 OA 
HETATM   22  O   UNL     2      -9.061  16.083  67.970  1.00  0.00    -0.187 OA 
ENDBRANCH  14  17
ENDBRANCH  11  14
ENDBRANCH   2  11
BRANCH   3  23
HETATM   23  C   UNL     3     -12.043   7.315  70.785  1.00  0.00    -0.245 C  
HETATM   24  O   UNL     3     -11.688   8.586  70.224  1.00  0.00    -0.474 OA 
HETATM   25  H   UNL     3     -10.999   8.441  69.586  1.00  0.00     0.000 HD 
BRANCH  23  26
HETATM   26  C   UNL     3     -10.744   6.617  71.249  1.00  0.00    -0.231 C  
HETATM   27  O   UNL     3      -9.736   7.596  71.547  1.00  0.00    -0.164 OA 
HETATM   28  H   UNL     3      -8.938   7.167  71.832  1.00  0.00     0.000 HD 
BRANCH  26  29
HETATM   29  C   UNL     3     -10.247   5.713  70.097  1.00  0.00    -0.250 C  
HETATM   30  C   UNL     3      -8.754   5.838  69.705  1.00  0.00    -0.122 C  
HETATM   31  O   UNL     3     -11.046   5.949  68.887  1.00  0.00    -0.315 OA 
HETATM   32  O   UNL     3      -7.883   5.841  70.591  1.00  0.00    -0.096 OA 
HETATM   33  O   UNL     3      -8.624   5.908  68.407  1.00  0.00    -0.114 OA 
HETATM   34  H   UNL     3     -10.741   5.393  68.179  1.00  0.00     0.000 HD 
ENDBRANCH  26  29
ENDBRANCH  23  26
ENDBRANCH   3  23
BRANCH   3  35
HETATM   35  C   UNL     3     -13.148   8.918  72.486  1.00  0.00    -0.364 C  
HETATM   36  O   UNL     3     -14.200   8.919  73.456  1.00  0.00    -1.194 OA 
HETATM   37  H   UNL     3     -14.199   9.771  73.877  1.00  0.00     0.000 HD 
ENDBRANCH   3  35
TORSDOF 8
ENDMDL
MODEL       83
REMARK 921   NORMALIZED FREE ENERGY PREDICTED BY IDOCK:   -5.27 KCAL/MOL
REMARK 922        TOTAL FREE ENERGY PREDICTED BY IDOCK:   -9.83 KCAL/MOL
REMARK 923 INTER-LIGAND FREE ENERGY PREDICTED BY IDOCK:   -8.62 KCAL/MOL
REMARK 924 INTRA-LIGAND FREE ENERGY PREDICTED BY IDOCK:   -1.21 KCAL/MOL
REMARK 927      BINDING AFFINITY PREDICTED BY RF-SCORE:    0.00 PKD
ROOT
HETATM    1 FE   UNL     1     -11.098   8.111  66.239  1.00  0.00    -0.260 Fe 
HETATM    2  C   UNL     2      -8.080   5.835  71.887  1.00  0.00    -0.112 C  
HETATM    3  C   UNL     3     -11.430  14.041  68.527  1.00  0.00    -0.302 C  
HETATM    4  H   UNL     3      -9.618  14.745  68.402  1.00  0.00     0.000 HD 
HETATM    5  H   UNL     2      -7.090   6.070  70.193  1.00  0.00     0.000 HD 
HETATM    6  O   UNL     2      -7.363   5.349  70.747  1.00  0.00    -0.073 OA 
HETATM    7  O   UNL     3     -10.194  14.501  69.117  1.00  0.00    -0.226 OA 
ENDROOT
BRANCH   2   8
HETATM    8  C   UNL     2      -8.520   4.673  72.780  1.00  0.00    -0.111 C  
HETATM    9  H   UNL     2      -8.364   4.141  74.683  1.00  0.00     0.000 HD 
HETATM   10  O   UNL     2      -8.090   4.862  74.129  1.00  0.00    -0.100 OA 
ENDBRANCH   2   8
BRANCH   2  11
HETATM   11  C   UNL     2      -9.267   6.703  71.424  1.00  0.00    -0.151 C  
HETATM   12  H   UNL     2      -9.825   7.665  69.780  1.00  0.00     0.000 HD 
HETATM   13  O   UNL     2      -9.094   7.132  70.065  1.00  0.00    -0.145 OA 
BRANCH  11  14
HETATM   14  C   UNL     2     -10.580   5.911  71.554  1.00  0.00    -0.245 C  
HETATM   15  H   UNL     2     -11.969   5.242  70.318  1.00  0.00     0.000 HD 
HETATM   16  O   UNL     2     -11.158   5.731  70.238  1.00  0.00    -0.311 OA 
BRANCH  14  17
HETATM   17  C   UNL     2     -11.635   6.568  72.437  1.00  0.00    -0.255 C  
HETATM   18  C   UNL     2     -12.632   7.404  71.614  1.00  0.00    -0.358 C  
HETATM   19  H   UNL     2     -11.613   7.857  73.927  1.00  0.00     0.000 HD 
HETATM   20  O   UNL     2     -10.955   7.448  73.376  1.00  0.00    -0.378 OA 
HETATM   21  O   UNL     2     -12.234   8.591  71.279  1.00  0.00    -0.295 OA 
HETATM   22  O   UNL     2     -13.826   7.119  71.569  1.00  0.00    -0.376 OA 
ENDBRANCH  14  17
ENDBRANCH  11  14
ENDBRANCH   2  11
BRANCH   3  23
HETATM   23  C   UNL     3     -11.055  12.918  67.566  1.00  0.00    -0.269 C  
HETATM   24  O   UNL     3     -12.135  11.976  67.547  1.00  0.00    -0.555 OA 
HETATM   25  H   UNL     3     -11.901  11.276  66.949  1.00  0.00     0.000 HD 
BRANCH  23  26
HETATM   26  C   UNL     3     -10.711  13.284  66.104  1.00  0.00    -0.279 C  
HETATM   27  O   UNL     3     -10.393  14.682  66.007  1.00  0.00    -0.280 OA 
HETATM   28  H   UNL     3     -10.182  14.907  65.108  1.00  0.00     0.000 HD 
BRANCH  26  29
HETATM   29  C   UNL     3     -11.951  12.984  65.230  1.00  0.00    -0.407 C  
HETATM   30  C   UNL     3     -11.729  12.928  63.698  1.00  0.00    -0.508 C  
HETATM   31  O   UNL     3     -13.006  13.974  65.491  1.00  0.00    -0.681 OA 
HETATM   32  O   UNL     3     -10.772  12.282  63.238  1.00  0.00    -0.427 OA 
HETATM   33  O   UNL     3     -12.659  13.602  63.075  1.00  0.00    -0.729 OA 
HETATM   34  H   UNL     3     -13.768  13.789  64.954  1.00  0.00     0.000 HD 
ENDBRANCH  26  29
ENDBRANCH  23  26
ENDBRANCH   3  23
BRANCH   3  35
HETATM   35  C   UNL     3     -12.356  13.648  69.678  1.00  0.00    -0.203 C  
HETATM   36  O   UNL     3     -12.960  14.847  70.173  1.00  0.00    -0.588 OA 
HETATM   37  H   UNL     3     -13.536  14.603  70.889  1.00  0.00     0.000 HD 
ENDBRANCH   3  35
TORSDOF 8
ENDMDL
MODEL       84
REMARK 921   NORMALIZED FREE ENERGY PREDICTED BY IDOCK:   -5.24 KCAL/MOL
REMARK 922        TOTAL FREE ENERGY PREDICTED BY IDOCK:   -9.79 KCAL/MOL
REMARK 923 INTER-LIGAND FREE ENERGY PREDICTED BY IDOCK:   -8.35 KCAL/MOL
REMARK 924 INTRA-LIGAND FREE ENERGY PREDICTED BY IDOCK:   -1.44 KCAL/MOL
REMARK 927      BINDING AFFINITY PREDICTED BY RF-SCORE:    0.00 PKD
ROOT
HETATM    1 FE   UNL     1     -12.928  11.665  65.650  1.00  0.00     0.207 Fe 
HETATM    2  C   UNL     2      -8.212   8.917  69.699  1.00  0.00    -0.114 C  
HETATM    3  C   UNL     3     -10.349  17.458  66.190  1.00  0.00    -0.327 C  
HETATM    4  H   UNL     3      -8.749  17.417  65.078  1.00  0.00     0.000 HD 
HETATM    5  H   UNL     2      -8.219   8.616  67.746  1.00  0.00     0.000 HD 
HETATM    6  O   UNL     2      -8.357   8.101  68.532  1.00  0.00    -0.124 OA 
HETATM    7  O   UNL     3      -8.915  17.470  66.013  1.00  0.00    -0.497 OA 
ENDROOT
BRANCH   2   8
HETATM    8  C   UNL     2      -8.434   8.086  70.965  1.00  0.00    -0.128 C  
HETATM    9  H   UNL     2      -8.773   6.191  71.439  1.00  0.00     0.000 HD 
HETATM   10  O   UNL     2      -8.635   6.707  70.653  1.00  0.00    -0.139 OA 
ENDBRANCH   2   8
BRANCH   2  11
HETATM   11  C   UNL     2      -9.167  10.123  69.612  1.00  0.00    -0.183 C  
HETATM   12  H   UNL     2      -9.440  11.695  68.432  1.00  0.00     0.000 HD 
HETATM   13  O   UNL     2      -8.851  10.952  68.485  1.00  0.00    -0.140 OA 
BRANCH  11  14
HETATM   14  C   UNL     2     -10.623   9.636  69.504  1.00  0.00    -0.229 C  
HETATM   15  H   UNL     2     -12.136   9.928  68.267  1.00  0.00     0.000 HD 
HETATM   16  O   UNL     2     -11.237  10.229  68.334  1.00  0.00    -0.265 OA 
BRANCH  14  17
HETATM   17  C   UNL     2     -11.499   9.970  70.707  1.00  0.00    -0.356 C  
HETATM   18  C   UNL     2     -11.863   8.713  71.517  1.00  0.00    -0.306 C  
HETATM   19  H   UNL     2     -13.272  10.787  70.965  1.00  0.00     0.000 HD 
HETATM   20  O   UNL     2     -12.726  10.579  70.216  1.00  0.00    -0.310 OA 
HETATM   21  O   UNL     2     -12.844   8.004  71.052  1.00  0.00    -0.158 OA 
HETATM   22  O   UNL     2     -11.499   8.571  72.681  1.00  0.00    -0.351 OA 
ENDBRANCH  14  17
ENDBRANCH  11  14
ENDBRANCH   2  11
BRANCH   3  23
HETATM   23  C   UNL     3     -10.857  16.198  65.497  1.00  0.00    -0.270 C  
HETATM   24  O   UNL     3     -11.165  16.537  64.139  1.00  0.00    -1.355 OA 
HETATM   25  H   UNL     3     -11.482  15.752  63.707  1.00  0.00     0.000 HD 
BRANCH  23  26
HETATM   26  C   UNL     3      -9.948  14.948  65.485  1.00  0.00    -0.358 C  
HETATM   27  O   UNL     3     -10.146  14.205  64.270  1.00  0.00    -0.648 OA 
HETATM   28  H   UNL     3      -9.588  13.436  64.263  1.00  0.00     0.000 HD 
BRANCH  26  29
HETATM   29  C   UNL     3     -10.336  14.060  66.690  1.00  0.00    -0.278 C  
HETATM   30  C   UNL     3     -11.838  14.012  67.068  1.00  0.00    -0.428 C  
HETATM   31  O   UNL     3      -9.590  14.475  67.886  1.00  0.00    -0.209 OA 
HETATM   32  O   UNL     3     -12.691  13.845  66.179  1.00  0.00    -0.429 OA 
HETATM   33  O   UNL     3     -11.991  14.146  68.358  1.00  0.00    -0.347 OA 
HETATM   34  H   UNL     3      -9.829  13.930  68.627  1.00  0.00     0.000 HD 
ENDBRANCH  26  29
ENDBRANCH  23  26
ENDBRANCH   3  23
BRANCH   3  35
HETATM   35  C   UNL     3     -10.616  17.542  67.693  1.00  0.00    -0.355 C  
HETATM   36  O   UNL     3      -9.418  17.140  68.365  1.00  0.00    -0.258 OA 
HETATM   37  H   UNL     3      -9.584  17.193  69.299  1.00  0.00     0.000 HD 
ENDBRANCH   3  35
TORSDOF 8
ENDMDL
MODEL       85
REMARK 921   NORMALIZED FREE ENERGY PREDICTED BY IDOCK:   -5.23 KCAL/MOL
REMARK 922        TOTAL FREE ENERGY PREDICTED BY IDOCK:   -9.78 KCAL/MOL
REMARK 923 INTER-LIGAND FREE ENERGY PREDICTED BY IDOCK:   -7.91 KCAL/MOL
REMARK 924 INTRA-LIGAND FREE ENERGY PREDICTED BY IDOCK:   -1.87 KCAL/MOL
REMARK 927      BINDING AFFINITY PREDICTED BY RF-SCORE:    0.00 PKD
ROOT
HETATM    1 FE   UNL     1      -6.776  13.509  71.015  1.00  0.00    -0.387 Fe 
HETATM    2  C   UNL     2      -9.848  16.911  65.998  1.00  0.00    -0.258 C  
HETATM    3  C   UNL     3     -10.496   8.417  70.154  1.00  0.00    -0.228 C  
HETATM    4  H   UNL     3      -9.832   7.560  68.535  1.00  0.00     0.000 HD 
HETATM    5  H   UNL     2      -8.029  16.168  65.797  1.00  0.00     0.000 HD 
HETATM    6  O   UNL     2      -8.431  17.028  65.839  1.00  0.00    -0.519 OA 
HETATM    7  O   UNL     3     -10.627   8.026  68.769  1.00  0.00    -0.195 OA 
ENDROOT
BRANCH   2   8
HETATM    8  C   UNL     2     -10.496  18.297  66.066  1.00  0.00    -0.361 C  
HETATM    9  H   UNL     2      -9.937  20.191  65.892  1.00  0.00     0.000 HD 
HETATM   10  O   UNL     2      -9.535  19.331  65.849  1.00  0.00    -0.429 OA 
ENDBRANCH   2   8
BRANCH   2  11
HETATM   11  C   UNL     2     -10.165  16.054  67.238  1.00  0.00    -0.277 C  
HETATM   12  H   UNL     2     -11.213  16.232  68.915  1.00  0.00     0.000 HD 
HETATM   13  O   UNL     2     -11.017  16.760  68.151  1.00  0.00    -0.356 OA 
BRANCH  11  14
HETATM   14  C   UNL     2     -10.840  14.739  66.812  1.00  0.00    -0.316 C  
HETATM   15  H   UNL     2     -10.622  12.821  67.234  1.00  0.00     0.000 HD 
HETATM   16  O   UNL     2     -10.204  13.633  67.498  1.00  0.00    -0.237 OA 
BRANCH  14  17
HETATM   17  C   UNL     2     -10.784  14.449  65.315  1.00  0.00    -0.375 C  
HETATM   18  C   UNL     2     -12.190  14.399  64.689  1.00  0.00    -0.464 C  
HETATM   19  H   UNL     2     -10.111  12.973  64.198  1.00  0.00     0.000 HD 
HETATM   20  O   UNL     2     -10.146  13.154  65.130  1.00  0.00    -0.281 OA 
HETATM   21  O   UNL     2     -12.837  13.285  64.838  1.00  0.00    -0.695 OA 
HETATM   22  O   UNL     2     -12.538  15.203  63.829  1.00  0.00    -0.752 OA 
ENDBRANCH  14  17
ENDBRANCH  11  14
ENDBRANCH   2  11
BRANCH   3  23
HETATM   23  C   UNL     3      -9.204   9.220  70.253  1.00  0.00    -0.237 C  
HETATM   24  O   UNL     3      -8.720   9.110  71.597  1.00  0.00    -0.343 OA 
HETATM   25  H   UNL     3      -7.915   9.611  71.659  1.00  0.00     0.000 HD 
BRANCH  23  26
HETATM   26  C   UNL     3      -8.043   8.868  69.295  1.00  0.00    -0.109 C  
HETATM   27  O   UNL     3      -6.859   8.557  70.047  1.00  0.00    -0.041 OA 
HETATM   28  H   UNL     3      -6.145   8.340  69.458  1.00  0.00     0.000 HD 
BRANCH  26  29
HETATM   29  C   UNL     3      -7.766  10.100  68.402  1.00  0.00    -0.089 C  
HETATM   30  C   UNL     3      -7.190  11.356  69.103  1.00  0.00    -0.102 C  
HETATM   31  O   UNL     3      -8.993  10.506  67.703  1.00  0.00    -0.137 OA 
HETATM   32  O   UNL     3      -6.240  11.236  69.896  1.00  0.00    -0.107 OA 
HETATM   33  O   UNL     3      -7.823  12.430  68.714  1.00  0.00    -0.085 OA 
HETATM   34  H   UNL     3      -8.823  11.263  67.155  1.00  0.00     0.000 HD 
ENDBRANCH  26  29
ENDBRANCH  23  26
ENDBRANCH   3  23
BRANCH   3  35
HETATM   35  C   UNL     3     -11.774   9.168  70.529  1.00  0.00    -0.152 C  
HETATM   36  O   UNL     3     -11.700   9.473  71.925  1.00  0.00    -0.374 OA 
HETATM   37  H   UNL     3     -12.494   9.940  72.158  1.00  0.00     0.000 HD 
ENDBRANCH   3  35
TORSDOF 8
ENDMDL
MODEL       86
REMARK 921   NORMALIZED FREE ENERGY PREDICTED BY IDOCK:   -5.21 KCAL/MOL
REMARK 922        TOTAL FREE ENERGY PREDICTED BY IDOCK:   -9.75 KCAL/MOL
REMARK 923 INTER-LIGAND FREE ENERGY PREDICTED BY IDOCK:   -7.44 KCAL/MOL
REMARK 924 INTRA-LIGAND FREE ENERGY PREDICTED BY IDOCK:   -2.31 KCAL/MOL
REMARK 927      BINDING AFFINITY PREDICTED BY RF-SCORE:    0.00 PKD
ROOT
HETATM    1 FE   UNL     1      -5.940  13.352  69.178  1.00  0.00    -0.070 Fe 
HETATM    2  C   UNL     2     -10.228  17.885  66.485  1.00  0.00    -0.379 C  
HETATM    3  C   UNL     3     -10.024   8.567  68.210  1.00  0.00    -0.184 C  
HETATM    4  H   UNL     3      -9.947   8.201  66.298  1.00  0.00     0.000 HD 
HETATM    5  H   UNL     2      -8.607  17.282  65.530  1.00  0.00     0.000 HD 
HETATM    6  O   UNL     2      -8.927  18.085  65.924  1.00  0.00    -0.506 OA 
HETATM    7  O   UNL     3     -10.601   8.561  66.886  1.00  0.00    -0.298 OA 
ENDROOT
BRANCH   2   8
HETATM    8  C   UNL     2     -10.743  19.179  67.121  1.00  0.00    -0.471 C  
HETATM    9  H   UNL     2     -10.545  21.132  66.845  1.00  0.00     0.000 HD 
HETATM   10  O   UNL     2     -10.225  20.329  66.450  1.00  0.00    -0.427 OA 
ENDBRANCH   2   8
BRANCH   2  11
HETATM   11  C   UNL     2     -10.189  16.714  67.486  1.00  0.00    -0.289 C  
HETATM   12  H   UNL     2     -10.656  16.396  69.389  1.00  0.00     0.000 HD 
HETATM   13  O   UNL     2     -10.680  17.118  68.772  1.00  0.00    -0.337 OA 
BRANCH  11  14
HETATM   14  C   UNL     2     -11.031  15.540  66.957  1.00  0.00    -0.283 C  
HETATM   15  H   UNL     2     -11.292  13.641  67.438  1.00  0.00     0.000 HD 
HETATM   16  O   UNL     2     -10.772  14.366  67.765  1.00  0.00    -0.244 OA 
BRANCH  14  17
HETATM   17  C   UNL     2     -10.764  15.168  65.502  1.00  0.00    -0.365 C  
HETATM   18  C   UNL     2     -12.003  14.546  64.833  1.00  0.00    -0.422 C  
HETATM   19  H   UNL     2      -9.517  13.961  64.570  1.00  0.00     0.000 HD 
HETATM   20  O   UNL     2      -9.684  14.193  65.476  1.00  0.00    -0.246 OA 
HETATM   21  O   UNL     2     -12.206  13.288  65.074  1.00  0.00    -0.384 OA 
HETATM   22  O   UNL     2     -12.559  15.088  63.881  1.00  0.00    -0.813 OA 
ENDBRANCH  14  17
ENDBRANCH  11  14
ENDBRANCH   2  11
BRANCH   3  23
HETATM   23  C   UNL     3      -8.722   9.354  68.107  1.00  0.00    -0.124 C  
HETATM   24  O   UNL     3      -7.708   8.621  68.806  1.00  0.00    -0.094 OA 
HETATM   25  H   UNL     3      -6.897   9.111  68.741  1.00  0.00     0.000 HD 
BRANCH  23  26
HETATM   26  C   UNL     3      -8.181   9.701  66.701  1.00  0.00    -0.120 C  
HETATM   27  O   UNL     3      -6.796   9.329  66.600  1.00  0.00    -0.078 OA 
HETATM   28  H   UNL     3      -6.463   9.542  65.736  1.00  0.00     0.000 HD 
BRANCH  26  29
HETATM   29  C   UNL     3      -8.311  11.228  66.499  1.00  0.00    -0.168 C  
HETATM   30  C   UNL     3      -7.261  12.119  67.207  1.00  0.00    -0.144 C  
HETATM   31  O   UNL     3      -9.641  11.684  66.926  1.00  0.00    -0.182 OA 
HETATM   32  O   UNL     3      -6.055  11.826  67.135  1.00  0.00    -0.113 OA 
HETATM   33  O   UNL     3      -7.840  13.128  67.803  1.00  0.00    -0.124 OA 
HETATM   34  H   UNL     3      -9.722  12.622  66.802  1.00  0.00     0.000 HD 
ENDBRANCH  26  29
ENDBRANCH  23  26
ENDBRANCH   3  23
BRANCH   3  35
HETATM   35  C   UNL     3     -11.076   9.147  69.155  1.00  0.00     0.062 C  
HETATM   36  O   UNL     3     -11.780  10.167  68.441  1.00  0.00    -0.638 OA 
HETATM   37  H   UNL     3     -12.435  10.528  69.028  1.00  0.00     0.000 HD 
ENDBRANCH   3  35
TORSDOF 8
ENDMDL
MODEL       87
REMARK 921   NORMALIZED FREE ENERGY PREDICTED BY IDOCK:   -5.21 KCAL/MOL
REMARK 922        TOTAL FREE ENERGY PREDICTED BY IDOCK:   -9.75 KCAL/MOL
REMARK 923 INTER-LIGAND FREE ENERGY PREDICTED BY IDOCK:   -7.39 KCAL/MOL
REMARK 924 INTRA-LIGAND FREE ENERGY PREDICTED BY IDOCK:   -2.36 KCAL/MOL
REMARK 927      BINDING AFFINITY PREDICTED BY RF-SCORE:    0.00 PKD
ROOT
HETATM    1 FE   UNL     1     -11.312  12.307  69.453  1.00  0.00    -0.205 Fe 
HETATM    2  C   UNL     2     -11.605   5.987  71.936  1.00  0.00    -0.252 C  
HETATM    3  C   UNL     3      -8.291  10.352  64.203  1.00  0.00    -0.139 C  
HETATM    4  H   UNL     3      -9.655   9.487  63.113  1.00  0.00     0.000 HD 
HETATM    5  H   UNL     2     -13.199   6.903  71.214  1.00  0.00     0.000 HD 
HETATM    6  O   UNL     2     -12.894   6.596  72.059  1.00  0.00    -0.287 OA 
HETATM    7  O   UNL     3      -8.891   9.188  63.592  1.00  0.00    -0.178 OA 
ENDROOT
BRANCH   2   8
HETATM    8  C   UNL     2     -11.113   5.494  73.299  1.00  0.00    -0.272 C  
HETATM    9  H   UNL     2     -11.087   3.799  74.327  1.00  0.00     0.000 HD 
HETATM   10  O   UNL     2     -11.393   4.105  73.481  1.00  0.00    -0.270 OA 
ENDBRANCH   2   8
BRANCH   2  11
HETATM   11  C   UNL     2     -10.622   6.977  71.281  1.00  0.00    -0.218 C  
HETATM   12  H   UNL     2      -8.858   6.906  70.373  1.00  0.00     0.000 HD 
HETATM   13  O   UNL     2      -9.463   6.297  70.777  1.00  0.00    -0.169 OA 
BRANCH  11  14
HETATM   14  C   UNL     2     -11.319   7.730  70.134  1.00  0.00    -0.110 C  
HETATM   15  H   UNL     2     -11.213   7.737  68.161  1.00  0.00     0.000 HD 
HETATM   16  O   UNL     2     -10.783   7.272  68.869  1.00  0.00    -0.205 OA 
BRANCH  14  17
HETATM   17  C   UNL     2     -11.165   9.247  70.180  1.00  0.00    -0.208 C  
HETATM   18  C   UNL     2      -9.842   9.707  69.540  1.00  0.00    -0.206 C  
HETATM   19  H   UNL     2     -11.077  10.604  71.605  1.00  0.00     0.000 HD 
HETATM   20  O   UNL     2     -11.174   9.660  71.576  1.00  0.00    -0.372 OA 
HETATM   21  O   UNL     2      -8.788   9.618  70.291  1.00  0.00    -0.223 OA 
HETATM   22  O   UNL     2      -9.827  10.418  68.538  1.00  0.00    -0.157 OA 
ENDBRANCH  14  17
ENDBRANCH  11  14
ENDBRANCH   2  11
BRANCH   3  23
HETATM   23  C   UNL     3      -9.383  11.007  65.041  1.00  0.00    -0.221 C  
HETATM   24  O   UNL     3      -8.746  11.786  66.062  1.00  0.00    -0.359 OA 
HETATM   25  H   UNL     3      -9.427  12.194  66.585  1.00  0.00     0.000 HD 
BRANCH  23  26
HETATM   26  C   UNL     3     -10.420  11.906  64.329  1.00  0.00    -0.326 C  
HETATM   27  O   UNL     3      -9.796  13.124  63.888  1.00  0.00    -0.735 OA 
HETATM   28  H   UNL     3     -10.433  13.677  63.450  1.00  0.00     0.000 HD 
BRANCH  26  29
HETATM   29  C   UNL     3     -11.537  12.246  65.341  1.00  0.00    -0.363 C  
HETATM   30  C   UNL     3     -11.583  13.702  65.869  1.00  0.00    -0.328 C  
HETATM   31  O   UNL     3     -11.455  11.354  66.506  1.00  0.00    -0.384 OA 
HETATM   32  O   UNL     3     -11.489  14.650  65.070  1.00  0.00    -0.356 OA 
HETATM   33  O   UNL     3     -11.742  13.716  67.166  1.00  0.00    -0.340 OA 
HETATM   34  H   UNL     3     -12.142  11.563  67.128  1.00  0.00     0.000 HD 
ENDBRANCH  26  29
ENDBRANCH  23  26
ENDBRANCH   3  23
BRANCH   3  35
HETATM   35  C   UNL     3      -7.062   9.870  64.973  1.00  0.00    -0.131 C  
HETATM   36  O   UNL     3      -6.096  10.926  64.945  1.00  0.00    -0.374 OA 
HETATM   37  H   UNL     3      -5.332  10.626  65.424  1.00  0.00     0.000 HD 
ENDBRANCH   3  35
TORSDOF 8
ENDMDL
MODEL       88
REMARK 921   NORMALIZED FREE ENERGY PREDICTED BY IDOCK:   -5.21 KCAL/MOL
REMARK 922        TOTAL FREE ENERGY PREDICTED BY IDOCK:   -9.74 KCAL/MOL
REMARK 923 INTER-LIGAND FREE ENERGY PREDICTED BY IDOCK:   -7.91 KCAL/MOL
REMARK 924 INTRA-LIGAND FREE ENERGY PREDICTED BY IDOCK:   -1.83 KCAL/MOL
REMARK 927      BINDING AFFINITY PREDICTED BY RF-SCORE:    0.00 PKD
ROOT
HETATM    1 FE   UNL     1     -11.679  13.155  71.317  1.00  0.00    -0.409 Fe 
HETATM    2  C   UNL     2      -9.661  17.701  66.686  1.00  0.00    -0.295 C  
HETATM    3  C   UNL     3      -9.165   8.330  68.015  1.00  0.00    -0.136 C  
HETATM    4  H   UNL     3      -7.241   8.458  68.296  1.00  0.00     0.000 HD 
HETATM    5  H   UNL     2      -8.779  17.539  68.446  1.00  0.00     0.000 HD 
HETATM    6  O   UNL     2      -9.312  18.178  67.989  1.00  0.00    -0.270 OA 
HETATM    7  O   UNL     3      -7.819   8.586  67.553  1.00  0.00    -0.097 OA 
ENDROOT
BRANCH   2   8
HETATM    8  C   UNL     2     -10.521  18.732  65.950  1.00  0.00    -0.376 C  
HETATM    9  H   UNL     2     -10.461  20.670  65.537  1.00  0.00     0.000 HD 
HETATM   10  O   UNL     2      -9.927  20.031  65.994  1.00  0.00    -0.457 OA 
ENDBRANCH   2   8
BRANCH   2  11
HETATM   11  C   UNL     2     -10.357  16.331  66.802  1.00  0.00    -0.296 C  
HETATM   12  H   UNL     2     -10.898  14.855  65.590  1.00  0.00     0.000 HD 
HETATM   13  O   UNL     2     -10.469  15.699  65.519  1.00  0.00    -0.349 OA 
BRANCH  11  14
HETATM   14  C   UNL     2      -9.572  15.420  67.761  1.00  0.00    -0.210 C  
HETATM   15  H   UNL     2      -8.376  13.857  67.584  1.00  0.00     0.000 HD 
HETATM   16  O   UNL     2      -8.861  14.420  66.992  1.00  0.00    -0.219 OA 
BRANCH  14  17
HETATM   17  C   UNL     2     -10.427  14.691  68.792  1.00  0.00    -0.246 C  
HETATM   18  C   UNL     2     -11.286  13.589  68.146  1.00  0.00    -0.286 C  
HETATM   19  H   UNL     2     -11.844  15.209  70.058  1.00  0.00     0.000 HD 
HETATM   20  O   UNL     2     -11.311  15.664  69.416  1.00  0.00    -0.282 OA 
HETATM   21  O   UNL     2     -12.383  13.985  67.578  1.00  0.00    -0.296 OA 
HETATM   22  O   UNL     2     -11.136  12.405  68.435  1.00  0.00    -0.220 OA 
ENDBRANCH  14  17
ENDBRANCH  11  14
ENDBRANCH   2  11
BRANCH   3  23
HETATM   23  C   UNL     3      -9.395   9.259  69.202  1.00  0.00    -0.157 C  
HETATM   24  O   UNL     3      -9.103  10.596  68.777  1.00  0.00    -0.155 OA 
HETATM   25  H   UNL     3      -9.246  11.175  69.516  1.00  0.00     0.000 HD 
BRANCH  23  26
HETATM   26  C   UNL     3     -10.787   9.263  69.874  1.00  0.00    -0.234 C  
HETATM   27  O   UNL     3     -11.023  10.529  70.512  1.00  0.00    -0.412 OA 
HETATM   28  H   UNL     3     -11.879  10.532  70.925  1.00  0.00     0.000 HD 
BRANCH  26  29
HETATM   29  C   UNL     3     -10.808   8.146  70.943  1.00  0.00    -0.230 C  
HETATM   30  C   UNL     3     -11.693   6.910  70.644  1.00  0.00    -0.367 C  
HETATM   31  O   UNL     3     -11.231   8.693  72.239  1.00  0.00    -0.353 OA 
HETATM   32  O   UNL     3     -11.638   6.369  69.527  1.00  0.00    -0.404 OA 
HETATM   33  O   UNL     3     -12.401   6.588  71.694  1.00  0.00    -0.343 OA 
HETATM   34  H   UNL     3     -11.243   8.006  72.896  1.00  0.00     0.000 HD 
ENDBRANCH  26  29
ENDBRANCH  23  26
ENDBRANCH   3  23
BRANCH   3  35
HETATM   35  C   UNL     3     -10.095   8.537  66.820  1.00  0.00    -0.299 C  
HETATM   36  O   UNL     3     -11.010   7.437  66.791  1.00  0.00    -0.509 OA 
HETATM   37  H   UNL     3     -11.589   7.565  66.049  1.00  0.00     0.000 HD 
ENDBRANCH   3  35
TORSDOF 8
ENDMDL
MODEL       89
REMARK 921   NORMALIZED FREE ENERGY PREDICTED BY IDOCK:   -5.19 KCAL/MOL
REMARK 922        TOTAL FREE ENERGY PREDICTED BY IDOCK:   -9.72 KCAL/MOL
REMARK 923 INTER-LIGAND FREE ENERGY PREDICTED BY IDOCK:   -8.49 KCAL/MOL
REMARK 924 INTRA-LIGAND FREE ENERGY PREDICTED BY IDOCK:   -1.23 KCAL/MOL
REMARK 927      BINDING AFFINITY PREDICTED BY RF-SCORE:    0.00 PKD
ROOT
HETATM    1 FE   UNL     1      -6.677  12.064  66.898  1.00  0.00    -0.096 Fe 
HETATM    2  C   UNL     2      -9.574   8.195  71.676  1.00  0.00    -0.180 C  
HETATM    3  C   UNL     3     -12.311  13.472  64.294  1.00  0.00    -0.335 C  
HETATM    4  H   UNL     3     -13.132  14.761  65.502  1.00  0.00     0.000 HD 
HETATM    5  H   UNL     2      -8.820   9.974  72.085  1.00  0.00     0.000 HD 
HETATM    6  O   UNL     2      -8.625   9.068  72.296  1.00  0.00    -0.362 OA 
HETATM    7  O   UNL     3     -13.312  13.860  65.260  1.00  0.00    -0.732 OA 
ENDROOT
BRANCH   2   8
HETATM    8  C   UNL     2      -9.261   6.735  72.015  1.00  0.00    -0.141 C  
HETATM    9  H   UNL     2      -8.889   5.649  73.631  1.00  0.00     0.000 HD 
HETATM   10  O   UNL     2      -9.083   6.555  73.421  1.00  0.00    -0.127 OA 
ENDBRANCH   2   8
BRANCH   2  11
HETATM   11  C   UNL     2      -9.602   8.451  70.156  1.00  0.00    -0.165 C  
HETATM   12  H   UNL     2      -9.437   7.389  68.487  1.00  0.00     0.000 HD 
HETATM   13  O   UNL     2      -9.420   7.231  69.423  1.00  0.00    -0.155 OA 
BRANCH  11  14
HETATM   14  C   UNL     2     -10.938   9.100  69.756  1.00  0.00    -0.181 C  
HETATM   15  H   UNL     2     -11.552  10.351  68.355  1.00  0.00     0.000 HD 
HETATM   16  O   UNL     2     -10.727   9.950  68.602  1.00  0.00    -0.215 OA 
BRANCH  14  17
HETATM   17  C   UNL     2     -11.586   9.950  70.844  1.00  0.00    -0.373 C  
HETATM   18  C   UNL     2     -12.702   9.186  71.579  1.00  0.00    -0.341 C  
HETATM   19  H   UNL     2     -12.570  11.656  70.891  1.00  0.00     0.000 HD 
HETATM   20  O   UNL     2     -12.166  11.127  70.213  1.00  0.00    -0.310 OA 
HETATM   21  O   UNL     2     -13.852   9.149  70.981  1.00  0.00    -0.197 OA 
HETATM   22  O   UNL     2     -12.623   8.929  72.778  1.00  0.00    -0.306 OA 
ENDBRANCH  14  17
ENDBRANCH  11  14
ENDBRANCH   2  11
BRANCH   3  23
HETATM   23  C   UNL     3     -10.959  13.722  64.952  1.00  0.00    -0.375 C  
HETATM   24  O   UNL     3      -9.940  13.458  63.979  1.00  0.00    -0.764 OA 
HETATM   25  H   UNL     3      -9.098  13.613  64.390  1.00  0.00     0.000 HD 
BRANCH  23  26
HETATM   26  C   UNL     3     -10.686  15.113  65.567  1.00  0.00    -0.365 C  
HETATM   27  O   UNL     3      -9.467  15.658  65.034  1.00  0.00    -0.149 OA 
HETATM   28  H   UNL     3      -9.299  16.514  65.412  1.00  0.00     0.000 HD 
BRANCH  26  29
HETATM   29  C   UNL     3     -10.537  14.942  67.097  1.00  0.00    -0.285 C  
HETATM   30  C   UNL     3      -9.734  13.711  67.587  1.00  0.00    -0.228 C  
HETATM   31  O   UNL     3     -11.861  14.891  67.732  1.00  0.00    -0.417 OA 
HETATM   32  O   UNL     3      -8.639  13.443  67.064  1.00  0.00    -0.208 OA 
HETATM   33  O   UNL     3     -10.365  13.108  68.559  1.00  0.00    -0.247 OA 
HETATM   34  H   UNL     3     -11.769  14.785  68.672  1.00  0.00     0.000 HD 
ENDBRANCH  26  29
ENDBRANCH  23  26
ENDBRANCH   3  23
BRANCH   3  35
HETATM   35  C   UNL     3     -12.602  12.022  63.905  1.00  0.00    -0.406 C  
HETATM   36  O   UNL     3     -11.534  11.580  63.063  1.00  0.00    -0.828 OA 
HETATM   37  H   UNL     3     -11.715  10.678  62.821  1.00  0.00     0.000 HD 
ENDBRANCH   3  35
TORSDOF 8
ENDMDL
MODEL       90
REMARK 921   NORMALIZED FREE ENERGY PREDICTED BY IDOCK:   -5.14 KCAL/MOL
REMARK 922        TOTAL FREE ENERGY PREDICTED BY IDOCK:   -9.64 KCAL/MOL
REMARK 923 INTER-LIGAND FREE ENERGY PREDICTED BY IDOCK:   -8.26 KCAL/MOL
REMARK 924 INTRA-LIGAND FREE ENERGY PREDICTED BY IDOCK:   -1.38 KCAL/MOL
REMARK 927      BINDING AFFINITY PREDICTED BY RF-SCORE:    0.00 PKD
ROOT
HETATM    1 FE   UNL     1     -10.656   7.673  65.940  1.00  0.00    -0.472 Fe 
HETATM    2  C   UNL     2     -11.973  14.339  65.814  1.00  0.00    -0.393 C  
HETATM    3  C   UNL     3      -8.525   7.971  71.930  1.00  0.00    -0.136 C  
HETATM    4  H   UNL     3     -10.118   8.152  73.037  1.00  0.00     0.000 HD 
HETATM    5  H   UNL     2     -13.412  12.990  65.924  1.00  0.00     0.000 HD 
HETATM    6  O   UNL     2     -13.103  13.631  65.295  1.00  0.00    -0.735 OA 
HETATM    7  O   UNL     3      -9.390   8.720  72.813  1.00  0.00    -0.275 OA 
ENDROOT
BRANCH   2   8
HETATM    8  C   UNL     2     -11.476  15.373  64.800  1.00  0.00    -0.336 C  
HETATM    9  H   UNL     2     -12.203  16.392  63.264  1.00  0.00     0.000 HD 
HETATM   10  O   UNL     2     -12.512  15.751  63.893  1.00  0.00    -0.744 OA 
ENDBRANCH   2   8
BRANCH   2  11
HETATM   11  C   UNL     2     -10.874  13.338  66.220  1.00  0.00    -0.284 C  
HETATM   12  H   UNL     2      -9.651  13.048  67.757  1.00  0.00     0.000 HD 
HETATM   13  O   UNL     2     -10.328  13.665  67.507  1.00  0.00    -0.238 OA 
BRANCH  11  14
HETATM   14  C   UNL     2     -11.445  11.910  66.248  1.00  0.00    -0.301 C  
HETATM   15  H   UNL     2     -12.086  10.657  67.636  1.00  0.00     0.000 HD 
HETATM   16  O   UNL     2     -11.733  11.540  67.619  1.00  0.00    -0.538 OA 
BRANCH  14  17
HETATM   17  C   UNL     2     -10.526  10.843  65.663  1.00  0.00    -0.208 C  
HETATM   18  C   UNL     2      -9.468  10.378  66.681  1.00  0.00    -0.165 C  
HETATM   19  H   UNL     2      -9.270  10.752  64.148  1.00  0.00     0.000 HD 
HETATM   20  O   UNL     2      -9.843  11.417  64.513  1.00  0.00    -0.242 OA 
HETATM   21  O   UNL     2      -8.430  11.145  66.809  1.00  0.00    -0.141 OA 
HETATM   22  O   UNL     2      -9.432   9.219  67.085  1.00  0.00    -0.141 OA 
ENDBRANCH  14  17
ENDBRANCH  11  14
ENDBRANCH   2  11
BRANCH   3  23
HETATM   23  C   UNL     3      -9.394   7.517  70.762  1.00  0.00    -0.162 C  
HETATM   24  O   UNL     3      -9.052   6.158  70.462  1.00  0.00    -0.151 OA 
HETATM   25  H   UNL     3      -9.593   5.875  69.734  1.00  0.00     0.000 HD 
BRANCH  23  26
HETATM   26  C   UNL     3     -10.930   7.604  70.910  1.00  0.00    -0.250 C  
HETATM   27  O   UNL     3     -11.570   6.862  69.858  1.00  0.00    -0.517 OA 
HETATM   28  H   UNL     3     -12.514   6.915  69.949  1.00  0.00     0.000 HD 
BRANCH  26  29
HETATM   29  C   UNL     3     -11.340   9.091  70.802  1.00  0.00    -0.277 C  
HETATM   30  C   UNL     3     -12.594   9.530  71.599  1.00  0.00    -0.388 C  
HETATM   31  O   UNL     3     -11.556   9.456  69.396  1.00  0.00    -0.430 OA 
HETATM   32  O   UNL     3     -12.722   9.183  72.785  1.00  0.00    -0.274 OA 
HETATM   33  O   UNL     3     -13.375  10.266  70.855  1.00  0.00    -0.370 OA 
HETATM   34  H   UNL     3     -11.807  10.370  69.329  1.00  0.00     0.000 HD 
ENDBRANCH  26  29
ENDBRANCH  23  26
ENDBRANCH   3  23
BRANCH   3  35
HETATM   35  C   UNL     3      -7.354   8.886  71.569  1.00  0.00    -0.052 C  
HETATM   36  O   UNL     3      -6.372   8.085  70.904  1.00  0.00    -0.036 OA 
HETATM   37  H   UNL     3      -5.644   8.653  70.680  1.00  0.00     0.000 HD 
ENDBRANCH   3  35
TORSDOF 8
ENDMDL
MODEL       91
REMARK 921   NORMALIZED FREE ENERGY PREDICTED BY IDOCK:   -5.11 KCAL/MOL
REMARK 922        TOTAL FREE ENERGY PREDICTED BY IDOCK:   -9.60 KCAL/MOL
REMARK 923 INTER-LIGAND FREE ENERGY PREDICTED BY IDOCK:   -7.38 KCAL/MOL
REMARK 924 INTRA-LIGAND FREE ENERGY PREDICTED BY IDOCK:   -2.22 KCAL/MOL
REMARK 927      BINDING AFFINITY PREDICTED BY RF-SCORE:    0.00 PKD
ROOT
HETATM    1 FE   UNL     1     -14.275  10.322  70.401  1.00  0.00    -0.223 Fe 
HETATM    2  C   UNL     2     -10.835  14.184  65.992  1.00  0.00    -0.297 C  
HETATM    3  C   UNL     3      -9.908   5.701  70.116  1.00  0.00    -0.190 C  
HETATM    4  H   UNL     3      -8.394   6.355  71.153  1.00  0.00     0.000 HD 
HETATM    5  H   UNL     2     -10.906  14.607  67.921  1.00  0.00     0.000 HD 
HETATM    6  O   UNL     2     -11.224  14.988  67.111  1.00  0.00    -0.331 OA 
HETATM    7  O   UNL     3      -8.550   6.182  70.232  1.00  0.00    -0.136 OA 
ENDROOT
BRANCH   2   8
HETATM    8  C   UNL     2     -11.349  14.798  64.687  1.00  0.00    -0.366 C  
HETATM    9  H   UNL     2     -11.123  16.482  63.666  1.00  0.00     0.000 HD 
HETATM   10  O   UNL     2     -10.804  16.102  64.477  1.00  0.00    -0.628 OA 
ENDBRANCH   2   8
BRANCH   2  11
HETATM   11  C   UNL     2     -11.328  12.738  66.194  1.00  0.00    -0.328 C  
HETATM   12  H   UNL     2     -12.794  11.581  65.522  1.00  0.00     0.000 HD 
HETATM   13  O   UNL     2     -12.491  12.473  65.397  1.00  0.00    -0.630 OA 
BRANCH  11  14
HETATM   14  C   UNL     2     -10.211  11.745  65.827  1.00  0.00    -0.239 C  
HETATM   15  H   UNL     2      -9.880  10.444  64.377  1.00  0.00     0.000 HD 
HETATM   16  O   UNL     2     -10.570  11.058  64.603  1.00  0.00    -0.333 OA 
BRANCH  14  17
HETATM   17  C   UNL     2      -9.926  10.686  66.886  1.00  0.00    -0.202 C  
HETATM   18  C   UNL     2      -8.435  10.649  67.272  1.00  0.00    -0.126 C  
HETATM   19  H   UNL     2     -10.118   8.729  67.000  1.00  0.00     0.000 HD 
HETATM   20  O   UNL     2     -10.296   9.389  66.340  1.00  0.00    -0.242 OA 
HETATM   21  O   UNL     2      -7.658   9.994  66.467  1.00  0.00    -0.102 OA 
HETATM   22  O   UNL     2      -8.060  10.914  68.411  1.00  0.00    -0.116 OA 
ENDBRANCH  14  17
ENDBRANCH  11  14
ENDBRANCH   2  11
BRANCH   3  23
HETATM   23  C   UNL     3     -10.796   6.765  70.749  1.00  0.00    -0.249 C  
HETATM   24  O   UNL     3     -12.060   6.160  71.053  1.00  0.00    -0.091 OA 
HETATM   25  H   UNL     3     -12.613   6.824  71.448  1.00  0.00     0.000 HD 
BRANCH  23  26
HETATM   26  C   UNL     3     -10.291   7.485  72.021  1.00  0.00    -0.199 C  
HETATM   27  O   UNL     3     -11.235   7.317  73.091  1.00  0.00    -0.505 OA 
HETATM   28  H   UNL     3     -10.925   7.759  73.873  1.00  0.00     0.000 HD 
BRANCH  26  29
HETATM   29  C   UNL     3     -10.153   8.990  71.698  1.00  0.00    -0.335 C  
HETATM   30  C   UNL     3     -11.459   9.758  71.374  1.00  0.00    -0.365 C  
HETATM   31  O   UNL     3      -9.231   9.185  70.571  1.00  0.00    -0.200 OA 
HETATM   32  O   UNL     3     -12.456   9.613  72.103  1.00  0.00    -0.350 OA 
HETATM   33  O   UNL     3     -11.299  10.511  70.318  1.00  0.00    -0.290 OA 
HETATM   34  H   UNL     3      -9.147  10.111  70.373  1.00  0.00     0.000 HD 
ENDBRANCH  26  29
ENDBRANCH  23  26
ENDBRANCH   3  23
BRANCH   3  35
HETATM   35  C   UNL     3     -10.159   5.423  68.634  1.00  0.00    -0.179 C  
HETATM   36  O   UNL     3     -10.002   6.659  67.931  1.00  0.00    -0.125 OA 
HETATM   37  H   UNL     3     -10.158   6.487  67.010  1.00  0.00     0.000 HD 
ENDBRANCH   3  35
TORSDOF 8
ENDMDL
MODEL       92
REMARK 921   NORMALIZED FREE ENERGY PREDICTED BY IDOCK:   -5.09 KCAL/MOL
REMARK 922        TOTAL FREE ENERGY PREDICTED BY IDOCK:   -9.57 KCAL/MOL
REMARK 923 INTER-LIGAND FREE ENERGY PREDICTED BY IDOCK:   -7.77 KCAL/MOL
REMARK 924 INTRA-LIGAND FREE ENERGY PREDICTED BY IDOCK:   -1.81 KCAL/MOL
REMARK 927      BINDING AFFINITY PREDICTED BY RF-SCORE:    0.00 PKD
ROOT
HETATM    1 FE   UNL     1     -12.196  12.506  67.257  1.00  0.00    -0.327 Fe 
HETATM    2  C   UNL     2     -12.039   6.950  71.168  1.00  0.00    -0.381 C  
HETATM    3  C   UNL     3      -8.689   9.709  62.741  1.00  0.00    -0.225 C  
HETATM    4  H   UNL     3      -9.896   8.472  61.841  1.00  0.00     0.000 HD 
HETATM    5  H   UNL     2     -13.666   7.495  70.189  1.00  0.00     0.000 HD 
HETATM    6  O   UNL     2     -13.386   7.429  71.094  1.00  0.00    -0.305 OA 
HETATM    7  O   UNL     3      -9.138   8.377  62.405  1.00  0.00     0.108 OA 
ENDROOT
BRANCH   2   8
HETATM    8  C   UNL     2     -11.587   6.844  72.626  1.00  0.00    -0.142 C  
HETATM    9  H   UNL     2     -11.089   5.419  73.911  1.00  0.00     0.000 HD 
HETATM   10  O   UNL     2     -11.370   5.484  73.006  1.00  0.00    -0.294 OA 
ENDBRANCH   2   8
BRANCH   2  11
HETATM   11  C   UNL     2     -11.117   7.857  70.331  1.00  0.00    -0.245 C  
HETATM   12  H   UNL     2      -9.467   8.926  70.609  1.00  0.00     0.000 HD 
HETATM   13  O   UNL     2     -10.036   8.368  71.125  1.00  0.00    -0.182 OA 
BRANCH  11  14
HETATM   14  C   UNL     2     -10.553   7.074  69.132  1.00  0.00    -0.219 C  
HETATM   15  H   UNL     2     -10.346   5.171  68.643  1.00  0.00     0.000 HD 
HETATM   16  O   UNL     2     -10.694   5.655  69.383  1.00  0.00    -0.297 OA 
BRANCH  14  17
HETATM   17  C   UNL     2      -9.084   7.346  68.826  1.00  0.00    -0.131 C  
HETATM   18  C   UNL     2      -8.912   8.172  67.537  1.00  0.00    -0.137 C  
HETATM   19  H   UNL     2      -7.500   6.236  68.460  1.00  0.00     0.000 HD 
HETATM   20  O   UNL     2      -8.415   6.066  68.651  1.00  0.00    -0.112 OA 
HETATM   21  O   UNL     2      -8.978   7.507  66.426  1.00  0.00    -0.153 OA 
HETATM   22  O   UNL     2      -8.412   9.294  67.556  1.00  0.00    -0.115 OA 
ENDBRANCH  14  17
ENDBRANCH  11  14
ENDBRANCH   2  11
BRANCH   3  23
HETATM   23  C   UNL     3      -9.887  10.422  63.358  1.00  0.00    -0.189 C  
HETATM   24  O   UNL     3     -10.102   9.872  64.665  1.00  0.00    -0.381 OA 
HETATM   25  H   UNL     3     -10.849  10.316  65.049  1.00  0.00     0.000 HD 
BRANCH  23  26
HETATM   26  C   UNL     3      -9.841  11.962  63.488  1.00  0.00    -0.336 C  
HETATM   27  O   UNL     3      -9.311  12.334  64.771  1.00  0.00    -0.433 OA 
HETATM   28  H   UNL     3      -9.282  13.280  64.851  1.00  0.00     0.000 HD 
BRANCH  26  29
HETATM   29  C   UNL     3     -11.286  12.498  63.363  1.00  0.00    -0.422 C  
HETATM   30  C   UNL     3     -11.870  13.228  64.598  1.00  0.00    -0.378 C  
HETATM   31  O   UNL     3     -12.205  11.404  63.018  1.00  0.00    -0.946 OA 
HETATM   32  O   UNL     3     -11.192  14.091  65.181  1.00  0.00    -0.307 OA 
HETATM   33  O   UNL     3     -13.082  12.809  64.848  1.00  0.00    -0.833 OA 
HETATM   34  H   UNL     3     -13.093  11.733  62.941  1.00  0.00     0.000 HD 
ENDBRANCH  26  29
ENDBRANCH  23  26
ENDBRANCH   3  23
BRANCH   3  35
HETATM   35  C   UNL     3      -7.469   9.555  63.649  1.00  0.00    -0.115 C  
HETATM   36  O   UNL     3      -7.127  10.857  64.135  1.00  0.00    -0.272 OA 
HETATM   37  H   UNL     3      -6.369  10.761  64.700  1.00  0.00     0.000 HD 
ENDBRANCH   3  35
TORSDOF 8
ENDMDL
MODEL       93
REMARK 921   NORMALIZED FREE ENERGY PREDICTED BY IDOCK:   -5.08 KCAL/MOL
REMARK 922        TOTAL FREE ENERGY PREDICTED BY IDOCK:   -9.56 KCAL/MOL
REMARK 923 INTER-LIGAND FREE ENERGY PREDICTED BY IDOCK:   -7.03 KCAL/MOL
REMARK 924 INTRA-LIGAND FREE ENERGY PREDICTED BY IDOCK:   -2.53 KCAL/MOL
REMARK 927      BINDING AFFINITY PREDICTED BY RF-SCORE:    0.00 PKD
ROOT
HETATM    1 FE   UNL     1     -10.592  12.669  63.353  1.00  0.00    -0.343 Fe 
HETATM    2  C   UNL     2      -8.915  18.474  66.464  1.00  0.00    -0.293 C  
HETATM    3  C   UNL     3      -8.861   9.196  68.398  1.00  0.00    -0.129 C  
HETATM    4  H   UNL     3     -10.279   9.447  69.710  1.00  0.00     0.000 HD 
HETATM    5  H   UNL     2     -10.797  17.942  66.185  1.00  0.00     0.000 HD 
HETATM    6  O   UNL     2     -10.210  18.620  65.872  1.00  0.00    -0.533 OA 
HETATM    7  O   UNL     3      -9.367   9.707  69.652  1.00  0.00    -0.181 OA 
ENDROOT
BRANCH   2   8
HETATM    8  C   UNL     2      -7.969  19.567  65.959  1.00  0.00    -0.303 C  
HETATM    9  H   UNL     2      -7.389  21.380  66.513  1.00  0.00     0.000 HD 
HETATM   10  O   UNL     2      -7.976  20.702  66.826  1.00  0.00    -0.234 OA 
ENDBRANCH   2   8
BRANCH   2  11
HETATM   11  C   UNL     2      -8.374  17.057  66.190  1.00  0.00    -0.241 C  
HETATM   12  H   UNL     2      -6.647  16.220  65.683  1.00  0.00     0.000 HD 
HETATM   13  O   UNL     2      -6.980  17.093  65.852  1.00  0.00    -0.149 OA 
BRANCH  11  14
HETATM   14  C   UNL     2      -8.584  16.165  67.426  1.00  0.00    -0.180 C  
HETATM   15  H   UNL     2      -9.401  16.374  69.213  1.00  0.00     0.000 HD 
HETATM   16  O   UNL     2      -9.271  16.925  68.449  1.00  0.00    -0.236 OA 
BRANCH  14  17
HETATM   17  C   UNL     2      -7.301  15.615  68.041  1.00  0.00    -0.127 C  
HETATM   18  C   UNL     2      -7.180  14.092  67.844  1.00  0.00    -0.158 C  
HETATM   19  H   UNL     2      -6.528  15.555  69.851  1.00  0.00     0.000 HD 
HETATM   20  O   UNL     2      -7.326  15.898  69.468  1.00  0.00    -0.217 OA 
HETATM   21  O   UNL     2      -7.846  13.358  68.680  1.00  0.00    -0.132 OA 
HETATM   22  O   UNL     2      -6.268  13.601  67.184  1.00  0.00    -0.229 OA 
ENDBRANCH  14  17
ENDBRANCH  11  14
ENDBRANCH   2  11
BRANCH   3  23
HETATM   23  C   UNL     3      -9.777   9.744  67.310  1.00  0.00    -0.169 C  
HETATM   24  O   UNL     3     -10.722   8.720  66.973  1.00  0.00    -0.301 OA 
HETATM   25  H   UNL     3     -11.293   9.062  66.295  1.00  0.00     0.000 HD 
BRANCH  23  26
HETATM   26  C   UNL     3     -10.561  11.046  67.594  1.00  0.00    -0.217 C  
HETATM   27  O   UNL     3     -11.865  10.734  68.110  1.00  0.00    -0.716 OA 
HETATM   28  H   UNL     3     -12.347  11.534  68.285  1.00  0.00     0.000 HD 
BRANCH  26  29
HETATM   29  C   UNL     3     -10.714  11.815  66.261  1.00  0.00    -0.270 C  
HETATM   30  C   UNL     3     -11.890  12.819  66.165  1.00  0.00    -0.425 C  
HETATM   31  O   UNL     3     -10.843  10.870  65.143  1.00  0.00    -0.192 OA 
HETATM   32  O   UNL     3     -12.093  13.619  67.094  1.00  0.00    -0.389 OA 
HETATM   33  O   UNL     3     -12.525  12.675  65.033  1.00  0.00    -0.494 OA 
HETATM   34  H   UNL     3     -10.937  11.343  64.324  1.00  0.00     0.000 HD 
ENDBRANCH  26  29
ENDBRANCH  23  26
ENDBRANCH   3  23
BRANCH   3  35
HETATM   35  C   UNL     3      -7.394   9.614  68.304  1.00  0.00    -0.080 C  
HETATM   36  O   UNL     3      -7.322  10.734  67.417  1.00  0.00    -0.090 OA 
HETATM   37  H   UNL     3      -6.410  10.995  67.358  1.00  0.00     0.000 HD 
ENDBRANCH   3  35
TORSDOF 8
ENDMDL
MODEL       94
REMARK 921   NORMALIZED FREE ENERGY PREDICTED BY IDOCK:   -5.08 KCAL/MOL
REMARK 922        TOTAL FREE ENERGY PREDICTED BY IDOCK:   -9.56 KCAL/MOL
REMARK 923 INTER-LIGAND FREE ENERGY PREDICTED BY IDOCK:   -8.32 KCAL/MOL
REMARK 924 INTRA-LIGAND FREE ENERGY PREDICTED BY IDOCK:   -1.24 KCAL/MOL
REMARK 927      BINDING AFFINITY PREDICTED BY RF-SCORE:    0.00 PKD
ROOT
HETATM    1 FE   UNL     1      -6.475  16.225  70.345  1.00  0.00    -0.192 Fe 
HETATM    2  C   UNL     2     -11.236  12.441  67.311  1.00  0.00    -0.303 C  
HETATM    3  C   UNL     3      -5.846  19.953  65.224  1.00  0.00    -0.191 C  
HETATM    4  H   UNL     3      -7.421  21.100  65.223  1.00  0.00     0.000 HD 
HETATM    5  H   UNL     2     -11.677  13.728  68.743  1.00  0.00     0.000 HD 
HETATM    6  O   UNL     2     -11.683  12.785  68.626  1.00  0.00    -0.288 OA 
HETATM    7  O   UNL     3      -7.107  20.392  64.672  1.00  0.00    -0.178 OA 
ENDROOT
BRANCH   2   8
HETATM    8  C   UNL     2     -11.244  10.921  67.123  1.00  0.00    -0.184 C  
HETATM    9  H   UNL     2     -11.260   9.299  68.262  1.00  0.00     0.000 HD 
HETATM   10  O   UNL     2     -11.255  10.242  68.379  1.00  0.00    -0.265 OA 
ENDBRANCH   2   8
BRANCH   2  11
HETATM   11  C   UNL     2      -9.846  13.056  67.056  1.00  0.00    -0.238 C  
HETATM   12  H   UNL     2      -8.085  12.461  66.359  1.00  0.00     0.000 HD 
HETATM   13  O   UNL     2      -8.941  12.082  66.517  1.00  0.00    -0.206 OA 
BRANCH  11  14
HETATM   14  C   UNL     2      -9.966  14.244  66.085  1.00  0.00    -0.314 C  
HETATM   15  H   UNL     2      -9.039  15.969  65.821  1.00  0.00     0.000 HD 
HETATM   16  O   UNL     2      -8.965  15.235  66.420  1.00  0.00    -0.286 OA 
BRANCH  14  17
HETATM   17  C   UNL     2     -11.324  14.937  66.090  1.00  0.00    -0.307 C  
HETATM   18  C   UNL     2     -11.741  15.391  64.678  1.00  0.00    -0.267 C  
HETATM   19  H   UNL     2     -12.075  16.543  66.949  1.00  0.00     0.000 HD 
HETATM   20  O   UNL     2     -11.229  16.111  66.946  1.00  0.00    -0.076 OA 
HETATM   21  O   UNL     2     -11.220  16.504  64.265  1.00  0.00    -0.992 OA 
HETATM   22  O   UNL     2     -12.738  14.933  64.125  1.00  0.00    -0.750 OA 
ENDBRANCH  14  17
ENDBRANCH  11  14
ENDBRANCH   2  11
BRANCH   3  23
HETATM   23  C   UNL     3      -6.118  19.588  66.680  1.00  0.00    -0.164 C  
HETATM   24  O   UNL     3      -6.276  20.807  67.417  1.00  0.00    -0.227 OA 
HETATM   25  H   UNL     3      -6.445  20.580  68.323  1.00  0.00     0.000 HD 
BRANCH  23  26
HETATM   26  C   UNL     3      -7.326  18.677  66.996  1.00  0.00    -0.211 C  
HETATM   27  O   UNL     3      -7.791  18.038  65.796  1.00  0.00    -0.534 OA 
HETATM   28  H   UNL     3      -8.533  17.477  65.990  1.00  0.00     0.000 HD 
BRANCH  26  29
HETATM   29  C   UNL     3      -8.457  19.561  67.570  1.00  0.00    -0.302 C  
HETATM   30  C   UNL     3      -9.670  18.826  68.194  1.00  0.00    -0.341 C  
HETATM   31  O   UNL     3      -8.971  20.464  66.531  1.00  0.00    -0.534 OA 
HETATM   32  O   UNL     3      -9.480  17.887  68.986  1.00  0.00    -0.211 OA 
HETATM   33  O   UNL     3     -10.790  19.354  67.778  1.00  0.00    -0.418 OA 
HETATM   34  H   UNL     3      -9.666  21.007  66.883  1.00  0.00     0.000 HD 
ENDBRANCH  26  29
ENDBRANCH  23  26
ENDBRANCH   3  23
BRANCH   3  35
HETATM   35  C   UNL     3      -5.342  18.814  64.338  1.00  0.00    -0.205 C  
HETATM   36  O   UNL     3      -5.145  17.671  65.176  1.00  0.00    -0.132 OA 
HETATM   37  H   UNL     3      -4.832  16.963  64.625  1.00  0.00     0.000 HD 
ENDBRANCH   3  35
TORSDOF 8
ENDMDL
MODEL       95
REMARK 921   NORMALIZED FREE ENERGY PREDICTED BY IDOCK:   -5.05 KCAL/MOL
REMARK 922        TOTAL FREE ENERGY PREDICTED BY IDOCK:   -9.50 KCAL/MOL
REMARK 923 INTER-LIGAND FREE ENERGY PREDICTED BY IDOCK:   -8.35 KCAL/MOL
REMARK 924 INTRA-LIGAND FREE ENERGY PREDICTED BY IDOCK:   -1.15 KCAL/MOL
REMARK 927      BINDING AFFINITY PREDICTED BY RF-SCORE:    0.00 PKD
ROOT
HETATM    1 FE   UNL     1     -10.823  12.959  70.091  1.00  0.00    -0.453 Fe 
HETATM    2  C   UNL     2      -6.425  18.024  69.002  1.00  0.00    -0.240 C  
HETATM    3  C   UNL     3     -10.495  11.059  64.026  1.00  0.00    -0.366 C  
HETATM    4  H   UNL     3      -8.776  10.155  63.859  1.00  0.00     0.000 HD 
HETATM    5  H   UNL     2      -5.921  16.397  70.003  1.00  0.00     0.000 HD 
HETATM    6  O   UNL     2      -6.041  17.321  70.188  1.00  0.00    -0.203 OA 
HETATM    7  O   UNL     3      -9.143  10.965  63.523  1.00  0.00    -0.205 OA 
ENDROOT
BRANCH   2   8
HETATM    8  C   UNL     2      -6.620  19.513  69.301  1.00  0.00    -0.339 C  
HETATM    9  H   UNL     2      -5.617  21.205  69.052  1.00  0.00     0.000 HD 
HETATM   10  O   UNL     2      -5.496  20.281  68.866  1.00  0.00    -0.214 OA 
ENDBRANCH   2   8
BRANCH   2  11
HETATM   11  C   UNL     2      -7.687  17.377  68.399  1.00  0.00    -0.258 C  
HETATM   12  H   UNL     2      -9.048  16.037  68.939  1.00  0.00     0.000 HD 
HETATM   13  O   UNL     2      -8.271  16.436  69.311  1.00  0.00    -0.222 OA 
BRANCH  11  14
HETATM   14  C   UNL     2      -8.718  18.462  68.044  1.00  0.00    -0.287 C  
HETATM   15  H   UNL     2     -10.671  18.691  68.236  1.00  0.00     0.000 HD 
HETATM   16  O   UNL     2     -10.034  18.020  68.456  1.00  0.00    -0.350 OA 
BRANCH  14  17
HETATM   17  C   UNL     2      -8.790  18.813  66.562  1.00  0.00    -0.312 C  
HETATM   18  C   UNL     2     -10.178  18.511  65.968  1.00  0.00    -0.345 C  
HETATM   19  H   UNL     2      -7.844  18.230  64.935  1.00  0.00     0.000 HD 
HETATM   20  O   UNL     2      -7.800  18.012  65.859  1.00  0.00    -0.511 OA 
HETATM   21  O   UNL     2     -10.398  17.275  65.644  1.00  0.00    -0.580 OA 
HETATM   22  O   UNL     2     -10.892  19.402  65.517  1.00  0.00    -0.421 OA 
ENDBRANCH  14  17
ENDBRANCH  11  14
ENDBRANCH   2  11
BRANCH   3  23
HETATM   23  C   UNL     3     -10.396  10.957  65.544  1.00  0.00    -0.252 C  
HETATM   24  O   UNL     3     -10.115   9.591  65.876  1.00  0.00    -0.294 OA 
HETATM   25  H   UNL     3     -10.054   9.528  66.821  1.00  0.00     0.000 HD 
BRANCH  23  26
HETATM   26  C   UNL     3      -9.369  11.850  66.277  1.00  0.00    -0.227 C  
HETATM   27  O   UNL     3      -8.076  11.222  66.271  1.00  0.00    -0.221 OA 
HETATM   28  H   UNL     3      -7.444  11.770  66.722  1.00  0.00     0.000 HD 
BRANCH  26  29
HETATM   29  C   UNL     3      -9.841  12.025  67.738  1.00  0.00    -0.190 C  
HETATM   30  C   UNL     3      -9.763  10.776  68.652  1.00  0.00    -0.186 C  
HETATM   31  O   UNL     3     -11.226  12.513  67.769  1.00  0.00    -0.238 OA 
HETATM   32  O   UNL     3      -8.730  10.085  68.664  1.00  0.00    -0.119 OA 
HETATM   33  O   UNL     3     -10.869  10.638  69.335  1.00  0.00    -0.215 OA 
HETATM   34  H   UNL     3     -11.516  12.620  68.667  1.00  0.00     0.000 HD 
ENDBRANCH  26  29
ENDBRANCH  23  26
ENDBRANCH   3  23
BRANCH   3  35
HETATM   35  C   UNL     3     -11.084  12.362  63.485  1.00  0.00    -0.458 C  
HETATM   36  O   UNL     3     -10.170  13.414  63.809  1.00  0.00    -0.647 OA 
HETATM   37  H   UNL     3     -10.536  14.224  63.473  1.00  0.00     0.000 HD 
ENDBRANCH   3  35
TORSDOF 8
ENDMDL
MODEL       96
REMARK 921   NORMALIZED FREE ENERGY PREDICTED BY IDOCK:   -5.03 KCAL/MOL
REMARK 922        TOTAL FREE ENERGY PREDICTED BY IDOCK:   -9.48 KCAL/MOL
REMARK 923 INTER-LIGAND FREE ENERGY PREDICTED BY IDOCK:   -7.63 KCAL/MOL
REMARK 924 INTRA-LIGAND FREE ENERGY PREDICTED BY IDOCK:   -1.85 KCAL/MOL
REMARK 927      BINDING AFFINITY PREDICTED BY RF-SCORE:    0.00 PKD
ROOT
HETATM    1 FE   UNL     1      -8.081   9.635  67.056  1.00  0.00    -0.103 Fe 
HETATM    2  C   UNL     2     -11.246  15.611  67.726  1.00  0.00    -0.297 C  
HETATM    3  C   UNL     3     -11.907   6.867  71.324  1.00  0.00    -0.341 C  
HETATM    4  H   UNL     3     -13.603   6.601  70.402  1.00  0.00     0.000 HD 
HETATM    5  H   UNL     2     -11.478  14.478  66.125  1.00  0.00     0.000 HD 
HETATM    6  O   UNL     2     -11.091  15.320  66.334  1.00  0.00    -0.329 OA 
HETATM    7  O   UNL     3     -13.308   7.155  71.115  1.00  0.00    -0.331 OA 
ENDROOT
BRANCH   2   8
HETATM    8  C   UNL     2     -10.623  16.968  68.063  1.00  0.00    -0.373 C  
HETATM    9  H   UNL     2      -9.064  18.052  67.492  1.00  0.00     0.000 HD 
HETATM   10  O   UNL     2      -9.451  17.210  67.282  1.00  0.00    -0.239 OA 
ENDBRANCH   2   8
BRANCH   2  11
HETATM   11  C   UNL     2     -10.650  14.466  68.567  1.00  0.00    -0.255 C  
HETATM   12  H   UNL     2      -9.812  14.241  70.353  1.00  0.00     0.000 HD 
HETATM   13  O   UNL     2     -10.179  14.947  69.835  1.00  0.00    -0.124 OA 
BRANCH  11  14
HETATM   14  C   UNL     2     -11.706  13.370  68.790  1.00  0.00    -0.340 C  
HETATM   15  H   UNL     2     -12.701  12.640  70.333  1.00  0.00     0.000 HD 
HETATM   16  O   UNL     2     -12.049  13.318  70.196  1.00  0.00    -0.336 OA 
BRANCH  14  17
HETATM   17  C   UNL     2     -11.272  11.970  68.367  1.00  0.00    -0.262 C  
HETATM   18  C   UNL     2     -10.839  11.927  66.890  1.00  0.00    -0.263 C  
HETATM   19  H   UNL     2     -12.134  10.201  68.282  1.00  0.00     0.000 HD 
HETATM   20  O   UNL     2     -12.404  11.073  68.545  1.00  0.00    -0.536 OA 
HETATM   21  O   UNL     2     -11.798  11.848  66.020  1.00  0.00    -0.497 OA 
HETATM   22  O   UNL     2      -9.689  11.643  66.566  1.00  0.00    -0.197 OA 
ENDBRANCH  14  17
ENDBRANCH  11  14
ENDBRANCH   2  11
BRANCH   3  23
HETATM   23  C   UNL     3     -11.218   7.092  69.982  1.00  0.00    -0.269 C  
HETATM   24  O   UNL     3     -10.305   8.186  70.134  1.00  0.00    -0.206 OA 
HETATM   25  H   UNL     3      -9.877   8.326  69.298  1.00  0.00     0.000 HD 
BRANCH  23  26
HETATM   26  C   UNL     3     -10.451   5.912  69.342  1.00  0.00    -0.275 C  
HETATM   27  O   UNL     3      -9.117   5.845  69.874  1.00  0.00    -0.143 OA 
HETATM   28  H   UNL     3      -8.645   5.120  69.480  1.00  0.00     0.000 HD 
BRANCH  26  29
HETATM   29  C   UNL     3     -10.376   6.159  67.817  1.00  0.00    -0.198 C  
HETATM   30  C   UNL     3      -9.053   6.750  67.269  1.00  0.00    -0.119 C  
HETATM   31  O   UNL     3     -11.469   7.045  67.393  1.00  0.00    -0.591 OA 
HETATM   32  O   UNL     3      -7.966   6.268  67.632  1.00  0.00    -0.110 OA 
HETATM   33  O   UNL     3      -9.297   7.724  66.433  1.00  0.00    -0.182 OA 
HETATM   34  H   UNL     3     -11.423   7.196  66.456  1.00  0.00     0.000 HD 
ENDBRANCH  26  29
ENDBRANCH  23  26
ENDBRANCH   3  23
BRANCH   3  35
HETATM   35  C   UNL     3     -11.432   7.759  72.471  1.00  0.00    -0.373 C  
HETATM   36  O   UNL     3     -11.930   9.078  72.224  1.00  0.00    -0.338 OA 
HETATM   37  H   UNL     3     -11.635   9.632  72.938  1.00  0.00     0.000 HD 
ENDBRANCH   3  35
TORSDOF 8
ENDMDL
MODEL       97
REMARK 921   NORMALIZED FREE ENERGY PREDICTED BY IDOCK:   -5.03 KCAL/MOL
REMARK 922        TOTAL FREE ENERGY PREDICTED BY IDOCK:   -9.47 KCAL/MOL
REMARK 923 INTER-LIGAND FREE ENERGY PREDICTED BY IDOCK:   -7.58 KCAL/MOL
REMARK 924 INTRA-LIGAND FREE ENERGY PREDICTED BY IDOCK:   -1.89 KCAL/MOL
REMARK 927      BINDING AFFINITY PREDICTED BY RF-SCORE:    0.00 PKD
ROOT
HETATM    1 FE   UNL     1      -6.369  13.796  66.959  1.00  0.00    -0.165 Fe 
HETATM    2  C   UNL     2      -8.284   8.484  70.743  1.00  0.00    -0.130 C  
HETATM    3  C   UNL     3     -12.161  14.341  64.378  1.00  0.00    -0.447 C  
HETATM    4  H   UNL     3     -13.273  15.135  65.767  1.00  0.00     0.000 HD 
HETATM    5  H   UNL     2      -7.979  10.272  71.526  1.00  0.00     0.000 HD 
HETATM    6  O   UNL     2      -7.575   9.413  71.569  1.00  0.00    -0.329 OA 
HETATM    7  O   UNL     3     -13.232  14.284  65.347  1.00  0.00    -0.688 OA 
ENDROOT
BRANCH   2   8
HETATM    8  C   UNL     2      -7.632   7.101  70.811  1.00  0.00    -0.089 C  
HETATM    9  H   UNL     2      -8.087   5.294  71.489  1.00  0.00     0.000 HD 
HETATM   10  O   UNL     2      -8.491   6.153  71.447  1.00  0.00    -0.126 OA 
ENDBRANCH   2   8
BRANCH   2  11
HETATM   11  C   UNL     2      -8.363   9.025  69.302  1.00  0.00    -0.122 C  
HETATM   12  H   UNL     2      -7.161   9.931  68.007  1.00  0.00     0.000 HD 
HETATM   13  O   UNL     2      -7.112   9.598  68.895  1.00  0.00    -0.065 OA 
BRANCH  11  14
HETATM   14  C   UNL     2      -8.753   7.893  68.335  1.00  0.00    -0.131 C  
HETATM   15  H   UNL     2      -8.403   7.452  66.441  1.00  0.00     0.000 HD 
HETATM   16  O   UNL     2      -8.162   8.152  67.038  1.00  0.00    -0.113 OA 
BRANCH  14  17
HETATM   17  C   UNL     2     -10.254   7.715  68.132  1.00  0.00    -0.196 C  
HETATM   18  C   UNL     2     -10.734   6.329  68.599  1.00  0.00    -0.298 C  
HETATM   19  H   UNL     2     -11.472   7.740  66.585  1.00  0.00     0.000 HD 
HETATM   20  O   UNL     2     -10.537   7.851  66.712  1.00  0.00    -0.326 OA 
HETATM   21  O   UNL     2     -10.548   5.354  67.764  1.00  0.00    -0.181 OA 
HETATM   22  O   UNL     2     -11.533   6.204  69.524  1.00  0.00    -0.429 OA 
ENDBRANCH  14  17
ENDBRANCH  11  14
ENDBRANCH   2  11
BRANCH   3  23
HETATM   23  C   UNL     3     -10.912  14.763  65.144  1.00  0.00    -0.393 C  
HETATM   24  O   UNL     3     -10.476  16.022  64.615  1.00  0.00    -0.679 OA 
HETATM   25  H   UNL     3      -9.698  16.284  65.092  1.00  0.00     0.000 HD 
BRANCH  23  26
HETATM   26  C   UNL     3     -11.000  14.893  66.682  1.00  0.00    -0.325 C  
HETATM   27  O   UNL     3     -10.801  16.261  67.073  1.00  0.00    -0.283 OA 
HETATM   28  H   UNL     3     -10.855  16.341  68.019  1.00  0.00     0.000 HD 
BRANCH  26  29
HETATM   29  C   UNL     3      -9.883  14.021  67.302  1.00  0.00    -0.242 C  
HETATM   30  C   UNL     3      -9.285  14.504  68.647  1.00  0.00    -0.192 C  
HETATM   31  O   UNL     3      -8.773  13.867  66.351  1.00  0.00    -0.451 OA 
HETATM   32  O   UNL     3     -10.043  14.864  69.564  1.00  0.00    -0.190 OA 
HETATM   33  O   UNL     3      -7.981  14.439  68.619  1.00  0.00    -0.137 OA 
HETATM   34  H   UNL     3      -8.087  13.332  66.732  1.00  0.00     0.000 HD 
ENDBRANCH  26  29
ENDBRANCH  23  26
ENDBRANCH   3  23
BRANCH   3  35
HETATM   35  C   UNL     3     -12.095  12.970  63.704  1.00  0.00    -0.531 C  
HETATM   36  O   UNL     3     -11.461  12.071  64.618  1.00  0.00    -0.324 OA 
HETATM   37  H   UNL     3     -11.420  11.219  64.199  1.00  0.00     0.000 HD 
ENDBRANCH   3  35
TORSDOF 8
ENDMDL
MODEL       98
REMARK 921   NORMALIZED FREE ENERGY PREDICTED BY IDOCK:   -5.02 KCAL/MOL
REMARK 922        TOTAL FREE ENERGY PREDICTED BY IDOCK:   -9.47 KCAL/MOL
REMARK 923 INTER-LIGAND FREE ENERGY PREDICTED BY IDOCK:   -8.39 KCAL/MOL
REMARK 924 INTRA-LIGAND FREE ENERGY PREDICTED BY IDOCK:   -1.08 KCAL/MOL
REMARK 927      BINDING AFFINITY PREDICTED BY RF-SCORE:    0.00 PKD
ROOT
HETATM    1 FE   UNL     1     -11.854   7.837  67.508  1.00  0.00    -0.340 Fe 
HETATM    2  C   UNL     2      -8.203   6.410  73.061  1.00  0.00    -0.116 C  
HETATM    3  C   UNL     3     -11.034  14.099  68.295  1.00  0.00    -0.251 C  
HETATM    4  H   UNL     3      -9.198  14.453  67.748  1.00  0.00     0.000 HD 
HETATM    5  H   UNL     2      -7.504   6.099  71.239  1.00  0.00     0.000 HD 
HETATM    6  O   UNL     2      -7.764   5.573  71.987  1.00  0.00    -0.098 OA 
HETATM    7  O   UNL     3      -9.666  14.471  68.575  1.00  0.00    -0.213 OA 
ENDROOT
BRANCH   2   8
HETATM    8  C   UNL     2      -8.623   5.563  74.264  1.00  0.00    -0.119 C  
HETATM    9  H   UNL     2      -9.554   3.845  74.600  1.00  0.00     0.000 HD 
HETATM   10  O   UNL     2      -9.293   4.371  73.852  1.00  0.00    -0.112 OA 
ENDBRANCH   2   8
BRANCH   2  11
HETATM   11  C   UNL     2      -9.335   7.335  72.570  1.00  0.00    -0.143 C  
HETATM   12  H   UNL     2      -9.747   9.277  72.577  1.00  0.00     0.000 HD 
HETATM   13  O   UNL     2      -9.050   8.707  72.879  1.00  0.00    -0.314 OA 
BRANCH  11  14
HETATM   14  C   UNL     2      -9.526   7.175  71.052  1.00  0.00    -0.159 C  
HETATM   15  H   UNL     2      -8.889   8.105  69.429  1.00  0.00     0.000 HD 
HETATM   16  O   UNL     2      -8.771   8.204  70.367  1.00  0.00    -0.131 OA 
BRANCH  14  17
HETATM   17  C   UNL     2     -10.972   7.268  70.578  1.00  0.00    -0.260 C  
HETATM   18  C   UNL     2     -11.968   7.129  71.744  1.00  0.00    -0.313 C  
HETATM   19  H   UNL     2     -12.110   6.244  69.338  1.00  0.00     0.000 HD 
HETATM   20  O   UNL     2     -11.209   6.186  69.633  1.00  0.00    -0.384 OA 
HETATM   21  O   UNL     2     -12.217   5.917  72.134  1.00  0.00    -0.224 OA 
HETATM   22  O   UNL     2     -12.725   8.044  72.055  1.00  0.00    -0.315 OA 
ENDBRANCH  14  17
ENDBRANCH  11  14
ENDBRANCH   2  11
BRANCH   3  23
HETATM   23  C   UNL     3     -10.976  12.745  67.597  1.00  0.00    -0.244 C  
HETATM   24  O   UNL     3     -12.257  12.118  67.746  1.00  0.00    -0.451 OA 
HETATM   25  H   UNL     3     -12.220  11.274  67.311  1.00  0.00     0.000 HD 
BRANCH  23  26
HETATM   26  C   UNL     3     -10.595  12.705  66.099  1.00  0.00    -0.258 C  
HETATM   27  O   UNL     3      -9.763  13.831  65.772  1.00  0.00    -0.436 OA 
HETATM   28  H   UNL     3      -9.528  13.806  64.851  1.00  0.00     0.000 HD 
BRANCH  26  29
HETATM   29  C   UNL     3     -11.897  12.779  65.269  1.00  0.00    -0.403 C  
HETATM   30  C   UNL     3     -11.741  12.886  63.732  1.00  0.00    -0.492 C  
HETATM   31  O   UNL     3     -12.718  13.914  65.713  1.00  0.00    -0.504 OA 
HETATM   32  O   UNL     3     -10.951  12.131  63.139  1.00  0.00    -0.363 OA 
HETATM   33  O   UNL     3     -12.532  13.809  63.253  1.00  0.00    -0.819 OA 
HETATM   34  H   UNL     3     -13.518  13.959  65.203  1.00  0.00     0.000 HD 
ENDBRANCH  26  29
ENDBRANCH  23  26
ENDBRANCH   3  23
BRANCH   3  35
HETATM   35  C   UNL     3     -11.787  14.128  69.626  1.00  0.00    -0.324 C  
HETATM   36  O   UNL     3     -12.683  15.243  69.589  1.00  0.00    -0.602 OA 
HETATM   37  H   UNL     3     -13.151  15.261  70.416  1.00  0.00     0.000 HD 
ENDBRANCH   3  35
TORSDOF 8
ENDMDL
MODEL       99
REMARK 921   NORMALIZED FREE ENERGY PREDICTED BY IDOCK:   -5.01 KCAL/MOL
REMARK 922        TOTAL FREE ENERGY PREDICTED BY IDOCK:   -9.45 KCAL/MOL
REMARK 923 INTER-LIGAND FREE ENERGY PREDICTED BY IDOCK:   -7.64 KCAL/MOL
REMARK 924 INTRA-LIGAND FREE ENERGY PREDICTED BY IDOCK:   -1.82 KCAL/MOL
REMARK 927      BINDING AFFINITY PREDICTED BY RF-SCORE:    0.00 PKD
ROOT
HETATM    1 FE   UNL     1     -11.379   7.546  66.360  1.00  0.00    -0.331 Fe 
HETATM    2  C   UNL     2      -7.784   6.831  72.084  1.00  0.00    -0.095 C  
HETATM    3  C   UNL     3     -11.210  13.895  66.772  1.00  0.00    -0.318 C  
HETATM    4  H   UNL     3      -9.401  14.399  66.252  1.00  0.00     0.000 HD 
HETATM    5  H   UNL     2      -6.999   6.483  70.304  1.00  0.00     0.000 HD 
HETATM    6  O   UNL     2      -7.230   5.980  71.076  1.00  0.00    -0.071 OA 
HETATM    7  O   UNL     3      -9.895  14.420  67.063  1.00  0.00    -0.241 OA 
ENDROOT
BRANCH   2   8
HETATM    8  C   UNL     2      -8.156   6.020  73.327  1.00  0.00    -0.115 C  
HETATM    9  H   UNL     2      -9.783   5.215  74.125  1.00  0.00     0.000 HD 
HETATM   10  O   UNL     2      -9.553   5.719  73.353  1.00  0.00    -0.142 OA 
ENDBRANCH   2   8
BRANCH   2  11
HETATM   11  C   UNL     2      -8.986   7.606  71.507  1.00  0.00    -0.131 C  
HETATM   12  H   UNL     2      -9.853   9.373  71.769  1.00  0.00     0.000 HD 
HETATM   13  O   UNL     2      -9.113   8.895  72.124  1.00  0.00    -0.375 OA 
BRANCH  11  14
HETATM   14  C   UNL     2      -8.824   7.774  69.986  1.00  0.00    -0.142 C  
HETATM   15  H   UNL     2      -8.517   9.278  68.742  1.00  0.00     0.000 HD 
HETATM   16  O   UNL     2      -8.616   9.174  69.682  1.00  0.00    -0.127 OA 
BRANCH  14  17
HETATM   17  C   UNL     2     -10.013   7.292  69.161  1.00  0.00    -0.170 C  
HETATM   18  C   UNL     2     -10.836   6.228  69.911  1.00  0.00    -0.335 C  
HETATM   19  H   UNL     2     -10.242   6.403  67.419  1.00  0.00     0.000 HD 
HETATM   20  O   UNL     2      -9.501   6.703  67.933  1.00  0.00    -0.120 OA 
HETATM   21  O   UNL     2     -10.370   5.019  69.869  1.00  0.00    -0.279 OA 
HETATM   22  O   UNL     2     -12.006   6.427  70.227  1.00  0.00    -0.361 OA 
ENDBRANCH  14  17
ENDBRANCH  11  14
ENDBRANCH   2  11
BRANCH   3  23
HETATM   23  C   UNL     3     -10.996  12.515  66.162  1.00  0.00    -0.284 C  
HETATM   24  O   UNL     3     -12.269  12.028  65.718  1.00  0.00    -0.520 OA 
HETATM   25  H   UNL     3     -12.135  11.167  65.338  1.00  0.00     0.000 HD 
BRANCH  23  26
HETATM   26  C   UNL     3      -9.994  12.374  64.994  1.00  0.00    -0.197 C  
HETATM   27  O   UNL     3     -10.160  13.460  64.067  1.00  0.00    -0.764 OA 
HETATM   28  H   UNL     3      -9.544  13.373  63.349  1.00  0.00     0.000 HD 
BRANCH  26  29
HETATM   29  C   UNL     3     -10.287  11.040  64.268  1.00  0.00    -0.364 C  
HETATM   30  C   UNL     3      -9.076  10.303  63.644  1.00  0.00    -0.258 C  
HETATM   31  O   UNL     3     -11.277  11.250  63.203  1.00  0.00    -0.829 OA 
HETATM   32  O   UNL     3      -8.035  10.156  64.308  1.00  0.00    -0.154 OA 
HETATM   33  O   UNL     3      -9.356   9.902  62.432  1.00  0.00    -0.292 OA 
HETATM   34  H   UNL     3     -11.457  10.430  62.757  1.00  0.00     0.000 HD 
ENDBRANCH  26  29
ENDBRANCH  23  26
ENDBRANCH   3  23
BRANCH   3  35
HETATM   35  C   UNL     3     -12.004  13.928  68.078  1.00  0.00    -0.355 C  
HETATM   36  O   UNL     3     -12.108  12.581  68.552  1.00  0.00    -0.266 OA 
HETATM   37  H   UNL     3     -12.601  12.602  69.364  1.00  0.00     0.000 HD 
ENDBRANCH   3  35
TORSDOF 8
ENDMDL
MODEL      100
REMARK 921   NORMALIZED FREE ENERGY PREDICTED BY IDOCK:   -5.00 KCAL/MOL
REMARK 922        TOTAL FREE ENERGY PREDICTED BY IDOCK:   -9.44 KCAL/MOL
REMARK 923 INTER-LIGAND FREE ENERGY PREDICTED BY IDOCK:   -7.06 KCAL/MOL
REMARK 924 INTRA-LIGAND FREE ENERGY PREDICTED BY IDOCK:   -2.38 KCAL/MOL
REMARK 927      BINDING AFFINITY PREDICTED BY RF-SCORE:    0.00 PKD
ROOT
HETATM    1 FE   UNL     1      -8.251   8.270  65.843  1.00  0.00    -0.087 Fe 
HETATM    2  C   UNL     2     -12.719  13.380  65.507  1.00  0.00    -0.410 C  
HETATM    3  C   UNL     3      -9.580   7.204  71.976  1.00  0.00    -0.143 C  
HETATM    4  H   UNL     3     -11.311   6.310  71.982  1.00  0.00     0.000 HD 
HETATM    5  H   UNL     2     -13.070  11.626  64.668  1.00  0.00     0.000 HD 
HETATM    6  O   UNL     2     -12.912  12.518  64.381  1.00  0.00    -0.748 OA 
HETATM    7  O   UNL     3     -10.996   7.162  72.260  1.00  0.00    -0.226 OA 
ENDROOT
BRANCH   2   8
HETATM    8  C   UNL     2     -12.465  14.817  65.045  1.00  0.00    -0.147 C  
HETATM    9  H   UNL     2     -12.533  15.851  63.356  1.00  0.00     0.000 HD 
HETATM   10  O   UNL     2     -12.691  14.960  63.642  1.00  0.00    -0.689 OA 
ENDBRANCH   2   8
BRANCH   2  11
HETATM   11  C   UNL     2     -11.579  12.836  66.390  1.00  0.00    -0.378 C  
HETATM   12  H   UNL     2     -11.312  12.326  68.290  1.00  0.00     0.000 HD 
HETATM   13  O   UNL     2     -12.014  12.661  67.746  1.00  0.00    -0.347 OA 
BRANCH  11  14
HETATM   14  C   UNL     2     -11.074  11.495  65.831  1.00  0.00    -0.214 C  
HETATM   15  H   UNL     2     -10.745   9.684  66.551  1.00  0.00     0.000 HD 
HETATM   16  O   UNL     2     -11.057  10.513  66.896  1.00  0.00    -0.196 OA 
BRANCH  14  17
HETATM   17  C   UNL     2      -9.676  11.542  65.223  1.00  0.00    -0.238 C  
HETATM   18  C   UNL     2      -9.619  10.822  63.863  1.00  0.00    -0.293 C  
HETATM   19  H   UNL     2      -7.891  10.907  65.760  1.00  0.00     0.000 HD 
HETATM   20  O   UNL     2      -8.762  10.877  66.139  1.00  0.00    -0.172 OA 
HETATM   21  O   UNL     2      -9.510   9.531  63.910  1.00  0.00    -0.070 OA 
HETATM   22  O   UNL     2      -9.351  11.426  62.828  1.00  0.00    -0.369 OA 
ENDBRANCH  14  17
ENDBRANCH  11  14
ENDBRANCH   2  11
BRANCH   3  23
HETATM   23  C   UNL     3      -9.431   6.897  70.490  1.00  0.00    -0.169 C  
HETATM   24  O   UNL     3      -9.251   5.481  70.349  1.00  0.00    -0.145 OA 
HETATM   25  H   UNL     3      -9.158   5.290  69.424  1.00  0.00     0.000 HD 
BRANCH  23  26
HETATM   26  C   UNL     3     -10.562   7.333  69.531  1.00  0.00    -0.234 C  
HETATM   27  O   UNL     3     -11.630   6.372  69.556  1.00  0.00    -0.581 OA 
HETATM   28  H   UNL     3     -12.325   6.640  68.967  1.00  0.00     0.000 HD 
BRANCH  26  29
HETATM   29  C   UNL     3      -9.979   7.405  68.101  1.00  0.00    -0.166 C  
HETATM   30  C   UNL     3      -9.473   6.076  67.485  1.00  0.00    -0.112 C  
HETATM   31  O   UNL     3      -8.870   8.367  68.053  1.00  0.00    -0.140 OA 
HETATM   32  O   UNL     3     -10.178   5.055  67.560  1.00  0.00    -0.173 OA 
HETATM   33  O   UNL     3      -8.305   6.245  66.924  1.00  0.00    -0.109 OA 
HETATM   34  H   UNL     3      -8.511   8.411  67.174  1.00  0.00     0.000 HD 
ENDBRANCH  26  29
ENDBRANCH  23  26
ENDBRANCH   3  23
BRANCH   3  35
HETATM   35  C   UNL     3      -9.074   8.576  72.423  1.00  0.00    -0.238 C  
HETATM   36  O   UNL     3      -8.709   8.471  73.803  1.00  0.00    -0.263 OA 
HETATM   37  H   UNL     3      -8.394   9.323  74.081  1.00  0.00     0.000 HD 
ENDBRANCH   3  35
TORSDOF 8
ENDMDL
MODEL      101
REMARK 921   NORMALIZED FREE ENERGY PREDICTED BY IDOCK:   -4.99 KCAL/MOL
REMARK 922        TOTAL FREE ENERGY PREDICTED BY IDOCK:   -9.42 KCAL/MOL
REMARK 923 INTER-LIGAND FREE ENERGY PREDICTED BY IDOCK:   -7.59 KCAL/MOL
REMARK 924 INTRA-LIGAND FREE ENERGY PREDICTED BY IDOCK:   -1.83 KCAL/MOL
REMARK 927      BINDING AFFINITY PREDICTED BY RF-SCORE:    0.00 PKD
ROOT
HETATM    1 FE   UNL     1     -11.406  11.587  65.615  1.00  0.00    -0.279 Fe 
HETATM    2  C   UNL     2      -9.700  17.578  68.332  1.00  0.00    -0.316 C  
HETATM    3  C   UNL     3     -11.497   8.764  71.318  1.00  0.00    -0.292 C  
HETATM    4  H   UNL     3     -13.140   9.372  72.171  1.00  0.00     0.000 HD 
HETATM    5  H   UNL     2     -11.514  17.223  67.634  1.00  0.00     0.000 HD 
HETATM    6  O   UNL     2     -10.775  17.775  67.407  1.00  0.00    -0.357 OA 
HETATM    7  O   UNL     3     -12.213   9.516  72.323  1.00  0.00    -0.278 OA 
ENDROOT
BRANCH   2   8
HETATM    8  C   UNL     2      -8.508  18.466  67.966  1.00  0.00    -0.276 C  
HETATM    9  H   UNL     2      -8.198  20.303  67.287  1.00  0.00     0.000 HD 
HETATM   10  O   UNL     2      -8.938  19.752  67.514  1.00  0.00    -0.307 OA 
ENDBRANCH   2   8
BRANCH   2  11
HETATM   11  C   UNL     2      -9.325  16.084  68.383  1.00  0.00    -0.207 C  
HETATM   12  H   UNL     2      -8.667  14.784  69.731  1.00  0.00     0.000 HD 
HETATM   13  O   UNL     2      -8.898  15.704  69.699  1.00  0.00    -0.252 OA 
BRANCH  11  14
HETATM   14  C   UNL     2     -10.528  15.224  67.961  1.00  0.00    -0.248 C  
HETATM   15  H   UNL     2     -11.529  13.699  68.723  1.00  0.00     0.000 HD 
HETATM   16  O   UNL     2     -10.785  14.231  68.984  1.00  0.00    -0.246 OA 
BRANCH  14  17
HETATM   17  C   UNL     2     -10.354  14.488  66.636  1.00  0.00    -0.274 C  
HETATM   18  C   UNL     2     -11.630  14.549  65.776  1.00  0.00    -0.347 C  
HETATM   19  H   UNL     2      -9.948  12.636  66.104  1.00  0.00     0.000 HD 
HETATM   20  O   UNL     2     -10.056  13.094  66.929  1.00  0.00    -0.238 OA 
HETATM   21  O   UNL     2     -12.558  13.696  66.080  1.00  0.00    -0.441 OA 
HETATM   22  O   UNL     2     -11.641  15.109  64.683  1.00  0.00    -0.404 OA 
ENDBRANCH  14  17
ENDBRANCH  11  14
ENDBRANCH   2  11
BRANCH   3  23
HETATM   23  C   UNL     3     -12.027   9.237  69.969  1.00  0.00     0.311 C  
HETATM   24  O   UNL     3     -13.151  10.091  70.213  1.00  0.00    -0.591 OA 
HETATM   25  H   UNL     3     -13.482  10.385  69.372  1.00  0.00     0.000 HD 
BRANCH  23  26
HETATM   26  C   UNL     3     -11.060   9.977  69.017  1.00  0.00    -0.180 C  
HETATM   27  O   UNL     3     -11.802  10.798  68.100  1.00  0.00    -0.716 OA 
HETATM   28  H   UNL     3     -11.208  11.253  67.515  1.00  0.00     0.000 HD 
BRANCH  26  29
HETATM   29  C   UNL     3     -10.267   8.916  68.218  1.00  0.00    -0.201 C  
HETATM   30  C   UNL     3      -9.502   9.412  66.965  1.00  0.00    -0.155 C  
HETATM   31  O   UNL     3     -11.160   7.830  67.792  1.00  0.00    -0.491 OA 
HETATM   32  O   UNL     3      -8.804  10.438  67.037  1.00  0.00    -0.136 OA 
HETATM   33  O   UNL     3      -9.707   8.610  65.955  1.00  0.00    -0.209 OA 
HETATM   34  H   UNL     3     -10.673   7.178  67.302  1.00  0.00     0.000 HD 
ENDBRANCH  26  29
ENDBRANCH  23  26
ENDBRANCH   3  23
BRANCH   3  35
HETATM   35  C   UNL     3     -10.006   8.995  71.563  1.00  0.00    -0.321 C  
HETATM   36  O   UNL     3      -9.391   7.713  71.719  1.00  0.00    -0.142 OA 
HETATM   37  H   UNL     3      -8.464   7.857  71.871  1.00  0.00     0.000 HD 
ENDBRANCH   3  35
TORSDOF 8
ENDMDL
MODEL      102
REMARK 921   NORMALIZED FREE ENERGY PREDICTED BY IDOCK:   -4.99 KCAL/MOL
REMARK 922        TOTAL FREE ENERGY PREDICTED BY IDOCK:   -9.42 KCAL/MOL
REMARK 923 INTER-LIGAND FREE ENERGY PREDICTED BY IDOCK:   -6.99 KCAL/MOL
REMARK 924 INTRA-LIGAND FREE ENERGY PREDICTED BY IDOCK:   -2.43 KCAL/MOL
REMARK 927      BINDING AFFINITY PREDICTED BY RF-SCORE:    0.00 PKD
ROOT
HETATM    1 FE   UNL     1     -12.626  12.799  68.637  1.00  0.00    -0.256 Fe 
HETATM    2  C   UNL     2      -8.687  18.313  68.103  1.00  0.00    -0.281 C  
HETATM    3  C   UNL     3      -7.673   9.131  70.225  1.00  0.00    -0.113 C  
HETATM    4  H   UNL     3      -7.262   9.589  72.074  1.00  0.00     0.000 HD 
HETATM    5  H   UNL     2      -9.930  18.057  69.617  1.00  0.00     0.000 HD 
HETATM    6  O   UNL     2      -9.847  18.642  68.874  1.00  0.00    -0.382 OA 
HETATM    7  O   UNL     3      -6.825   9.714  71.239  1.00  0.00    -0.311 OA 
ENDROOT
BRANCH   2   8
HETATM    8  C   UNL     2      -8.554  19.255  66.904  1.00  0.00    -0.298 C  
HETATM    9  H   UNL     2      -8.125  19.126  64.973  1.00  0.00     0.000 HD 
HETATM   10  O   UNL     2      -8.207  18.540  65.717  1.00  0.00    -0.481 OA 
ENDBRANCH   2   8
BRANCH   2  11
HETATM   11  C   UNL     2      -8.746  16.831  67.682  1.00  0.00    -0.204 C  
HETATM   12  H   UNL     2      -7.507  15.282  67.594  1.00  0.00     0.000 HD 
HETATM   13  O   UNL     2      -7.471  16.195  67.854  1.00  0.00    -0.122 OA 
BRANCH  11  14
HETATM   14  C   UNL     2      -9.810  16.089  68.509  1.00  0.00    -0.216 C  
HETATM   15  H   UNL     2      -9.814  14.875  70.068  1.00  0.00     0.000 HD 
HETATM   16  O   UNL     2      -9.156  15.333  69.557  1.00  0.00    -0.241 OA 
BRANCH  14  17
HETATM   17  C   UNL     2     -10.677  15.120  67.711  1.00  0.00    -0.279 C  
HETATM   18  C   UNL     2     -10.008  13.741  67.566  1.00  0.00    -0.233 C  
HETATM   19  H   UNL     2     -11.417  15.078  65.886  1.00  0.00     0.000 HD 
HETATM   20  O   UNL     2     -10.877  15.681  66.383  1.00  0.00    -0.306 OA 
HETATM   21  O   UNL     2      -9.112  13.641  66.634  1.00  0.00    -0.238 OA 
HETATM   22  O   UNL     2     -10.513  12.729  68.047  1.00  0.00    -0.214 OA 
ENDBRANCH  14  17
ENDBRANCH  11  14
ENDBRANCH   2  11
BRANCH   3  23
HETATM   23  C   UNL     3      -9.035   9.802  70.366  1.00  0.00    -0.088 C  
HETATM   24  O   UNL     3      -9.115  10.844  69.386  1.00  0.00    -0.390 OA 
HETATM   25  H   UNL     3      -9.964  11.262  69.474  1.00  0.00     0.000 HD 
BRANCH  23  26
HETATM   26  C   UNL     3     -10.303   8.927  70.243  1.00  0.00    -0.206 C  
HETATM   27  O   UNL     3     -10.471   8.491  68.883  1.00  0.00    -0.215 OA 
HETATM   28  H   UNL     3     -11.251   7.954  68.807  1.00  0.00     0.000 HD 
BRANCH  26  29
HETATM   29  C   UNL     3     -11.521   9.787  70.653  1.00  0.00    -0.324 C  
HETATM   30  C   UNL     3     -12.624   9.084  71.484  1.00  0.00    -0.338 C  
HETATM   31  O   UNL     3     -12.161  10.361  69.462  1.00  0.00    -0.494 OA 
HETATM   32  O   UNL     3     -12.306   8.381  72.459  1.00  0.00    -0.376 OA 
HETATM   33  O   UNL     3     -13.808   9.372  71.013  1.00  0.00    -0.219 OA 
HETATM   34  H   UNL     3     -12.909  10.890  69.714  1.00  0.00     0.000 HD 
ENDBRANCH  26  29
ENDBRANCH  23  26
ENDBRANCH   3  23
BRANCH   3  35
HETATM   35  C   UNL     3      -6.970   9.332  68.883  1.00  0.00    -0.064 C  
HETATM   36  O   UNL     3      -7.781   8.719  67.876  1.00  0.00    -0.099 OA 
HETATM   37  H   UNL     3      -7.344   8.845  67.041  1.00  0.00     0.000 HD 
ENDBRANCH   3  35
TORSDOF 8
ENDMDL
MODEL      103
REMARK 921   NORMALIZED FREE ENERGY PREDICTED BY IDOCK:   -4.97 KCAL/MOL
REMARK 922        TOTAL FREE ENERGY PREDICTED BY IDOCK:   -9.40 KCAL/MOL
REMARK 923 INTER-LIGAND FREE ENERGY PREDICTED BY IDOCK:   -8.03 KCAL/MOL
REMARK 924 INTRA-LIGAND FREE ENERGY PREDICTED BY IDOCK:   -1.37 KCAL/MOL
REMARK 927      BINDING AFFINITY PREDICTED BY RF-SCORE:    0.00 PKD
ROOT
HETATM    1 FE   UNL     1     -11.901  11.098  64.372  1.00  0.00    -0.246 Fe 
HETATM    2  C   UNL     2      -9.332  16.642  67.348  1.00  0.00    -0.222 C  
HETATM    3  C   UNL     3      -7.522   7.342  67.061  1.00  0.00    -0.098 C  
HETATM    4  H   UNL     3      -8.066   7.165  68.923  1.00  0.00     0.000 HD 
HETATM    5  H   UNL     2     -11.033  15.830  67.939  1.00  0.00     0.000 HD 
HETATM    6  O   UNL     2     -10.752  16.636  67.522  1.00  0.00    -0.325 OA 
HETATM    7  O   UNL     3      -7.342   7.586  68.474  1.00  0.00    -0.093 OA 
ENDROOT
BRANCH   2   8
HETATM    8  C   UNL     2      -8.880  17.940  66.675  1.00  0.00    -0.268 C  
HETATM    9  H   UNL     2      -9.539  19.176  65.272  1.00  0.00     0.000 HD 
HETATM   10  O   UNL     2      -9.820  18.370  65.690  1.00  0.00    -0.440 OA 
ENDBRANCH   2   8
BRANCH   2  11
HETATM   11  C   UNL     2      -8.899  15.390  66.559  1.00  0.00    -0.312 C  
HETATM   12  H   UNL     2      -7.617  13.890  66.779  1.00  0.00     0.000 HD 
HETATM   13  O   UNL     2      -7.884  14.662  67.264  1.00  0.00    -0.192 OA 
BRANCH  11  14
HETATM   14  C   UNL     2     -10.112  14.478  66.310  1.00  0.00    -0.295 C  
HETATM   15  H   UNL     2     -10.558  12.579  66.630  1.00  0.00     0.000 HD 
HETATM   16  O   UNL     2      -9.809  13.143  66.784  1.00  0.00    -0.238 OA 
BRANCH  14  17
HETATM   17  C   UNL     2     -10.538  14.366  64.850  1.00  0.00    -0.434 C  
HETATM   18  C   UNL     2     -11.901  15.035  64.598  1.00  0.00    -0.375 C  
HETATM   19  H   UNL     2     -10.911  12.883  63.609  1.00  0.00     0.000 HD 
HETATM   20  O   UNL     2     -10.646  12.953  64.518  1.00  0.00    -0.337 OA 
HETATM   21  O   UNL     2     -12.944  14.332  64.913  1.00  0.00    -0.682 OA 
HETATM   22  O   UNL     2     -12.013  16.002  63.848  1.00  0.00    -0.855 OA 
ENDBRANCH  14  17
ENDBRANCH  11  14
ENDBRANCH   2  11
BRANCH   3  23
HETATM   23  C   UNL     3      -8.912   7.862  66.709  1.00  0.00    -0.145 C  
HETATM   24  O   UNL     3      -9.304   7.263  65.467  1.00  0.00    -0.367 OA 
HETATM   25  H   UNL     3     -10.170   7.587  65.248  1.00  0.00     0.000 HD 
BRANCH  23  26
HETATM   26  C   UNL     3     -10.056   7.649  67.726  1.00  0.00    -0.186 C  
HETATM   27  O   UNL     3     -11.236   7.182  67.051  1.00  0.00    -0.554 OA 
HETATM   28  H   UNL     3     -11.940   7.052  67.677  1.00  0.00     0.000 HD 
BRANCH  26  29
HETATM   29  C   UNL     3     -10.361   9.009  68.397  1.00  0.00    -0.205 C  
HETATM   30  C   UNL     3     -10.745   8.977  69.897  1.00  0.00    -0.229 C  
HETATM   31  O   UNL     3     -11.439   9.699  67.676  1.00  0.00    -0.419 OA 
HETATM   32  O   UNL     3     -10.068   8.302  70.692  1.00  0.00    -0.189 OA 
HETATM   33  O   UNL     3     -11.786   9.734  70.121  1.00  0.00    -0.196 OA 
HETATM   34  H   UNL     3     -11.627  10.534  68.089  1.00  0.00     0.000 HD 
ENDBRANCH  26  29
ENDBRANCH  23  26
ENDBRANCH   3  23
BRANCH   3  35
HETATM   35  C   UNL     3      -6.358   8.020  66.338  1.00  0.00    -0.047 C  
HETATM   36  O   UNL     3      -6.915   8.922  65.377  1.00  0.00    -0.078 OA 
HETATM   37  H   UNL     3      -6.191   9.343  64.928  1.00  0.00     0.000 HD 
ENDBRANCH   3  35
TORSDOF 8
ENDMDL
MODEL      104
REMARK 921   NORMALIZED FREE ENERGY PREDICTED BY IDOCK:   -4.96 KCAL/MOL
REMARK 922        TOTAL FREE ENERGY PREDICTED BY IDOCK:   -9.37 KCAL/MOL
REMARK 923 INTER-LIGAND FREE ENERGY PREDICTED BY IDOCK:   -8.06 KCAL/MOL
REMARK 924 INTRA-LIGAND FREE ENERGY PREDICTED BY IDOCK:   -1.31 KCAL/MOL
REMARK 927      BINDING AFFINITY PREDICTED BY RF-SCORE:    0.00 PKD
ROOT
HETATM    1 FE   UNL     1     -10.407   7.087  66.123  1.00  0.00    -0.345 Fe 
HETATM    2  C   UNL     2     -12.211  13.631  65.783  1.00  0.00    -0.464 C  
HETATM    3  C   UNL     3      -9.073   7.537  72.330  1.00  0.00    -0.136 C  
HETATM    4  H   UNL     3     -10.801   7.590  73.228  1.00  0.00     0.000 HD 
HETATM    5  H   UNL     2     -13.543  12.173  65.723  1.00  0.00     0.000 HD 
HETATM    6  O   UNL     2     -13.209  12.838  65.132  1.00  0.00    -0.686 OA 
HETATM    7  O   UNL     3     -10.097   8.214  73.093  1.00  0.00    -0.290 OA 
ENDROOT
BRANCH   2   8
HETATM    8  C   UNL     2     -11.672  14.702  64.832  1.00  0.00    -0.403 C  
HETATM    9  H   UNL     2     -12.328  15.767  63.295  1.00  0.00     0.000 HD 
HETATM   10  O   UNL     2     -12.663  15.102  63.885  1.00  0.00    -0.759 OA 
ENDBRANCH   2   8
BRANCH   2  11
HETATM   11  C   UNL     2     -11.097  12.718  66.331  1.00  0.00    -0.285 C  
HETATM   12  H   UNL     2      -9.112  12.661  66.325  1.00  0.00     0.000 HD 
HETATM   13  O   UNL     2      -9.799  13.223  65.987  1.00  0.00    -0.285 OA 
BRANCH  11  14
HETATM   14  C   UNL     2     -11.217  12.599  67.861  1.00  0.00    -0.266 C  
HETATM   15  H   UNL     2      -9.964  12.469  69.383  1.00  0.00     0.000 HD 
HETATM   16  O   UNL     2      -9.890  12.542  68.439  1.00  0.00    -0.225 OA 
BRANCH  14  17
HETATM   17  C   UNL     2     -11.987  11.376  68.347  1.00  0.00    -0.200 C  
HETATM   18  C   UNL     2     -11.759  11.116  69.848  1.00  0.00    -0.355 C  
HETATM   19  H   UNL     2     -11.997   9.457  67.902  1.00  0.00     0.000 HD 
HETATM   20  O   UNL     2     -11.517  10.219  67.599  1.00  0.00    -0.345 OA 
HETATM   21  O   UNL     2     -10.662  10.497  70.155  1.00  0.00    -0.268 OA 
HETATM   22  O   UNL     2     -12.682  11.173  70.656  1.00  0.00    -0.313 OA 
ENDBRANCH  14  17
ENDBRANCH  11  14
ENDBRANCH   2  11
BRANCH   3  23
HETATM   23  C   UNL     3      -9.750   7.019  71.066  1.00  0.00    -0.173 C  
HETATM   24  O   UNL     3      -8.747   6.401  70.251  1.00  0.00    -0.140 OA 
HETATM   25  H   UNL     3      -9.169   6.079  69.463  1.00  0.00     0.000 HD 
BRANCH  23  26
HETATM   26  C   UNL     3     -10.926   6.027  71.215  1.00  0.00    -0.278 C  
HETATM   27  O   UNL     3     -12.152   6.743  71.435  1.00  0.00    -0.333 OA 
HETATM   28  H   UNL     3     -12.875   6.133  71.527  1.00  0.00     0.000 HD 
BRANCH  26  29
HETATM   29  C   UNL     3     -10.640   5.124  72.438  1.00  0.00    -0.221 C  
HETATM   30  C   UNL     3     -10.126   3.692  72.145  1.00  0.00    -0.142 C  
HETATM   31  O   UNL     3     -11.845   5.002  73.270  1.00  0.00    -0.509 OA 
HETATM   32  O   UNL     3      -9.209   3.524  71.323  1.00  0.00    -0.104 OA 
HETATM   33  O   UNL     3     -10.768   2.817  72.872  1.00  0.00    -0.155 OA 
HETATM   34  H   UNL     3     -11.669   4.448  74.022  1.00  0.00     0.000 HD 
ENDBRANCH  26  29
ENDBRANCH  23  26
ENDBRANCH   3  23
BRANCH   3  35
HETATM   35  C   UNL     3      -7.940   8.541  72.112  1.00  0.00    -0.088 C  
HETATM   36  O   UNL     3      -8.316   9.383  71.018  1.00  0.00    -0.294 OA 
HETATM   37  H   UNL     3      -7.612  10.007  70.883  1.00  0.00     0.000 HD 
ENDBRANCH   3  35
TORSDOF 8
ENDMDL
MODEL      105
REMARK 921   NORMALIZED FREE ENERGY PREDICTED BY IDOCK:   -4.94 KCAL/MOL
REMARK 922        TOTAL FREE ENERGY PREDICTED BY IDOCK:   -9.34 KCAL/MOL
REMARK 923 INTER-LIGAND FREE ENERGY PREDICTED BY IDOCK:   -7.62 KCAL/MOL
REMARK 924 INTRA-LIGAND FREE ENERGY PREDICTED BY IDOCK:   -1.72 KCAL/MOL
REMARK 927      BINDING AFFINITY PREDICTED BY RF-SCORE:    0.00 PKD
ROOT
HETATM    1 FE   UNL     1     -13.132  12.248  70.326  1.00  0.00    -0.116 Fe 
HETATM    2  C   UNL     2      -9.660  17.416  67.602  1.00  0.00    -0.261 C  
HETATM    3  C   UNL     3      -8.365   8.172  69.247  1.00  0.00    -0.130 C  
HETATM    4  H   UNL     3      -7.017   8.586  70.591  1.00  0.00     0.000 HD 
HETATM    5  H   UNL     2      -9.944  17.258  69.551  1.00  0.00     0.000 HD 
HETATM    6  O   UNL     2     -10.219  17.837  68.850  1.00  0.00    -0.368 OA 
HETATM    7  O   UNL     3      -7.072   8.678  69.646  1.00  0.00    -0.053 OA 
ENDROOT
BRANCH   2   8
HETATM    8  C   UNL     2     -10.104  18.350  66.473  1.00  0.00    -0.388 C  
HETATM    9  H   UNL     2      -9.270  19.641  65.221  1.00  0.00     0.000 HD 
HETATM   10  O   UNL     2      -8.995  19.062  65.922  1.00  0.00    -0.448 OA 
ENDBRANCH   2   8
BRANCH   2  11
HETATM   11  C   UNL     2     -10.038  15.947  67.332  1.00  0.00    -0.252 C  
HETATM   12  H   UNL     2      -9.204  14.347  66.504  1.00  0.00     0.000 HD 
HETATM   13  O   UNL     2      -8.971  15.252  66.670  1.00  0.00    -0.250 OA 
BRANCH  11  14
HETATM   14  C   UNL     2     -10.376  15.238  68.654  1.00  0.00    -0.232 C  
HETATM   15  H   UNL     2      -9.945  13.500  69.491  1.00  0.00     0.000 HD 
HETATM   16  O   UNL     2      -9.736  13.938  68.674  1.00  0.00    -0.220 OA 
BRANCH  14  17
HETATM   17  C   UNL     2     -11.866  15.023  68.901  1.00  0.00    -0.307 C  
HETATM   18  C   UNL     2     -12.213  15.089  70.400  1.00  0.00    -0.341 C  
HETATM   19  H   UNL     2     -13.150  13.571  68.553  1.00  0.00     0.000 HD 
HETATM   20  O   UNL     2     -12.222  13.705  68.399  1.00  0.00    -0.332 OA 
HETATM   21  O   UNL     2     -11.987  14.009  71.081  1.00  0.00    -0.317 OA 
HETATM   22  O   UNL     2     -12.958  15.956  70.849  1.00  0.00    -0.480 OA 
ENDBRANCH  14  17
ENDBRANCH  11  14
ENDBRANCH   2  11
BRANCH   3  23
HETATM   23  C   UNL     3      -9.399   8.954  70.050  1.00  0.00    -0.174 C  
HETATM   24  O   UNL     3      -9.007  10.332  70.047  1.00  0.00    -0.388 OA 
HETATM   25  H   UNL     3      -9.651  10.819  70.548  1.00  0.00     0.000 HD 
BRANCH  23  26
HETATM   26  C   UNL     3     -10.881   8.875  69.617  1.00  0.00    -0.178 C  
HETATM   27  O   UNL     3     -11.262  10.085  68.940  1.00  0.00    -0.375 OA 
HETATM   28  H   UNL     3     -12.173  10.037  68.674  1.00  0.00     0.000 HD 
BRANCH  26  29
HETATM   29  C   UNL     3     -11.745   8.712  70.888  1.00  0.00    -0.252 C  
HETATM   30  C   UNL     3     -12.360   7.314  71.141  1.00  0.00    -0.345 C  
HETATM   31  O   UNL     3     -12.844   9.687  70.882  1.00  0.00    -0.478 OA 
HETATM   32  O   UNL     3     -11.651   6.299  71.028  1.00  0.00    -0.324 OA 
HETATM   33  O   UNL     3     -13.619   7.419  71.475  1.00  0.00    -0.380 OA 
HETATM   34  H   UNL     3     -13.375   9.587  71.664  1.00  0.00     0.000 HD 
ENDBRANCH  26  29
ENDBRANCH  23  26
ENDBRANCH   3  23
BRANCH   3  35
HETATM   35  C   UNL     3      -8.454   8.321  67.728  1.00  0.00    -0.131 C  
HETATM   36  O   UNL     3      -7.917   9.603  67.389  1.00  0.00    -0.105 OA 
HETATM   37  H   UNL     3      -7.972   9.695  66.445  1.00  0.00     0.000 HD 
ENDBRANCH   3  35
TORSDOF 8
ENDMDL
MODEL      106
REMARK 921   NORMALIZED FREE ENERGY PREDICTED BY IDOCK:   -4.93 KCAL/MOL
REMARK 922        TOTAL FREE ENERGY PREDICTED BY IDOCK:   -9.33 KCAL/MOL
REMARK 923 INTER-LIGAND FREE ENERGY PREDICTED BY IDOCK:   -7.81 KCAL/MOL
REMARK 924 INTRA-LIGAND FREE ENERGY PREDICTED BY IDOCK:   -1.52 KCAL/MOL
REMARK 927      BINDING AFFINITY PREDICTED BY RF-SCORE:    0.00 PKD
ROOT
HETATM    1 FE   UNL     1      -6.293  11.630  65.845  1.00  0.00    -0.266 Fe 
HETATM    2  C   UNL     2      -9.037   6.051  68.588  1.00  0.00    -0.116 C  
HETATM    3  C   UNL     3     -12.005  13.931  64.237  1.00  0.00    -0.444 C  
HETATM    4  H   UNL     3     -12.793  14.570  65.901  1.00  0.00     0.000 HD 
HETATM    5  H   UNL     2      -8.275   7.497  69.698  1.00  0.00     0.000 HD 
HETATM    6  O   UNL     2      -8.073   6.590  69.497  1.00  0.00    -0.115 OA 
HETATM    7  O   UNL     3     -12.979  13.855  65.303  1.00  0.00    -0.747 OA 
ENDROOT
BRANCH   2   8
HETATM    8  C   UNL     2      -8.711   4.591  68.264  1.00  0.00    -0.100 C  
HETATM    9  H   UNL     2      -8.629   2.856  69.220  1.00  0.00     0.000 HD 
HETATM   10  O   UNL     2      -8.832   3.762  69.421  1.00  0.00    -0.075 OA 
ENDBRANCH   2   8
BRANCH   2  11
HETATM   11  C   UNL     2      -9.111   6.930  67.325  1.00  0.00    -0.124 C  
HETATM   12  H   UNL     2     -10.439   7.359  65.913  1.00  0.00     0.000 HD 
HETATM   13  O   UNL     2     -10.393   6.816  66.691  1.00  0.00    -0.211 OA 
BRANCH  11  14
HETATM   14  C   UNL     2      -8.843   8.401  67.690  1.00  0.00    -0.136 C  
HETATM   15  H   UNL     2      -9.935   9.961  68.218  1.00  0.00     0.000 HD 
HETATM   16  O   UNL     2     -10.101   9.052  67.993  1.00  0.00    -0.172 OA 
BRANCH  14  17
HETATM   17  C   UNL     2      -8.152   9.213  66.600  1.00  0.00    -0.111 C  
HETATM   18  C   UNL     2      -9.015  10.401  66.137  1.00  0.00    -0.157 C  
HETATM   19  H   UNL     2      -7.489   8.842  64.782  1.00  0.00     0.000 HD 
HETATM   20  O   UNL     2      -7.920   8.336  65.461  1.00  0.00    -0.106 OA 
HETATM   21  O   UNL     2      -9.949  10.123  65.280  1.00  0.00    -0.300 OA 
HETATM   22  O   UNL     2      -8.644  11.562  66.289  1.00  0.00    -0.180 OA 
ENDBRANCH  14  17
ENDBRANCH  11  14
ENDBRANCH   2  11
BRANCH   3  23
HETATM   23  C   UNL     3     -10.635  13.896  64.904  1.00  0.00    -0.419 C  
HETATM   24  O   UNL     3      -9.761  13.120  64.074  1.00  0.00    -0.671 OA 
HETATM   25  H   UNL     3      -8.907  13.098  64.491  1.00  0.00     0.000 HD 
BRANCH  23  26
HETATM   26  C   UNL     3      -9.934  15.238  65.216  1.00  0.00    -0.287 C  
HETATM   27  O   UNL     3      -8.703  15.000  65.919  1.00  0.00    -0.367 OA 
HETATM   28  H   UNL     3      -8.271  15.825  66.110  1.00  0.00     0.000 HD 
BRANCH  26  29
HETATM   29  C   UNL     3     -10.875  16.075  66.114  1.00  0.00    -0.179 C  
HETATM   30  C   UNL     3     -10.281  17.360  66.743  1.00  0.00    -0.318 C  
HETATM   31  O   UNL     3     -11.401  15.246  67.207  1.00  0.00    -0.332 OA 
HETATM   32  O   UNL     3      -9.628  18.146  66.036  1.00  0.00    -0.496 OA 
HETATM   33  O   UNL     3     -10.594  17.438  68.009  1.00  0.00    -0.371 OA 
HETATM   34  H   UNL     3     -11.980  15.760  67.758  1.00  0.00     0.000 HD 
ENDBRANCH  26  29
ENDBRANCH  23  26
ENDBRANCH   3  23
BRANCH   3  35
HETATM   35  C   UNL     3     -12.304  12.781  63.275  1.00  0.00    -0.341 C  
HETATM   36  O   UNL     3     -13.343  11.990  63.860  1.00  0.00    -0.669 OA 
HETATM   37  H   UNL     3     -13.529  11.275  63.262  1.00  0.00     0.000 HD 
ENDBRANCH   3  35
TORSDOF 8
ENDMDL
MODEL      107
REMARK 921   NORMALIZED FREE ENERGY PREDICTED BY IDOCK:   -4.92 KCAL/MOL
REMARK 922        TOTAL FREE ENERGY PREDICTED BY IDOCK:   -9.32 KCAL/MOL
REMARK 923 INTER-LIGAND FREE ENERGY PREDICTED BY IDOCK:   -7.61 KCAL/MOL
REMARK 924 INTRA-LIGAND FREE ENERGY PREDICTED BY IDOCK:   -1.71 KCAL/MOL
REMARK 927      BINDING AFFINITY PREDICTED BY RF-SCORE:    0.00 PKD
ROOT
HETATM    1 FE   UNL     1     -12.908  15.887  68.791  1.00  0.00    -0.578 Fe 
HETATM    2  C   UNL     2     -10.824  12.224  63.459  1.00  0.00    -0.454 C  
HETATM    3  C   UNL     3      -7.708  19.552  68.600  1.00  0.00    -0.355 C  
HETATM    4  H   UNL     3      -7.972  20.746  67.084  1.00  0.00     0.000 HD 
HETATM    5  H   UNL     2     -12.295  13.536  63.318  1.00  0.00     0.000 HD 
HETATM    6  O   UNL     2     -12.193  12.593  63.265  1.00  0.00    -0.536 OA 
HETATM    7  O   UNL     3      -7.384  20.025  67.274  1.00  0.00    -0.236 OA 
ENDROOT
BRANCH   2   8
HETATM    8  C   UNL     2     -10.661  10.704  63.374  1.00  0.00     0.293 C  
HETATM    9  H   UNL     2      -9.376   9.405  62.606  1.00  0.00     0.000 HD 
HETATM   10  O   UNL     2      -9.477  10.348  62.659  1.00  0.00    -0.297 OA 
ENDBRANCH   2   8
BRANCH   2  11
HETATM   11  C   UNL     2     -10.317  12.795  64.798  1.00  0.00    -0.322 C  
HETATM   12  H   UNL     2     -10.182  14.570  65.677  1.00  0.00     0.000 HD 
HETATM   13  O   UNL     2     -10.494  14.218  64.852  1.00  0.00    -0.407 OA 
BRANCH  11  14
HETATM   14  C   UNL     2     -11.064  12.135  65.970  1.00  0.00    -0.313 C  
HETATM   15  H   UNL     2     -12.456  12.681  67.262  1.00  0.00     0.000 HD 
HETATM   16  O   UNL     2     -11.994  13.089  66.538  1.00  0.00    -0.393 OA 
BRANCH  14  17
HETATM   17  C   UNL     2     -10.167  11.635  67.098  1.00  0.00    -0.213 C  
HETATM   18  C   UNL     2      -8.741  11.331  66.603  1.00  0.00    -0.174 C  
HETATM   19  H   UNL     2     -10.188  10.097  68.328  1.00  0.00     0.000 HD 
HETATM   20  O   UNL     2     -10.747  10.409  67.625  1.00  0.00    -0.243 OA 
HETATM   21  O   UNL     2      -8.576  10.185  66.019  1.00  0.00    -0.135 OA 
HETATM   22  O   UNL     2      -7.770  11.954  67.024  1.00  0.00    -0.157 OA 
ENDBRANCH  14  17
ENDBRANCH  11  14
ENDBRANCH   2  11
BRANCH   3  23
HETATM   23  C   UNL     3      -9.193  19.208  68.582  1.00  0.00    -0.380 C  
HETATM   24  O   UNL     3      -9.890  20.296  67.963  1.00  0.00    -0.370 OA 
HETATM   25  H   UNL     3     -10.815  20.082  67.952  1.00  0.00     0.000 HD 
BRANCH  23  26
HETATM   26  C   UNL     3      -9.637  17.898  67.890  1.00  0.00    -0.286 C  
HETATM   27  O   UNL     3     -10.887  18.099  67.210  1.00  0.00    -0.353 OA 
HETATM   28  H   UNL     3     -11.160  17.294  66.784  1.00  0.00     0.000 HD 
BRANCH  26  29
HETATM   29  C   UNL     3      -9.822  16.818  68.981  1.00  0.00    -0.260 C  
HETATM   30  C   UNL     3      -9.864  15.344  68.504  1.00  0.00    -0.207 C  
HETATM   31  O   UNL     3     -11.051  17.073  69.744  1.00  0.00    -0.354 OA 
HETATM   32  O   UNL     3      -9.011  14.933  67.699  1.00  0.00    -0.172 OA 
HETATM   33  O   UNL     3     -10.850  14.705  69.075  1.00  0.00    -0.230 OA 
HETATM   34  H   UNL     3     -11.164  16.409  70.414  1.00  0.00     0.000 HD 
ENDBRANCH  26  29
ENDBRANCH  23  26
ENDBRANCH   3  23
BRANCH   3  35
HETATM   35  C   UNL     3      -6.761  18.391  68.906  1.00  0.00    -0.258 C  
HETATM   36  O   UNL     3      -5.705  18.901  69.725  1.00  0.00    -0.219 OA 
HETATM   37  H   UNL     3      -5.117  18.180  69.915  1.00  0.00     0.000 HD 
ENDBRANCH   3  35
TORSDOF 8
ENDMDL
MODEL      108
REMARK 921   NORMALIZED FREE ENERGY PREDICTED BY IDOCK:   -4.92 KCAL/MOL
REMARK 922        TOTAL FREE ENERGY PREDICTED BY IDOCK:   -9.32 KCAL/MOL
REMARK 923 INTER-LIGAND FREE ENERGY PREDICTED BY IDOCK:   -6.89 KCAL/MOL
REMARK 924 INTRA-LIGAND FREE ENERGY PREDICTED BY IDOCK:   -2.43 KCAL/MOL
REMARK 927      BINDING AFFINITY PREDICTED BY RF-SCORE:    0.00 PKD
ROOT
HETATM    1 FE   UNL     1     -10.774   9.514  65.711  1.00  0.00    -0.240 Fe 
HETATM    2  C   UNL     2      -7.023   3.859  65.333  1.00  0.00    -0.061 C  
HETATM    3  C   UNL     3     -11.747   8.728  71.952  1.00  0.00    -0.359 C  
HETATM    4  H   UNL     3     -10.068   9.227  72.804  1.00  0.00     0.000 HD 
HETATM    5  H   UNL     2      -6.216   5.659  65.235  1.00  0.00     0.000 HD 
HETATM    6  O   UNL     2      -6.340   4.917  64.654  1.00  0.00    -0.032 OA 
HETATM    7  O   UNL     3     -10.545   8.413  72.688  1.00  0.00    -0.332 OA 
ENDROOT
BRANCH   2   8
HETATM    8  C   UNL     2      -7.224   2.663  64.397  1.00  0.00    -0.054 C  
HETATM    9  H   UNL     2      -6.453   1.976  62.706  1.00  0.00     0.000 HD 
HETATM   10  O   UNL     2      -6.328   2.718  63.286  1.00  0.00    -0.017 OA 
ENDBRANCH   2   8
BRANCH   2  11
HETATM   11  C   UNL     2      -8.353   4.383  65.909  1.00  0.00    -0.113 C  
HETATM   12  H   UNL     2     -10.076   3.626  66.543  1.00  0.00     0.000 HD 
HETATM   13  O   UNL     2      -9.256   3.303  66.188  1.00  0.00    -0.154 OA 
BRANCH  11  14
HETATM   14  C   UNL     2      -8.091   5.184  67.195  1.00  0.00    -0.104 C  
HETATM   15  H   UNL     2      -7.163   4.865  68.910  1.00  0.00     0.000 HD 
HETATM   16  O   UNL     2      -7.325   4.369  68.116  1.00  0.00    -0.063 OA 
BRANCH  14  17
HETATM   17  C   UNL     2      -9.347   5.649  67.925  1.00  0.00    -0.107 C  
HETATM   18  C   UNL     2     -10.209   6.576  67.047  1.00  0.00    -0.215 C  
HETATM   19  H   UNL     2      -9.717   6.674  69.566  1.00  0.00     0.000 HD 
HETATM   20  O   UNL     2      -8.935   6.384  69.111  1.00  0.00    -0.129 OA 
HETATM   21  O   UNL     2      -9.832   7.816  66.993  1.00  0.00    -0.179 OA 
HETATM   22  O   UNL     2     -11.346   6.262  66.706  1.00  0.00    -0.229 OA 
ENDBRANCH  14  17
ENDBRANCH  11  14
ENDBRANCH   2  11
BRANCH   3  23
HETATM   23  C   UNL     3     -11.297   9.420  70.670  1.00  0.00    -0.292 C  
HETATM   24  O   UNL     3     -11.283   8.441  69.623  1.00  0.00    -0.444 OA 
HETATM   25  H   UNL     3     -11.002   8.872  68.824  1.00  0.00     0.000 HD 
BRANCH  23  26
HETATM   26  C   UNL     3     -12.100  10.643  70.172  1.00  0.00    -0.333 C  
HETATM   27  O   UNL     3     -13.459  10.263  69.897  1.00  0.00    -0.418 OA 
HETATM   28  H   UNL     3     -13.953  11.015  69.591  1.00  0.00     0.000 HD 
BRANCH  26  29
HETATM   29  C   UNL     3     -11.443  11.151  68.867  1.00  0.00    -0.295 C  
HETATM   30  C   UNL     3     -11.892  12.542  68.354  1.00  0.00    -0.304 C  
HETATM   31  O   UNL     3     -11.660  10.185  67.781  1.00  0.00    -0.627 OA 
HETATM   32  O   UNL     3     -11.959  13.498  69.146  1.00  0.00    -0.322 OA 
HETATM   33  O   UNL     3     -12.132  12.502  67.070  1.00  0.00    -0.521 OA 
HETATM   34  H   UNL     3     -11.256  10.497  66.980  1.00  0.00     0.000 HD 
ENDBRANCH  26  29
ENDBRANCH  23  26
ENDBRANCH   3  23
BRANCH   3  35
HETATM   35  C   UNL     3     -12.514   7.419  71.765  1.00  0.00    -0.336 C  
HETATM   36  O   UNL     3     -13.698   7.717  71.018  1.00  0.00    -0.606 OA 
HETATM   37  H   UNL     3     -14.175   6.903  70.902  1.00  0.00     0.000 HD 
ENDBRANCH   3  35
TORSDOF 8
ENDMDL
MODEL      109
REMARK 921   NORMALIZED FREE ENERGY PREDICTED BY IDOCK:   -4.91 KCAL/MOL
REMARK 922        TOTAL FREE ENERGY PREDICTED BY IDOCK:   -9.31 KCAL/MOL
REMARK 923 INTER-LIGAND FREE ENERGY PREDICTED BY IDOCK:   -7.63 KCAL/MOL
REMARK 924 INTRA-LIGAND FREE ENERGY PREDICTED BY IDOCK:   -1.68 KCAL/MOL
REMARK 927      BINDING AFFINITY PREDICTED BY RF-SCORE:    0.00 PKD
ROOT
HETATM    1 FE   UNL     1     -12.759  11.692  66.437  1.00  0.00     0.106 Fe 
HETATM    2  C   UNL     2      -7.293   9.035  69.478  1.00  0.00    -0.071 C  
HETATM    3  C   UNL     3     -10.283  17.554  66.591  1.00  0.00    -0.332 C  
HETATM    4  H   UNL     3      -8.919  17.576  65.199  1.00  0.00     0.000 HD 
HETATM    5  H   UNL     2      -7.658   8.760  67.556  1.00  0.00     0.000 HD 
HETATM    6  O   UNL     2      -7.632   8.231  68.344  1.00  0.00    -0.097 OA 
HETATM    7  O   UNL     3      -8.908  17.611  66.149  1.00  0.00    -0.449 OA 
ENDROOT
BRANCH   2   8
HETATM    8  C   UNL     2      -7.251   8.181  70.748  1.00  0.00    -0.050 C  
HETATM    9  H   UNL     2      -7.289   8.463  72.710  1.00  0.00     0.000 HD 
HETATM   10  O   UNL     2      -7.315   8.993  71.922  1.00  0.00    -0.317 OA 
ENDBRANCH   2   8
BRANCH   2  11
HETATM   11  C   UNL     2      -8.280  10.213  69.595  1.00  0.00    -0.165 C  
HETATM   12  H   UNL     2      -8.191  12.188  69.773  1.00  0.00     0.000 HD 
HETATM   13  O   UNL     2      -7.582  11.462  69.701  1.00  0.00     0.090 OA 
BRANCH  11  14
HETATM   14  C   UNL     2      -9.212  10.243  68.371  1.00  0.00    -0.136 C  
HETATM   15  H   UNL     2      -9.873  11.618  67.115  1.00  0.00     0.000 HD 
HETATM   16  O   UNL     2      -9.297  11.600  67.871  1.00  0.00    -0.163 OA 
BRANCH  14  17
HETATM   17  C   UNL     2     -10.633   9.758  68.638  1.00  0.00    -0.221 C  
HETATM   18  C   UNL     2     -11.521  10.878  69.211  1.00  0.00    -0.302 C  
HETATM   19  H   UNL     2     -11.451   8.374  69.776  1.00  0.00     0.000 HD 
HETATM   20  O   UNL     2     -10.566   8.676  69.609  1.00  0.00    -0.220 OA 
HETATM   21  O   UNL     2     -11.402  11.100  70.483  1.00  0.00    -0.205 OA 
HETATM   22  O   UNL     2     -12.504  11.291  68.603  1.00  0.00    -0.442 OA 
ENDBRANCH  14  17
ENDBRANCH  11  14
ENDBRANCH   2  11
BRANCH   3  23
HETATM   23  C   UNL     3     -10.877  16.288  65.982  1.00  0.00    -0.123 C  
HETATM   24  O   UNL     3     -10.794  16.405  64.556  1.00  0.00    -0.886 OA 
HETATM   25  H   UNL     3     -11.165  15.617  64.177  1.00  0.00     0.000 HD 
BRANCH  23  26
HETATM   26  C   UNL     3     -10.274  14.923  66.387  1.00  0.00    -0.284 C  
HETATM   27  O   UNL     3      -9.136  14.622  65.563  1.00  0.00    -0.345 OA 
HETATM   28  H   UNL     3      -8.766  13.783  65.812  1.00  0.00     0.000 HD 
BRANCH  26  29
HETATM   29  C   UNL     3     -11.355  13.839  66.173  1.00  0.00    -0.314 C  
HETATM   30  C   UNL     3     -11.649  13.424  64.710  1.00  0.00    -0.339 C  
HETATM   31  O   UNL     3     -12.625  14.263  66.779  1.00  0.00    -0.563 OA 
HETATM   32  O   UNL     3     -10.706  13.181  63.938  1.00  0.00    -0.361 OA 
HETATM   33  O   UNL     3     -12.937  13.370  64.498  1.00  0.00    -0.650 OA 
HETATM   34  H   UNL     3     -13.290  13.596  66.647  1.00  0.00     0.000 HD 
ENDBRANCH  26  29
ENDBRANCH  23  26
ENDBRANCH   3  23
BRANCH   3  35
HETATM   35  C   UNL     3     -10.264  17.610  68.119  1.00  0.00    -0.371 C  
HETATM   36  O   UNL     3     -10.437  18.978  68.501  1.00  0.00    -0.420 OA 
HETATM   37  H   UNL     3     -10.426  19.012  69.451  1.00  0.00     0.000 HD 
ENDBRANCH   3  35
TORSDOF 8
ENDMDL
MODEL      110
REMARK 921   NORMALIZED FREE ENERGY PREDICTED BY IDOCK:   -4.90 KCAL/MOL
REMARK 922        TOTAL FREE ENERGY PREDICTED BY IDOCK:   -9.30 KCAL/MOL
REMARK 923 INTER-LIGAND FREE ENERGY PREDICTED BY IDOCK:   -7.55 KCAL/MOL
REMARK 924 INTRA-LIGAND FREE ENERGY PREDICTED BY IDOCK:   -1.74 KCAL/MOL
REMARK 927      BINDING AFFINITY PREDICTED BY RF-SCORE:    0.00 PKD
ROOT
HETATM    1 FE   UNL     1      -7.789   9.047  66.864  1.00  0.00    -0.090 Fe 
HETATM    2  C   UNL     2     -11.102  14.964  66.423  1.00  0.00    -0.342 C  
HETATM    3  C   UNL     3     -11.687   6.939  71.433  1.00  0.00    -0.316 C  
HETATM    4  H   UNL     3     -13.347   6.477  70.524  1.00  0.00     0.000 HD 
HETATM    5  H   UNL     2     -11.258  13.571  65.032  1.00  0.00     0.000 HD 
HETATM    6  O   UNL     2     -10.896  14.446  65.105  1.00  0.00    -0.339 OA 
HETATM    7  O   UNL     3     -13.086   7.151  71.140  1.00  0.00    -0.361 OA 
ENDROOT
BRANCH   2   8
HETATM    8  C   UNL     2     -10.518  16.375  66.542  1.00  0.00    -0.282 C  
HETATM    9  H   UNL     2      -9.140  17.476  65.638  1.00  0.00     0.000 HD 
HETATM   10  O   UNL     2      -9.502  16.601  65.564  1.00  0.00    -0.482 OA 
ENDBRANCH   2   8
BRANCH   2  11
HETATM   11  C   UNL     2     -10.507  13.994  67.463  1.00  0.00    -0.252 C  
HETATM   12  H   UNL     2      -9.495  14.110  69.166  1.00  0.00     0.000 HD 
HETATM   13  O   UNL     2      -9.861  14.708  68.526  1.00  0.00    -0.216 OA 
BRANCH  11  14
HETATM   14  C   UNL     2     -11.616  13.097  68.041  1.00  0.00    -0.334 C  
HETATM   15  H   UNL     2     -12.814  13.144  69.611  1.00  0.00     0.000 HD 
HETATM   16  O   UNL     2     -12.129  13.698  69.254  1.00  0.00    -0.334 OA 
BRANCH  14  17
HETATM   17  C   UNL     2     -11.176  11.676  68.378  1.00  0.00    -0.249 C  
HETATM   18  C   UNL     2     -10.139  11.144  67.372  1.00  0.00    -0.185 C  
HETATM   19  H   UNL     2     -12.076   9.932  68.544  1.00  0.00     0.000 HD 
HETATM   20  O   UNL     2     -12.350  10.817  68.334  1.00  0.00    -0.396 OA 
HETATM   21  O   UNL     2     -10.615  10.687  66.256  1.00  0.00    -0.229 OA 
HETATM   22  O   UNL     2      -8.998  10.852  67.720  1.00  0.00    -0.136 OA 
ENDBRANCH  14  17
ENDBRANCH  11  14
ENDBRANCH   2  11
BRANCH   3  23
HETATM   23  C   UNL     3     -10.961   6.952  70.092  1.00  0.00    -0.281 C  
HETATM   24  O   UNL     3     -11.900   6.564  69.080  1.00  0.00    -0.570 OA 
HETATM   25  H   UNL     3     -11.447   6.572  68.245  1.00  0.00     0.000 HD 
BRANCH  23  26
HETATM   26  C   UNL     3     -10.280   8.263  69.636  1.00  0.00    -0.209 C  
HETATM   27  O   UNL     3     -10.693   8.595  68.300  1.00  0.00    -0.400 OA 
HETATM   28  H   UNL     3     -10.274   9.401  68.020  1.00  0.00     0.000 HD 
BRANCH  26  29
HETATM   29  C   UNL     3      -8.750   8.039  69.652  1.00  0.00    -0.133 C  
HETATM   30  C   UNL     3      -8.194   6.940  68.711  1.00  0.00    -0.121 C  
HETATM   31  O   UNL     3      -8.297   7.728  71.014  1.00  0.00    -0.110 OA 
HETATM   32  O   UNL     3      -8.576   6.892  67.529  1.00  0.00    -0.121 OA 
HETATM   33  O   UNL     3      -7.333   6.188  69.342  1.00  0.00    -0.085 OA 
HETATM   34  H   UNL     3      -7.357   7.590  71.024  1.00  0.00     0.000 HD 
ENDBRANCH  26  29
ENDBRANCH  23  26
ENDBRANCH   3  23
BRANCH   3  35
HETATM   35  C   UNL     3     -11.268   8.025  72.424  1.00  0.00    -0.369 C  
HETATM   36  O   UNL     3     -12.435   8.416  73.153  1.00  0.00    -0.609 OA 
HETATM   37  H   UNL     3     -12.175   9.091  73.769  1.00  0.00     0.000 HD 
ENDBRANCH   3  35
TORSDOF 8
ENDMDL
MODEL      111
REMARK 921   NORMALIZED FREE ENERGY PREDICTED BY IDOCK:   -4.88 KCAL/MOL
REMARK 922        TOTAL FREE ENERGY PREDICTED BY IDOCK:   -9.26 KCAL/MOL
REMARK 923 INTER-LIGAND FREE ENERGY PREDICTED BY IDOCK:   -7.47 KCAL/MOL
REMARK 924 INTRA-LIGAND FREE ENERGY PREDICTED BY IDOCK:   -1.79 KCAL/MOL
REMARK 927      BINDING AFFINITY PREDICTED BY RF-SCORE:    0.00 PKD
ROOT
HETATM    1 FE   UNL     1     -13.375  10.913  71.649  1.00  0.00    -0.323 Fe 
HETATM    2  C   UNL     2     -10.088  15.972  68.521  1.00  0.00    -0.233 C  
HETATM    3  C   UNL     3     -10.301   6.500  68.245  1.00  0.00    -0.190 C  
HETATM    4  H   UNL     3      -8.506   6.424  68.997  1.00  0.00     0.000 HD 
HETATM    5  H   UNL     2      -9.682  15.454  70.384  1.00  0.00     0.000 HD 
HETATM    6  O   UNL     2     -10.059  16.201  69.933  1.00  0.00    -0.212 OA 
HETATM    7  O   UNL     3      -8.874   6.718  68.172  1.00  0.00    -0.122 OA 
ENDROOT
BRANCH   2   8
HETATM    8  C   UNL     2     -10.696  17.175  67.795  1.00  0.00    -0.329 C  
HETATM    9  H   UNL     2     -10.083  18.635  66.603  1.00  0.00     0.000 HD 
HETATM   10  O   UNL     2      -9.705  17.889  67.053  1.00  0.00    -0.278 OA 
ENDBRANCH   2   8
BRANCH   2  11
HETATM   11  C   UNL     2     -10.843  14.663  68.221  1.00  0.00    -0.245 C  
HETATM   12  H   UNL     2     -12.729  14.057  68.082  1.00  0.00     0.000 HD 
HETATM   13  O   UNL     2     -12.263  14.864  68.267  1.00  0.00    -0.170 OA 
BRANCH  11  14
HETATM   14  C   UNL     2     -10.441  14.127  66.836  1.00  0.00    -0.272 C  
HETATM   15  H   UNL     2      -8.845  14.232  65.675  1.00  0.00     0.000 HD 
HETATM   16  O   UNL     2      -9.094  14.563  66.531  1.00  0.00    -0.258 OA 
BRANCH  14  17
HETATM   17  C   UNL     2     -11.343  14.577  65.692  1.00  0.00    -0.336 C  
HETATM   18  C   UNL     2     -11.850  13.384  64.860  1.00  0.00    -0.372 C  
HETATM   19  H   UNL     2     -11.132  15.733  64.111  1.00  0.00     0.000 HD 
HETATM   20  O   UNL     2     -10.570  15.453  64.824  1.00  0.00    -0.392 OA 
HETATM   21  O   UNL     2     -11.025  12.921  63.973  1.00  0.00    -0.376 OA 
HETATM   22  O   UNL     2     -13.045  13.110  64.792  1.00  0.00    -0.728 OA 
ENDBRANCH  14  17
ENDBRANCH  11  14
ENDBRANCH   2  11
BRANCH   3  23
HETATM   23  C   UNL     3     -10.786   7.240  69.487  1.00  0.00    -0.232 C  
HETATM   24  O   UNL     3     -11.611   6.341  70.240  1.00  0.00    -0.395 OA 
HETATM   25  H   UNL     3     -11.913   6.803  71.013  1.00  0.00     0.000 HD 
BRANCH  23  26
HETATM   26  C   UNL     3      -9.731   7.839  70.445  1.00  0.00    -0.179 C  
HETATM   27  O   UNL     3     -10.218   7.808  71.797  1.00  0.00    -0.185 OA 
HETATM   28  H   UNL     3      -9.570   8.176  72.386  1.00  0.00     0.000 HD 
BRANCH  26  29
HETATM   29  C   UNL     3      -9.485   9.308  70.029  1.00  0.00    -0.211 C  
HETATM   30  C   UNL     3     -10.737  10.169  69.729  1.00  0.00    -0.279 C  
HETATM   31  O   UNL     3      -8.615   9.361  68.847  1.00  0.00    -0.125 OA 
HETATM   32  O   UNL     3     -11.700  10.150  70.515  1.00  0.00    -0.277 OA 
HETATM   33  O   UNL     3     -10.574  10.848  68.625  1.00  0.00    -0.174 OA 
HETATM   34  H   UNL     3      -8.464  10.264  68.592  1.00  0.00     0.000 HD 
ENDBRANCH  26  29
ENDBRANCH  23  26
ENDBRANCH   3  23
BRANCH   3  35
HETATM   35  C   UNL     3     -10.894   6.973  66.917  1.00  0.00    -0.280 C  
HETATM   36  O   UNL     3     -10.565   8.358  66.768  1.00  0.00    -0.295 OA 
HETATM   37  H   UNL     3     -10.933   8.652  65.943  1.00  0.00     0.000 HD 
ENDBRANCH   3  35
TORSDOF 8
ENDMDL
MODEL      112
REMARK 921   NORMALIZED FREE ENERGY PREDICTED BY IDOCK:   -4.87 KCAL/MOL
REMARK 922        TOTAL FREE ENERGY PREDICTED BY IDOCK:   -9.25 KCAL/MOL
REMARK 923 INTER-LIGAND FREE ENERGY PREDICTED BY IDOCK:   -7.34 KCAL/MOL
REMARK 924 INTRA-LIGAND FREE ENERGY PREDICTED BY IDOCK:   -1.90 KCAL/MOL
REMARK 927      BINDING AFFINITY PREDICTED BY RF-SCORE:    0.00 PKD
ROOT
HETATM    1 FE   UNL     1      -8.296   7.657  67.025  1.00  0.00    -0.107 Fe 
HETATM    2  C   UNL     2     -10.650  13.824  65.406  1.00  0.00    -0.322 C  
HETATM    3  C   UNL     3     -12.544   7.014  71.721  1.00  0.00    -0.350 C  
HETATM    4  H   UNL     3     -14.241   6.647  70.837  1.00  0.00     0.000 HD 
HETATM    5  H   UNL     2     -10.997  12.241  64.276  1.00  0.00     0.000 HD 
HETATM    6  O   UNL     2     -10.506  13.052  64.210  1.00  0.00    -0.395 OA 
HETATM    7  O   UNL     3     -13.889   7.375  71.336  1.00  0.00    -0.393 OA 
ENDROOT
BRANCH   2   8
HETATM    8  C   UNL     2      -9.858  15.130  65.300  1.00  0.00    -0.214 C  
HETATM    9  H   UNL     2     -10.189  17.072  65.519  1.00  0.00     0.000 HD 
HETATM   10  O   UNL     2     -10.681  16.262  65.585  1.00  0.00    -0.338 OA 
ENDBRANCH   2   8
BRANCH   2  11
HETATM   11  C   UNL     2     -10.229  12.980  66.625  1.00  0.00    -0.257 C  
HETATM   12  H   UNL     2      -8.550  12.522  67.581  1.00  0.00     0.000 HD 
HETATM   13  O   UNL     2      -8.810  13.042  66.830  1.00  0.00    -0.214 OA 
BRANCH  11  14
HETATM   14  C   UNL     2     -10.956  13.475  67.886  1.00  0.00    -0.256 C  
HETATM   15  H   UNL     2     -10.439  13.981  69.725  1.00  0.00     0.000 HD 
HETATM   16  O   UNL     2      -9.989  13.675  68.946  1.00  0.00    -0.141 OA 
BRANCH  14  17
HETATM   17  C   UNL     2     -12.033  12.532  68.414  1.00  0.00    -0.221 C  
HETATM   18  C   UNL     2     -11.670  11.968  69.801  1.00  0.00    -0.319 C  
HETATM   19  H   UNL     2     -12.829  10.835  67.809  1.00  0.00     0.000 HD 
HETATM   20  O   UNL     2     -12.159  11.423  67.480  1.00  0.00    -0.592 OA 
HETATM   21  O   UNL     2     -10.847  10.966  69.807  1.00  0.00    -0.246 OA 
HETATM   22  O   UNL     2     -12.356  12.209  70.791  1.00  0.00    -0.376 OA 
ENDBRANCH  14  17
ENDBRANCH  11  14
ENDBRANCH   2  11
BRANCH   3  23
HETATM   23  C   UNL     3     -11.804   6.676  70.431  1.00  0.00    -0.346 C  
HETATM   24  O   UNL     3     -11.261   7.893  69.904  1.00  0.00    -0.419 OA 
HETATM   25  H   UNL     3     -10.800   7.683  69.101  1.00  0.00     0.000 HD 
BRANCH  23  26
HETATM   26  C   UNL     3     -10.669   5.628  70.487  1.00  0.00    -0.274 C  
HETATM   27  O   UNL     3     -10.238   5.438  71.845  1.00  0.00    -0.190 OA 
HETATM   28  H   UNL     3      -9.541   4.794  71.879  1.00  0.00     0.000 HD 
BRANCH  26  29
HETATM   29  C   UNL     3      -9.483   6.161  69.650  1.00  0.00    -0.145 C  
HETATM   30  C   UNL     3      -8.814   7.469  70.138  1.00  0.00    -0.147 C  
HETATM   31  O   UNL     3      -9.899   6.368  68.256  1.00  0.00    -0.125 OA 
HETATM   32  O   UNL     3      -8.523   7.601  71.340  1.00  0.00    -0.112 OA 
HETATM   33  O   UNL     3      -8.626   8.290  69.139  1.00  0.00    -0.135 OA 
HETATM   34  H   UNL     3      -9.170   6.695  67.741  1.00  0.00     0.000 HD 
ENDBRANCH  26  29
ENDBRANCH  23  26
ENDBRANCH   3  23
BRANCH   3  35
HETATM   35  C   UNL     3     -11.978   8.186  72.523  1.00  0.00    -0.350 C  
HETATM   36  O   UNL     3     -12.464   9.391  71.925  1.00  0.00    -0.360 OA 
HETATM   37  H   UNL     3     -12.113  10.120  72.423  1.00  0.00     0.000 HD 
ENDBRANCH   3  35
TORSDOF 8
ENDMDL
MODEL      113
REMARK 921   NORMALIZED FREE ENERGY PREDICTED BY IDOCK:   -4.87 KCAL/MOL
REMARK 922        TOTAL FREE ENERGY PREDICTED BY IDOCK:   -9.24 KCAL/MOL
REMARK 923 INTER-LIGAND FREE ENERGY PREDICTED BY IDOCK:   -7.57 KCAL/MOL
REMARK 924 INTRA-LIGAND FREE ENERGY PREDICTED BY IDOCK:   -1.67 KCAL/MOL
REMARK 927      BINDING AFFINITY PREDICTED BY RF-SCORE:    0.00 PKD
ROOT
HETATM    1 FE   UNL     1     -14.272   9.975  70.160  1.00  0.00    -0.551 Fe 
HETATM    2  C   UNL     2     -11.422  13.979  65.466  1.00  0.00    -0.318 C  
HETATM    3  C   UNL     3      -8.828   6.818  71.107  1.00  0.00    -0.137 C  
HETATM    4  H   UNL     3      -7.704   8.024  72.145  1.00  0.00     0.000 HD 
HETATM    5  H   UNL     2     -11.870  14.640  67.274  1.00  0.00     0.000 HD 
HETATM    6  O   UNL     2     -12.163  14.791  66.383  1.00  0.00    -0.216 OA 
HETATM    7  O   UNL     3      -7.679   7.681  71.260  1.00  0.00    -0.082 OA 
ENDROOT
BRANCH   2   8
HETATM    8  C   UNL     2     -11.896  14.222  64.031  1.00  0.00    -0.237 C  
HETATM    9  H   UNL     2     -12.982  15.557  63.048  1.00  0.00     0.000 HD 
HETATM   10  O   UNL     2     -12.688  15.407  63.939  1.00  0.00    -0.695 OA 
ENDBRANCH   2   8
BRANCH   2  11
HETATM   11  C   UNL     2     -11.531  12.498  65.878  1.00  0.00    -0.373 C  
HETATM   12  H   UNL     2     -12.660  10.930  65.424  1.00  0.00     0.000 HD 
HETATM   13  O   UNL     2     -12.594  11.842  65.171  1.00  0.00    -0.258 OA 
BRANCH  11  14
HETATM   14  C   UNL     2     -10.201  11.775  65.600  1.00  0.00    -0.246 C  
HETATM   15  H   UNL     2      -9.647  10.107  64.696  1.00  0.00     0.000 HD 
HETATM   16  O   UNL     2     -10.468  10.554  64.868  1.00  0.00    -0.301 OA 
BRANCH  14  17
HETATM   17  C   UNL     2      -9.404  11.403  66.846  1.00  0.00    -0.181 C  
HETATM   18  C   UNL     2      -9.314   9.877  67.033  1.00  0.00    -0.147 C  
HETATM   19  H   UNL     2      -9.584  11.743  68.778  1.00  0.00     0.000 HD 
HETATM   20  O   UNL     2     -10.080  11.974  68.001  1.00  0.00    -0.186 OA 
HETATM   21  O   UNL     2     -10.347   9.312  67.576  1.00  0.00    -0.228 OA 
HETATM   22  O   UNL     2      -8.237   9.289  66.998  1.00  0.00    -0.114 OA 
ENDBRANCH  14  17
ENDBRANCH  11  14
ENDBRANCH   2  11
BRANCH   3  23
HETATM   23  C   UNL     3     -10.049   7.662  71.456  1.00  0.00    -0.178 C  
HETATM   24  O   UNL     3     -10.687   8.040  70.230  1.00  0.00    -0.231 OA 
HETATM   25  H   UNL     3     -11.448   8.566  70.447  1.00  0.00     0.000 HD 
BRANCH  23  26
HETATM   26  C   UNL     3     -11.122   7.054  72.388  1.00  0.00    -0.259 C  
HETATM   27  O   UNL     3     -10.991   5.623  72.425  1.00  0.00    -0.234 OA 
HETATM   28  H   UNL     3     -11.650   5.250  72.999  1.00  0.00     0.000 HD 
BRANCH  26  29
HETATM   29  C   UNL     3     -12.513   7.420  71.822  1.00  0.00    -0.336 C  
HETATM   30  C   UNL     3     -13.068   8.821  72.182  1.00  0.00    -0.406 C  
HETATM   31  O   UNL     3     -13.509   6.426  72.242  1.00  0.00    -0.486 OA 
HETATM   32  O   UNL     3     -12.336   9.820  72.073  1.00  0.00    -0.354 OA 
HETATM   33  O   UNL     3     -14.317   8.738  72.555  1.00  0.00    -0.562 OA 
HETATM   34  H   UNL     3     -14.364   6.651  71.894  1.00  0.00     0.000 HD 
ENDBRANCH  26  29
ENDBRANCH  23  26
ENDBRANCH   3  23
BRANCH   3  35
HETATM   35  C   UNL     3      -8.788   6.266  69.682  1.00  0.00    -0.136 C  
HETATM   36  O   UNL     3      -8.162   7.253  68.856  1.00  0.00    -0.123 OA 
HETATM   37  H   UNL     3      -8.137   6.911  67.970  1.00  0.00     0.000 HD 
ENDBRANCH   3  35
TORSDOF 8
ENDMDL
MODEL      114
REMARK 921   NORMALIZED FREE ENERGY PREDICTED BY IDOCK:   -4.86 KCAL/MOL
REMARK 922        TOTAL FREE ENERGY PREDICTED BY IDOCK:   -9.23 KCAL/MOL
REMARK 923 INTER-LIGAND FREE ENERGY PREDICTED BY IDOCK:   -7.49 KCAL/MOL
REMARK 924 INTRA-LIGAND FREE ENERGY PREDICTED BY IDOCK:   -1.75 KCAL/MOL
REMARK 927      BINDING AFFINITY PREDICTED BY RF-SCORE:    0.00 PKD
ROOT
HETATM    1 FE   UNL     1     -11.986  17.905  67.828  1.00  0.00     0.083 Fe 
HETATM    2  C   UNL     2      -9.405  11.634  67.371  1.00  0.00    -0.168 C  
HETATM    3  C   UNL     3      -6.209  20.482  68.530  1.00  0.00    -0.322 C  
HETATM    4  H   UNL     3      -5.404  20.438  66.756  1.00  0.00     0.000 HD 
HETATM    5  H   UNL     2     -10.125  12.587  65.797  1.00  0.00     0.000 HD 
HETATM    6  O   UNL     2     -10.354  11.825  66.317  1.00  0.00    -0.213 OA 
HETATM    7  O   UNL     3      -5.239  19.991  67.578  1.00  0.00    -0.168 OA 
ENDROOT
BRANCH   2   8
HETATM    8  C   UNL     2      -9.773  10.407  68.209  1.00  0.00    -0.151 C  
HETATM    9  H   UNL     2      -8.847   9.062  69.332  1.00  0.00     0.000 HD 
HETATM   10  O   UNL     2      -8.618   9.824  68.812  1.00  0.00    -0.119 OA 
ENDBRANCH   2   8
BRANCH   2  11
HETATM   11  C   UNL     2      -9.305  12.916  68.220  1.00  0.00    -0.194 C  
HETATM   12  H   UNL     2      -7.909  13.899  69.234  1.00  0.00     0.000 HD 
HETATM   13  O   UNL     2      -7.970  13.108  68.711  1.00  0.00    -0.074 OA 
BRANCH  11  14
HETATM   14  C   UNL     2      -9.730  14.136  67.385  1.00  0.00    -0.232 C  
HETATM   15  H   UNL     2      -8.854  15.770  66.699  1.00  0.00     0.000 HD 
HETATM   16  O   UNL     2      -8.592  15.016  67.215  1.00  0.00    -0.179 OA 
BRANCH  14  17
HETATM   17  C   UNL     2     -10.865  14.959  67.987  1.00  0.00    -0.263 C  
HETATM   18  C   UNL     2     -10.398  15.770  69.209  1.00  0.00    -0.245 C  
HETATM   19  H   UNL     2     -12.619  14.553  68.786  1.00  0.00     0.000 HD 
HETATM   20  O   UNL     2     -11.912  14.041  68.411  1.00  0.00    -0.349 OA 
HETATM   21  O   UNL     2     -10.330  15.119  70.329  1.00  0.00    -0.199 OA 
HETATM   22  O   UNL     2     -10.418  16.998  69.211  1.00  0.00    -0.323 OA 
ENDBRANCH  14  17
ENDBRANCH  11  14
ENDBRANCH   2  11
BRANCH   3  23
HETATM   23  C   UNL     3      -7.580  20.240  67.909  1.00  0.00    -0.244 C  
HETATM   24  O   UNL     3      -7.595  20.865  66.619  1.00  0.00    -0.531 OA 
HETATM   25  H   UNL     3      -8.450  20.714  66.232  1.00  0.00     0.000 HD 
BRANCH  23  26
HETATM   26  C   UNL     3      -8.065  18.782  67.741  1.00  0.00    -0.255 C  
HETATM   27  O   UNL     3      -6.954  17.876  67.850  1.00  0.00    -0.198 OA 
HETATM   28  H   UNL     3      -7.252  16.980  67.747  1.00  0.00     0.000 HD 
BRANCH  26  29
HETATM   29  C   UNL     3      -8.695  18.644  66.336  1.00  0.00    -0.276 C  
HETATM   30  C   UNL     3     -10.237  18.757  66.246  1.00  0.00    -0.424 C  
HETATM   31  O   UNL     3      -8.307  17.362  65.730  1.00  0.00    -0.538 OA 
HETATM   32  O   UNL     3     -10.822  19.680  66.838  1.00  0.00    -0.483 OA 
HETATM   33  O   UNL     3     -10.724  17.807  65.494  1.00  0.00    -0.578 OA 
HETATM   34  H   UNL     3      -8.694  17.277  64.866  1.00  0.00     0.000 HD 
ENDBRANCH  26  29
ENDBRANCH  23  26
ENDBRANCH   3  23
BRANCH   3  35
HETATM   35  C   UNL     3      -5.943  19.762  69.852  1.00  0.00    -0.298 C  
HETATM   36  O   UNL     3      -6.220  20.686  70.909  1.00  0.00    -0.547 OA 
HETATM   37  H   UNL     3      -6.055  20.239  71.731  1.00  0.00     0.000 HD 
ENDBRANCH   3  35
TORSDOF 8
ENDMDL
MODEL      115
REMARK 921   NORMALIZED FREE ENERGY PREDICTED BY IDOCK:   -4.86 KCAL/MOL
REMARK 922        TOTAL FREE ENERGY PREDICTED BY IDOCK:   -9.22 KCAL/MOL
REMARK 923 INTER-LIGAND FREE ENERGY PREDICTED BY IDOCK:   -8.16 KCAL/MOL
REMARK 924 INTRA-LIGAND FREE ENERGY PREDICTED BY IDOCK:   -1.06 KCAL/MOL
REMARK 927      BINDING AFFINITY PREDICTED BY RF-SCORE:    0.00 PKD
ROOT
HETATM    1 FE   UNL     1      -8.033  13.414  69.803  1.00  0.00    -0.316 Fe 
HETATM    2  C   UNL     2     -11.223   7.669  71.540  1.00  0.00    -0.246 C  
HETATM    3  C   UNL     3     -11.799  14.248  64.740  1.00  0.00    -0.429 C  
HETATM    4  H   UNL     3     -13.503  14.861  65.459  1.00  0.00     0.000 HD 
HETATM    5  H   UNL     2     -11.465   9.349  72.552  1.00  0.00     0.000 HD 
HETATM    6  O   UNL     2     -11.081   8.493  72.702  1.00  0.00    -0.323 OA 
HETATM    7  O   UNL     3     -13.203  14.068  65.030  1.00  0.00    -0.720 OA 
ENDROOT
BRANCH   2   8
HETATM    8  C   UNL     2     -10.603   6.291  71.781  1.00  0.00    -0.225 C  
HETATM    9  H   UNL     2     -11.060   4.622  72.748  1.00  0.00     0.000 HD 
HETATM   10  O   UNL     2     -11.445   5.478  72.599  1.00  0.00    -0.296 OA 
ENDBRANCH   2   8
BRANCH   2  11
HETATM   11  C   UNL     2     -10.611   8.383  70.318  1.00  0.00    -0.227 C  
HETATM   12  H   UNL     2      -9.897  10.182  69.877  1.00  0.00     0.000 HD 
HETATM   13  O   UNL     2     -10.275   9.743  70.630  1.00  0.00    -0.279 OA 
BRANCH  11  14
HETATM   14  C   UNL     2      -9.353   7.634  69.845  1.00  0.00    -0.150 C  
HETATM   15  H   UNL     2      -7.423   8.034  69.706  1.00  0.00     0.000 HD 
HETATM   16  O   UNL     2      -8.200   8.497  69.998  1.00  0.00    -0.113 OA 
BRANCH  14  17
HETATM   17  C   UNL     2      -9.395   7.170  68.393  1.00  0.00    -0.135 C  
HETATM   18  C   UNL     2     -10.626   6.289  68.109  1.00  0.00    -0.257 C  
HETATM   19  H   UNL     2      -8.221   6.100  67.229  1.00  0.00     0.000 HD 
HETATM   20  O   UNL     2      -8.195   6.390  68.133  1.00  0.00    -0.114 OA 
HETATM   21  O   UNL     2     -10.524   5.044  68.460  1.00  0.00    -0.084 OA 
HETATM   22  O   UNL     2     -11.493   6.635  67.312  1.00  0.00    -0.206 OA 
ENDBRANCH  14  17
ENDBRANCH  11  14
ENDBRANCH   2  11
BRANCH   3  23
HETATM   23  C   UNL     3     -11.126  14.578  66.068  1.00  0.00    -0.329 C  
HETATM   24  O   UNL     3     -10.626  13.355  66.624  1.00  0.00    -0.278 OA 
HETATM   25  H   UNL     3     -10.206  13.560  67.451  1.00  0.00     0.000 HD 
BRANCH  23  26
HETATM   26  C   UNL     3      -9.977  15.612  66.074  1.00  0.00    -0.333 C  
HETATM   27  O   UNL     3      -8.709  14.941  66.153  1.00  0.00    -0.456 OA 
HETATM   28  H   UNL     3      -8.002  15.577  66.157  1.00  0.00     0.000 HD 
BRANCH  26  29
HETATM   29  C   UNL     3     -10.151  16.515  67.317  1.00  0.00    -0.273 C  
HETATM   30  C   UNL     3     -10.031  18.043  67.093  1.00  0.00    -0.325 C  
HETATM   31  O   UNL     3      -9.180  16.141  68.355  1.00  0.00    -0.193 OA 
HETATM   32  O   UNL     3     -10.636  18.576  66.146  1.00  0.00    -0.424 OA 
HETATM   33  O   UNL     3      -9.273  18.584  68.009  1.00  0.00    -0.283 OA 
HETATM   34  H   UNL     3      -9.287  16.696  69.119  1.00  0.00     0.000 HD 
ENDBRANCH  26  29
ENDBRANCH  23  26
ENDBRANCH   3  23
BRANCH   3  35
HETATM   35  C   UNL     3     -11.317  12.971  64.051  1.00  0.00    -0.410 C  
HETATM   36  O   UNL     3      -9.938  13.157  63.717  1.00  0.00    -0.741 OA 
HETATM   37  H   UNL     3      -9.638  12.363  63.289  1.00  0.00     0.000 HD 
ENDBRANCH   3  35
TORSDOF 8
ENDMDL
MODEL      116
REMARK 921   NORMALIZED FREE ENERGY PREDICTED BY IDOCK:   -4.85 KCAL/MOL
REMARK 922        TOTAL FREE ENERGY PREDICTED BY IDOCK:   -9.21 KCAL/MOL
REMARK 923 INTER-LIGAND FREE ENERGY PREDICTED BY IDOCK:   -7.59 KCAL/MOL
REMARK 924 INTRA-LIGAND FREE ENERGY PREDICTED BY IDOCK:   -1.63 KCAL/MOL
REMARK 927      BINDING AFFINITY PREDICTED BY RF-SCORE:    0.00 PKD
ROOT
HETATM    1 FE   UNL     1      -8.963  11.195  69.778  1.00  0.00    -0.362 Fe 
HETATM    2  C   UNL     2      -9.565   4.567  68.398  1.00  0.00    -0.145 C  
HETATM    3  C   UNL     3     -12.313  12.811  64.613  1.00  0.00    -0.459 C  
HETATM    4  H   UNL     3     -14.169  12.411  65.054  1.00  0.00     0.000 HD 
HETATM    5  H   UNL     2     -10.572   5.427  69.865  1.00  0.00     0.000 HD 
HETATM    6  O   UNL     2      -9.876   4.786  69.778  1.00  0.00    -0.184 OA 
HETATM    7  O   UNL     3     -13.529  12.047  64.452  1.00  0.00    -0.591 OA 
ENDROOT
BRANCH   2   8
HETATM    8  C   UNL     2      -8.444   3.535  68.259  1.00  0.00    -0.088 C  
HETATM    9  H   UNL     2      -7.477   2.249  69.417  1.00  0.00     0.000 HD 
HETATM   10  O   UNL     2      -8.173   2.890  69.504  1.00  0.00    -0.050 OA 
ENDBRANCH   2   8
BRANCH   2  11
HETATM   11  C   UNL     2      -9.216   5.909  67.725  1.00  0.00    -0.108 C  
HETATM   12  H   UNL     2      -9.020   6.615  65.880  1.00  0.00     0.000 HD 
HETATM   13  O   UNL     2      -9.235   5.789  66.295  1.00  0.00    -0.152 OA 
BRANCH  11  14
HETATM   14  C   UNL     2     -10.211   6.996  68.166  1.00  0.00    -0.181 C  
HETATM   15  H   UNL     2     -11.615   8.081  67.297  1.00  0.00     0.000 HD 
HETATM   16  O   UNL     2     -11.000   7.410  67.024  1.00  0.00    -0.332 OA 
BRANCH  14  17
HETATM   17  C   UNL     2      -9.570   8.244  68.763  1.00  0.00    -0.150 C  
HETATM   18  C   UNL     2      -8.909   9.120  67.683  1.00  0.00    -0.120 C  
HETATM   19  H   UNL     2      -8.148   8.596  70.079  1.00  0.00     0.000 HD 
HETATM   20  O   UNL     2      -8.547   7.819  69.707  1.00  0.00    -0.132 OA 
HETATM   21  O   UNL     2      -7.728   8.748  67.297  1.00  0.00    -0.095 OA 
HETATM   22  O   UNL     2      -9.302  10.260  67.453  1.00  0.00    -0.144 OA 
ENDBRANCH  14  17
ENDBRANCH  11  14
ENDBRANCH   2  11
BRANCH   3  23
HETATM   23  C   UNL     3     -11.950  12.732  66.091  1.00  0.00    -0.414 C  
HETATM   24  O   UNL     3     -11.416  11.427  66.344  1.00  0.00    -0.349 OA 
HETATM   25  H   UNL     3     -11.190  11.378  67.266  1.00  0.00     0.000 HD 
BRANCH  23  26
HETATM   26  C   UNL     3     -10.961  13.774  66.663  1.00  0.00    -0.296 C  
HETATM   27  O   UNL     3      -9.987  13.124  67.497  1.00  0.00    -0.217 OA 
HETATM   28  H   UNL     3      -9.379  13.764  67.848  1.00  0.00     0.000 HD 
BRANCH  26  29
HETATM   29  C   UNL     3     -11.765  14.783  67.515  1.00  0.00    -0.348 C  
HETATM   30  C   UNL     3     -10.982  15.986  68.098  1.00  0.00    -0.339 C  
HETATM   31  O   UNL     3     -12.418  14.093  68.636  1.00  0.00    -0.537 OA 
HETATM   32  O   UNL     3     -10.211  16.631  67.367  1.00  0.00    -0.273 OA 
HETATM   33  O   UNL     3     -11.285  16.164  69.356  1.00  0.00    -0.313 OA 
HETATM   34  H   UNL     3     -12.912  14.713  69.159  1.00  0.00     0.000 HD 
ENDBRANCH  26  29
ENDBRANCH  23  26
ENDBRANCH   3  23
BRANCH   3  35
HETATM   35  C   UNL     3     -11.285  12.225  63.645  1.00  0.00    -0.466 C  
HETATM   36  O   UNL     3     -11.966  11.278  62.816  1.00  0.00    -0.742 OA 
HETATM   37  H   UNL     3     -11.327  10.914  62.214  1.00  0.00     0.000 HD 
ENDBRANCH   3  35
TORSDOF 8
ENDMDL
MODEL      117
REMARK 921   NORMALIZED FREE ENERGY PREDICTED BY IDOCK:   -4.84 KCAL/MOL
REMARK 922        TOTAL FREE ENERGY PREDICTED BY IDOCK:   -9.20 KCAL/MOL
REMARK 923 INTER-LIGAND FREE ENERGY PREDICTED BY IDOCK:   -7.97 KCAL/MOL
REMARK 924 INTRA-LIGAND FREE ENERGY PREDICTED BY IDOCK:   -1.23 KCAL/MOL
REMARK 927      BINDING AFFINITY PREDICTED BY RF-SCORE:    0.00 PKD
ROOT
HETATM    1 FE   UNL     1     -11.005   8.274  66.081  1.00  0.00    -0.306 Fe 
HETATM    2  C   UNL     2     -10.314   5.877  72.402  1.00  0.00    -0.197 C  
HETATM    3  C   UNL     3     -11.235  14.292  68.139  1.00  0.00    -0.275 C  
HETATM    4  H   UNL     3      -9.401  14.748  68.612  1.00  0.00     0.000 HD 
HETATM    5  H   UNL     2      -8.809   5.905  71.123  1.00  0.00     0.000 HD 
HETATM    6  O   UNL     2      -9.343   5.250  71.558  1.00  0.00    -0.144 OA 
HETATM    7  O   UNL     3     -10.205  14.613  69.100  1.00  0.00    -0.231 OA 
ENDROOT
BRANCH   2   8
HETATM    8  C   UNL     2     -11.175   4.822  73.103  1.00  0.00    -0.308 C  
HETATM    9  H   UNL     2     -10.929   3.039  73.934  1.00  0.00     0.000 HD 
HETATM   10  O   UNL     2     -10.395   3.693  73.499  1.00  0.00    -0.135 OA 
ENDBRANCH   2   8
BRANCH   2  11
HETATM   11  C   UNL     2     -11.157   6.870  71.579  1.00  0.00    -0.244 C  
HETATM   12  H   UNL     2     -13.041   7.050  70.980  1.00  0.00     0.000 HD 
HETATM   13  O   UNL     2     -12.522   6.437  71.488  1.00  0.00    -0.246 OA 
BRANCH  11  14
HETATM   14  C   UNL     2     -11.098   8.268  72.219  1.00  0.00    -0.359 C  
HETATM   15  H   UNL     2     -12.132   9.256  73.582  1.00  0.00     0.000 HD 
HETATM   16  O   UNL     2     -12.169   8.393  73.187  1.00  0.00    -0.111 OA 
BRANCH  14  17
HETATM   17  C   UNL     2     -11.226   9.426  71.235  1.00  0.00    -0.367 C  
HETATM   18  C   UNL     2     -12.577  10.153  71.378  1.00  0.00    -0.422 C  
HETATM   19  H   UNL     2     -11.210   9.607  69.273  1.00  0.00     0.000 HD 
HETATM   20  O   UNL     2     -11.131   8.886  69.886  1.00  0.00    -0.226 OA 
HETATM   21  O   UNL     2     -13.586   9.593  70.788  1.00  0.00    -0.187 OA 
HETATM   22  O   UNL     2     -12.638  11.330  71.721  1.00  0.00    -0.296 OA 
ENDBRANCH  14  17
ENDBRANCH  11  14
ENDBRANCH   2  11
BRANCH   3  23
HETATM   23  C   UNL     3     -10.729  13.088  67.353  1.00  0.00    -0.245 C  
HETATM   24  O   UNL     3     -11.804  12.145  67.252  1.00  0.00    -0.530 OA 
HETATM   25  H   UNL     3     -11.488  11.395  66.762  1.00  0.00     0.000 HD 
BRANCH  23  26
HETATM   26  C   UNL     3     -10.161  13.321  65.934  1.00  0.00    -0.291 C  
HETATM   27  O   UNL     3      -8.802  13.782  66.016  1.00  0.00    -0.355 OA 
HETATM   28  H   UNL     3      -8.453  13.926  65.144  1.00  0.00     0.000 HD 
BRANCH  26  29
HETATM   29  C   UNL     3     -11.022  14.404  65.244  1.00  0.00    -0.350 C  
HETATM   30  C   UNL     3     -12.251  13.912  64.439  1.00  0.00    -0.413 C  
HETATM   31  O   UNL     3     -10.192  15.212  64.340  1.00  0.00    -0.354 OA 
HETATM   32  O   UNL     3     -13.020  13.074  64.940  1.00  0.00    -0.739 OA 
HETATM   33  O   UNL     3     -12.307  14.508  63.278  1.00  0.00    -0.460 OA 
HETATM   34  H   UNL     3     -10.721  15.877  63.916  1.00  0.00     0.000 HD 
ENDBRANCH  26  29
ENDBRANCH  23  26
ENDBRANCH   3  23
BRANCH   3  35
HETATM   35  C   UNL     3     -12.528  14.075  68.926  1.00  0.00     0.141 C  
HETATM   36  O   UNL     3     -12.178  13.966  70.309  1.00  0.00    -0.318 OA 
HETATM   37  H   UNL     3     -12.982  13.831  70.797  1.00  0.00     0.000 HD 
ENDBRANCH   3  35
TORSDOF 8
ENDMDL
MODEL      118
REMARK 921   NORMALIZED FREE ENERGY PREDICTED BY IDOCK:   -4.83 KCAL/MOL
REMARK 922        TOTAL FREE ENERGY PREDICTED BY IDOCK:   -9.19 KCAL/MOL
REMARK 923 INTER-LIGAND FREE ENERGY PREDICTED BY IDOCK:   -6.82 KCAL/MOL
REMARK 924 INTRA-LIGAND FREE ENERGY PREDICTED BY IDOCK:   -2.37 KCAL/MOL
REMARK 927      BINDING AFFINITY PREDICTED BY RF-SCORE:    0.00 PKD
ROOT
HETATM    1 FE   UNL     1      -7.067   8.435  67.730  1.00  0.00    -0.067 Fe 
HETATM    2  C   UNL     2     -12.008  12.634  65.697  1.00  0.00    -0.452 C  
HETATM    3  C   UNL     3     -10.605   6.224  72.537  1.00  0.00    -0.212 C  
HETATM    4  H   UNL     3     -11.913   5.038  71.713  1.00  0.00     0.000 HD 
HETATM    5  H   UNL     2     -11.550  10.994  64.695  1.00  0.00     0.000 HD 
HETATM    6  O   UNL     2     -11.496  11.933  64.560  1.00  0.00    -0.327 OA 
HETATM    7  O   UNL     3     -11.954   5.881  72.150  1.00  0.00    -0.274 OA 
ENDROOT
BRANCH   2   8
HETATM    8  C   UNL     2     -11.920  14.147  65.479  1.00  0.00    -0.391 C  
HETATM    9  H   UNL     2     -12.394  15.459  64.071  1.00  0.00     0.000 HD 
HETATM   10  O   UNL     2     -12.448  14.520  64.206  1.00  0.00    -0.657 OA 
ENDBRANCH   2   8
BRANCH   2  11
HETATM   11  C   UNL     2     -11.264  12.180  66.968  1.00  0.00    -0.314 C  
HETATM   12  H   UNL     2     -11.631  11.046  68.556  1.00  0.00     0.000 HD 
HETATM   13  O   UNL     2     -12.090  11.327  67.773  1.00  0.00    -0.631 OA 
BRANCH  11  14
HETATM   14  C   UNL     2      -9.972  11.437  66.585  1.00  0.00    -0.208 C  
HETATM   15  H   UNL     2      -9.473   9.575  66.152  1.00  0.00     0.000 HD 
HETATM   16  O   UNL     2     -10.271  10.033  66.389  1.00  0.00    -0.236 OA 
BRANCH  14  17
HETATM   17  C   UNL     2      -8.851  11.532  67.615  1.00  0.00    -0.152 C  
HETATM   18  C   UNL     2      -7.478  11.739  66.950  1.00  0.00    -0.106 C  
HETATM   19  H   UNL     2      -8.123  10.345  69.008  1.00  0.00     0.000 HD 
HETATM   20  O   UNL     2      -8.821  10.286  68.366  1.00  0.00    -0.122 OA 
HETATM   21  O   UNL     2      -6.906  10.670  66.488  1.00  0.00    -0.107 OA 
HETATM   22  O   UNL     2      -6.819  12.757  67.142  1.00  0.00    -0.122 OA 
ENDBRANCH  14  17
ENDBRANCH  11  14
ENDBRANCH   2  11
BRANCH   3  23
HETATM   23  C   UNL     3      -9.768   6.178  71.263  1.00  0.00    -0.175 C  
HETATM   24  O   UNL     3      -8.862   5.072  71.371  1.00  0.00    -0.130 OA 
HETATM   25  H   UNL     3      -8.341   5.045  70.577  1.00  0.00     0.000 HD 
BRANCH  23  26
HETATM   26  C   UNL     3     -10.499   6.068  69.905  1.00  0.00    -0.249 C  
HETATM   27  O   UNL     3     -10.323   4.752  69.355  1.00  0.00    -0.177 OA 
HETATM   28  H   UNL     3     -10.772   4.684  68.520  1.00  0.00     0.000 HD 
BRANCH  26  29
HETATM   29  C   UNL     3      -9.882   7.107  68.942  1.00  0.00    -0.156 C  
HETATM   30  C   UNL     3      -9.923   6.770  67.430  1.00  0.00    -0.148 C  
HETATM   31  O   UNL     3      -8.480   7.363  69.302  1.00  0.00    -0.134 OA 
HETATM   32  O   UNL     3     -10.978   6.356  66.921  1.00  0.00    -0.370 OA 
HETATM   33  O   UNL     3      -8.764   7.005  66.875  1.00  0.00    -0.117 OA 
HETATM   34  H   UNL     3      -8.101   8.001  68.710  1.00  0.00     0.000 HD 
ENDBRANCH  26  29
ENDBRANCH  23  26
ENDBRANCH   3  23
BRANCH   3  35
HETATM   35  C   UNL     3     -10.671   7.580  73.239  1.00  0.00    -0.382 C  
HETATM   36  O   UNL     3      -9.525   7.681  74.090  1.00  0.00    -0.408 OA 
HETATM   37  H   UNL     3      -9.567   8.524  74.526  1.00  0.00     0.000 HD 
ENDBRANCH   3  35
TORSDOF 8
ENDMDL
MODEL      119
REMARK 921   NORMALIZED FREE ENERGY PREDICTED BY IDOCK:   -4.82 KCAL/MOL
REMARK 922        TOTAL FREE ENERGY PREDICTED BY IDOCK:   -9.17 KCAL/MOL
REMARK 923 INTER-LIGAND FREE ENERGY PREDICTED BY IDOCK:   -6.80 KCAL/MOL
REMARK 924 INTRA-LIGAND FREE ENERGY PREDICTED BY IDOCK:   -2.37 KCAL/MOL
REMARK 927      BINDING AFFINITY PREDICTED BY RF-SCORE:    0.00 PKD
ROOT
HETATM    1 FE   UNL     1      -7.783  10.936  64.589  1.00  0.00    -0.218 Fe 
HETATM    2  C   UNL     2     -10.769  16.868  66.029  1.00  0.00    -0.125 C  
HETATM    3  C   UNL     3     -10.079   8.231  69.873  1.00  0.00    -0.195 C  
HETATM    4  H   UNL     3     -11.965   7.903  69.508  1.00  0.00     0.000 HD 
HETATM    5  H   UNL     2     -11.437  15.680  64.599  1.00  0.00     0.000 HD 
HETATM    6  O   UNL     2     -11.029  16.536  64.662  1.00  0.00    -0.732 OA 
HETATM    7  O   UNL     3     -11.486   8.486  70.086  1.00  0.00    -0.154 OA 
ENDROOT
BRANCH   2   8
HETATM    8  C   UNL     2     -10.112  18.247  66.131  1.00  0.00    -0.346 C  
HETATM    9  H   UNL     2     -10.444  19.969  67.054  1.00  0.00     0.000 HD 
HETATM   10  O   UNL     2     -10.853  19.114  66.991  1.00  0.00    -0.455 OA 
ENDBRANCH   2   8
BRANCH   2  11
HETATM   11  C   UNL     2      -9.917  15.762  66.681  1.00  0.00    -0.257 C  
HETATM   12  H   UNL     2      -8.681  15.581  68.224  1.00  0.00     0.000 HD 
HETATM   13  O   UNL     2      -9.206  16.263  67.822  1.00  0.00    -0.202 OA 
BRANCH  11  14
HETATM   14  C   UNL     2     -10.814  14.586  67.106  1.00  0.00    -0.296 C  
HETATM   15  H   UNL     2     -11.751  14.030  68.754  1.00  0.00     0.000 HD 
HETATM   16  O   UNL     2     -11.197  14.757  68.492  1.00  0.00    -0.253 OA 
BRANCH  14  17
HETATM   17  C   UNL     2     -10.170  13.210  66.969  1.00  0.00    -0.250 C  
HETATM   18  C   UNL     2     -10.715  12.442  65.751  1.00  0.00    -0.267 C  
HETATM   19  H   UNL     2     -10.072  11.591  68.087  1.00  0.00     0.000 HD 
HETATM   20  O   UNL     2     -10.473  12.449  68.172  1.00  0.00    -0.206 OA 
HETATM   21  O   UNL     2     -11.854  11.846  65.920  1.00  0.00    -0.466 OA 
HETATM   22  O   UNL     2      -9.986  12.124  64.814  1.00  0.00    -0.255 OA 
ENDBRANCH  14  17
ENDBRANCH  11  14
ENDBRANCH   2  11
BRANCH   3  23
HETATM   23  C   UNL     3      -9.830   8.426  68.381  1.00  0.00    -0.176 C  
HETATM   24  O   UNL     3     -10.838   9.313  67.879  1.00  0.00    -0.427 OA 
HETATM   25  H   UNL     3     -10.682   9.434  66.949  1.00  0.00     0.000 HD 
BRANCH  23  26
HETATM   26  C   UNL     3      -8.452   8.962  67.929  1.00  0.00    -0.125 C  
HETATM   27  O   UNL     3      -8.615  10.185  67.192  1.00  0.00    -0.125 OA 
HETATM   28  H   UNL     3      -7.768  10.514  66.914  1.00  0.00     0.000 HD 
BRANCH  26  29
HETATM   29  C   UNL     3      -7.801   7.901  67.012  1.00  0.00    -0.108 C  
HETATM   30  C   UNL     3      -8.431   7.708  65.610  1.00  0.00    -0.142 C  
HETATM   31  O   UNL     3      -7.792   6.592  67.680  1.00  0.00    -0.107 OA 
HETATM   32  O   UNL     3      -8.700   8.702  64.914  1.00  0.00    -0.169 OA 
HETATM   33  O   UNL     3      -8.579   6.437  65.345  1.00  0.00    -0.146 OA 
HETATM   34  H   UNL     3      -7.392   5.940  67.116  1.00  0.00     0.000 HD 
ENDBRANCH  26  29
ENDBRANCH  23  26
ENDBRANCH   3  23
BRANCH   3  35
HETATM   35  C   UNL     3      -9.309   9.168  70.803  1.00  0.00    -0.264 C  
HETATM   36  O   UNL     3      -9.204  10.436  70.147  1.00  0.00    -0.338 OA 
HETATM   37  H   UNL     3      -8.725  11.018  70.725  1.00  0.00     0.000 HD 
ENDBRANCH   3  35
TORSDOF 8
ENDMDL
MODEL      120
REMARK 921   NORMALIZED FREE ENERGY PREDICTED BY IDOCK:   -4.78 KCAL/MOL
REMARK 922        TOTAL FREE ENERGY PREDICTED BY IDOCK:   -9.12 KCAL/MOL
REMARK 923 INTER-LIGAND FREE ENERGY PREDICTED BY IDOCK:   -7.70 KCAL/MOL
REMARK 924 INTRA-LIGAND FREE ENERGY PREDICTED BY IDOCK:   -1.41 KCAL/MOL
REMARK 927      BINDING AFFINITY PREDICTED BY RF-SCORE:    0.00 PKD
ROOT
HETATM    1 FE   UNL     1      -7.139  13.938  71.182  1.00  0.00    -0.387 Fe 
HETATM    2  C   UNL     2     -10.257  15.587  65.372  1.00  0.00    -0.377 C  
HETATM    3  C   UNL     3      -9.138   7.906  70.812  1.00  0.00    -0.152 C  
HETATM    4  H   UNL     3      -8.031   7.078  69.439  1.00  0.00     0.000 HD 
HETATM    5  H   UNL     2      -8.294  15.396  65.489  1.00  0.00     0.000 HD 
HETATM    6  O   UNL     2      -8.920  16.096  65.344  1.00  0.00    -0.172 OA 
HETATM    7  O   UNL     3      -8.949   7.315  69.507  1.00  0.00    -0.143 OA 
ENDROOT
BRANCH   2   8
HETATM    8  C   UNL     2     -11.265  16.716  65.139  1.00  0.00     0.022 C  
HETATM    9  H   UNL     2     -12.439  17.358  63.677  1.00  0.00     0.000 HD 
HETATM   10  O   UNL     2     -11.813  16.658  63.821  1.00  0.00    -0.933 OA 
ENDBRANCH   2   8
BRANCH   2  11
HETATM   11  C   UNL     2     -10.504  14.845  66.701  1.00  0.00    -0.292 C  
HETATM   12  H   UNL     2     -10.907  15.312  68.587  1.00  0.00     0.000 HD 
HETATM   13  O   UNL     2     -10.755  15.769  67.769  1.00  0.00    -0.291 OA 
BRANCH  11  14
HETATM   14  C   UNL     2     -11.697  13.886  66.555  1.00  0.00    -0.393 C  
HETATM   15  H   UNL     2     -12.933  12.950  67.780  1.00  0.00     0.000 HD 
HETATM   16  O   UNL     2     -12.196  13.543  67.871  1.00  0.00    -0.305 OA 
BRANCH  14  17
HETATM   17  C   UNL     2     -11.384  12.584  65.825  1.00  0.00    -0.336 C  
HETATM   18  C   UNL     2     -11.941  12.584  64.389  1.00  0.00    -0.404 C  
HETATM   19  H   UNL     2     -11.807  10.681  66.108  1.00  0.00     0.000 HD 
HETATM   20  O   UNL     2     -12.002  11.492  66.563  1.00  0.00    -0.386 OA 
HETATM   21  O   UNL     2     -13.200  12.299  64.270  1.00  0.00    -0.785 OA 
HETATM   22  O   UNL     2     -11.199  12.516  63.413  1.00  0.00    -0.469 OA 
ENDBRANCH  14  17
ENDBRANCH  11  14
ENDBRANCH   2  11
BRANCH   3  23
HETATM   23  C   UNL     3      -8.147   9.061  70.907  1.00  0.00    -0.169 C  
HETATM   24  O   UNL     3      -7.149   8.706  71.873  1.00  0.00    -0.095 OA 
HETATM   25  H   UNL     3      -6.532   9.427  71.932  1.00  0.00     0.000 HD 
BRANCH  23  26
HETATM   26  C   UNL     3      -7.426   9.521  69.619  1.00  0.00    -0.092 C  
HETATM   27  O   UNL     3      -6.049   9.817  69.904  1.00  0.00    -0.039 OA 
HETATM   28  H   UNL     3      -5.605  10.100  69.112  1.00  0.00     0.000 HD 
BRANCH  26  29
HETATM   29  C   UNL     3      -8.125  10.802  69.109  1.00  0.00    -0.131 C  
HETATM   30  C   UNL     3      -8.395  10.892  67.586  1.00  0.00    -0.116 C  
HETATM   31  O   UNL     3      -7.350  11.990  69.494  1.00  0.00    -0.335 OA 
HETATM   32  O   UNL     3      -8.894   9.922  66.991  1.00  0.00    -0.133 OA 
HETATM   33  O   UNL     3      -8.048  12.065  67.127  1.00  0.00    -0.165 OA 
HETATM   34  H   UNL     3      -7.779  12.777  69.180  1.00  0.00     0.000 HD 
ENDBRANCH  26  29
ENDBRANCH  23  26
ENDBRANCH   3  23
BRANCH   3  35
HETATM   35  C   UNL     3     -10.614   8.287  70.921  1.00  0.00    -0.207 C  
HETATM   36  O   UNL     3     -11.141   8.353  69.592  1.00  0.00    -0.420 OA 
HETATM   37  H   UNL     3     -12.059   8.590  69.660  1.00  0.00     0.000 HD 
ENDBRANCH   3  35
TORSDOF 8
ENDMDL
MODEL      121
REMARK 921   NORMALIZED FREE ENERGY PREDICTED BY IDOCK:   -4.77 KCAL/MOL
REMARK 922        TOTAL FREE ENERGY PREDICTED BY IDOCK:   -9.10 KCAL/MOL
REMARK 923 INTER-LIGAND FREE ENERGY PREDICTED BY IDOCK:   -7.87 KCAL/MOL
REMARK 924 INTRA-LIGAND FREE ENERGY PREDICTED BY IDOCK:   -1.23 KCAL/MOL
REMARK 927      BINDING AFFINITY PREDICTED BY RF-SCORE:    0.00 PKD
ROOT
HETATM    1 FE   UNL     1      -7.919   8.724  67.284  1.00  0.00    -0.089 Fe 
HETATM    2  C   UNL     2     -11.816  13.784  64.960  1.00  0.00    -0.366 C  
HETATM    3  C   UNL     3     -12.202   7.152  71.721  1.00  0.00    -0.344 C  
HETATM    4  H   UNL     3     -13.630   6.236  70.761  1.00  0.00     0.000 HD 
HETATM    5  H   UNL     2     -11.581  12.098  63.957  1.00  0.00     0.000 HD 
HETATM    6  O   UNL     2     -11.344  13.013  63.851  1.00  0.00    -0.392 OA 
HETATM    7  O   UNL     3     -13.553   7.068  71.214  1.00  0.00    -0.319 OA 
ENDROOT
BRANCH   2   8
HETATM    8  C   UNL     2     -11.434  15.257  64.790  1.00  0.00    -0.363 C  
HETATM    9  H   UNL     2     -11.962  16.789  63.649  1.00  0.00     0.000 HD 
HETATM   10  O   UNL     2     -12.199  15.875  63.754  1.00  0.00    -0.817 OA 
ENDBRANCH   2   8
BRANCH   2  11
HETATM   11  C   UNL     2     -11.279  13.186  66.276  1.00  0.00    -0.301 C  
HETATM   12  H   UNL     2     -10.450  11.488  66.883  1.00  0.00     0.000 HD 
HETATM   13  O   UNL     2     -10.781  11.856  66.073  1.00  0.00    -0.265 OA 
BRANCH  11  14
HETATM   14  C   UNL     2     -10.160  14.077  66.841  1.00  0.00    -0.259 C  
HETATM   15  H   UNL     2      -8.201  13.939  67.061  1.00  0.00     0.000 HD 
HETATM   16  O   UNL     2      -8.892  13.388  66.711  1.00  0.00    -0.213 OA 
BRANCH  14  17
HETATM   17  C   UNL     2     -10.329  14.462  68.307  1.00  0.00    -0.239 C  
HETATM   18  C   UNL     2     -11.491  15.452  68.509  1.00  0.00    -0.350 C  
HETATM   19  H   UNL     2      -9.203  15.334  69.667  1.00  0.00     0.000 HD 
HETATM   20  O   UNL     2      -9.097  15.095  68.754  1.00  0.00    -0.182 OA 
HETATM   21  O   UNL     2     -11.225  16.696  68.256  1.00  0.00    -0.349 OA 
HETATM   22  O   UNL     2     -12.478  15.156  69.177  1.00  0.00    -0.102 OA 
ENDBRANCH  14  17
ENDBRANCH  11  14
ENDBRANCH   2  11
BRANCH   3  23
HETATM   23  C   UNL     3     -11.282   6.966  70.520  1.00  0.00    -0.307 C  
HETATM   24  O   UNL     3     -12.097   6.644  69.386  1.00  0.00    -0.473 OA 
HETATM   25  H   UNL     3     -11.523   6.528  68.638  1.00  0.00     0.000 HD 
BRANCH  23  26
HETATM   26  C   UNL     3     -10.346   8.131  70.122  1.00  0.00    -0.215 C  
HETATM   27  O   UNL     3     -10.497   8.430  68.725  1.00  0.00    -0.220 OA 
HETATM   28  H   UNL     3      -9.922   9.146  68.480  1.00  0.00     0.000 HD 
BRANCH  26  29
HETATM   29  C   UNL     3      -8.889   7.690  70.391  1.00  0.00    -0.144 C  
HETATM   30  C   UNL     3      -8.419   6.378  69.713  1.00  0.00    -0.127 C  
HETATM   31  O   UNL     3      -8.660   7.550  71.835  1.00  0.00    -0.106 OA 
HETATM   32  O   UNL     3      -8.661   6.188  68.508  1.00  0.00    -0.113 OA 
HETATM   33  O   UNL     3      -7.778   5.624  70.565  1.00  0.00    -0.089 OA 
HETATM   34  H   UNL     3      -7.764   7.278  72.000  1.00  0.00     0.000 HD 
ENDBRANCH  26  29
ENDBRANCH  23  26
ENDBRANCH   3  23
BRANCH   3  35
HETATM   35  C   UNL     3     -12.080   8.489  72.450  1.00  0.00    -0.367 C  
HETATM   36  O   UNL     3     -13.204   8.605  73.328  1.00  0.00    -0.758 OA 
HETATM   37  H   UNL     3     -13.128   9.437  73.782  1.00  0.00     0.000 HD 
ENDBRANCH   3  35
TORSDOF 8
ENDMDL
MODEL      122
REMARK 921   NORMALIZED FREE ENERGY PREDICTED BY IDOCK:   -4.77 KCAL/MOL
REMARK 922        TOTAL FREE ENERGY PREDICTED BY IDOCK:   -9.09 KCAL/MOL
REMARK 923 INTER-LIGAND FREE ENERGY PREDICTED BY IDOCK:   -7.72 KCAL/MOL
REMARK 924 INTRA-LIGAND FREE ENERGY PREDICTED BY IDOCK:   -1.37 KCAL/MOL
REMARK 927      BINDING AFFINITY PREDICTED BY RF-SCORE:    0.00 PKD
ROOT
HETATM    1 FE   UNL     1      -9.858  12.237  63.458  1.00  0.00    -0.295 Fe 
HETATM    2  C   UNL     2      -6.264   9.034  68.255  1.00  0.00    -0.054 C  
HETATM    3  C   UNL     3     -10.347  17.497  67.008  1.00  0.00    -0.324 C  
HETATM    4  H   UNL     3      -8.595  18.344  66.920  1.00  0.00     0.000 HD 
HETATM    5  H   UNL     2      -5.431   9.699  66.592  1.00  0.00     0.000 HD 
HETATM    6  O   UNL     2      -5.616   8.858  66.992  1.00  0.00    -0.040 OA 
HETATM    7  O   UNL     3      -9.096  17.910  67.601  1.00  0.00    -0.247 OA 
ENDROOT
BRANCH   2   8
HETATM    8  C   UNL     2      -6.563   7.677  68.899  1.00  0.00    -0.049 C  
HETATM    9  H   UNL     2      -6.641   5.775  68.348  1.00  0.00     0.000 HD 
HETATM   10  O   UNL     2      -6.456   6.617  67.948  1.00  0.00    -0.051 OA 
ENDBRANCH   2   8
BRANCH   2  11
HETATM   11  C   UNL     2      -7.533   9.890  68.074  1.00  0.00    -0.085 C  
HETATM   12  H   UNL     2      -8.028  11.617  67.230  1.00  0.00     0.000 HD 
HETATM   13  O   UNL     2      -7.246  11.090  67.342  1.00  0.00    -0.094 OA 
BRANCH  11  14
HETATM   14  C   UNL     2      -8.614   9.080  67.336  1.00  0.00    -0.115 C  
HETATM   15  H   UNL     2      -9.283   8.953  65.481  1.00  0.00     0.000 HD 
HETATM   16  O   UNL     2      -8.615   9.453  65.936  1.00  0.00    -0.131 OA 
BRANCH  14  17
HETATM   17  C   UNL     2     -10.030   9.274  67.868  1.00  0.00    -0.187 C  
HETATM   18  C   UNL     2     -10.106   9.053  69.390  1.00  0.00    -0.198 C  
HETATM   19  H   UNL     2     -11.777   8.423  67.545  1.00  0.00     0.000 HD 
HETATM   20  O   UNL     2     -10.895   8.302  67.214  1.00  0.00    -0.232 OA 
HETATM   21  O   UNL     2     -10.172   7.819  69.781  1.00  0.00    -0.201 OA 
HETATM   22  O   UNL     2     -10.425   9.960  70.154  1.00  0.00    -0.251 OA 
ENDBRANCH  14  17
ENDBRANCH  11  14
ENDBRANCH   2  11
BRANCH   3  23
HETATM   23  C   UNL     3      -9.986  16.637  65.802  1.00  0.00    -0.243 C  
HETATM   24  O   UNL     3      -8.557  16.590  65.706  1.00  0.00    -0.442 OA 
HETATM   25  H   UNL     3      -8.333  16.055  64.954  1.00  0.00     0.000 HD 
BRANCH  23  26
HETATM   26  C   UNL     3     -10.518  15.186  65.746  1.00  0.00    -0.339 C  
HETATM   27  O   UNL     3      -9.529  14.320  65.166  1.00  0.00    -0.458 OA 
HETATM   28  H   UNL     3      -9.856  13.428  65.132  1.00  0.00     0.000 HD 
BRANCH  26  29
HETATM   29  C   UNL     3     -11.785  15.173  64.860  1.00  0.00    -0.290 C  
HETATM   30  C   UNL     3     -12.218  13.803  64.280  1.00  0.00    -0.400 C  
HETATM   31  O   UNL     3     -11.625  16.102  63.733  1.00  0.00    -1.390 OA 
HETATM   32  O   UNL     3     -12.260  12.806  65.021  1.00  0.00    -0.419 OA 
HETATM   33  O   UNL     3     -12.513  13.914  63.012  1.00  0.00    -0.689 OA 
HETATM   34  H   UNL     3     -12.404  16.094  63.188  1.00  0.00     0.000 HD 
ENDBRANCH  26  29
ENDBRANCH  23  26
ENDBRANCH   3  23
BRANCH   3  35
HETATM   35  C   UNL     3     -11.153  16.798  68.104  1.00  0.00    -0.254 C  
HETATM   36  O   UNL     3     -10.230  16.368  69.109  1.00  0.00    -0.247 OA 
HETATM   37  H   UNL     3     -10.730  15.934  69.790  1.00  0.00     0.000 HD 
ENDBRANCH   3  35
TORSDOF 8
ENDMDL
MODEL      123
REMARK 921   NORMALIZED FREE ENERGY PREDICTED BY IDOCK:   -4.77 KCAL/MOL
REMARK 922        TOTAL FREE ENERGY PREDICTED BY IDOCK:   -9.09 KCAL/MOL
REMARK 923 INTER-LIGAND FREE ENERGY PREDICTED BY IDOCK:   -7.52 KCAL/MOL
REMARK 924 INTRA-LIGAND FREE ENERGY PREDICTED BY IDOCK:   -1.58 KCAL/MOL
REMARK 927      BINDING AFFINITY PREDICTED BY RF-SCORE:    0.00 PKD
ROOT
HETATM    1 FE   UNL     1     -11.410   7.382  66.369  1.00  0.00    -0.368 Fe 
HETATM    2  C   UNL     2      -7.456   5.191  71.444  1.00  0.00    -0.091 C  
HETATM    3  C   UNL     3     -11.097  13.401  68.415  1.00  0.00    -0.273 C  
HETATM    4  H   UNL     3      -9.318  14.023  67.920  1.00  0.00     0.000 HD 
HETATM    5  H   UNL     2      -6.798   5.321  69.586  1.00  0.00     0.000 HD 
HETATM    6  O   UNL     2      -6.986   4.632  70.213  1.00  0.00    -0.042 OA 
HETATM    7  O   UNL     3      -9.756  13.830  68.741  1.00  0.00    -0.176 OA 
ENDROOT
BRANCH   2   8
HETATM    8  C   UNL     2      -7.759   4.081  72.455  1.00  0.00    -0.080 C  
HETATM    9  H   UNL     2      -8.310   2.178  72.426  1.00  0.00     0.000 HD 
HETATM   10  O   UNL     2      -8.122   2.866  71.799  1.00  0.00    -0.056 OA 
ENDBRANCH   2   8
BRANCH   2  11
HETATM   11  C   UNL     2      -8.678   6.090  71.175  1.00  0.00    -0.132 C  
HETATM   12  H   UNL     2      -9.560   7.656  72.017  1.00  0.00     0.000 HD 
HETATM   13  O   UNL     2      -8.807   7.102  72.183  1.00  0.00    -0.128 OA 
BRANCH  11  14
HETATM   14  C   UNL     2      -8.552   6.750  69.791  1.00  0.00    -0.141 C  
HETATM   15  H   UNL     2      -7.459   8.189  68.992  1.00  0.00     0.000 HD 
HETATM   16  O   UNL     2      -7.536   7.781  69.847  1.00  0.00    -0.086 OA 
BRANCH  14  17
HETATM   17  C   UNL     2      -9.835   7.392  69.271  1.00  0.00    -0.168 C  
HETATM   18  C   UNL     2     -10.953   6.353  69.069  1.00  0.00    -0.348 C  
HETATM   19  H   UNL     2     -10.339   8.413  67.664  1.00  0.00     0.000 HD 
HETATM   20  O   UNL     2      -9.541   8.013  67.988  1.00  0.00    -0.148 OA 
HETATM   21  O   UNL     2     -10.898   5.668  67.969  1.00  0.00    -0.204 OA 
HETATM   22  O   UNL     2     -11.997   6.400  69.714  1.00  0.00    -0.257 OA 
ENDBRANCH  14  17
ENDBRANCH  11  14
ENDBRANCH   2  11
BRANCH   3  23
HETATM   23  C   UNL     3     -10.949  12.228  67.451  1.00  0.00    -0.253 C  
HETATM   24  O   UNL     3     -12.137  11.431  67.543  1.00  0.00    -0.592 OA 
HETATM   25  H   UNL     3     -12.045  10.701  66.943  1.00  0.00     0.000 HD 
BRANCH  23  26
HETATM   26  C   UNL     3     -10.689  12.531  65.958  1.00  0.00    -0.262 C  
HETATM   27  O   UNL     3      -9.714  13.579  65.829  1.00  0.00    -0.433 OA 
HETATM   28  H   UNL     3      -9.554  13.765  64.911  1.00  0.00     0.000 HD 
BRANCH  26  29
HETATM   29  C   UNL     3     -12.020  12.996  65.323  1.00  0.00    -0.407 C  
HETATM   30  C   UNL     3     -12.185  12.768  63.800  1.00  0.00    -0.489 C  
HETATM   31  O   UNL     3     -12.234  14.426  65.585  1.00  0.00    -0.384 OA 
HETATM   32  O   UNL     3     -11.891  11.666  63.307  1.00  0.00    -0.359 OA 
HETATM   33  O   UNL     3     -12.659  13.841  63.224  1.00  0.00    -0.830 OA 
HETATM   34  H   UNL     3     -13.052  14.712  65.194  1.00  0.00     0.000 HD 
ENDBRANCH  26  29
ENDBRANCH  23  26
ENDBRANCH   3  23
BRANCH   3  35
HETATM   35  C   UNL     3     -11.801  13.090  69.735  1.00  0.00    -0.311 C  
HETATM   36  O   UNL     3     -11.363  11.797  70.163  1.00  0.00    -0.497 OA 
HETATM   37  H   UNL     3     -11.801  11.603  70.984  1.00  0.00     0.000 HD 
ENDBRANCH   3  35
TORSDOF 8
ENDMDL
MODEL      124
REMARK 921   NORMALIZED FREE ENERGY PREDICTED BY IDOCK:   -4.76 KCAL/MOL
REMARK 922        TOTAL FREE ENERGY PREDICTED BY IDOCK:   -9.08 KCAL/MOL
REMARK 923 INTER-LIGAND FREE ENERGY PREDICTED BY IDOCK:   -7.23 KCAL/MOL
REMARK 924 INTRA-LIGAND FREE ENERGY PREDICTED BY IDOCK:   -1.85 KCAL/MOL
REMARK 927      BINDING AFFINITY PREDICTED BY RF-SCORE:    0.00 PKD
ROOT
HETATM    1 FE   UNL     1     -13.249   9.953  69.925  1.00  0.00    -0.542 Fe 
HETATM    2  C   UNL     2     -10.485  14.430  65.623  1.00  0.00    -0.334 C  
HETATM    3  C   UNL     3      -9.675   5.205  67.646  1.00  0.00    -0.148 C  
HETATM    4  H   UNL     3      -7.892   5.507  68.371  1.00  0.00     0.000 HD 
HETATM    5  H   UNL     2     -10.050  14.424  67.550  1.00  0.00     0.000 HD 
HETATM    6  O   UNL     2     -10.499  14.995  66.938  1.00  0.00    -0.269 OA 
HETATM    7  O   UNL     3      -8.279   5.551  67.504  1.00  0.00    -0.101 OA 
ENDROOT
BRANCH   2   8
HETATM    8  C   UNL     2     -11.209  15.349  64.636  1.00  0.00    -0.364 C  
HETATM    9  H   UNL     2     -11.160  17.256  64.097  1.00  0.00     0.000 HD 
HETATM   10  O   UNL     2     -10.710  16.686  64.709  1.00  0.00    -0.721 OA 
ENDBRANCH   2   8
BRANCH   2  11
HETATM   11  C   UNL     2     -11.091  13.013  65.659  1.00  0.00    -0.276 C  
HETATM   12  H   UNL     2     -12.890  12.193  65.844  1.00  0.00     0.000 HD 
HETATM   13  O   UNL     2     -12.516  13.066  65.822  1.00  0.00    -0.470 OA 
BRANCH  11  14
HETATM   14  C   UNL     2     -10.746  12.259  64.363  1.00  0.00    -0.331 C  
HETATM   15  H   UNL     2     -11.719  11.120  63.074  1.00  0.00     0.000 HD 
HETATM   16  O   UNL     2     -11.932  11.586  63.874  1.00  0.00    -0.275 OA 
BRANCH  14  17
HETATM   17  C   UNL     2      -9.646  11.213  64.507  1.00  0.00    -0.250 C  
HETATM   18  C   UNL     2      -9.051  10.816  63.143  1.00  0.00    -0.270 C  
HETATM   19  H   UNL     2      -9.541   9.377  65.213  1.00  0.00     0.000 HD 
HETATM   20  O   UNL     2     -10.226  10.029  65.123  1.00  0.00    -0.288 OA 
HETATM   21  O   UNL     2      -9.731   9.948  62.460  1.00  0.00    -0.141 OA 
HETATM   22  O   UNL     2      -7.873  11.030  62.870  1.00  0.00     0.023 OA 
ENDBRANCH  14  17
ENDBRANCH  11  14
ENDBRANCH   2  11
BRANCH   3  23
HETATM   23  C   UNL     3     -10.252   6.167  68.679  1.00  0.00    -0.181 C  
HETATM   24  O   UNL     3     -10.668   5.396  69.814  1.00  0.00    -0.315 OA 
HETATM   25  H   UNL     3     -11.028   5.995  70.457  1.00  0.00     0.000 HD 
BRANCH  23  26
HETATM   26  C   UNL     3      -9.362   7.324  69.186  1.00  0.00    -0.146 C  
HETATM   27  O   UNL     3      -9.599   7.553  70.585  1.00  0.00    -0.171 OA 
HETATM   28  H   UNL     3      -9.052   8.265  70.897  1.00  0.00     0.000 HD 
BRANCH  26  29
HETATM   29  C   UNL     3      -9.735   8.599  68.394  1.00  0.00    -0.162 C  
HETATM   30  C   UNL     3      -9.992   9.884  69.219  1.00  0.00    -0.207 C  
HETATM   31  O   UNL     3     -10.927   8.354  67.571  1.00  0.00    -0.493 OA 
HETATM   32  O   UNL     3      -9.195  10.210  70.116  1.00  0.00    -0.117 OA 
HETATM   33  O   UNL     3     -11.077  10.485  68.808  1.00  0.00    -0.234 OA 
HETATM   34  H   UNL     3     -11.156   9.137  67.084  1.00  0.00     0.000 HD 
ENDBRANCH  26  29
ENDBRANCH  23  26
ENDBRANCH   3  23
BRANCH   3  35
HETATM   35  C   UNL     3     -10.298   5.277  66.252  1.00  0.00    -0.239 C  
HETATM   36  O   UNL     3      -9.869   6.503  65.651  1.00  0.00    -0.204 OA 
HETATM   37  H   UNL     3     -10.256   6.547  64.785  1.00  0.00     0.000 HD 
ENDBRANCH   3  35
TORSDOF 8
ENDMDL
MODEL      125
REMARK 921   NORMALIZED FREE ENERGY PREDICTED BY IDOCK:   -4.75 KCAL/MOL
REMARK 922        TOTAL FREE ENERGY PREDICTED BY IDOCK:   -9.07 KCAL/MOL
REMARK 923 INTER-LIGAND FREE ENERGY PREDICTED BY IDOCK:   -7.99 KCAL/MOL
REMARK 924 INTRA-LIGAND FREE ENERGY PREDICTED BY IDOCK:   -1.07 KCAL/MOL
REMARK 927      BINDING AFFINITY PREDICTED BY RF-SCORE:    0.00 PKD
ROOT
HETATM    1 FE   UNL     1     -13.228  11.653  70.972  1.00  0.00    -0.329 Fe 
HETATM    2  C   UNL     2      -9.055  15.301  67.040  1.00  0.00    -0.225 C  
HETATM    3  C   UNL     3      -9.416   6.564  70.696  1.00  0.00    -0.166 C  
HETATM    4  H   UNL     3      -7.916   6.977  71.869  1.00  0.00     0.000 HD 
HETATM    5  H   UNL     2      -9.215  15.628  68.982  1.00  0.00     0.000 HD 
HETATM    6  O   UNL     2      -9.428  16.086  68.177  1.00  0.00    -0.205 OA 
HETATM    7  O   UNL     3      -8.024   6.873  70.930  1.00  0.00    -0.097 OA 
ENDROOT
BRANCH   2   8
HETATM    8  C   UNL     2      -9.397  16.039  65.743  1.00  0.00    -0.215 C  
HETATM    9  H   UNL     2      -9.172  17.855  64.982  1.00  0.00     0.000 HD 
HETATM   10  O   UNL     2      -8.959  17.398  65.787  1.00  0.00    -0.521 OA 
ENDBRANCH   2   8
BRANCH   2  11
HETATM   11  C   UNL     2      -9.724  13.915  67.122  1.00  0.00    -0.244 C  
HETATM   12  H   UNL     2     -10.570  12.775  68.510  1.00  0.00     0.000 HD 
HETATM   13  O   UNL     2     -10.157  13.629  68.460  1.00  0.00    -0.231 OA 
BRANCH  11  14
HETATM   14  C   UNL     2     -10.927  13.854  66.165  1.00  0.00    -0.293 C  
HETATM   15  H   UNL     2     -12.884  14.084  66.318  1.00  0.00     0.000 HD 
HETATM   16  O   UNL     2     -12.141  14.122  66.909  1.00  0.00    -0.430 OA 
BRANCH  14  17
HETATM   17  C   UNL     2     -11.107  12.519  65.450  1.00  0.00    -0.302 C  
HETATM   18  C   UNL     2     -11.436  12.708  63.958  1.00  0.00    -0.411 C  
HETATM   19  H   UNL     2     -12.323  10.981  65.639  1.00  0.00     0.000 HD 
HETATM   20  O   UNL     2     -12.211  11.812  66.084  1.00  0.00    -0.336 OA 
HETATM   21  O   UNL     2     -12.674  12.976  63.681  1.00  0.00    -0.700 OA 
HETATM   22  O   UNL     2     -10.681  12.303  63.078  1.00  0.00    -0.266 OA 
ENDBRANCH  14  17
ENDBRANCH  11  14
ENDBRANCH   2  11
BRANCH   3  23
HETATM   23  C   UNL     3     -10.219   7.693  71.333  1.00  0.00    -0.185 C  
HETATM   24  O   UNL     3      -9.446   8.895  71.230  1.00  0.00    -0.225 OA 
HETATM   25  H   UNL     3      -9.946   9.598  71.627  1.00  0.00     0.000 HD 
BRANCH  23  26
HETATM   26  C   UNL     3     -11.636   7.985  70.790  1.00  0.00    -0.242 C  
HETATM   27  O   UNL     3     -11.706   9.332  70.292  1.00  0.00    -0.439 OA 
HETATM   28  H   UNL     3     -12.577   9.512  69.958  1.00  0.00     0.000 HD 
BRANCH  26  29
HETATM   29  C   UNL     3     -12.640   7.824  71.955  1.00  0.00    -0.311 C  
HETATM   30  C   UNL     3     -13.758   8.891  72.068  1.00  0.00    -0.459 C  
HETATM   31  O   UNL     3     -11.926   7.791  73.239  1.00  0.00    -0.602 OA 
HETATM   32  O   UNL     3     -14.398   9.221  71.055  1.00  0.00    -0.044 OA 
HETATM   33  O   UNL     3     -13.880   9.299  73.303  1.00  0.00    -0.115 OA 
HETATM   34  H   UNL     3     -12.543   7.692  73.954  1.00  0.00     0.000 HD 
ENDBRANCH  26  29
ENDBRANCH  23  26
ENDBRANCH   3  23
BRANCH   3  35
HETATM   35  C   UNL     3      -9.590   6.396  69.187  1.00  0.00    -0.136 C  
HETATM   36  O   UNL     3     -10.806   5.674  68.971  1.00  0.00    -0.265 OA 
HETATM   37  H   UNL     3     -10.914   5.569  68.033  1.00  0.00     0.000 HD 
ENDBRANCH   3  35
TORSDOF 8
ENDMDL
MODEL      126
REMARK 921   NORMALIZED FREE ENERGY PREDICTED BY IDOCK:   -4.74 KCAL/MOL
REMARK 922        TOTAL FREE ENERGY PREDICTED BY IDOCK:   -9.05 KCAL/MOL
REMARK 923 INTER-LIGAND FREE ENERGY PREDICTED BY IDOCK:   -6.94 KCAL/MOL
REMARK 924 INTRA-LIGAND FREE ENERGY PREDICTED BY IDOCK:   -2.11 KCAL/MOL
REMARK 927      BINDING AFFINITY PREDICTED BY RF-SCORE:    0.00 PKD
ROOT
HETATM    1 FE   UNL     1     -11.867   9.386  67.218  1.00  0.00    -0.335 Fe 
HETATM    2  C   UNL     2      -8.208   6.787  72.321  1.00  0.00    -0.106 C  
HETATM    3  C   UNL     3     -11.389  15.281  69.569  1.00  0.00    -0.288 C  
HETATM    4  H   UNL     3      -9.568  15.850  69.173  1.00  0.00     0.000 HD 
HETATM    5  H   UNL     2      -7.473   6.978  70.498  1.00  0.00     0.000 HD 
HETATM    6  O   UNL     2      -7.713   6.269  71.083  1.00  0.00    -0.098 OA 
HETATM    7  O   UNL     3     -10.046  15.637  69.966  1.00  0.00    -0.293 OA 
ENDROOT
BRANCH   2   8
HETATM    8  C   UNL     2      -8.596   5.645  73.264  1.00  0.00    -0.116 C  
HETATM    9  H   UNL     2      -8.429   3.670  73.326  1.00  0.00     0.000 HD 
HETATM   10  O   UNL     2      -8.188   4.379  72.741  1.00  0.00    -0.096 OA 
ENDBRANCH   2   8
BRANCH   2  11
HETATM   11  C   UNL     2      -9.381   7.749  72.052  1.00  0.00    -0.152 C  
HETATM   12  H   UNL     2     -10.041   9.488  72.747  1.00  0.00     0.000 HD 
HETATM   13  O   UNL     2      -9.318   8.895  72.913  1.00  0.00    -0.169 OA 
BRANCH  11  14
HETATM   14  C   UNL     2      -9.362   8.205  70.582  1.00  0.00    -0.154 C  
HETATM   15  H   UNL     2      -9.086   9.910  69.622  1.00  0.00     0.000 HD 
HETATM   16  O   UNL     2      -9.098   9.629  70.530  1.00  0.00    -0.242 OA 
BRANCH  14  17
HETATM   17  C   UNL     2     -10.655   7.945  69.816  1.00  0.00    -0.242 C  
HETATM   18  C   UNL     2     -11.373   6.679  70.318  1.00  0.00    -0.374 C  
HETATM   19  H   UNL     2     -11.124   7.601  67.935  1.00  0.00     0.000 HD 
HETATM   20  O   UNL     2     -10.319   7.763  68.412  1.00  0.00    -0.197 OA 
HETATM   21  O   UNL     2     -10.922   5.553  69.858  1.00  0.00    -0.309 OA 
HETATM   22  O   UNL     2     -12.487   6.733  70.831  1.00  0.00    -0.364 OA 
ENDBRANCH  14  17
ENDBRANCH  11  14
ENDBRANCH   2  11
BRANCH   3  23
HETATM   23  C   UNL     3     -11.252  14.151  68.555  1.00  0.00    -0.260 C  
HETATM   24  O   UNL     3     -12.560  13.852  68.050  1.00  0.00    -0.335 OA 
HETATM   25  H   UNL     3     -12.474  13.148  67.418  1.00  0.00     0.000 HD 
BRANCH  23  26
HETATM   26  C   UNL     3     -10.307  14.355  67.349  1.00  0.00    -0.252 C  
HETATM   27  O   UNL     3     -11.072  14.553  66.150  1.00  0.00    -0.322 OA 
HETATM   28  H   UNL     3     -10.491  14.678  65.408  1.00  0.00     0.000 HD 
BRANCH  26  29
HETATM   29  C   UNL     3      -9.444  13.081  67.195  1.00  0.00    -0.230 C  
HETATM   30  C   UNL     3     -10.170  11.799  66.713  1.00  0.00    -0.211 C  
HETATM   31  O   UNL     3      -8.777  12.763  68.465  1.00  0.00    -0.313 OA 
HETATM   32  O   UNL     3     -10.943  11.858  65.741  1.00  0.00    -0.293 OA 
HETATM   33  O   UNL     3      -9.821  10.773  67.442  1.00  0.00    -0.172 OA 
HETATM   34  H   UNL     3      -8.247  11.980  68.370  1.00  0.00     0.000 HD 
ENDBRANCH  26  29
ENDBRANCH  23  26
ENDBRANCH   3  23
BRANCH   3  35
HETATM   35  C   UNL     3     -12.157  14.937  70.846  1.00  0.00    -0.317 C  
HETATM   36  O   UNL     3     -13.537  15.238  70.612  1.00  0.00    -0.705 OA 
HETATM   37  H   UNL     3     -14.014  15.024  71.405  1.00  0.00     0.000 HD 
ENDBRANCH   3  35
TORSDOF 8
ENDMDL
MODEL      127
REMARK 921   NORMALIZED FREE ENERGY PREDICTED BY IDOCK:   -4.73 KCAL/MOL
REMARK 922        TOTAL FREE ENERGY PREDICTED BY IDOCK:   -9.04 KCAL/MOL
REMARK 923 INTER-LIGAND FREE ENERGY PREDICTED BY IDOCK:   -7.65 KCAL/MOL
REMARK 924 INTRA-LIGAND FREE ENERGY PREDICTED BY IDOCK:   -1.38 KCAL/MOL
REMARK 927      BINDING AFFINITY PREDICTED BY RF-SCORE:    0.00 PKD
ROOT
HETATM    1 FE   UNL     1      -6.828  12.960  70.250  1.00  0.00    -0.320 Fe 
HETATM    2  C   UNL     2     -10.301  17.076  66.105  1.00  0.00    -0.319 C  
HETATM    3  C   UNL     3     -11.870   9.167  71.088  1.00  0.00    -0.307 C  
HETATM    4  H   UNL     3     -12.026   8.142  69.439  1.00  0.00     0.000 HD 
HETATM    5  H   UNL     2      -8.922  15.834  65.431  1.00  0.00     0.000 HD 
HETATM    6  O   UNL     2      -9.037  16.774  65.508  1.00  0.00    -0.414 OA 
HETATM    7  O   UNL     3     -12.543   8.822  69.857  1.00  0.00     1.085 OA 
ENDROOT
BRANCH   2   8
HETATM    8  C   UNL     2     -10.487  18.591  66.230  1.00  0.00    -0.406 C  
HETATM    9  H   UNL     2     -11.113  20.093  65.099  1.00  0.00     0.000 HD 
HETATM   10  O   UNL     2     -10.998  19.153  65.021  1.00  0.00    -0.404 OA 
ENDBRANCH   2   8
BRANCH   2  11
HETATM   11  C   UNL     2     -10.422  16.356  67.462  1.00  0.00    -0.304 C  
HETATM   12  H   UNL     2     -11.144  16.747  69.270  1.00  0.00     0.000 HD 
HETATM   13  O   UNL     2     -11.069  17.191  68.434  1.00  0.00    -0.291 OA 
BRANCH  11  14
HETATM   14  C   UNL     2     -11.212  15.047  67.296  1.00  0.00    -0.338 C  
HETATM   15  H   UNL     2     -11.797  13.574  68.477  1.00  0.00     0.000 HD 
HETATM   16  O   UNL     2     -11.308  14.383  68.580  1.00  0.00    -0.255 OA 
BRANCH  14  17
HETATM   17  C   UNL     2     -10.606  14.056  66.307  1.00  0.00    -0.281 C  
HETATM   18  C   UNL     2     -11.663  13.493  65.339  1.00  0.00    -0.332 C  
HETATM   19  H   UNL     2      -9.658  12.336  66.449  1.00  0.00     0.000 HD 
HETATM   20  O   UNL     2     -10.035  12.953  67.065  1.00  0.00    -0.235 OA 
HETATM   21  O   UNL     2     -12.392  12.525  65.799  1.00  0.00    -0.627 OA 
HETATM   22  O   UNL     2     -11.599  13.697  64.130  1.00  0.00    -0.383 OA 
ENDBRANCH  14  17
ENDBRANCH  11  14
ENDBRANCH   2  11
BRANCH   3  23
HETATM   23  C   UNL     3     -10.447   9.560  70.704  1.00  0.00    -0.308 C  
HETATM   24  O   UNL     3      -9.720   8.357  70.424  1.00  0.00    -0.170 OA 
HETATM   25  H   UNL     3      -8.833   8.601  70.185  1.00  0.00     0.000 HD 
BRANCH  23  26
HETATM   26  C   UNL     3     -10.246  10.530  69.518  1.00  0.00    -0.200 C  
HETATM   27  O   UNL     3     -11.069  11.695  69.688  1.00  0.00    -0.415 OA 
HETATM   28  H   UNL     3     -10.945  12.292  68.959  1.00  0.00     0.000 HD 
BRANCH  26  29
HETATM   29  C   UNL     3     -10.666   9.798  68.222  1.00  0.00    -0.233 C  
HETATM   30  C   UNL     3      -9.542   9.475  67.207  1.00  0.00    -0.150 C  
HETATM   31  O   UNL     3     -11.696  10.571  67.515  1.00  0.00    -0.567 OA 
HETATM   32  O   UNL     3      -8.479   8.968  67.605  1.00  0.00    -0.116 OA 
HETATM   33  O   UNL     3      -9.914   9.790  65.995  1.00  0.00    -0.256 OA 
HETATM   34  H   UNL     3     -11.954  10.121  66.719  1.00  0.00     0.000 HD 
ENDBRANCH  26  29
ENDBRANCH  23  26
ENDBRANCH   3  23
BRANCH   3  35
HETATM   35  C   UNL     3     -12.701  10.260  71.761  1.00  0.00    -0.433 C  
HETATM   36  O   UNL     3     -13.618   9.617  72.651  1.00  0.00    -0.676 OA 
HETATM   37  H   UNL     3     -14.134  10.296  73.070  1.00  0.00     0.000 HD 
ENDBRANCH   3  35
TORSDOF 8
ENDMDL
MODEL      128
REMARK 921   NORMALIZED FREE ENERGY PREDICTED BY IDOCK:   -4.73 KCAL/MOL
REMARK 922        TOTAL FREE ENERGY PREDICTED BY IDOCK:   -9.04 KCAL/MOL
REMARK 923 INTER-LIGAND FREE ENERGY PREDICTED BY IDOCK:   -7.04 KCAL/MOL
REMARK 924 INTRA-LIGAND FREE ENERGY PREDICTED BY IDOCK:   -2.00 KCAL/MOL
REMARK 927      BINDING AFFINITY PREDICTED BY RF-SCORE:    0.00 PKD
ROOT
HETATM    1 FE   UNL     1      -9.895  12.677  63.143  1.00  0.00    -0.349 Fe 
HETATM    2  C   UNL     2      -8.630   6.668  66.056  1.00  0.00    -0.148 C  
HETATM    3  C   UNL     3      -9.514  15.722  68.719  1.00  0.00    -0.219 C  
HETATM    4  H   UNL     3      -7.612  15.799  69.137  1.00  0.00     0.000 HD 
HETATM    5  H   UNL     2      -7.283   7.600  64.951  1.00  0.00     0.000 HD 
HETATM    6  O   UNL     2      -7.803   6.807  64.896  1.00  0.00    -0.106 OA 
HETATM    7  O   UNL     3      -8.361  15.344  69.505  1.00  0.00    -0.245 OA 
ENDROOT
BRANCH   2   8
HETATM    8  C   UNL     2      -9.468   5.390  65.967  1.00  0.00    -0.146 C  
HETATM    9  H   UNL     2      -9.634   3.672  66.941  1.00  0.00     0.000 HD 
HETATM   10  O   UNL     2      -9.114   4.464  66.996  1.00  0.00    -0.118 OA 
ENDBRANCH   2   8
BRANCH   2  11
HETATM   11  C   UNL     2      -9.498   7.929  66.229  1.00  0.00    -0.151 C  
HETATM   12  H   UNL     2     -11.284   8.389  66.965  1.00  0.00     0.000 HD 
HETATM   13  O   UNL     2     -10.749   7.612  66.858  1.00  0.00    -0.351 OA 
BRANCH  11  14
HETATM   14  C   UNL     2      -8.747   8.975  67.071  1.00  0.00    -0.116 C  
HETATM   15  H   UNL     2      -8.509   9.353  68.996  1.00  0.00     0.000 HD 
HETATM   16  O   UNL     2      -8.973   8.707  68.476  1.00  0.00    -0.138 OA 
BRANCH  14  17
HETATM   17  C   UNL     2      -9.155  10.421  66.805  1.00  0.00    -0.143 C  
HETATM   18  C   UNL     2      -9.522  10.650  65.327  1.00  0.00    -0.221 C  
HETATM   19  H   UNL     2      -8.281  12.178  66.976  1.00  0.00     0.000 HD 
HETATM   20  O   UNL     2      -8.027  11.278  67.142  1.00  0.00    -0.136 OA 
HETATM   21  O   UNL     2      -8.524  10.825  64.517  1.00  0.00    -0.124 OA 
HETATM   22  O   UNL     2     -10.655  10.983  64.991  1.00  0.00    -0.292 OA 
ENDBRANCH  14  17
ENDBRANCH  11  14
ENDBRANCH   2  11
BRANCH   3  23
HETATM   23  C   UNL     3      -9.177  15.380  67.272  1.00  0.00    -0.207 C  
HETATM   24  O   UNL     3      -7.888  14.752  67.257  1.00  0.00    -0.188 OA 
HETATM   25  H   UNL     3      -7.679  14.540  66.355  1.00  0.00     0.000 HD 
BRANCH  23  26
HETATM   26  C   UNL     3     -10.156  14.484  66.480  1.00  0.00    -0.274 C  
HETATM   27  O   UNL     3      -9.472  13.852  65.386  1.00  0.00    -0.526 OA 
HETATM   28  H   UNL     3     -10.074  13.301  64.899  1.00  0.00     0.000 HD 
BRANCH  26  29
HETATM   29  C   UNL     3     -11.283  15.383  65.920  1.00  0.00    -0.179 C  
HETATM   30  C   UNL     3     -12.003  14.887  64.641  1.00  0.00    -0.401 C  
HETATM   31  O   UNL     3     -10.768  16.731  65.646  1.00  0.00    -0.325 OA 
HETATM   32  O   UNL     3     -12.384  13.706  64.568  1.00  0.00    -0.500 OA 
HETATM   33  O   UNL     3     -12.127  15.859  63.777  1.00  0.00    -0.780 OA 
HETATM   34  H   UNL     3     -11.461  17.283  65.302  1.00  0.00     0.000 HD 
ENDBRANCH  26  29
ENDBRANCH  23  26
ENDBRANCH   3  23
BRANCH   3  35
HETATM   35  C   UNL     3     -10.718  14.990  69.311  1.00  0.00    -0.248 C  
HETATM   36  O   UNL     3     -10.347  13.618  69.480  1.00  0.00    -0.404 OA 
HETATM   37  H   UNL     3     -11.096  13.163  69.848  1.00  0.00     0.000 HD 
ENDBRANCH   3  35
TORSDOF 8
ENDMDL
MODEL      129
REMARK 921   NORMALIZED FREE ENERGY PREDICTED BY IDOCK:   -4.71 KCAL/MOL
REMARK 922        TOTAL FREE ENERGY PREDICTED BY IDOCK:   -9.01 KCAL/MOL
REMARK 923 INTER-LIGAND FREE ENERGY PREDICTED BY IDOCK:   -7.31 KCAL/MOL
REMARK 924 INTRA-LIGAND FREE ENERGY PREDICTED BY IDOCK:   -1.70 KCAL/MOL
REMARK 927      BINDING AFFINITY PREDICTED BY RF-SCORE:    0.00 PKD
ROOT
HETATM    1 FE   UNL     1     -13.274  12.322  70.821  1.00  0.00    -0.248 Fe 
HETATM    2  C   UNL     2     -10.175   6.325  70.038  1.00  0.00    -0.188 C  
HETATM    3  C   UNL     3      -8.349  15.459  68.288  1.00  0.00    -0.150 C  
HETATM    4  H   UNL     3      -8.455  15.128  66.371  1.00  0.00     0.000 HD 
HETATM    5  H   UNL     2     -11.688   6.879  68.894  1.00  0.00     0.000 HD 
HETATM    6  O   UNL     2     -11.519   6.220  69.558  1.00  0.00    -0.428 OA 
HETATM    7  O   UNL     3      -7.858  14.870  67.064  1.00  0.00    -0.201 OA 
ENDROOT
BRANCH   2   8
HETATM    8  C   UNL     2      -9.904   5.264  71.109  1.00  0.00    -0.189 C  
HETATM    9  H   UNL     2      -9.367   5.205  73.016  1.00  0.00     0.000 HD 
HETATM   10  O   UNL     2      -9.535   5.863  72.351  1.00  0.00    -0.147 OA 
ENDBRANCH   2   8
BRANCH   2  11
HETATM   11  C   UNL     2      -9.914   7.755  70.549  1.00  0.00    -0.187 C  
HETATM   12  H   UNL     2      -8.498   9.136  70.382  1.00  0.00     0.000 HD 
HETATM   13  O   UNL     2      -8.659   8.254  70.067  1.00  0.00    -0.125 OA 
BRANCH  11  14
HETATM   14  C   UNL     2     -11.050   8.690  70.100  1.00  0.00    -0.192 C  
HETATM   15  H   UNL     2     -11.328  10.002  68.648  1.00  0.00     0.000 HD 
HETATM   16  O   UNL     2     -10.626   9.424  68.926  1.00  0.00    -0.217 OA 
BRANCH  14  17
HETATM   17  C   UNL     2     -11.490   9.708  71.148  1.00  0.00    -0.384 C  
HETATM   18  C   UNL     2     -12.937   9.463  71.612  1.00  0.00    -0.391 C  
HETATM   19  H   UNL     2     -11.686  11.667  71.203  1.00  0.00     0.000 HD 
HETATM   20  O   UNL     2     -11.412  11.033  70.551  1.00  0.00    -0.294 OA 
HETATM   21  O   UNL     2     -13.868   9.923  70.835  1.00  0.00    -0.154 OA 
HETATM   22  O   UNL     2     -13.197   9.169  72.776  1.00  0.00    -0.394 OA 
ENDBRANCH  14  17
ENDBRANCH  11  14
ENDBRANCH   2  11
BRANCH   3  23
HETATM   23  C   UNL     3      -9.789  14.984  68.446  1.00  0.00    -0.222 C  
HETATM   24  O   UNL     3      -9.970  14.572  69.807  1.00  0.00    -0.417 OA 
HETATM   25  H   UNL     3     -10.868  14.275  69.904  1.00  0.00     0.000 HD 
BRANCH  23  26
HETATM   26  C   UNL     3     -10.931  15.962  68.085  1.00  0.00    -0.335 C  
HETATM   27  O   UNL     3     -12.121  15.622  68.815  1.00  0.00    -0.559 OA 
HETATM   28  H   UNL     3     -12.823  16.223  68.593  1.00  0.00     0.000 HD 
BRANCH  26  29
HETATM   29  C   UNL     3     -11.212  15.836  66.570  1.00  0.00     0.023 C  
HETATM   30  C   UNL     3     -11.417  14.404  66.015  1.00  0.00    -0.349 C  
HETATM   31  O   UNL     3     -10.127  16.460  65.800  1.00  0.00    -0.373 OA 
HETATM   32  O   UNL     3     -12.170  13.615  66.611  1.00  0.00    -0.415 OA 
HETATM   33  O   UNL     3     -10.732  14.236  64.915  1.00  0.00    -0.389 OA 
HETATM   34  H   UNL     3     -10.300  16.382  64.869  1.00  0.00     0.000 HD 
ENDBRANCH  26  29
ENDBRANCH  23  26
ENDBRANCH   3  23
BRANCH   3  35
HETATM   35  C   UNL     3      -7.388  15.044  69.402  1.00  0.00    -0.194 C  
HETATM   36  O   UNL     3      -6.450  16.110  69.581  1.00  0.00    -0.190 OA 
HETATM   37  H   UNL     3      -5.853  15.852  70.273  1.00  0.00     0.000 HD 
ENDBRANCH   3  35
TORSDOF 8
ENDMDL
MODEL      130
REMARK 921   NORMALIZED FREE ENERGY PREDICTED BY IDOCK:   -4.69 KCAL/MOL
REMARK 922        TOTAL FREE ENERGY PREDICTED BY IDOCK:   -8.99 KCAL/MOL
REMARK 923 INTER-LIGAND FREE ENERGY PREDICTED BY IDOCK:   -7.69 KCAL/MOL
REMARK 924 INTRA-LIGAND FREE ENERGY PREDICTED BY IDOCK:   -1.30 KCAL/MOL
REMARK 927      BINDING AFFINITY PREDICTED BY RF-SCORE:    0.00 PKD
ROOT
HETATM    1 FE   UNL     1     -12.397  12.001  69.845  1.00  0.00    -0.250 Fe 
HETATM    2  C   UNL     2      -8.859  17.403  67.726  1.00  0.00    -0.232 C  
HETATM    3  C   UNL     3      -7.278   8.232  69.525  1.00  0.00    -0.061 C  
HETATM    4  H   UNL     3      -6.188   8.708  71.068  1.00  0.00     0.000 HD 
HETATM    5  H   UNL     2      -9.438  17.202  69.604  1.00  0.00     0.000 HD 
HETATM    6  O   UNL     2      -9.634  17.773  68.871  1.00  0.00    -0.286 OA 
HETATM    7  O   UNL     3      -6.098   8.809  70.127  1.00  0.00    -0.032 OA 
ENDROOT
BRANCH   2   8
HETATM    8  C   UNL     2      -9.174  18.323  66.544  1.00  0.00    -0.292 C  
HETATM    9  H   UNL     2      -8.193  19.200  65.062  1.00  0.00     0.000 HD 
HETATM   10  O   UNL     2      -7.997  18.629  65.796  1.00  0.00    -0.487 OA 
ENDBRANCH   2   8
BRANCH   2  11
HETATM   11  C   UNL     2      -9.099  15.917  67.394  1.00  0.00    -0.196 C  
HETATM   12  H   UNL     2      -9.129  14.184  68.363  1.00  0.00     0.000 HD 
HETATM   13  O   UNL     2      -8.980  15.100  68.567  1.00  0.00    -0.172 OA 
BRANCH  11  14
HETATM   14  C   UNL     2     -10.496  15.734  66.775  1.00  0.00    -0.305 C  
HETATM   15  H   UNL     2     -12.116  14.685  67.198  1.00  0.00     0.000 HD 
HETATM   16  O   UNL     2     -11.253  14.798  67.580  1.00  0.00    -0.307 OA 
BRANCH  14  17
HETATM   17  C   UNL     2     -10.496  15.217  65.340  1.00  0.00    -0.398 C  
HETATM   18  C   UNL     2     -11.899  15.280  64.709  1.00  0.00    -0.232 C  
HETATM   19  H   UNL     2     -10.057  13.508  64.466  1.00  0.00     0.000 HD 
HETATM   20  O   UNL     2     -10.057  13.830  65.360  1.00  0.00    -0.313 OA 
HETATM   21  O   UNL     2     -12.701  14.308  65.015  1.00  0.00    -0.625 OA 
HETATM   22  O   UNL     2     -12.133  15.988  63.734  1.00  0.00    -0.882 OA 
ENDBRANCH  14  17
ENDBRANCH  11  14
ENDBRANCH   2  11
BRANCH   3  23
HETATM   23  C   UNL     3      -8.472   8.940  70.156  1.00  0.00    -0.146 C  
HETATM   24  O   UNL     3      -8.090  10.296  70.420  1.00  0.00    -0.410 OA 
HETATM   25  H   UNL     3      -8.834  10.736  70.814  1.00  0.00     0.000 HD 
BRANCH  23  26
HETATM   26  C   UNL     3      -9.810   8.961  69.381  1.00  0.00    -0.183 C  
HETATM   27  O   UNL     3     -10.172  10.313  69.057  1.00  0.00    -0.186 OA 
HETATM   28  H   UNL     3     -10.994  10.327  68.581  1.00  0.00     0.000 HD 
BRANCH  26  29
HETATM   29  C   UNL     3     -10.901   8.348  70.289  1.00  0.00    -0.239 C  
HETATM   30  C   UNL     3     -11.438   9.240  71.435  1.00  0.00    -0.369 C  
HETATM   31  O   UNL     3     -10.417   7.097  70.889  1.00  0.00    -0.209 OA 
HETATM   32  O   UNL     3     -11.754  10.419  71.201  1.00  0.00    -0.352 OA 
HETATM   33  O   UNL     3     -11.501   8.565  72.552  1.00  0.00    -0.371 OA 
HETATM   34  H   UNL     3     -11.088   6.720  71.447  1.00  0.00     0.000 HD 
ENDBRANCH  26  29
ENDBRANCH  23  26
ENDBRANCH   3  23
BRANCH   3  35
HETATM   35  C   UNL     3      -7.134   8.395  68.012  1.00  0.00    -0.086 C  
HETATM   36  O   UNL     3      -6.758   9.752  67.759  1.00  0.00    -0.068 OA 
HETATM   37  H   UNL     3      -6.668   9.853  66.818  1.00  0.00     0.000 HD 
ENDBRANCH   3  35
TORSDOF 8
ENDMDL
MODEL      131
REMARK 921   NORMALIZED FREE ENERGY PREDICTED BY IDOCK:   -4.69 KCAL/MOL
REMARK 922        TOTAL FREE ENERGY PREDICTED BY IDOCK:   -8.99 KCAL/MOL
REMARK 923 INTER-LIGAND FREE ENERGY PREDICTED BY IDOCK:   -6.92 KCAL/MOL
REMARK 924 INTRA-LIGAND FREE ENERGY PREDICTED BY IDOCK:   -2.07 KCAL/MOL
REMARK 927      BINDING AFFINITY PREDICTED BY RF-SCORE:    0.00 PKD
ROOT
HETATM    1 FE   UNL     1      -7.162   8.893  66.898  1.00  0.00    -0.072 Fe 
HETATM    2  C   UNL     2     -10.691  14.681  66.414  1.00  0.00    -0.309 C  
HETATM    3  C   UNL     3     -11.082   6.603  71.358  1.00  0.00    -0.263 C  
HETATM    4  H   UNL     3     -12.701   6.083  70.407  1.00  0.00     0.000 HD 
HETATM    5  H   UNL     2     -10.760  13.292  65.011  1.00  0.00     0.000 HD 
HETATM    6  O   UNL     2     -10.435  14.180  65.098  1.00  0.00    -0.353 OA 
HETATM    7  O   UNL     3     -12.481   6.763  71.033  1.00  0.00    -0.367 OA 
ENDROOT
BRANCH   2   8
HETATM    8  C   UNL     2     -10.166  16.112  66.556  1.00  0.00    -0.297 C  
HETATM    9  H   UNL     2      -9.118  17.405  65.480  1.00  0.00     0.000 HD 
HETATM   10  O   UNL     2      -9.443  16.517  65.393  1.00  0.00    -0.411 OA 
ENDBRANCH   2   8
BRANCH   2  11
HETATM   11  C   UNL     2     -10.085  13.726  67.461  1.00  0.00    -0.241 C  
HETATM   12  H   UNL     2      -9.235  13.863  69.250  1.00  0.00     0.000 HD 
HETATM   13  O   UNL     2      -9.608  14.450  68.605  1.00  0.00    -0.213 OA 
BRANCH  11  14
HETATM   14  C   UNL     2     -11.135  12.693  67.904  1.00  0.00    -0.247 C  
HETATM   15  H   UNL     2     -13.052  12.369  67.554  1.00  0.00     0.000 HD 
HETATM   16  O   UNL     2     -12.404  13.007  67.280  1.00  0.00    -0.288 OA 
BRANCH  14  17
HETATM   17  C   UNL     2     -11.365  12.622  69.410  1.00  0.00    -0.208 C  
HETATM   18  C   UNL     2     -11.713  11.194  69.869  1.00  0.00    -0.355 C  
HETATM   19  H   UNL     2     -12.621  13.456  70.677  1.00  0.00     0.000 HD 
HETATM   20  O   UNL     2     -12.477  13.500  69.739  1.00  0.00    -0.235 OA 
HETATM   21  O   UNL     2     -12.948  10.832  69.706  1.00  0.00    -0.143 OA 
HETATM   22  O   UNL     2     -10.985  10.571  70.637  1.00  0.00    -0.237 OA 
ENDBRANCH  14  17
ENDBRANCH  11  14
ENDBRANCH   2  11
BRANCH   3  23
HETATM   23  C   UNL     3     -10.326   6.654  70.035  1.00  0.00    -0.199 C  
HETATM   24  O   UNL     3     -10.187   5.310  69.557  1.00  0.00    -0.231 OA 
HETATM   25  H   UNL     3      -9.715   5.342  68.732  1.00  0.00     0.000 HD 
BRANCH  23  26
HETATM   26  C   UNL     3     -10.905   7.514  68.889  1.00  0.00    -0.037 C  
HETATM   27  O   UNL     3     -11.634   6.684  67.969  1.00  0.00    -0.574 OA 
HETATM   28  H   UNL     3     -11.990   7.213  67.264  1.00  0.00     0.000 HD 
BRANCH  26  29
HETATM   29  C   UNL     3      -9.724   8.179  68.145  1.00  0.00    -0.161 C  
HETATM   30  C   UNL     3     -10.041   8.835  66.777  1.00  0.00    -0.288 C  
HETATM   31  O   UNL     3      -8.645   7.205  67.932  1.00  0.00    -0.123 OA 
HETATM   32  O   UNL     3     -11.031   9.577  66.664  1.00  0.00     0.009 OA 
HETATM   33  O   UNL     3      -9.144   8.498  65.888  1.00  0.00    -0.182 OA 
HETATM   34  H   UNL     3      -7.920   7.614  67.475  1.00  0.00     0.000 HD 
ENDBRANCH  26  29
ENDBRANCH  23  26
ENDBRANCH   3  23
BRANCH   3  35
HETATM   35  C   UNL     3     -10.729   7.697  72.367  1.00  0.00    -0.280 C  
HETATM   36  O   UNL     3     -11.669   7.609  73.443  1.00  0.00    -0.615 OA 
HETATM   37  H   UNL     3     -11.449   8.289  74.069  1.00  0.00     0.000 HD 
ENDBRANCH   3  35
TORSDOF 8
ENDMDL
MODEL      132
REMARK 921   NORMALIZED FREE ENERGY PREDICTED BY IDOCK:   -4.69 KCAL/MOL
REMARK 922        TOTAL FREE ENERGY PREDICTED BY IDOCK:   -8.98 KCAL/MOL
REMARK 923 INTER-LIGAND FREE ENERGY PREDICTED BY IDOCK:   -7.58 KCAL/MOL
REMARK 924 INTRA-LIGAND FREE ENERGY PREDICTED BY IDOCK:   -1.40 KCAL/MOL
REMARK 927      BINDING AFFINITY PREDICTED BY RF-SCORE:    0.00 PKD
ROOT
HETATM    1 FE   UNL     1      -7.104  11.425  64.611  1.00  0.00    -0.324 Fe 
HETATM    2  C   UNL     2     -10.806  16.955  65.991  1.00  0.00    -0.005 C  
HETATM    3  C   UNL     3      -9.423   8.328  69.665  1.00  0.00    -0.163 C  
HETATM    4  H   UNL     3     -11.234   7.811  69.168  1.00  0.00     0.000 HD 
HETATM    5  H   UNL     2     -11.248  15.747  64.492  1.00  0.00     0.000 HD 
HETATM    6  O   UNL     2     -10.941  16.640  64.602  1.00  0.00    -0.793 OA 
HETATM    7  O   UNL     3     -10.859   8.423  69.791  1.00  0.00    -0.238 OA 
ENDROOT
BRANCH   2   8
HETATM    8  C   UNL     2     -10.311  18.393  66.168  1.00  0.00    -0.407 C  
HETATM    9  H   UNL     2     -10.686  19.942  67.348  1.00  0.00     0.000 HD 
HETATM   10  O   UNL     2     -10.994  19.050  67.238  1.00  0.00    -0.459 OA 
ENDBRANCH   2   8
BRANCH   2  11
HETATM   11  C   UNL     2      -9.881  15.927  66.671  1.00  0.00    -0.254 C  
HETATM   12  H   UNL     2      -7.939  15.709  67.021  1.00  0.00     0.000 HD 
HETATM   13  O   UNL     2      -8.509  16.342  66.601  1.00  0.00    -0.211 OA 
BRANCH  11  14
HETATM   14  C   UNL     2     -10.291  15.742  68.142  1.00  0.00    -0.242 C  
HETATM   15  H   UNL     2      -9.673  14.649  69.668  1.00  0.00     0.000 HD 
HETATM   16  O   UNL     2      -9.419  14.763  68.759  1.00  0.00    -0.201 OA 
BRANCH  14  17
HETATM   17  C   UNL     2     -11.729  15.277  68.350  1.00  0.00    -0.321 C  
HETATM   18  C   UNL     2     -12.067  15.113  69.843  1.00  0.00    -0.336 C  
HETATM   19  H   UNL     2     -12.781  13.697  67.824  1.00  0.00     0.000 HD 
HETATM   20  O   UNL     2     -11.886  13.987  67.694  1.00  0.00    -0.357 OA 
HETATM   21  O   UNL     2     -11.673  14.008  70.395  1.00  0.00    -0.282 OA 
HETATM   22  O   UNL     2     -12.930  15.799  70.385  1.00  0.00    -0.409 OA 
ENDBRANCH  14  17
ENDBRANCH  11  14
ENDBRANCH   2  11
BRANCH   3  23
HETATM   23  C   UNL     3      -9.102   8.595  68.199  1.00  0.00    -0.141 C  
HETATM   24  O   UNL     3      -8.654   7.365  67.615  1.00  0.00    -0.119 OA 
HETATM   25  H   UNL     3      -8.453   7.531  66.702  1.00  0.00     0.000 HD 
BRANCH  23  26
HETATM   26  C   UNL     3     -10.213   9.177  67.296  1.00  0.00    -0.254 C  
HETATM   27  O   UNL     3     -10.984   8.113  66.714  1.00  0.00    -0.299 OA 
HETATM   28  H   UNL     3     -11.667   8.470  66.158  1.00  0.00     0.000 HD 
BRANCH  26  29
HETATM   29  C   UNL     3      -9.539   9.990  66.167  1.00  0.00    -0.210 C  
HETATM   30  C   UNL     3      -9.483  11.527  66.349  1.00  0.00    -0.213 C  
HETATM   31  O   UNL     3     -10.198   9.718  64.882  1.00  0.00    -0.310 OA 
HETATM   32  O   UNL     3      -9.116  12.005  67.436  1.00  0.00    -0.168 OA 
HETATM   33  O   UNL     3      -9.839  12.133  65.248  1.00  0.00    -0.249 OA 
HETATM   34  H   UNL     3      -9.784  10.217  64.188  1.00  0.00     0.000 HD 
ENDBRANCH  26  29
ENDBRANCH  23  26
ENDBRANCH   3  23
BRANCH   3  35
HETATM   35  C   UNL     3      -8.819   9.314  70.666  1.00  0.00    -0.237 C  
HETATM   36  O   UNL     3      -8.433  10.484  69.939  1.00  0.00    -0.380 OA 
HETATM   37  H   UNL     3      -8.058  11.097  70.561  1.00  0.00     0.000 HD 
ENDBRANCH   3  35
TORSDOF 8
ENDMDL
MODEL      133
REMARK 921   NORMALIZED FREE ENERGY PREDICTED BY IDOCK:   -4.67 KCAL/MOL
REMARK 922        TOTAL FREE ENERGY PREDICTED BY IDOCK:   -8.95 KCAL/MOL
REMARK 923 INTER-LIGAND FREE ENERGY PREDICTED BY IDOCK:   -7.41 KCAL/MOL
REMARK 924 INTRA-LIGAND FREE ENERGY PREDICTED BY IDOCK:   -1.54 KCAL/MOL
REMARK 927      BINDING AFFINITY PREDICTED BY RF-SCORE:    0.00 PKD
ROOT
HETATM    1 FE   UNL     1     -11.008   7.022  65.728  1.00  0.00    -0.303 Fe 
HETATM    2  C   UNL     2      -7.669   8.289  71.511  1.00  0.00    -0.098 C  
HETATM    3  C   UNL     3     -11.465  13.222  64.363  1.00  0.00    -0.379 C  
HETATM    4  H   UNL     3      -9.687  13.753  63.767  1.00  0.00     0.000 HD 
HETATM    5  H   UNL     2      -6.762   7.551  69.918  1.00  0.00     0.000 HD 
HETATM    6  O   UNL     2      -6.984   7.257  70.794  1.00  0.00    -0.055 OA 
HETATM    7  O   UNL     3     -10.223  13.942  64.529  1.00  0.00    -0.405 OA 
ENDROOT
BRANCH   2   8
HETATM    8  C   UNL     2      -8.027   7.814  72.922  1.00  0.00    -0.124 C  
HETATM    9  H   UNL     2      -8.999   8.509  74.503  1.00  0.00     0.000 HD 
HETATM   10  O   UNL     2      -8.777   8.804  73.628  1.00  0.00    -0.215 OA 
ENDBRANCH   2   8
BRANCH   2  11
HETATM   11  C   UNL     2      -8.906   8.744  70.712  1.00  0.00    -0.191 C  
HETATM   12  H   UNL     2      -9.292   9.864  69.120  1.00  0.00     0.000 HD 
HETATM   13  O   UNL     2      -8.530   9.584  69.612  1.00  0.00    -0.138 OA 
BRANCH  11  14
HETATM   14  C   UNL     2      -9.676   7.519  70.189  1.00  0.00    -0.172 C  
HETATM   15  H   UNL     2      -9.942   6.644  68.437  1.00  0.00     0.000 HD 
HETATM   16  O   UNL     2      -9.466   7.400  68.761  1.00  0.00    -0.144 OA 
BRANCH  14  17
HETATM   17  C   UNL     2     -11.180   7.557  70.435  1.00  0.00    -0.253 C  
HETATM   18  C   UNL     2     -11.514   7.600  71.938  1.00  0.00    -0.272 C  
HETATM   19  H   UNL     2     -12.700   6.376  70.016  1.00  0.00     0.000 HD 
HETATM   20  O   UNL     2     -11.763   6.352  69.863  1.00  0.00    -0.426 OA 
HETATM   21  O   UNL     2     -11.484   6.460  72.556  1.00  0.00    -0.270 OA 
HETATM   22  O   UNL     2     -12.094   8.558  72.439  1.00  0.00    -0.377 OA 
ENDBRANCH  14  17
ENDBRANCH  11  14
ENDBRANCH   2  11
BRANCH   3  23
HETATM   23  C   UNL     3     -11.089  11.758  64.166  1.00  0.00    -0.374 C  
HETATM   24  O   UNL     3     -12.077  11.160  63.318  1.00  0.00    -0.584 OA 
HETATM   25  H   UNL     3     -11.843  10.247  63.195  1.00  0.00     0.000 HD 
BRANCH  23  26
HETATM   26  C   UNL     3      -9.695  11.427  63.585  1.00  0.00    -0.312 C  
HETATM   27  O   UNL     3      -9.820  10.487  62.505  1.00  0.00    -0.645 OA 
HETATM   28  H   UNL     3      -8.964  10.284  62.147  1.00  0.00     0.000 HD 
BRANCH  26  29
HETATM   29  C   UNL     3      -8.843  10.795  64.710  1.00  0.00    -0.149 C  
HETATM   30  C   UNL     3      -8.738   9.249  64.722  1.00  0.00    -0.188 C  
HETATM   31  O   UNL     3      -9.346  11.216  66.024  1.00  0.00    -0.192 OA 
HETATM   32  O   UNL     3      -8.490   8.641  63.667  1.00  0.00    -0.156 OA 
HETATM   33  O   UNL     3      -8.920   8.786  65.930  1.00  0.00    -0.171 OA 
HETATM   34  H   UNL     3      -8.822  10.828  66.716  1.00  0.00     0.000 HD 
ENDBRANCH  26  29
ENDBRANCH  23  26
ENDBRANCH   3  23
BRANCH   3  35
HETATM   35  C   UNL     3     -12.326  13.527  65.588  1.00  0.00    -0.476 C  
HETATM   36  O   UNL     3     -11.687  12.932  66.722  1.00  0.00    -0.346 OA 
HETATM   37  H   UNL     3     -12.222  13.122  67.484  1.00  0.00     0.000 HD 
ENDBRANCH   3  35
TORSDOF 8
ENDMDL
MODEL      134
REMARK 921   NORMALIZED FREE ENERGY PREDICTED BY IDOCK:   -4.65 KCAL/MOL
REMARK 922        TOTAL FREE ENERGY PREDICTED BY IDOCK:   -8.92 KCAL/MOL
REMARK 923 INTER-LIGAND FREE ENERGY PREDICTED BY IDOCK:   -8.21 KCAL/MOL
REMARK 924 INTRA-LIGAND FREE ENERGY PREDICTED BY IDOCK:   -0.70 KCAL/MOL
REMARK 927      BINDING AFFINITY PREDICTED BY RF-SCORE:    0.00 PKD
ROOT
HETATM    1 FE   UNL     1      -7.730  10.398  67.519  1.00  0.00    -0.088 Fe 
HETATM    2  C   UNL     2     -11.205  16.185  68.307  1.00  0.00    -0.343 C  
HETATM    3  C   UNL     3     -11.540   7.289  71.559  1.00  0.00    -0.275 C  
HETATM    4  H   UNL     3     -13.193   6.977  70.575  1.00  0.00     0.000 HD 
HETATM    5  H   UNL     2     -11.333  15.104  66.658  1.00  0.00     0.000 HD 
HETATM    6  O   UNL     2     -10.994  15.955  66.910  1.00  0.00    -0.283 OA 
HETATM    7  O   UNL     3     -12.947   7.517  71.317  1.00  0.00    -0.331 OA 
ENDROOT
BRANCH   2   8
HETATM    8  C   UNL     2     -10.659  17.557  68.712  1.00  0.00    -0.241 C  
HETATM    9  H   UNL     2     -10.268  19.297  67.848  1.00  0.00     0.000 HD 
HETATM   10  O   UNL     2     -10.607  18.446  67.596  1.00  0.00    -0.408 OA 
ENDBRANCH   2   8
BRANCH   2  11
HETATM   11  C   UNL     2     -10.578  15.039  69.124  1.00  0.00    -0.251 C  
HETATM   12  H   UNL     2      -8.996  14.766  70.292  1.00  0.00     0.000 HD 
HETATM   13  O   UNL     2      -9.382  15.472  69.788  1.00  0.00    -0.274 OA 
BRANCH  11  14
HETATM   14  C   UNL     2     -11.587  14.518  70.161  1.00  0.00    -0.276 C  
HETATM   15  H   UNL     2     -13.135  13.290  70.153  1.00  0.00     0.000 HD 
HETATM   16  O   UNL     2     -12.512  13.611  69.512  1.00  0.00    -0.241 OA 
BRANCH  14  17
HETATM   17  C   UNL     2     -12.409  15.601  70.852  1.00  0.00    -0.429 C  
HETATM   18  C   UNL     2     -12.227  15.571  72.380  1.00  0.00    -0.414 C  
HETATM   19  H   UNL     2     -14.325  16.042  70.976  1.00  0.00     0.000 HD 
HETATM   20  O   UNL     2     -13.813  15.367  70.546  1.00  0.00    -0.196 OA 
HETATM   21  O   UNL     2     -12.932  14.689  73.017  1.00  0.00    -0.464 OA 
HETATM   22  O   UNL     2     -11.730  16.517  72.986  1.00  0.00    -0.436 OA 
ENDBRANCH  14  17
ENDBRANCH  11  14
ENDBRANCH   2  11
BRANCH   3  23
HETATM   23  C   UNL     3     -10.824   7.597  70.249  1.00  0.00    -0.246 C  
HETATM   24  O   UNL     3     -11.411   6.785  69.225  1.00  0.00    -0.556 OA 
HETATM   25  H   UNL     3     -10.965   6.977  68.409  1.00  0.00     0.000 HD 
BRANCH  23  26
HETATM   26  C   UNL     3     -10.802   9.060  69.749  1.00  0.00    -0.205 C  
HETATM   27  O   UNL     3     -11.873   9.804  70.353  1.00  0.00    -0.338 OA 
HETATM   28  H   UNL     3     -11.860  10.703  70.045  1.00  0.00     0.000 HD 
BRANCH  26  29
HETATM   29  C   UNL     3     -10.998   9.045  68.215  1.00  0.00     0.082 C  
HETATM   30  C   UNL     3      -9.723   8.884  67.349  1.00  0.00    -0.176 C  
HETATM   31  O   UNL     3     -11.679  10.272  67.779  1.00  0.00    -0.643 OA 
HETATM   32  O   UNL     3      -8.890   8.008  67.637  1.00  0.00    -0.125 OA 
HETATM   33  O   UNL     3      -9.724   9.744  66.366  1.00  0.00    -0.186 OA 
HETATM   34  H   UNL     3     -11.800  10.263  66.837  1.00  0.00     0.000 HD 
ENDBRANCH  26  29
ENDBRANCH  23  26
ENDBRANCH   3  23
BRANCH   3  35
HETATM   35  C   UNL     3     -11.144   8.159  72.753  1.00  0.00    -0.337 C  
HETATM   36  O   UNL     3     -11.020   7.298  73.889  1.00  0.00    -0.533 OA 
HETATM   37  H   UNL     3     -10.773   7.839  74.631  1.00  0.00     0.000 HD 
ENDBRANCH   3  35
TORSDOF 8
ENDMDL
MODEL      135
REMARK 921   NORMALIZED FREE ENERGY PREDICTED BY IDOCK:   -4.64 KCAL/MOL
REMARK 922        TOTAL FREE ENERGY PREDICTED BY IDOCK:   -8.90 KCAL/MOL
REMARK 923 INTER-LIGAND FREE ENERGY PREDICTED BY IDOCK:   -7.51 KCAL/MOL
REMARK 924 INTRA-LIGAND FREE ENERGY PREDICTED BY IDOCK:   -1.39 KCAL/MOL
REMARK 927      BINDING AFFINITY PREDICTED BY RF-SCORE:    0.00 PKD
ROOT
HETATM    1 FE   UNL     1     -13.525  12.482  71.203  1.00  0.00    -0.305 Fe 
HETATM    2  C   UNL     2     -10.968   6.309  72.450  1.00  0.00    -0.254 C  
HETATM    3  C   UNL     3      -8.787  13.888  67.192  1.00  0.00    -0.226 C  
HETATM    4  H   UNL     3      -9.172  12.888  65.565  1.00  0.00     0.000 HD 
HETATM    5  H   UNL     2     -12.580   6.569  71.338  1.00  0.00     0.000 HD 
HETATM    6  O   UNL     2     -12.369   6.188  72.182  1.00  0.00    -0.299 OA 
HETATM    7  O   UNL     3      -8.506  12.838  66.241  1.00  0.00     0.178 OA 
ENDROOT
BRANCH   2   8
HETATM    8  C   UNL     2     -10.627   5.695  73.810  1.00  0.00    -0.273 C  
HETATM    9  H   UNL     2     -10.942   3.991  74.773  1.00  0.00     0.000 HD 
HETATM   10  O   UNL     2     -11.154   4.373  73.929  1.00  0.00    -0.260 OA 
ENDBRANCH   2   8
BRANCH   2  11
HETATM   11  C   UNL     2     -10.546   7.788  72.351  1.00  0.00    -0.278 C  
HETATM   12  H   UNL     2      -9.100   8.950  73.060  1.00  0.00     0.000 HD 
HETATM   13  O   UNL     2      -9.360   8.039  73.121  1.00  0.00    -0.247 OA 
BRANCH  11  14
HETATM   14  C   UNL     2     -10.299   8.169  70.881  1.00  0.00    -0.190 C  
HETATM   15  H   UNL     2      -9.000   7.671  69.478  1.00  0.00     0.000 HD 
HETATM   16  O   UNL     2      -9.152   7.435  70.386  1.00  0.00    -0.156 OA 
BRANCH  14  17
HETATM   17  C   UNL     2     -10.038   9.653  70.642  1.00  0.00    -0.256 C  
HETATM   18  C   UNL     2     -11.088  10.275  69.703  1.00  0.00    -0.274 C  
HETATM   19  H   UNL     2      -8.564  10.711  69.876  1.00  0.00     0.000 HD 
HETATM   20  O   UNL     2      -8.726   9.787  70.025  1.00  0.00    -0.201 OA 
HETATM   21  O   UNL     2     -10.901  10.079  68.435  1.00  0.00    -0.226 OA 
HETATM   22  O   UNL     2     -11.842  11.166  70.085  1.00  0.00    -0.305 OA 
ENDBRANCH  14  17
ENDBRANCH  11  14
ENDBRANCH   2  11
BRANCH   3  23
HETATM   23  C   UNL     3     -10.221  13.670  67.661  1.00  0.00    -0.239 C  
HETATM   24  O   UNL     3     -10.201  13.524  69.087  1.00  0.00    -0.426 OA 
HETATM   25  H   UNL     3     -11.095  13.388  69.378  1.00  0.00     0.000 HD 
BRANCH  23  26
HETATM   26  C   UNL     3     -11.283  14.735  67.303  1.00  0.00    -0.346 C  
HETATM   27  O   UNL     3     -12.503  14.475  68.016  1.00  0.00    -0.598 OA 
HETATM   28  H   UNL     3     -13.156  15.130  67.796  1.00  0.00     0.000 HD 
BRANCH  26  29
HETATM   29  C   UNL     3     -11.556  14.650  65.783  1.00  0.00    -0.328 C  
HETATM   30  C   UNL     3     -11.766  13.234  65.190  1.00  0.00    -0.330 C  
HETATM   31  O   UNL     3     -10.464  15.288  65.035  1.00  0.00    -0.399 OA 
HETATM   32  O   UNL     3     -12.526  12.434  65.760  1.00  0.00    -0.615 OA 
HETATM   33  O   UNL     3     -11.076  13.091  64.089  1.00  0.00    -0.364 OA 
HETATM   34  H   UNL     3     -10.632  15.236  64.102  1.00  0.00     0.000 HD 
ENDBRANCH  26  29
ENDBRANCH  23  26
ENDBRANCH   3  23
BRANCH   3  35
HETATM   35  C   UNL     3      -7.715  13.807  68.279  1.00  0.00    -0.138 C  
HETATM   36  O   UNL     3      -6.526  14.407  67.755  1.00  0.00    -0.154 OA 
HETATM   37  H   UNL     3      -5.859  14.357  68.431  1.00  0.00     0.000 HD 
ENDBRANCH   3  35
TORSDOF 8
ENDMDL
MODEL      136
REMARK 921   NORMALIZED FREE ENERGY PREDICTED BY IDOCK:   -4.63 KCAL/MOL
REMARK 922        TOTAL FREE ENERGY PREDICTED BY IDOCK:   -8.89 KCAL/MOL
REMARK 923 INTER-LIGAND FREE ENERGY PREDICTED BY IDOCK:   -8.12 KCAL/MOL
REMARK 924 INTRA-LIGAND FREE ENERGY PREDICTED BY IDOCK:   -0.77 KCAL/MOL
REMARK 927      BINDING AFFINITY PREDICTED BY RF-SCORE:    0.00 PKD
ROOT
HETATM    1 FE   UNL     1     -12.986  15.597  69.056  1.00  0.00    -0.561 Fe 
HETATM    2  C   UNL     2      -7.533  19.480  67.879  1.00  0.00    -0.275 C  
HETATM    3  C   UNL     3     -10.463  10.689  65.886  1.00  0.00    -0.174 C  
HETATM    4  H   UNL     3      -9.103   9.952  67.070  1.00  0.00     0.000 HD 
HETATM    5  H   UNL     2      -7.906  18.711  69.660  1.00  0.00     0.000 HD 
HETATM    6  O   UNL     2      -7.882  19.574  69.264  1.00  0.00    -0.308 OA 
HETATM    7  O   UNL     3      -9.089  10.417  66.242  1.00  0.00    -0.153 OA 
ENDROOT
BRANCH   2   8
HETATM    8  C   UNL     2      -7.495  20.871  67.240  1.00  0.00    -0.288 C  
HETATM    9  H   UNL     2      -6.424  21.833  65.878  1.00  0.00     0.000 HD 
HETATM   10  O   UNL     2      -6.447  20.970  66.274  1.00  0.00    -0.256 OA 
ENDBRANCH   2   8
BRANCH   2  11
HETATM   11  C   UNL     2      -8.511  18.530  67.160  1.00  0.00    -0.265 C  
HETATM   12  H   UNL     2     -10.135  18.681  66.027  1.00  0.00     0.000 HD 
HETATM   13  O   UNL     2      -9.533  19.266  66.471  1.00  0.00    -0.326 OA 
BRANCH  11  14
HETATM   14  C   UNL     2      -7.746  17.646  66.159  1.00  0.00    -0.258 C  
HETATM   15  H   UNL     2      -8.170  16.089  65.018  1.00  0.00     0.000 HD 
HETATM   16  O   UNL     2      -8.643  16.635  65.636  1.00  0.00    -0.388 OA 
BRANCH  14  17
HETATM   17  C   UNL     2      -6.530  16.931  66.739  1.00  0.00    -0.212 C  
HETATM   18  C   UNL     2      -6.937  15.764  67.658  1.00  0.00    -0.169 C  
HETATM   19  H   UNL     2      -5.013  17.449  67.883  1.00  0.00     0.000 HD 
HETATM   20  O   UNL     2      -5.770  17.894  67.521  1.00  0.00    -0.135 OA 
HETATM   21  O   UNL     2      -7.273  16.086  68.868  1.00  0.00    -0.145 OA 
HETATM   22  O   UNL     2      -6.641  14.602  67.389  1.00  0.00    -0.283 OA 
ENDBRANCH  14  17
ENDBRANCH  11  14
ENDBRANCH   2  11
BRANCH   3  23
HETATM   23  C   UNL     3     -11.069  11.448  67.061  1.00  0.00    -0.303 C  
HETATM   24  O   UNL     3     -11.630  10.487  67.964  1.00  0.00    -0.640 OA 
HETATM   25  H   UNL     3     -12.007  10.961  68.696  1.00  0.00     0.000 HD 
BRANCH  23  26
HETATM   26  C   UNL     3     -10.157  12.395  67.874  1.00  0.00    -0.208 C  
HETATM   27  O   UNL     3     -10.671  12.551  69.207  1.00  0.00    -0.432 OA 
HETATM   28  H   UNL     3     -10.110  13.133  69.707  1.00  0.00     0.000 HD 
BRANCH  26  29
HETATM   29  C   UNL     3     -10.146  13.773  67.171  1.00  0.00    -0.241 C  
HETATM   30  C   UNL     3     -11.494  14.274  66.595  1.00  0.00    -0.364 C  
HETATM   31  O   UNL     3      -9.166  13.776  66.077  1.00  0.00    -0.493 OA 
HETATM   32  O   UNL     3     -12.523  14.206  67.289  1.00  0.00    -0.253 OA 
HETATM   33  O   UNL     3     -11.331  14.742  65.386  1.00  0.00    -0.340 OA 
HETATM   34  H   UNL     3      -9.159  14.622  65.645  1.00  0.00     0.000 HD 
ENDBRANCH  26  29
ENDBRANCH  23  26
ENDBRANCH   3  23
BRANCH   3  35
HETATM   35  C   UNL     3     -10.440  11.437  64.553  1.00  0.00    -0.322 C  
HETATM   36  O   UNL     3     -11.796  11.722  64.196  1.00  0.00    -0.327 OA 
HETATM   37  H   UNL     3     -11.782  12.187  63.367  1.00  0.00     0.000 HD 
ENDBRANCH   3  35
TORSDOF 8
ENDMDL
MODEL      137
REMARK 921   NORMALIZED FREE ENERGY PREDICTED BY IDOCK:   -4.63 KCAL/MOL
REMARK 922        TOTAL FREE ENERGY PREDICTED BY IDOCK:   -8.89 KCAL/MOL
REMARK 923 INTER-LIGAND FREE ENERGY PREDICTED BY IDOCK:   -7.14 KCAL/MOL
REMARK 924 INTRA-LIGAND FREE ENERGY PREDICTED BY IDOCK:   -1.75 KCAL/MOL
REMARK 927      BINDING AFFINITY PREDICTED BY RF-SCORE:    0.00 PKD
ROOT
HETATM    1 FE   UNL     1      -7.589   9.159  66.900  1.00  0.00    -0.082 Fe 
HETATM    2  C   UNL     2      -9.826   6.055  72.517  1.00  0.00    -0.164 C  
HETATM    3  C   UNL     3     -10.644  14.543  68.379  1.00  0.00    -0.244 C  
HETATM    4  H   UNL     3      -9.597  15.356  69.807  1.00  0.00     0.000 HD 
HETATM    5  H   UNL     2      -7.951   6.649  72.326  1.00  0.00     0.000 HD 
HETATM    6  O   UNL     2      -8.419   5.825  72.387  1.00  0.00    -0.118 OA 
HETATM    7  O   UNL     3     -10.457  14.954  69.752  1.00  0.00    -0.212 OA 
ENDROOT
BRANCH   2   8
HETATM    8  C   UNL     2     -10.580   4.727  72.615  1.00  0.00    -0.211 C  
HETATM    9  H   UNL     2     -11.670   3.751  73.953  1.00  0.00     0.000 HD 
HETATM   10  O   UNL     2     -11.202   4.575  73.892  1.00  0.00    -0.247 OA 
ENDBRANCH   2   8
BRANCH   2  11
HETATM   11  C   UNL     2     -10.321   6.927  71.347  1.00  0.00    -0.201 C  
HETATM   12  H   UNL     2     -11.557   6.744  69.804  1.00  0.00     0.000 HD 
HETATM   13  O   UNL     2     -11.251   6.207  70.525  1.00  0.00    -0.320 OA 
BRANCH  11  14
HETATM   14  C   UNL     2     -10.989   8.204  71.887  1.00  0.00    -0.275 C  
HETATM   15  H   UNL     2     -11.906   8.738  73.553  1.00  0.00     0.000 HD 
HETATM   16  O   UNL     2     -11.494   7.949  73.220  1.00  0.00    -0.290 OA 
BRANCH  14  17
HETATM   17  C   UNL     2     -12.149   8.723  71.043  1.00  0.00    -0.225 C  
HETATM   18  C   UNL     2     -12.007  10.225  70.736  1.00  0.00    -0.360 C  
HETATM   19  H   UNL     2     -14.102   8.839  71.267  1.00  0.00     0.000 HD 
HETATM   20  O   UNL     2     -13.380   8.516  71.792  1.00  0.00    -0.340 OA 
HETATM   21  O   UNL     2     -12.384  11.033  71.678  1.00  0.00    -0.257 OA 
HETATM   22  O   UNL     2     -11.878  10.636  69.586  1.00  0.00    -0.279 OA 
ENDBRANCH  14  17
ENDBRANCH  11  14
ENDBRANCH   2  11
BRANCH   3  23
HETATM   23  C   UNL     3      -9.466  13.637  68.038  1.00  0.00    -0.209 C  
HETATM   24  O   UNL     3      -9.592  12.440  68.816  1.00  0.00    -0.396 OA 
HETATM   25  H   UNL     3      -8.858  11.876  68.604  1.00  0.00     0.000 HD 
BRANCH  23  26
HETATM   26  C   UNL     3      -9.254  13.229  66.562  1.00  0.00    -0.172 C  
HETATM   27  O   UNL     3      -9.907  14.169  65.692  1.00  0.00    -0.420 OA 
HETATM   28  H   UNL     3      -9.776  13.918  64.784  1.00  0.00     0.000 HD 
BRANCH  26  29
HETATM   29  C   UNL     3      -9.879  11.830  66.356  1.00  0.00    -0.214 C  
HETATM   30  C   UNL     3      -9.203  10.910  65.308  1.00  0.00    -0.210 C  
HETATM   31  O   UNL     3     -11.296  11.956  65.989  1.00  0.00    -0.334 OA 
HETATM   32  O   UNL     3      -7.967  10.781  65.308  1.00  0.00    -0.107 OA 
HETATM   33  O   UNL     3     -10.101  10.356  64.538  1.00  0.00    -0.346 OA 
HETATM   34  H   UNL     3     -11.680  11.097  65.862  1.00  0.00     0.000 HD 
ENDBRANCH  26  29
ENDBRANCH  23  26
ENDBRANCH   3  23
BRANCH   3  35
HETATM   35  C   UNL     3     -12.026  13.897  68.290  1.00  0.00    -0.357 C  
HETATM   36  O   UNL     3     -12.613  14.305  67.050  1.00  0.00    -0.553 OA 
HETATM   37  H   UNL     3     -13.472  13.903  66.995  1.00  0.00     0.000 HD 
ENDBRANCH   3  35
TORSDOF 8
ENDMDL
MODEL      138
REMARK 921   NORMALIZED FREE ENERGY PREDICTED BY IDOCK:   -4.62 KCAL/MOL
REMARK 922        TOTAL FREE ENERGY PREDICTED BY IDOCK:   -8.89 KCAL/MOL
REMARK 923 INTER-LIGAND FREE ENERGY PREDICTED BY IDOCK:   -6.51 KCAL/MOL
REMARK 924 INTRA-LIGAND FREE ENERGY PREDICTED BY IDOCK:   -2.38 KCAL/MOL
REMARK 927      BINDING AFFINITY PREDICTED BY RF-SCORE:    0.00 PKD
ROOT
HETATM    1 FE   UNL     1      -6.883   7.799  67.042  1.00  0.00    -0.053 Fe 
HETATM    2  C   UNL     2     -10.380  13.374  65.345  1.00  0.00    -0.312 C  
HETATM    3  C   UNL     3     -10.555   6.765  72.137  1.00  0.00    -0.211 C  
HETATM    4  H   UNL     3     -12.232   6.065  71.432  1.00  0.00     0.000 HD 
HETATM    5  H   UNL     2     -10.545  11.686  64.332  1.00  0.00     0.000 HD 
HETATM    6  O   UNL     2     -10.206  12.561  64.181  1.00  0.00    -0.359 OA 
HETATM    7  O   UNL     3     -11.970   6.872  71.860  1.00  0.00    -0.299 OA 
ENDROOT
BRANCH   2   8
HETATM    8  C   UNL     2      -9.834  14.784  65.102  1.00  0.00    -0.129 C  
HETATM    9  H   UNL     2     -10.466  16.654  65.274  1.00  0.00     0.000 HD 
HETATM   10  O   UNL     2     -10.805  15.780  65.425  1.00  0.00    -0.360 OA 
ENDBRANCH   2   8
BRANCH   2  11
HETATM   11  C   UNL     2      -9.722  12.691  66.560  1.00  0.00    -0.256 C  
HETATM   12  H   UNL     2      -8.845  13.242  68.254  1.00  0.00     0.000 HD 
HETATM   13  O   UNL     2      -9.250  13.662  67.506  1.00  0.00    -0.200 OA 
BRANCH  11  14
HETATM   14  C   UNL     2     -10.727  11.749  67.244  1.00  0.00    -0.237 C  
HETATM   15  H   UNL     2     -12.693  11.637  67.407  1.00  0.00     0.000 HD 
HETATM   16  O   UNL     2     -12.072  12.219  66.984  1.00  0.00    -0.575 OA 
BRANCH  14  17
HETATM   17  C   UNL     2     -10.563  11.629  68.756  1.00  0.00    -0.212 C  
HETATM   18  C   UNL     2     -10.162  10.203  69.176  1.00  0.00    -0.214 C  
HETATM   19  H   UNL     2     -11.736  11.880  70.318  1.00  0.00     0.000 HD 
HETATM   20  O   UNL     2     -11.838  11.955  69.376  1.00  0.00    -0.301 OA 
HETATM   21  O   UNL     2     -11.130   9.343  69.255  1.00  0.00    -0.169 OA 
HETATM   22  O   UNL     2      -9.088   9.973  69.725  1.00  0.00    -0.215 OA 
ENDBRANCH  14  17
ENDBRANCH  11  14
ENDBRANCH   2  11
BRANCH   3  23
HETATM   23  C   UNL     3      -9.878   6.472  70.803  1.00  0.00    -0.184 C  
HETATM   24  O   UNL     3      -8.469   6.356  71.040  1.00  0.00    -0.125 OA 
HETATM   25  H   UNL     3      -8.047   6.174  70.209  1.00  0.00     0.000 HD 
BRANCH  23  26
HETATM   26  C   UNL     3     -10.333   5.230  70.003  1.00  0.00    -0.295 C  
HETATM   27  O   UNL     3      -9.382   4.164  70.164  1.00  0.00    -0.129 OA 
HETATM   28  H   UNL     3      -9.662   3.400  69.672  1.00  0.00     0.000 HD 
BRANCH  26  29
HETATM   29  C   UNL     3     -10.406   5.621  68.509  1.00  0.00    -0.199 C  
HETATM   30  C   UNL     3      -9.115   6.189  67.871  1.00  0.00    -0.117 C  
HETATM   31  O   UNL     3     -11.478   6.603  68.294  1.00  0.00    -0.560 OA 
HETATM   32  O   UNL     3      -8.029   5.615  68.062  1.00  0.00    -0.096 OA 
HETATM   33  O   UNL     3      -9.383   7.253  67.161  1.00  0.00    -0.132 OA 
HETATM   34  H   UNL     3     -11.523   6.843  67.376  1.00  0.00     0.000 HD 
ENDBRANCH  26  29
ENDBRANCH  23  26
ENDBRANCH   3  23
BRANCH   3  35
HETATM   35  C   UNL     3     -10.133   8.063  72.824  1.00  0.00    -0.308 C  
HETATM   36  O   UNL     3      -9.265   7.714  73.907  1.00  0.00    -0.262 OA 
HETATM   37  H   UNL     3      -9.003   8.522  74.334  1.00  0.00     0.000 HD 
ENDBRANCH   3  35
TORSDOF 8
ENDMDL
MODEL      139
REMARK 921   NORMALIZED FREE ENERGY PREDICTED BY IDOCK:   -4.62 KCAL/MOL
REMARK 922        TOTAL FREE ENERGY PREDICTED BY IDOCK:   -8.88 KCAL/MOL
REMARK 923 INTER-LIGAND FREE ENERGY PREDICTED BY IDOCK:   -7.47 KCAL/MOL
REMARK 924 INTRA-LIGAND FREE ENERGY PREDICTED BY IDOCK:   -1.42 KCAL/MOL
REMARK 927      BINDING AFFINITY PREDICTED BY RF-SCORE:    0.00 PKD
ROOT
HETATM    1 FE   UNL     1      -6.216  11.844  66.008  1.00  0.00    -0.301 Fe 
HETATM    2  C   UNL     2      -8.549   6.468  69.449  1.00  0.00    -0.134 C  
HETATM    3  C   UNL     3     -12.069  13.443  64.084  1.00  0.00    -0.433 C  
HETATM    4  H   UNL     3     -12.930  14.228  65.645  1.00  0.00     0.000 HD 
HETATM    5  H   UNL     2      -7.922   8.103  70.363  1.00  0.00     0.000 HD 
HETATM    6  O   UNL     2      -7.644   7.198  70.284  1.00  0.00    -0.087 OA 
HETATM    7  O   UNL     3     -13.049  13.429  65.145  1.00  0.00    -0.724 OA 
ENDROOT
BRANCH   2   8
HETATM    8  C   UNL     2      -8.101   5.009  69.322  1.00  0.00    -0.083 C  
HETATM    9  H   UNL     2      -6.683   3.837  70.059  1.00  0.00     0.000 HD 
HETATM   10  O   UNL     2      -6.960   4.742  70.138  1.00  0.00    -0.046 OA 
ENDBRANCH   2   8
BRANCH   2  11
HETATM   11  C   UNL     2      -8.673   7.165  68.081  1.00  0.00    -0.127 C  
HETATM   12  H   UNL     2      -9.325   6.716  66.260  1.00  0.00     0.000 HD 
HETATM   13  O   UNL     2      -9.248   6.286  67.103  1.00  0.00    -0.120 OA 
BRANCH  11  14
HETATM   14  C   UNL     2      -9.538   8.431  68.211  1.00  0.00    -0.144 C  
HETATM   15  H   UNL     2     -11.213   8.924  69.136  1.00  0.00     0.000 HD 
HETATM   16  O   UNL     2     -10.679   8.142  69.056  1.00  0.00    -0.185 OA 
BRANCH  14  17
HETATM   17  C   UNL     2     -10.068   8.980  66.890  1.00  0.00    -0.267 C  
HETATM   18  C   UNL     2      -8.974   9.721  66.098  1.00  0.00    -0.152 C  
HETATM   19  H   UNL     2     -11.471  10.259  66.366  1.00  0.00     0.000 HD 
HETATM   20  O   UNL     2     -11.141   9.917  67.188  1.00  0.00    -0.163 OA 
HETATM   21  O   UNL     2      -8.739  10.942  66.465  1.00  0.00    -0.152 OA 
HETATM   22  O   UNL     2      -8.597   9.324  64.999  1.00  0.00    -0.156 OA 
ENDBRANCH  14  17
ENDBRANCH  11  14
ENDBRANCH   2  11
BRANCH   3  23
HETATM   23  C   UNL     3     -10.710  13.607  64.756  1.00  0.00    -0.410 C  
HETATM   24  O   UNL     3     -10.111  14.807  64.250  1.00  0.00    -0.320 OA 
HETATM   25  H   UNL     3      -9.264  14.909  64.669  1.00  0.00     0.000 HD 
BRANCH  23  26
HETATM   26  C   UNL     3     -10.654  13.657  66.300  1.00  0.00    -0.289 C  
HETATM   27  O   UNL     3     -11.411  12.570  66.857  1.00  0.00    -0.288 OA 
HETATM   28  H   UNL     3     -11.376  12.600  67.806  1.00  0.00     0.000 HD 
BRANCH  26  29
HETATM   29  C   UNL     3     -11.278  14.995  66.760  1.00  0.00    -0.322 C  
HETATM   30  C   UNL     3     -10.298  16.094  67.242  1.00  0.00    -0.287 C  
HETATM   31  O   UNL     3     -12.246  14.759  67.840  1.00  0.00    -0.583 OA 
HETATM   32  O   UNL     3      -9.287  16.355  66.568  1.00  0.00    -0.238 OA 
HETATM   33  O   UNL     3     -10.722  16.632  68.354  1.00  0.00    -0.319 OA 
HETATM   34  H   UNL     3     -12.629  15.581  68.122  1.00  0.00     0.000 HD 
ENDBRANCH  26  29
ENDBRANCH  23  26
ENDBRANCH   3  23
BRANCH   3  35
HETATM   35  C   UNL     3     -12.260  12.157  63.280  1.00  0.00    -0.426 C  
HETATM   36  O   UNL     3     -10.966  11.586  63.067  1.00  0.00    -0.712 OA 
HETATM   37  H   UNL     3     -11.085  10.786  62.568  1.00  0.00     0.000 HD 
ENDBRANCH   3  35
TORSDOF 8
ENDMDL
MODEL      140
REMARK 921   NORMALIZED FREE ENERGY PREDICTED BY IDOCK:   -4.62 KCAL/MOL
REMARK 922        TOTAL FREE ENERGY PREDICTED BY IDOCK:   -8.88 KCAL/MOL
REMARK 923 INTER-LIGAND FREE ENERGY PREDICTED BY IDOCK:   -6.94 KCAL/MOL
REMARK 924 INTRA-LIGAND FREE ENERGY PREDICTED BY IDOCK:   -1.94 KCAL/MOL
REMARK 927      BINDING AFFINITY PREDICTED BY RF-SCORE:    0.00 PKD
ROOT
HETATM    1 FE   UNL     1      -6.621  11.342  70.980  1.00  0.00    -0.106 Fe 
HETATM    2  C   UNL     2     -10.729   6.369  73.121  1.00  0.00    -0.268 C  
HETATM    3  C   UNL     3     -11.185  13.853  67.323  1.00  0.00    -0.312 C  
HETATM    4  H   UNL     3     -12.399  14.751  68.554  1.00  0.00     0.000 HD 
HETATM    5  H   UNL     2     -10.217   7.879  74.288  1.00  0.00     0.000 HD 
HETATM    6  O   UNL     2     -10.063   6.943  74.251  1.00  0.00    -0.336 OA 
HETATM    7  O   UNL     3     -12.457  13.984  67.996  1.00  0.00    -0.110 OA 
ENDROOT
BRANCH   2   8
HETATM    8  C   UNL     2     -10.481   4.860  73.062  1.00  0.00    -0.199 C  
HETATM    9  H   UNL     2     -10.252   3.357  74.333  1.00  0.00     0.000 HD 
HETATM   10  O   UNL     2     -10.406   4.294  74.371  1.00  0.00    -0.203 OA 
ENDBRANCH   2   8
BRANCH   2  11
HETATM   11  C   UNL     2     -10.282   7.089  71.834  1.00  0.00    -0.187 C  
HETATM   12  H   UNL     2      -9.643   6.590  70.022  1.00  0.00     0.000 HD 
HETATM   13  O   UNL     2      -9.918   6.146  70.815  1.00  0.00    -0.182 OA 
BRANCH  11  14
HETATM   14  C   UNL     2     -11.412   7.997  71.318  1.00  0.00    -0.269 C  
HETATM   15  H   UNL     2     -12.309   8.313  69.587  1.00  0.00     0.000 HD 
HETATM   16  O   UNL     2     -11.612   7.752  69.905  1.00  0.00     0.005 OA 
BRANCH  14  17
HETATM   17  C   UNL     2     -11.162   9.491  71.498  1.00  0.00    -0.367 C  
HETATM   18  C   UNL     2     -12.398  10.328  71.120  1.00  0.00    -0.395 C  
HETATM   19  H   UNL     2      -9.903  10.803  70.741  1.00  0.00     0.000 HD 
HETATM   20  O   UNL     2     -10.059   9.873  70.629  1.00  0.00    -0.240 OA 
HETATM   21  O   UNL     2     -12.565  10.551  69.853  1.00  0.00    -0.244 OA 
HETATM   22  O   UNL     2     -12.984  11.018  71.949  1.00  0.00    -0.457 OA 
ENDBRANCH  14  17
ENDBRANCH  11  14
ENDBRANCH   2  11
BRANCH   3  23
HETATM   23  C   UNL     3     -10.124  13.798  68.417  1.00  0.00    -0.241 C  
HETATM   24  O   UNL     3     -10.665  13.054  69.517  1.00  0.00    -0.435 OA 
HETATM   25  H   UNL     3     -10.004  13.020  70.198  1.00  0.00     0.000 HD 
BRANCH  23  26
HETATM   26  C   UNL     3      -8.740  13.202  68.070  1.00  0.00    -0.190 C  
HETATM   27  O   UNL     3      -8.514  12.004  68.831  1.00  0.00    -0.360 OA 
HETATM   28  H   UNL     3      -7.663  11.638  68.618  1.00  0.00     0.000 HD 
BRANCH  26  29
HETATM   29  C   UNL     3      -7.662  14.247  68.439  1.00  0.00    -0.134 C  
HETATM   30  C   UNL     3      -6.195  13.752  68.486  1.00  0.00    -0.092 C  
HETATM   31  O   UNL     3      -7.968  14.854  69.742  1.00  0.00    -0.406 OA 
HETATM   32  O   UNL     3      -5.750  13.055  67.557  1.00  0.00    -0.222 OA 
HETATM   33  O   UNL     3      -5.598  14.187  69.563  1.00  0.00    -0.090 OA 
HETATM   34  H   UNL     3      -7.306  15.496  69.968  1.00  0.00     0.000 HD 
ENDBRANCH  26  29
ENDBRANCH  23  26
ENDBRANCH   3  23
BRANCH   3  35
HETATM   35  C   UNL     3     -11.278  12.620  66.425  1.00  0.00    -0.305 C  
HETATM   36  O   UNL     3     -11.883  11.574  67.192  1.00  0.00    -0.595 OA 
HETATM   37  H   UNL     3     -11.941  10.807  66.634  1.00  0.00     0.000 HD 
ENDBRANCH   3  35
TORSDOF 8
ENDMDL
MODEL      141
REMARK 921   NORMALIZED FREE ENERGY PREDICTED BY IDOCK:   -4.61 KCAL/MOL
REMARK 922        TOTAL FREE ENERGY PREDICTED BY IDOCK:   -8.86 KCAL/MOL
REMARK 923 INTER-LIGAND FREE ENERGY PREDICTED BY IDOCK:   -7.89 KCAL/MOL
REMARK 924 INTRA-LIGAND FREE ENERGY PREDICTED BY IDOCK:   -0.97 KCAL/MOL
REMARK 927      BINDING AFFINITY PREDICTED BY RF-SCORE:    0.00 PKD
ROOT
HETATM    1 FE   UNL     1      -6.513  11.532  69.032  1.00  0.00    -0.049 Fe 
HETATM    2  C   UNL     2     -10.420   7.459  72.818  1.00  0.00    -0.275 C  
HETATM    3  C   UNL     3     -11.541  13.769  65.834  1.00  0.00    -0.333 C  
HETATM    4  H   UNL     3     -12.433  14.990  67.063  1.00  0.00     0.000 HD 
HETATM    5  H   UNL     2      -9.598   9.099  73.551  1.00  0.00     0.000 HD 
HETATM    6  O   UNL     2      -9.513   8.160  73.673  1.00  0.00    -0.208 OA 
HETATM    7  O   UNL     3     -12.646  14.144  66.687  1.00  0.00    -0.349 OA 
ENDROOT
BRANCH   2   8
HETATM    8  C   UNL     2     -10.282   5.947  73.014  1.00  0.00    -0.192 C  
HETATM    9  H   UNL     2     -11.474   4.381  73.250  1.00  0.00     0.000 HD 
HETATM   10  O   UNL     2     -11.560   5.319  73.128  1.00  0.00    -0.297 OA 
ENDBRANCH   2   8
BRANCH   2  11
HETATM   11  C   UNL     2     -10.191   7.885  71.355  1.00  0.00    -0.190 C  
HETATM   12  H   UNL     2      -9.413   9.431  70.383  1.00  0.00     0.000 HD 
HETATM   13  O   UNL     2      -9.554   9.169  71.284  1.00  0.00    -0.275 OA 
BRANCH  11  14
HETATM   14  C   UNL     2      -9.326   6.838  70.631  1.00  0.00    -0.162 C  
HETATM   15  H   UNL     2      -7.562   6.815  69.741  1.00  0.00     0.000 HD 
HETATM   16  O   UNL     2      -8.096   7.462  70.188  1.00  0.00    -0.125 OA 
BRANCH  14  17
HETATM   17  C   UNL     2      -9.985   6.198  69.413  1.00  0.00    -0.166 C  
HETATM   18  C   UNL     2      -9.843   7.077  68.157  1.00  0.00    -0.139 C  
HETATM   19  H   UNL     2     -11.811   5.628  68.945  1.00  0.00     0.000 HD 
HETATM   20  O   UNL     2     -11.400   6.027  69.703  1.00  0.00    -0.411 OA 
HETATM   21  O   UNL     2     -10.690   8.053  68.051  1.00  0.00    -0.158 OA 
HETATM   22  O   UNL     2      -9.218   6.693  67.172  1.00  0.00    -0.121 OA 
ENDBRANCH  14  17
ENDBRANCH  11  14
ENDBRANCH   2  11
BRANCH   3  23
HETATM   23  C   UNL     3     -10.292  13.810  66.708  1.00  0.00    -0.272 C  
HETATM   24  O   UNL     3      -9.209  13.251  65.954  1.00  0.00    -0.467 OA 
HETATM   25  H   UNL     3      -8.431  13.276  66.499  1.00  0.00     0.000 HD 
BRANCH  23  26
HETATM   26  C   UNL     3      -9.831  15.174  67.271  1.00  0.00    -0.228 C  
HETATM   27  O   UNL     3     -10.957  15.897  67.795  1.00  0.00    -0.321 OA 
HETATM   28  H   UNL     3     -10.674  16.736  68.141  1.00  0.00     0.000 HD 
BRANCH  26  29
HETATM   29  C   UNL     3      -9.204  15.983  66.113  1.00  0.00    -0.352 C  
HETATM   30  C   UNL     3      -7.896  16.753  66.426  1.00  0.00    -0.318 C  
HETATM   31  O   UNL     3     -10.175  16.952  65.587  1.00  0.00    -0.542 OA 
HETATM   32  O   UNL     3      -6.976  16.181  67.035  1.00  0.00    -0.201 OA 
HETATM   33  O   UNL     3      -7.955  17.970  65.953  1.00  0.00    -0.521 OA 
HETATM   34  H   UNL     3      -9.789  17.450  64.875  1.00  0.00     0.000 HD 
ENDBRANCH  26  29
ENDBRANCH  23  26
ENDBRANCH   3  23
BRANCH   3  35
HETATM   35  C   UNL     3     -11.884  12.407  65.230  1.00  0.00    -0.399 C  
HETATM   36  O   UNL     3     -13.134  12.542  64.548  1.00  0.00    -0.816 OA 
HETATM   37  H   UNL     3     -13.347  11.695  64.172  1.00  0.00     0.000 HD 
ENDBRANCH   3  35
TORSDOF 8
ENDMDL
MODEL      142
REMARK 921   NORMALIZED FREE ENERGY PREDICTED BY IDOCK:   -4.59 KCAL/MOL
REMARK 922        TOTAL FREE ENERGY PREDICTED BY IDOCK:   -8.83 KCAL/MOL
REMARK 923 INTER-LIGAND FREE ENERGY PREDICTED BY IDOCK:   -7.30 KCAL/MOL
REMARK 924 INTRA-LIGAND FREE ENERGY PREDICTED BY IDOCK:   -1.53 KCAL/MOL
REMARK 927      BINDING AFFINITY PREDICTED BY RF-SCORE:    0.00 PKD
ROOT
HETATM    1 FE   UNL     1      -9.316  14.776  70.308  1.00  0.00    -0.409 Fe 
HETATM    2  C   UNL     2      -8.857   8.146  71.732  1.00  0.00    -0.155 C  
HETATM    3  C   UNL     3     -11.982  13.612  64.647  1.00  0.00    -0.407 C  
HETATM    4  H   UNL     3     -13.819  13.092  65.038  1.00  0.00     0.000 HD 
HETATM    5  H   UNL     2     -10.183   9.317  72.613  1.00  0.00     0.000 HD 
HETATM    6  O   UNL     2      -9.408   8.828  72.863  1.00  0.00    -0.242 OA 
HETATM    7  O   UNL     3     -13.052  12.642  64.702  1.00  0.00    -0.821 OA 
ENDROOT
BRANCH   2   8
HETATM    8  C   UNL     2      -7.607   7.360  72.136  1.00  0.00    -0.084 C  
HETATM    9  H   UNL     2      -7.095   5.470  72.442  1.00  0.00     0.000 HD 
HETATM   10  O   UNL     2      -7.871   5.957  72.191  1.00  0.00    -0.101 OA 
ENDBRANCH   2   8
BRANCH   2  11
HETATM   11  C   UNL     2      -8.576   9.155  70.602  1.00  0.00    -0.226 C  
HETATM   12  H   UNL     2      -7.015   9.771  69.541  1.00  0.00     0.000 HD 
HETATM   13  O   UNL     2      -7.188   9.150  70.238  1.00  0.00    -0.055 OA 
BRANCH  11  14
HETATM   14  C   UNL     2      -9.436   8.820  69.370  1.00  0.00    -0.161 C  
HETATM   15  H   UNL     2     -11.288   9.178  68.784  1.00  0.00     0.000 HD 
HETATM   16  O   UNL     2     -10.758   9.386  69.544  1.00  0.00    -0.220 OA 
BRANCH  14  17
HETATM   17  C   UNL     2      -9.603   7.329  69.096  1.00  0.00    -0.155 C  
HETATM   18  C   UNL     2      -8.423   6.760  68.285  1.00  0.00    -0.125 C  
HETATM   19  H   UNL     2     -10.929   6.217  68.156  1.00  0.00     0.000 HD 
HETATM   20  O   UNL     2     -10.825   7.145  68.328  1.00  0.00    -0.179 OA 
HETATM   21  O   UNL     2      -8.468   6.959  67.005  1.00  0.00    -0.119 OA 
HETATM   22  O   UNL     2      -7.682   5.899  68.749  1.00  0.00    -0.088 OA 
ENDBRANCH  14  17
ENDBRANCH  11  14
ENDBRANCH   2  11
BRANCH   3  23
HETATM   23  C   UNL     3     -11.850  14.185  66.054  1.00  0.00    -0.398 C  
HETATM   24  O   UNL     3     -12.989  13.757  66.812  1.00  0.00    -0.193 OA 
HETATM   25  H   UNL     3     -12.907  14.114  67.688  1.00  0.00     0.000 HD 
BRANCH  23  26
HETATM   26  C   UNL     3     -10.579  13.853  66.868  1.00  0.00    -0.280 C  
HETATM   27  O   UNL     3     -10.926  13.088  68.034  1.00  0.00    -0.235 OA 
HETATM   28  H   UNL     3     -10.144  12.884  68.535  1.00  0.00     0.000 HD 
BRANCH  26  29
HETATM   29  C   UNL     3      -9.930  15.185  67.310  1.00  0.00    -0.230 C  
HETATM   30  C   UNL     3     -10.828  16.173  68.097  1.00  0.00    -0.329 C  
HETATM   31  O   UNL     3      -9.398  15.902  66.143  1.00  0.00    -0.294 OA 
HETATM   32  O   UNL     3     -11.524  15.755  69.038  1.00  0.00    -0.341 OA 
HETATM   33  O   UNL     3     -10.695  17.386  67.630  1.00  0.00    -0.363 OA 
HETATM   34  H   UNL     3      -8.999  16.720  66.415  1.00  0.00     0.000 HD 
ENDBRANCH  26  29
ENDBRANCH  23  26
ENDBRANCH   3  23
BRANCH   3  35
HETATM   35  C   UNL     3     -10.749  12.888  64.107  1.00  0.00    -0.415 C  
HETATM   36  O   UNL     3     -11.182  12.038  63.041  1.00  0.00    -0.675 OA 
HETATM   37  H   UNL     3     -10.415  11.588  62.705  1.00  0.00     0.000 HD 
ENDBRANCH   3  35
TORSDOF 8
ENDMDL
MODEL      143
REMARK 921   NORMALIZED FREE ENERGY PREDICTED BY IDOCK:   -4.58 KCAL/MOL
REMARK 922        TOTAL FREE ENERGY PREDICTED BY IDOCK:   -8.82 KCAL/MOL
REMARK 923 INTER-LIGAND FREE ENERGY PREDICTED BY IDOCK:   -7.86 KCAL/MOL
REMARK 924 INTRA-LIGAND FREE ENERGY PREDICTED BY IDOCK:   -0.96 KCAL/MOL
REMARK 927      BINDING AFFINITY PREDICTED BY RF-SCORE:    0.00 PKD
ROOT
HETATM    1 FE   UNL     1     -10.469   8.075  65.573  1.00  0.00    -0.365 Fe 
HETATM    2  C   UNL     2     -11.638  14.770  65.565  1.00  0.00    -0.301 C  
HETATM    3  C   UNL     3      -8.548   8.183  71.640  1.00  0.00    -0.140 C  
HETATM    4  H   UNL     3     -10.175   8.372  72.694  1.00  0.00     0.000 HD 
HETATM    5  H   UNL     2     -13.109  13.450  65.591  1.00  0.00     0.000 HD 
HETATM    6  O   UNL     2     -12.764  14.100  64.989  1.00  0.00    -0.631 OA 
HETATM    7  O   UNL     3      -9.427   8.929  72.510  1.00  0.00    -0.287 OA 
ENDROOT
BRANCH   2   8
HETATM    8  C   UNL     2     -11.083  15.816  64.595  1.00  0.00    -0.361 C  
HETATM    9  H   UNL     2     -10.371  17.664  64.677  1.00  0.00     0.000 HD 
HETATM   10  O   UNL     2     -10.716  17.015  65.279  1.00  0.00    -0.616 OA 
ENDBRANCH   2   8
BRANCH   2  11
HETATM   11  C   UNL     2     -10.576  13.735  65.985  1.00  0.00    -0.290 C  
HETATM   12  H   UNL     2      -9.223  13.525  67.422  1.00  0.00     0.000 HD 
HETATM   13  O   UNL     2      -9.877  14.162  67.163  1.00  0.00    -0.243 OA 
BRANCH  11  14
HETATM   14  C   UNL     2     -11.240  12.372  66.243  1.00  0.00    -0.317 C  
HETATM   15  H   UNL     2     -12.670  11.682  67.419  1.00  0.00     0.000 HD 
HETATM   16  O   UNL     2     -12.260  12.525  67.260  1.00  0.00    -0.454 OA 
BRANCH  14  17
HETATM   17  C   UNL     2     -10.287  11.274  66.703  1.00  0.00    -0.237 C  
HETATM   18  C   UNL     2      -9.266  10.907  65.611  1.00  0.00    -0.203 C  
HETATM   19  H   UNL     2     -10.482   9.409  67.305  1.00  0.00     0.000 HD 
HETATM   20  O   UNL     2     -11.076  10.093  67.018  1.00  0.00    -0.167 OA 
HETATM   21  O   UNL     2      -9.689  10.096  64.691  1.00  0.00    -0.297 OA 
HETATM   22  O   UNL     2      -8.061  11.080  65.774  1.00  0.00    -0.135 OA 
ENDBRANCH  14  17
ENDBRANCH  11  14
ENDBRANCH   2  11
BRANCH   3  23
HETATM   23  C   UNL     3      -9.383   7.776  70.431  1.00  0.00    -0.160 C  
HETATM   24  O   UNL     3      -8.495   7.242  69.441  1.00  0.00    -0.131 OA 
HETATM   25  H   UNL     3      -9.016   6.989  68.688  1.00  0.00     0.000 HD 
BRANCH  23  26
HETATM   26  C   UNL     3     -10.534   6.765  70.639  1.00  0.00    -0.215 C  
HETATM   27  O   UNL     3     -11.796   7.385  70.339  1.00  0.00    -0.481 OA 
HETATM   28  H   UNL     3     -12.503   6.763  70.467  1.00  0.00     0.000 HD 
BRANCH  26  29
HETATM   29  C   UNL     3     -10.525   6.325  72.121  1.00  0.00    -0.199 C  
HETATM   30  C   UNL     3     -10.624   4.804  72.399  1.00  0.00    -0.180 C  
HETATM   31  O   UNL     3     -11.617   6.982  72.851  1.00  0.00    -0.505 OA 
HETATM   32  O   UNL     3      -9.907   4.014  71.761  1.00  0.00    -0.165 OA 
HETATM   33  O   UNL     3     -11.495   4.565  73.342  1.00  0.00    -0.316 OA 
HETATM   34  H   UNL     3     -11.612   6.711  73.762  1.00  0.00     0.000 HD 
ENDBRANCH  26  29
ENDBRANCH  23  26
ENDBRANCH   3  23
BRANCH   3  35
HETATM   35  C   UNL     3      -7.345   9.079  71.343  1.00  0.00    -0.036 C  
HETATM   36  O   UNL     3      -7.811  10.176  70.551  1.00  0.00    -0.424 OA 
HETATM   37  H   UNL     3      -7.064  10.733  70.367  1.00  0.00     0.000 HD 
ENDBRANCH   3  35
TORSDOF 8
ENDMDL
MODEL      144
REMARK 921   NORMALIZED FREE ENERGY PREDICTED BY IDOCK:   -4.58 KCAL/MOL
REMARK 922        TOTAL FREE ENERGY PREDICTED BY IDOCK:   -8.81 KCAL/MOL
REMARK 923 INTER-LIGAND FREE ENERGY PREDICTED BY IDOCK:   -7.25 KCAL/MOL
REMARK 924 INTRA-LIGAND FREE ENERGY PREDICTED BY IDOCK:   -1.56 KCAL/MOL
REMARK 927      BINDING AFFINITY PREDICTED BY RF-SCORE:    0.00 PKD
ROOT
HETATM    1 FE   UNL     1      -6.663  11.994  66.818  1.00  0.00    -0.107 Fe 
HETATM    2  C   UNL     2      -9.269   8.017  71.674  1.00  0.00    -0.150 C  
HETATM    3  C   UNL     3     -12.434  13.324  64.486  1.00  0.00    -0.319 C  
HETATM    4  H   UNL     3     -13.223  14.584  65.746  1.00  0.00     0.000 HD 
HETATM    5  H   UNL     2      -8.530   9.806  72.071  1.00  0.00     0.000 HD 
HETATM    6  O   UNL     2      -8.310   8.902  72.262  1.00  0.00    -0.384 OA 
HETATM    7  O   UNL     3     -13.398  13.682  65.502  1.00  0.00    -0.541 OA 
ENDROOT
BRANCH   2   8
HETATM    8  C   UNL     2      -8.914   6.560  71.981  1.00  0.00    -0.140 C  
HETATM    9  H   UNL     2      -7.306   5.513  72.477  1.00  0.00     0.000 HD 
HETATM   10  O   UNL     2      -7.526   6.417  72.287  1.00  0.00    -0.091 OA 
ENDBRANCH   2   8
BRANCH   2  11
HETATM   11  C   UNL     2      -9.371   8.290  70.161  1.00  0.00    -0.159 C  
HETATM   12  H   UNL     2     -10.538   7.749  68.649  1.00  0.00     0.000 HD 
HETATM   13  O   UNL     2     -10.475   7.581  69.581  1.00  0.00    -0.223 OA 
BRANCH  11  14
HETATM   14  C   UNL     2      -9.534   9.799  69.907  1.00  0.00    -0.231 C  
HETATM   15  H   UNL     2     -10.997  11.119  70.052  1.00  0.00     0.000 HD 
HETATM   16  O   UNL     2     -10.897  10.187  70.209  1.00  0.00    -0.282 OA 
BRANCH  14  17
HETATM   17  C   UNL     2      -9.232  10.242  68.479  1.00  0.00    -0.144 C  
HETATM   18  C   UNL     2      -7.957   9.576  67.930  1.00  0.00    -0.098 C  
HETATM   19  H   UNL     2      -8.848  11.961  67.597  1.00  0.00     0.000 HD 
HETATM   20  O   UNL     2      -9.037  11.684  68.486  1.00  0.00    -0.189 OA 
HETATM   21  O   UNL     2      -6.835  10.116  68.291  1.00  0.00    -0.061 OA 
HETATM   22  O   UNL     2      -7.994   8.819  66.964  1.00  0.00    -0.095 OA 
ENDBRANCH  14  17
ENDBRANCH  11  14
ENDBRANCH   2  11
BRANCH   3  23
HETATM   23  C   UNL     3     -11.059  13.592  65.087  1.00  0.00    -0.316 C  
HETATM   24  O   UNL     3     -10.115  13.661  64.010  1.00  0.00    -0.710 OA 
HETATM   25  H   UNL     3      -9.258  13.828  64.385  1.00  0.00     0.000 HD 
BRANCH  23  26
HETATM   26  C   UNL     3     -10.873  14.847  65.969  1.00  0.00    -0.328 C  
HETATM   27  O   UNL     3     -10.036  15.803  65.297  1.00  0.00    -0.383 OA 
HETATM   28  H   UNL     3      -9.921  16.575  65.840  1.00  0.00     0.000 HD 
BRANCH  26  29
HETATM   29  C   UNL     3     -10.189  14.412  67.285  1.00  0.00    -0.252 C  
HETATM   30  C   UNL     3     -10.788  14.968  68.602  1.00  0.00    -0.249 C  
HETATM   31  O   UNL     3      -8.764  14.771  67.259  1.00  0.00    -0.185 OA 
HETATM   32  O   UNL     3     -12.017  14.934  68.780  1.00  0.00    -0.303 OA 
HETATM   33  O   UNL     3      -9.841  15.403  69.390  1.00  0.00    -0.242 OA 
HETATM   34  H   UNL     3      -8.344  14.503  68.068  1.00  0.00     0.000 HD 
ENDBRANCH  26  29
ENDBRANCH  23  26
ENDBRANCH   3  23
BRANCH   3  35
HETATM   35  C   UNL     3     -12.716  11.873  64.094  1.00  0.00    -0.170 C  
HETATM   36  O   UNL     3     -11.799  11.523  63.052  1.00  0.00    -0.898 OA 
HETATM   37  H   UNL     3     -11.974  10.622  62.809  1.00  0.00     0.000 HD 
ENDBRANCH   3  35
TORSDOF 8
ENDMDL
MODEL      145
REMARK 921   NORMALIZED FREE ENERGY PREDICTED BY IDOCK:   -4.56 KCAL/MOL
REMARK 922        TOTAL FREE ENERGY PREDICTED BY IDOCK:   -8.79 KCAL/MOL
REMARK 923 INTER-LIGAND FREE ENERGY PREDICTED BY IDOCK:   -7.52 KCAL/MOL
REMARK 924 INTRA-LIGAND FREE ENERGY PREDICTED BY IDOCK:   -1.27 KCAL/MOL
REMARK 927      BINDING AFFINITY PREDICTED BY RF-SCORE:    0.00 PKD
ROOT
HETATM    1 FE   UNL     1     -10.604  16.790  64.003  1.00  0.00    -0.126 Fe 
HETATM    2  C   UNL     2      -6.605  18.358  69.269  1.00  0.00    -0.244 C  
HETATM    3  C   UNL     3     -10.005  10.550  65.107  1.00  0.00    -0.309 C  
HETATM    4  H   UNL     3     -11.123  10.191  66.663  1.00  0.00     0.000 HD 
HETATM    5  H   UNL     2      -8.561  18.630  69.323  1.00  0.00     0.000 HD 
HETATM    6  O   UNL     2      -7.781  19.172  69.319  1.00  0.00    -0.256 OA 
HETATM    7  O   UNL     3     -10.187  10.190  66.495  1.00  0.00    -0.222 OA 
ENDROOT
BRANCH   2   8
HETATM    8  C   UNL     2      -5.347  19.231  69.262  1.00  0.00    -0.195 C  
HETATM    9  H   UNL     2      -4.851  21.088  68.778  1.00  0.00     0.000 HD 
HETATM   10  O   UNL     2      -5.631  20.546  68.782  1.00  0.00    -0.258 OA 
ENDBRANCH   2   8
BRANCH   2  11
HETATM   11  C   UNL     2      -6.674  17.418  68.050  1.00  0.00    -0.179 C  
HETATM   12  H   UNL     2      -6.247  15.524  67.633  1.00  0.00     0.000 HD 
HETATM   13  O   UNL     2      -6.205  16.103  68.384  1.00  0.00    -0.108 OA 
BRANCH  11  14
HETATM   14  C   UNL     2      -8.119  17.335  67.529  1.00  0.00    -0.186 C  
HETATM   15  H   UNL     2      -9.471  15.912  67.295  1.00  0.00     0.000 HD 
HETATM   16  O   UNL     2      -8.578  15.964  67.617  1.00  0.00    -0.160 OA 
BRANCH  14  17
HETATM   17  C   UNL     2      -8.305  17.794  66.086  1.00  0.00    -0.136 C  
HETATM   18  C   UNL     2      -7.254  18.843  65.680  1.00  0.00    -0.157 C  
HETATM   19  H   UNL     2      -9.743  18.676  65.071  1.00  0.00     0.000 HD 
HETATM   20  O   UNL     2      -9.627  18.390  65.969  1.00  0.00    -0.493 OA 
HETATM   21  O   UNL     2      -7.496  20.061  66.054  1.00  0.00    -0.301 OA 
HETATM   22  O   UNL     2      -6.439  18.623  64.788  1.00  0.00    -0.487 OA 
ENDBRANCH  14  17
ENDBRANCH  11  14
ENDBRANCH   2  11
BRANCH   3  23
HETATM   23  C   UNL     3     -10.711  11.888  64.915  1.00  0.00    -0.301 C  
HETATM   24  O   UNL     3     -11.095  11.989  63.538  1.00  0.00    -0.433 OA 
HETATM   25  H   UNL     3     -11.535  12.823  63.418  1.00  0.00     0.000 HD 
BRANCH  23  26
HETATM   26  C   UNL     3     -11.953  12.197  65.783  1.00  0.00    -0.194 C  
HETATM   27  O   UNL     3     -13.106  12.385  64.946  1.00  0.00    -0.765 OA 
HETATM   28  H   UNL     3     -13.869  12.574  65.480  1.00  0.00     0.000 HD 
BRANCH  26  29
HETATM   29  C   UNL     3     -11.678  13.501  66.567  1.00  0.00    -0.371 C  
HETATM   30  C   UNL     3     -11.467  13.367  68.096  1.00  0.00    -0.304 C  
HETATM   31  O   UNL     3     -12.769  14.461  66.351  1.00  0.00    -0.486 OA 
HETATM   32  O   UNL     3     -10.707  12.488  68.537  1.00  0.00    -0.228 OA 
HETATM   33  O   UNL     3     -12.156  14.274  68.736  1.00  0.00    -0.324 OA 
HETATM   34  H   UNL     3     -12.600  15.263  66.833  1.00  0.00     0.000 HD 
ENDBRANCH  26  29
ENDBRANCH  23  26
ENDBRANCH   3  23
BRANCH   3  35
HETATM   35  C   UNL     3      -8.501  10.549  64.838  1.00  0.00    -0.158 C  
HETATM   36  O   UNL     3      -8.218   9.438  63.982  1.00  0.00    -0.143 OA 
HETATM   37  H   UNL     3      -7.282   9.437  63.814  1.00  0.00     0.000 HD 
ENDBRANCH   3  35
TORSDOF 8
ENDMDL
MODEL      146
REMARK 921   NORMALIZED FREE ENERGY PREDICTED BY IDOCK:   -4.56 KCAL/MOL
REMARK 922        TOTAL FREE ENERGY PREDICTED BY IDOCK:   -8.79 KCAL/MOL
REMARK 923 INTER-LIGAND FREE ENERGY PREDICTED BY IDOCK:   -7.75 KCAL/MOL
REMARK 924 INTRA-LIGAND FREE ENERGY PREDICTED BY IDOCK:   -1.04 KCAL/MOL
REMARK 927      BINDING AFFINITY PREDICTED BY RF-SCORE:    0.00 PKD
ROOT
HETATM    1 FE   UNL     1     -10.224  17.895  69.438  1.00  0.00    -0.311 Fe 
HETATM    2  C   UNL     2     -12.226  13.894  64.322  1.00  0.00    -0.408 C  
HETATM    3  C   UNL     3      -5.955  20.854  65.760  1.00  0.00    -0.249 C  
HETATM    4  H   UNL     3      -6.993  22.044  64.618  1.00  0.00     0.000 HD 
HETATM    5  H   UNL     2     -13.343  15.381  64.987  1.00  0.00     0.000 HD 
HETATM    6  O   UNL     2     -13.382  14.432  64.972  1.00  0.00    -0.448 OA 
HETATM    7  O   UNL     3      -6.481  21.256  64.475  1.00  0.00    -0.153 OA 
ENDROOT
BRANCH   2   8
HETATM    8  C   UNL     2     -12.288  12.364  64.299  1.00  0.00    -0.455 C  
HETATM    9  H   UNL     2     -13.039  10.941  63.142  1.00  0.00     0.000 HD 
HETATM   10  O   UNL     2     -13.001  11.890  63.156  1.00  0.00    -0.640 OA 
ENDBRANCH   2   8
BRANCH   2  11
HETATM   11  C   UNL     2     -10.950  14.420  65.009  1.00  0.00    -0.389 C  
HETATM   12  H   UNL     2      -9.795  16.031  64.918  1.00  0.00     0.000 HD 
HETATM   13  O   UNL     2     -10.581  15.707  64.494  1.00  0.00    -0.357 OA 
BRANCH  11  14
HETATM   14  C   UNL     2     -11.170  14.514  66.529  1.00  0.00    -0.344 C  
HETATM   15  H   UNL     2     -11.072  15.934  67.899  1.00  0.00     0.000 HD 
HETATM   16  O   UNL     2     -10.936  15.876  66.960  1.00  0.00    -0.291 OA 
BRANCH  14  17
HETATM   17  C   UNL     2     -10.272  13.604  67.361  1.00  0.00    -0.241 C  
HETATM   18  C   UNL     2     -10.933  13.211  68.695  1.00  0.00    -0.265 C  
HETATM   19  H   UNL     2      -8.481  13.759  68.166  1.00  0.00     0.000 HD 
HETATM   20  O   UNL     2      -9.041  14.326  67.648  1.00  0.00    -0.180 OA 
HETATM   21  O   UNL     2     -10.856  14.089  69.646  1.00  0.00    -0.123 OA 
HETATM   22  O   UNL     2     -11.206  12.042  68.955  1.00  0.00    -0.229 OA 
ENDBRANCH  14  17
ENDBRANCH  11  14
ENDBRANCH   2  11
BRANCH   3  23
HETATM   23  C   UNL     3      -7.156  20.704  66.687  1.00  0.00    -0.238 C  
HETATM   24  O   UNL     3      -8.059  19.765  66.089  1.00  0.00    -0.331 OA 
HETATM   25  H   UNL     3      -8.808  19.672  66.666  1.00  0.00     0.000 HD 
BRANCH  23  26
HETATM   26  C   UNL     3      -6.908  20.265  68.149  1.00  0.00    -0.289 C  
HETATM   27  O   UNL     3      -5.966  21.151  68.777  1.00  0.00    -0.295 OA 
HETATM   28  H   UNL     3      -5.813  20.882  69.675  1.00  0.00     0.000 HD 
BRANCH  26  29
HETATM   29  C   UNL     3      -6.321  18.835  68.128  1.00  0.00    -0.211 C  
HETATM   30  C   UNL     3      -7.278  17.681  68.519  1.00  0.00    -0.242 C  
HETATM   31  O   UNL     3      -5.147  18.756  69.007  1.00  0.00    -0.187 OA 
HETATM   32  O   UNL     3      -8.418  17.634  68.027  1.00  0.00    -0.231 OA 
HETATM   33  O   UNL     3      -6.694  16.863  69.353  1.00  0.00    -0.234 OA 
HETATM   34  H   UNL     3      -4.786  17.877  68.994  1.00  0.00     0.000 HD 
ENDBRANCH  26  29
ENDBRANCH  23  26
ENDBRANCH   3  23
BRANCH   3  35
HETATM   35  C   UNL     3      -5.131  19.587  65.530  1.00  0.00    -0.153 C  
HETATM   36  O   UNL     3      -5.769  18.842  64.488  1.00  0.00    -0.255 OA 
HETATM   37  H   UNL     3      -5.257  18.055  64.345  1.00  0.00     0.000 HD 
ENDBRANCH   3  35
TORSDOF 8
ENDMDL
MODEL      147
REMARK 921   NORMALIZED FREE ENERGY PREDICTED BY IDOCK:   -4.56 KCAL/MOL
REMARK 922        TOTAL FREE ENERGY PREDICTED BY IDOCK:   -8.79 KCAL/MOL
REMARK 923 INTER-LIGAND FREE ENERGY PREDICTED BY IDOCK:   -6.77 KCAL/MOL
REMARK 924 INTRA-LIGAND FREE ENERGY PREDICTED BY IDOCK:   -2.03 KCAL/MOL
REMARK 927      BINDING AFFINITY PREDICTED BY RF-SCORE:    0.00 PKD
ROOT
HETATM    1 FE   UNL     1     -12.901  12.243  68.733  1.00  0.00    -0.073 Fe 
HETATM    2  C   UNL     2      -8.807   6.823  68.969  1.00  0.00    -0.129 C  
HETATM    3  C   UNL     3      -7.984  16.214  67.985  1.00  0.00    -0.145 C  
HETATM    4  H   UNL     3      -7.410  15.984  66.137  1.00  0.00     0.000 HD 
HETATM    5  H   UNL     2      -9.935   7.215  67.395  1.00  0.00     0.000 HD 
HETATM    6  O   UNL     2      -9.889   6.551  68.072  1.00  0.00    -0.121 OA 
HETATM    7  O   UNL     3      -7.036  15.777  66.985  1.00  0.00    -0.197 OA 
ENDROOT
BRANCH   2   8
HETATM    8  C   UNL     2      -8.733   5.753  70.061  1.00  0.00    -0.132 C  
HETATM    9  H   UNL     2      -9.774   4.168  70.638  1.00  0.00     0.000 HD 
HETATM   10  O   UNL     2      -9.820   4.832  69.961  1.00  0.00    -0.189 OA 
ENDBRANCH   2   8
BRANCH   2  11
HETATM   11  C   UNL     2      -8.955   8.244  69.548  1.00  0.00    -0.150 C  
HETATM   12  H   UNL     2      -8.311  10.074  69.126  1.00  0.00     0.000 HD 
HETATM   13  O   UNL     2      -8.219   9.198  68.769  1.00  0.00    -0.107 OA 
BRANCH  11  14
HETATM   14  C   UNL     2     -10.440   8.644  69.588  1.00  0.00    -0.220 C  
HETATM   15  H   UNL     2     -11.688   9.614  68.402  1.00  0.00     0.000 HD 
HETATM   16  O   UNL     2     -10.771   9.367  68.377  1.00  0.00    -0.219 OA 
BRANCH  14  17
HETATM   17  C   UNL     2     -10.833   9.520  70.773  1.00  0.00    -0.318 C  
HETATM   18  C   UNL     2     -11.993   8.907  71.579  1.00  0.00    -0.333 C  
HETATM   19  H   UNL     2     -11.504  11.359  70.994  1.00  0.00     0.000 HD 
HETATM   20  O   UNL     2     -11.259  10.813  70.257  1.00  0.00    -0.298 OA 
HETATM   21  O   UNL     2     -13.181   9.098  71.097  1.00  0.00    -0.266 OA 
HETATM   22  O   UNL     2     -11.850   8.567  72.751  1.00  0.00    -0.326 OA 
ENDBRANCH  14  17
ENDBRANCH  11  14
ENDBRANCH   2  11
BRANCH   3  23
HETATM   23  C   UNL     3      -9.303  15.524  67.656  1.00  0.00    -0.203 C  
HETATM   24  O   UNL     3     -10.165  16.492  67.045  1.00  0.00    -0.277 OA 
HETATM   25  H   UNL     3     -10.987  16.062  66.840  1.00  0.00     0.000 HD 
BRANCH  23  26
HETATM   26  C   UNL     3      -9.272  14.270  66.753  1.00  0.00    -0.264 C  
HETATM   27  O   UNL     3      -9.526  14.640  65.387  1.00  0.00    -0.498 OA 
HETATM   28  H   UNL     3      -9.507  13.869  64.831  1.00  0.00     0.000 HD 
BRANCH  26  29
HETATM   29  C   UNL     3     -10.383  13.307  67.231  1.00  0.00    -0.247 C  
HETATM   30  C   UNL     3     -10.852  12.226  66.224  1.00  0.00    -0.278 C  
HETATM   31  O   UNL     3     -11.568  14.068  67.650  1.00  0.00    -0.313 OA 
HETATM   32  O   UNL     3     -10.010  11.559  65.601  1.00  0.00    -0.218 OA 
HETATM   33  O   UNL     3     -12.157  12.163  66.194  1.00  0.00    -0.621 OA 
HETATM   34  H   UNL     3     -12.251  13.476  67.944  1.00  0.00     0.000 HD 
ENDBRANCH  26  29
ENDBRANCH  23  26
ENDBRANCH   3  23
BRANCH   3  35
HETATM   35  C   UNL     3      -7.382  15.880  69.349  1.00  0.00    -0.217 C  
HETATM   36  O   UNL     3      -7.971  14.653  69.791  1.00  0.00    -0.406 OA 
HETATM   37  H   UNL     3      -7.597  14.445  70.639  1.00  0.00     0.000 HD 
ENDBRANCH   3  35
TORSDOF 8
ENDMDL
MODEL      148
REMARK 921   NORMALIZED FREE ENERGY PREDICTED BY IDOCK:   -4.56 KCAL/MOL
REMARK 922        TOTAL FREE ENERGY PREDICTED BY IDOCK:   -8.79 KCAL/MOL
REMARK 923 INTER-LIGAND FREE ENERGY PREDICTED BY IDOCK:   -8.13 KCAL/MOL
REMARK 924 INTRA-LIGAND FREE ENERGY PREDICTED BY IDOCK:   -0.66 KCAL/MOL
REMARK 927      BINDING AFFINITY PREDICTED BY RF-SCORE:    0.00 PKD
ROOT
HETATM    1 FE   UNL     1     -11.122  10.106  65.499  1.00  0.00    -0.100 Fe 
HETATM    2  C   UNL     2      -9.722   6.554  71.121  1.00  0.00    -0.174 C  
HETATM    3  C   UNL     3     -11.502  15.559  68.760  1.00  0.00    -0.355 C  
HETATM    4  H   UNL     3      -9.660  16.046  69.170  1.00  0.00     0.000 HD 
HETATM    5  H   UNL     2      -8.344   6.948  69.761  1.00  0.00     0.000 HD 
HETATM    6  O   UNL     2      -8.798   6.182  70.093  1.00  0.00    -0.141 OA 
HETATM    7  O   UNL     3     -10.407  15.757  69.682  1.00  0.00    -0.251 OA 
ENDROOT
BRANCH   2   8
HETATM    8  C   UNL     2     -10.454   5.321  71.656  1.00  0.00    -0.214 C  
HETATM    9  H   UNL     2     -10.274   4.041  73.159  1.00  0.00     0.000 HD 
HETATM   10  O   UNL     2      -9.820   4.807  72.827  1.00  0.00    -0.139 OA 
ENDBRANCH   2   8
BRANCH   2  11
HETATM   11  C   UNL     2     -10.691   7.627  70.587  1.00  0.00    -0.231 C  
HETATM   12  H   UNL     2     -12.621   8.063  70.737  1.00  0.00     0.000 HD 
HETATM   13  O   UNL     2     -12.025   7.402  71.066  1.00  0.00    -0.304 OA 
BRANCH  11  14
HETATM   14  C   UNL     2     -10.216   9.026  71.015  1.00  0.00    -0.277 C  
HETATM   15  H   UNL     2     -10.998  10.565  71.977  1.00  0.00     0.000 HD 
HETATM   16  O   UNL     2     -11.292   9.701  71.712  1.00  0.00    -0.347 OA 
BRANCH  14  17
HETATM   17  C   UNL     2      -9.770   9.928  69.869  1.00  0.00    -0.235 C  
HETATM   18  C   UNL     2     -10.568   9.652  68.580  1.00  0.00    -0.217 C  
HETATM   19  H   UNL     2      -8.085  10.227  68.894  1.00  0.00     0.000 HD 
HETATM   20  O   UNL     2      -8.363   9.666  69.609  1.00  0.00    -0.134 OA 
HETATM   21  O   UNL     2     -10.175   8.635  67.879  1.00  0.00    -0.197 OA 
HETATM   22  O   UNL     2     -11.286  10.509  68.074  1.00  0.00    -0.307 OA 
ENDBRANCH  14  17
ENDBRANCH  11  14
ENDBRANCH   2  11
BRANCH   3  23
HETATM   23  C   UNL     3     -11.003  14.577  67.706  1.00  0.00    -0.275 C  
HETATM   24  O   UNL     3     -10.462  13.438  68.387  1.00  0.00    -0.239 OA 
HETATM   25  H   UNL     3     -10.151  12.826  67.730  1.00  0.00     0.000 HD 
BRANCH  23  26
HETATM   26  C   UNL     3     -12.001  14.069  66.641  1.00  0.00    -0.445 C  
HETATM   27  O   UNL     3     -12.139  12.642  66.734  1.00  0.00    -0.504 OA 
HETATM   28  H   UNL     3     -12.753  12.330  66.079  1.00  0.00     0.000 HD 
BRANCH  26  29
HETATM   29  C   UNL     3     -11.442  14.434  65.246  1.00  0.00    -0.350 C  
HETATM   30  C   UNL     3     -10.992  15.901  65.035  1.00  0.00    -0.412 C  
HETATM   31  O   UNL     3     -12.431  14.118  64.205  1.00  0.00    -0.650 OA 
HETATM   32  O   UNL     3     -10.279  16.455  65.889  1.00  0.00    -0.332 OA 
HETATM   33  O   UNL     3     -11.447  16.363  63.901  1.00  0.00    -1.063 OA 
HETATM   34  H   UNL     3     -12.087  14.342  63.348  1.00  0.00     0.000 HD 
ENDBRANCH  26  29
ENDBRANCH  23  26
ENDBRANCH   3  23
BRANCH   3  35
HETATM   35  C   UNL     3     -12.703  15.095  69.583  1.00  0.00     0.052 C  
HETATM   36  O   UNL     3     -12.262  14.934  70.935  1.00  0.00    -0.283 OA 
HETATM   37  H   UNL     3     -13.009  14.646  71.447  1.00  0.00     0.000 HD 
ENDBRANCH   3  35
TORSDOF 8
ENDMDL
MODEL      149
REMARK 921   NORMALIZED FREE ENERGY PREDICTED BY IDOCK:   -4.55 KCAL/MOL
REMARK 922        TOTAL FREE ENERGY PREDICTED BY IDOCK:   -8.78 KCAL/MOL
REMARK 923 INTER-LIGAND FREE ENERGY PREDICTED BY IDOCK:   -6.94 KCAL/MOL
REMARK 924 INTRA-LIGAND FREE ENERGY PREDICTED BY IDOCK:   -1.85 KCAL/MOL
REMARK 927      BINDING AFFINITY PREDICTED BY RF-SCORE:    0.00 PKD
ROOT
HETATM    1 FE   UNL     1      -6.306  10.435  67.318  1.00  0.00    -0.055 Fe 
HETATM    2  C   UNL     2      -9.603   4.798  69.202  1.00  0.00    -0.167 C  
HETATM    3  C   UNL     3     -11.630  13.059  65.020  1.00  0.00    -0.325 C  
HETATM    4  H   UNL     3     -12.649  13.617  66.585  1.00  0.00     0.000 HD 
HETATM    5  H   UNL     2      -8.982   6.136  70.516  1.00  0.00     0.000 HD 
HETATM    6  O   UNL     2      -8.777   5.238  70.284  1.00  0.00    -0.117 OA 
HETATM    7  O   UNL     3     -12.759  12.951  65.916  1.00  0.00    -0.437 OA 
ENDROOT
BRANCH   2   8
HETATM    8  C   UNL     2      -9.272   3.351  68.828  1.00  0.00    -0.166 C  
HETATM    9  H   UNL     2      -9.148   1.591  69.732  1.00  0.00     0.000 HD 
HETATM   10  O   UNL     2      -9.354   2.489  69.964  1.00  0.00    -0.125 OA 
ENDBRANCH   2   8
BRANCH   2  11
HETATM   11  C   UNL     2      -9.454   5.761  68.008  1.00  0.00    -0.110 C  
HETATM   12  H   UNL     2      -9.481   5.654  66.026  1.00  0.00     0.000 HD 
HETATM   13  O   UNL     2      -9.572   5.061  66.761  1.00  0.00    -0.133 OA 
BRANCH  11  14
HETATM   14  C   UNL     2     -10.523   6.865  68.085  1.00  0.00    -0.204 C  
HETATM   15  H   UNL     2     -11.933   7.571  66.894  1.00  0.00     0.000 HD 
HETATM   16  O   UNL     2     -11.273   6.888  66.846  1.00  0.00    -0.353 OA 
BRANCH  14  17
HETATM   17  C   UNL     2      -9.974   8.269  68.320  1.00  0.00    -0.191 C  
HETATM   18  C   UNL     2     -10.341   9.227  67.172  1.00  0.00    -0.260 C  
HETATM   19  H   UNL     2      -8.183   9.054  68.552  1.00  0.00     0.000 HD 
HETATM   20  O   UNL     2      -8.524   8.179  68.406  1.00  0.00    -0.125 OA 
HETATM   21  O   UNL     2      -9.593   9.157  66.115  1.00  0.00    -0.224 OA 
HETATM   22  O   UNL     2     -11.053  10.210  67.358  1.00  0.00    -0.283 OA 
ENDBRANCH  14  17
ENDBRANCH  11  14
ENDBRANCH   2  11
BRANCH   3  23
HETATM   23  C   UNL     3     -10.382  12.927  65.886  1.00  0.00    -0.285 C  
HETATM   24  O   UNL     3      -9.300  12.518  65.038  1.00  0.00    -0.425 OA 
HETATM   25  H   UNL     3      -8.523  12.435  65.578  1.00  0.00     0.000 HD 
BRANCH  23  26
HETATM   26  C   UNL     3      -9.916  14.156  66.699  1.00  0.00    -0.277 C  
HETATM   27  O   UNL     3      -8.887  14.859  65.983  1.00  0.00    -0.467 OA 
HETATM   28  H   UNL     3      -8.600  15.615  66.483  1.00  0.00     0.000 HD 
BRANCH  26  29
HETATM   29  C   UNL     3      -9.344  13.653  68.044  1.00  0.00    -0.208 C  
HETATM   30  C   UNL     3      -8.098  12.734  67.975  1.00  0.00    -0.162 C  
HETATM   31  O   UNL     3     -10.381  12.939  68.801  1.00  0.00    -0.358 OA 
HETATM   32  O   UNL     3      -7.142  13.048  67.246  1.00  0.00    -0.141 OA 
HETATM   33  O   UNL     3      -8.245  11.703  68.763  1.00  0.00    -0.134 OA 
HETATM   34  H   UNL     3     -10.030  12.630  69.628  1.00  0.00     0.000 HD 
ENDBRANCH  26  29
ENDBRANCH  23  26
ENDBRANCH   3  23
BRANCH   3  35
HETATM   35  C   UNL     3     -11.808  11.988  63.944  1.00  0.00    -0.448 C  
HETATM   36  O   UNL     3     -13.138  12.111  63.431  1.00  0.00    -0.752 OA 
HETATM   37  H   UNL     3     -13.249  11.445  62.762  1.00  0.00     0.000 HD 
ENDBRANCH   3  35
TORSDOF 8
ENDMDL
MODEL      150
REMARK 921   NORMALIZED FREE ENERGY PREDICTED BY IDOCK:   -4.52 KCAL/MOL
REMARK 922        TOTAL FREE ENERGY PREDICTED BY IDOCK:   -8.73 KCAL/MOL
REMARK 923 INTER-LIGAND FREE ENERGY PREDICTED BY IDOCK:   -7.13 KCAL/MOL
REMARK 924 INTRA-LIGAND FREE ENERGY PREDICTED BY IDOCK:   -1.60 KCAL/MOL
REMARK 927      BINDING AFFINITY PREDICTED BY RF-SCORE:    0.00 PKD
ROOT
HETATM    1 FE   UNL     1      -5.540  13.857  67.681  1.00  0.00    -0.096 Fe 
HETATM    2  C   UNL     2     -10.511  18.394  66.733  1.00  0.00    -0.385 C  
HETATM    3  C   UNL     3      -9.708   9.173  68.774  1.00  0.00    -0.162 C  
HETATM    4  H   UNL     3     -10.434   8.709  67.027  1.00  0.00     0.000 HD 
HETATM    5  H   UNL     2      -9.438  17.688  65.232  1.00  0.00     0.000 HD 
HETATM    6  O   UNL     2      -9.557  18.521  65.674  1.00  0.00    -0.365 OA 
HETATM    7  O   UNL     3     -10.783   9.120  67.809  1.00  0.00    -0.245 OA 
ENDROOT
BRANCH   2   8
HETATM    8  C   UNL     2     -10.703  19.735  67.446  1.00  0.00    -0.384 C  
HETATM    9  H   UNL     2      -9.875  21.536  67.436  1.00  0.00     0.000 HD 
HETATM   10  O   UNL     2      -9.756  20.704  66.994  1.00  0.00    -0.439 OA 
ENDBRANCH   2   8
BRANCH   2  11
HETATM   11  C   UNL     2     -10.074  17.274  67.697  1.00  0.00    -0.313 C  
HETATM   12  H   UNL     2      -9.830  17.035  69.653  1.00  0.00     0.000 HD 
HETATM   13  O   UNL     2     -10.099  17.725  69.059  1.00  0.00    -0.351 OA 
BRANCH  11  14
HETATM   14  C   UNL     2     -10.996  16.052  67.539  1.00  0.00    -0.261 C  
HETATM   15  H   UNL     2     -12.164  14.986  68.723  1.00  0.00     0.000 HD 
HETATM   16  O   UNL     2     -11.595  15.740  68.821  1.00  0.00    -0.363 OA 
BRANCH  14  17
HETATM   17  C   UNL     2     -10.304  14.791  67.032  1.00  0.00    -0.255 C  
HETATM   18  C   UNL     2     -11.029  14.191  65.814  1.00  0.00    -0.301 C  
HETATM   19  H   UNL     2      -9.878  13.024  67.791  1.00  0.00     0.000 HD 
HETATM   20  O   UNL     2     -10.309  13.810  68.107  1.00  0.00    -0.238 OA 
HETATM   21  O   UNL     2     -12.070  13.464  66.077  1.00  0.00    -0.396 OA 
HETATM   22  O   UNL     2     -10.483  14.112  64.717  1.00  0.00    -0.420 OA 
ENDBRANCH  14  17
ENDBRANCH  11  14
ENDBRANCH   2  11
BRANCH   3  23
HETATM   23  C   UNL     3      -8.558   9.908  68.096  1.00  0.00    -0.118 C  
HETATM   24  O   UNL     3      -7.522   8.954  67.828  1.00  0.00    -0.090 OA 
HETATM   25  H   UNL     3      -6.806   9.413  67.405  1.00  0.00     0.000 HD 
BRANCH  23  26
HETATM   26  C   UNL     3      -8.847  10.682  66.789  1.00  0.00    -0.139 C  
HETATM   27  O   UNL     3     -10.158  11.269  66.843  1.00  0.00    -0.203 OA 
HETATM   28  H   UNL     3     -10.336  11.744  66.040  1.00  0.00     0.000 HD 
BRANCH  26  29
HETATM   29  C   UNL     3      -8.791   9.678  65.614  1.00  0.00    -0.159 C  
HETATM   30  C   UNL     3      -7.652   9.873  64.582  1.00  0.00    -0.139 C  
HETATM   31  O   UNL     3     -10.063   9.685  64.879  1.00  0.00    -0.363 OA 
HETATM   32  O   UNL     3      -6.489  10.065  64.978  1.00  0.00    -0.103 OA 
HETATM   33  O   UNL     3      -8.115   9.782  63.364  1.00  0.00    -0.134 OA 
HETATM   34  H   UNL     3     -10.028   9.068  64.157  1.00  0.00     0.000 HD 
ENDBRANCH  26  29
ENDBRANCH  23  26
ENDBRANCH   3  23
BRANCH   3  35
HETATM   35  C   UNL     3     -10.268   9.835  70.033  1.00  0.00    -0.263 C  
HETATM   36  O   UNL     3     -10.476  11.219  69.735  1.00  0.00    -0.443 OA 
HETATM   37  H   UNL     3     -10.825  11.631  70.517  1.00  0.00     0.000 HD 
ENDBRANCH   3  35
TORSDOF 8
ENDMDL
MODEL      151
REMARK 921   NORMALIZED FREE ENERGY PREDICTED BY IDOCK:   -4.50 KCAL/MOL
REMARK 922        TOTAL FREE ENERGY PREDICTED BY IDOCK:   -8.71 KCAL/MOL
REMARK 923 INTER-LIGAND FREE ENERGY PREDICTED BY IDOCK:   -7.78 KCAL/MOL
REMARK 924 INTRA-LIGAND FREE ENERGY PREDICTED BY IDOCK:   -0.93 KCAL/MOL
REMARK 927      BINDING AFFINITY PREDICTED BY RF-SCORE:    0.00 PKD
ROOT
HETATM    1 FE   UNL     1     -12.590  11.971  65.585  1.00  0.00    -0.388 Fe 
HETATM    2  C   UNL     2     -12.168  14.724  71.784  1.00  0.00    -0.347 C  
HETATM    3  C   UNL     3      -7.151   8.765  66.385  1.00  0.00    -0.083 C  
HETATM    4  H   UNL     3      -7.591   7.290  67.580  1.00  0.00     0.000 HD 
HETATM    5  H   UNL     2     -13.465  13.296  71.359  1.00  0.00     0.000 HD 
HETATM    6  O   UNL     2     -13.492  14.217  71.589  1.00  0.00    -0.339 OA 
HETATM    7  O   UNL     3      -7.067   8.079  67.654  1.00  0.00    -0.079 OA 
ENDROOT
BRANCH   2   8
HETATM    8  C   UNL     2     -12.212  16.210  72.153  1.00  0.00    -0.473 C  
HETATM    9  H   UNL     2     -12.419  17.312  73.788  1.00  0.00     0.000 HD 
HETATM   10  O   UNL     2     -12.392  16.390  73.559  1.00  0.00    -0.495 OA 
ENDBRANCH   2   8
BRANCH   2  11
HETATM   11  C   UNL     2     -11.318  14.457  70.527  1.00  0.00    -0.064 C  
HETATM   12  H   UNL     2     -11.203  13.082  69.100  1.00  0.00     0.000 HD 
HETATM   13  O   UNL     2     -11.727  13.246  69.874  1.00  0.00    -0.297 OA 
BRANCH  11  14
HETATM   14  C   UNL     2     -11.438  15.638  69.548  1.00  0.00    -0.344 C  
HETATM   15  H   UNL     2     -12.079  15.896  67.697  1.00  0.00     0.000 HD 
HETATM   16  O   UNL     2     -12.005  15.166  68.301  1.00  0.00    -0.298 OA 
BRANCH  14  17
HETATM   17  C   UNL     2     -10.120  16.334  69.223  1.00  0.00    -0.267 C  
HETATM   18  C   UNL     2     -10.341  17.636  68.430  1.00  0.00    -0.375 C  
HETATM   19  H   UNL     2      -8.497  15.862  68.213  1.00  0.00     0.000 HD 
HETATM   20  O   UNL     2      -9.317  15.428  68.416  1.00  0.00    -0.185 OA 
HETATM   21  O   UNL     2     -10.534  17.496  67.155  1.00  0.00    -0.335 OA 
HETATM   22  O   UNL     2     -10.021  18.729  68.888  1.00  0.00    -0.400 OA 
ENDBRANCH  14  17
ENDBRANCH  11  14
ENDBRANCH   2  11
BRANCH   3  23
HETATM   23  C   UNL     3      -8.635   8.979  66.111  1.00  0.00    -0.135 C  
HETATM   24  O   UNL     3      -9.062   7.970  65.187  1.00  0.00    -0.384 OA 
HETATM   25  H   UNL     3      -9.987   8.104  65.016  1.00  0.00     0.000 HD 
BRANCH  23  26
HETATM   26  C   UNL     3      -9.613   8.978  67.308  1.00  0.00    -0.159 C  
HETATM   27  O   UNL     3     -10.712   8.090  67.047  1.00  0.00    -0.390 OA 
HETATM   28  H   UNL     3     -11.313   8.089  67.783  1.00  0.00     0.000 HD 
BRANCH  26  29
HETATM   29  C   UNL     3     -10.154  10.415  67.487  1.00  0.00    -0.192 C  
HETATM   30  C   UNL     3     -11.378  10.590  68.421  1.00  0.00    -0.262 C  
HETATM   31  O   UNL     3     -10.506  10.991  66.181  1.00  0.00    -0.246 OA 
HETATM   32  O   UNL     3     -11.386  10.037  69.534  1.00  0.00    -0.228 OA 
HETATM   33  O   UNL     3     -12.273  11.363  67.865  1.00  0.00    -0.592 OA 
HETATM   34  H   UNL     3     -10.839  11.874  66.291  1.00  0.00     0.000 HD 
ENDBRANCH  26  29
ENDBRANCH  23  26
ENDBRANCH   3  23
BRANCH   3  35
HETATM   35  C   UNL     3      -6.308  10.034  66.505  1.00  0.00    -0.072 C  
HETATM   36  O   UNL     3      -6.604  10.856  65.372  1.00  0.00    -0.352 OA 
HETATM   37  H   UNL     3      -6.080  11.645  65.447  1.00  0.00     0.000 HD 
ENDBRANCH   3  35
TORSDOF 8
ENDMDL
MODEL      152
REMARK 921   NORMALIZED FREE ENERGY PREDICTED BY IDOCK:   -4.50 KCAL/MOL
REMARK 922        TOTAL FREE ENERGY PREDICTED BY IDOCK:   -8.70 KCAL/MOL
REMARK 923 INTER-LIGAND FREE ENERGY PREDICTED BY IDOCK:   -6.47 KCAL/MOL
REMARK 924 INTRA-LIGAND FREE ENERGY PREDICTED BY IDOCK:   -2.24 KCAL/MOL
REMARK 927      BINDING AFFINITY PREDICTED BY RF-SCORE:    0.00 PKD
ROOT
HETATM    1 FE   UNL     1     -12.716  12.257  66.170  1.00  0.00    -0.342 Fe 
HETATM    2  C   UNL     2      -7.598   8.613  63.579  1.00  0.00    -0.124 C  
HETATM    3  C   UNL     3      -8.972  17.332  67.032  1.00  0.00    -0.232 C  
HETATM    4  H   UNL     3      -8.713  18.091  65.257  1.00  0.00     0.000 HD 
HETATM    5  H   UNL     2      -9.053   9.325  62.449  1.00  0.00     0.000 HD 
HETATM    6  O   UNL     2      -8.744   8.473  62.734  1.00  0.00    -0.109 OA 
HETATM    7  O   UNL     3      -8.154  17.647  65.884  1.00  0.00    -0.535 OA 
ENDROOT
BRANCH   2   8
HETATM    8  C   UNL     2      -7.099   7.240  64.039  1.00  0.00    -0.071 C  
HETATM    9  H   UNL     2      -7.583   5.337  63.773  1.00  0.00     0.000 HD 
HETATM   10  O   UNL     2      -7.893   6.188  63.488  1.00  0.00    -0.103 OA 
ENDBRANCH   2   8
BRANCH   2  11
HETATM   11  C   UNL     2      -7.934   9.542  64.762  1.00  0.00    -0.123 C  
HETATM   12  H   UNL     2      -7.268  11.253  65.517  1.00  0.00     0.000 HD 
HETATM   13  O   UNL     2      -7.061  10.681  64.788  1.00  0.00    -0.006 OA 
BRANCH  11  14
HETATM   14  C   UNL     2      -9.395  10.013  64.664  1.00  0.00    -0.279 C  
HETATM   15  H   UNL     2     -10.323  11.736  64.392  1.00  0.00     0.000 HD 
HETATM   16  O   UNL     2      -9.420  11.446  64.452  1.00  0.00    -0.212 OA 
BRANCH  14  17
HETATM   17  C   UNL     2     -10.247   9.711  65.893  1.00  0.00    -0.149 C  
HETATM   18  C   UNL     2     -10.080  10.787  66.982  1.00  0.00    -0.208 C  
HETATM   19  H   UNL     2     -10.349   8.242  67.201  1.00  0.00     0.000 HD 
HETATM   20  O   UNL     2      -9.819   8.430  66.435  1.00  0.00    -0.253 OA 
HETATM   21  O   UNL     2      -9.029  10.674  67.734  1.00  0.00    -0.138 OA 
HETATM   22  O   UNL     2     -11.023  11.487  67.342  1.00  0.00    -0.233 OA 
ENDBRANCH  14  17
ENDBRANCH  11  14
ENDBRANCH   2  11
BRANCH   3  23
HETATM   23  C   UNL     3     -10.153  16.522  66.509  1.00  0.00    -0.299 C  
HETATM   24  O   UNL     3      -9.981  16.356  65.096  1.00  0.00    -0.479 OA 
HETATM   25  H   UNL     3     -10.717  15.852  64.770  1.00  0.00     0.000 HD 
BRANCH  23  26
HETATM   26  C   UNL     3     -10.424  15.131  67.126  1.00  0.00    -0.280 C  
HETATM   27  O   UNL     3     -10.516  14.140  66.089  1.00  0.00    -0.284 OA 
HETATM   28  H   UNL     3     -10.682  13.285  66.468  1.00  0.00     0.000 HD 
BRANCH  26  29
HETATM   29  C   UNL     3     -11.769  15.196  67.886  1.00  0.00    -0.256 C  
HETATM   30  C   UNL     3     -11.697  15.414  69.418  1.00  0.00    -0.351 C  
HETATM   31  O   UNL     3     -12.545  13.971  67.647  1.00  0.00    -0.429 OA 
HETATM   32  O   UNL     3     -10.954  16.298  69.879  1.00  0.00    -0.337 OA 
HETATM   33  O   UNL     3     -12.498  14.590  70.037  1.00  0.00    -0.334 OA 
HETATM   34  H   UNL     3     -13.372  14.011  68.114  1.00  0.00     0.000 HD 
ENDBRANCH  26  29
ENDBRANCH  23  26
ENDBRANCH   3  23
BRANCH   3  35
HETATM   35  C   UNL     3      -8.073  16.617  68.040  1.00  0.00    -0.180 C  
HETATM   36  O   UNL     3      -6.764  16.537  67.468  1.00  0.00    -0.122 OA 
HETATM   37  H   UNL     3      -6.204  16.093  68.095  1.00  0.00     0.000 HD 
ENDBRANCH   3  35
TORSDOF 8
ENDMDL
MODEL      153
REMARK 921   NORMALIZED FREE ENERGY PREDICTED BY IDOCK:   -4.48 KCAL/MOL
REMARK 922        TOTAL FREE ENERGY PREDICTED BY IDOCK:   -8.67 KCAL/MOL
REMARK 923 INTER-LIGAND FREE ENERGY PREDICTED BY IDOCK:   -7.98 KCAL/MOL
REMARK 924 INTRA-LIGAND FREE ENERGY PREDICTED BY IDOCK:   -0.69 KCAL/MOL
REMARK 927      BINDING AFFINITY PREDICTED BY RF-SCORE:    0.00 PKD
ROOT
HETATM    1 FE   UNL     1     -10.668   8.386  65.490  1.00  0.00    -0.257 Fe 
HETATM    2  C   UNL     2      -7.355   6.311  71.049  1.00  0.00    -0.084 C  
HETATM    3  C   UNL     3     -11.013  14.365  67.644  1.00  0.00    -0.286 C  
HETATM    4  H   UNL     3      -9.222  15.100  67.419  1.00  0.00     0.000 HD 
HETATM    5  H   UNL     2      -6.447   6.521  69.307  1.00  0.00     0.000 HD 
HETATM    6  O   UNL     2      -6.681   5.809  69.891  1.00  0.00    -0.047 OA 
HETATM    7  O   UNL     3      -9.761  14.863  68.166  1.00  0.00    -0.207 OA 
ENDROOT
BRANCH   2   8
HETATM    8  C   UNL     2      -7.732   5.164  71.990  1.00  0.00    -0.099 C  
HETATM    9  H   UNL     2      -7.570   4.731  73.918  1.00  0.00     0.000 HD 
HETATM   10  O   UNL     2      -7.336   5.443  73.334  1.00  0.00    -0.092 OA 
ENDBRANCH   2   8
BRANCH   2  11
HETATM   11  C   UNL     2      -8.578   7.144  70.620  1.00  0.00    -0.143 C  
HETATM   12  H   UNL     2      -9.166   8.171  69.025  1.00  0.00     0.000 HD 
HETATM   13  O   UNL     2      -8.412   7.658  69.290  1.00  0.00    -0.135 OA 
BRANCH  11  14
HETATM   14  C   UNL     2      -9.851   6.284  70.687  1.00  0.00    -0.184 C  
HETATM   15  H   UNL     2     -10.845   5.108  69.447  1.00  0.00     0.000 HD 
HETATM   16  O   UNL     2     -10.058   5.640  69.406  1.00  0.00    -0.183 OA 
BRANCH  14  17
HETATM   17  C   UNL     2     -11.124   7.052  71.029  1.00  0.00    -0.264 C  
HETATM   18  C   UNL     2     -10.835   8.262  71.937  1.00  0.00    -0.283 C  
HETATM   19  H   UNL     2     -12.815   6.627  71.944  1.00  0.00     0.000 HD 
HETATM   20  O   UNL     2     -12.023   6.148  71.730  1.00  0.00    -0.289 OA 
HETATM   21  O   UNL     2     -10.702   8.002  73.201  1.00  0.00    -0.332 OA 
HETATM   22  O   UNL     2     -11.054   9.411  71.565  1.00  0.00    -0.355 OA 
ENDBRANCH  14  17
ENDBRANCH  11  14
ENDBRANCH   2  11
BRANCH   3  23
HETATM   23  C   UNL     3     -10.659  13.225  66.695  1.00  0.00    -0.281 C  
HETATM   24  O   UNL     3     -11.863  12.502  66.408  1.00  0.00    -0.428 OA 
HETATM   25  H   UNL     3     -11.643  11.792  65.817  1.00  0.00     0.000 HD 
BRANCH  23  26
HETATM   26  C   UNL     3      -9.974  13.570  65.353  1.00  0.00    -0.199 C  
HETATM   27  O   UNL     3     -10.026  14.987  65.122  1.00  0.00    -0.330 OA 
HETATM   28  H   UNL     3      -9.605  15.199  64.297  1.00  0.00     0.000 HD 
BRANCH  26  29
HETATM   29  C   UNL     3     -10.741  12.844  64.223  1.00  0.00    -0.406 C  
HETATM   30  C   UNL     3     -12.196  13.304  63.959  1.00  0.00    -0.410 C  
HETATM   31  O   UNL     3     -10.770  11.398  64.478  1.00  0.00    -0.312 OA 
HETATM   32  O   UNL     3     -12.454  14.517  63.878  1.00  0.00    -0.814 OA 
HETATM   33  O   UNL     3     -12.988  12.272  63.834  1.00  0.00    -0.753 OA 
HETATM   34  H   UNL     3     -11.241  10.952  63.783  1.00  0.00     0.000 HD 
ENDBRANCH  26  29
ENDBRANCH  23  26
ENDBRANCH   3  23
BRANCH   3  35
HETATM   35  C   UNL     3     -11.879  13.984  68.845  1.00  0.00    -0.355 C  
HETATM   36  O   UNL     3     -11.174  12.981  69.582  1.00  0.00    -0.454 OA 
HETATM   37  H   UNL     3     -11.712  12.744  70.329  1.00  0.00     0.000 HD 
ENDBRANCH   3  35
TORSDOF 8
ENDMDL
MODEL      154
REMARK 921   NORMALIZED FREE ENERGY PREDICTED BY IDOCK:   -4.48 KCAL/MOL
REMARK 922        TOTAL FREE ENERGY PREDICTED BY IDOCK:   -8.67 KCAL/MOL
REMARK 923 INTER-LIGAND FREE ENERGY PREDICTED BY IDOCK:   -7.21 KCAL/MOL
REMARK 924 INTRA-LIGAND FREE ENERGY PREDICTED BY IDOCK:   -1.46 KCAL/MOL
REMARK 927      BINDING AFFINITY PREDICTED BY RF-SCORE:    0.00 PKD
ROOT
HETATM    1 FE   UNL     1      -7.897  14.141  69.025  1.00  0.00    -0.114 Fe 
HETATM    2  C   UNL     2      -7.503   7.452  70.161  1.00  0.00    -0.087 C  
HETATM    3  C   UNL     3     -12.102  13.328  64.317  1.00  0.00    -0.416 C  
HETATM    4  H   UNL     3     -13.789  12.906  65.197  1.00  0.00     0.000 HD 
HETATM    5  H   UNL     2      -8.451   8.669  71.395  1.00  0.00     0.000 HD 
HETATM    6  O   UNL     2      -7.671   8.128  71.411  1.00  0.00    -0.078 OA 
HETATM    7  O   UNL     3     -13.177  12.423  64.653  1.00  0.00    -0.822 OA 
ENDROOT
BRANCH   2   8
HETATM    8  C   UNL     2      -6.245   6.580  70.187  1.00  0.00    -0.035 C  
HETATM    9  H   UNL     2      -5.741   4.715  69.743  1.00  0.00     0.000 HD 
HETATM   10  O   UNL     2      -6.521   5.256  69.727  1.00  0.00    -0.032 OA 
ENDBRANCH   2   8
BRANCH   2  11
HETATM   11  C   UNL     2      -7.481   8.480  69.013  1.00  0.00    -0.089 C  
HETATM   12  H   UNL     2      -6.561   8.709  67.268  1.00  0.00     0.000 HD 
HETATM   13  O   UNL     2      -6.575   8.076  67.976  1.00  0.00    -0.054 OA 
BRANCH  11  14
HETATM   14  C   UNL     2      -8.894   8.648  68.429  1.00  0.00    -0.142 C  
HETATM   15  H   UNL     2     -10.194  10.125  68.244  1.00  0.00     0.000 HD 
HETATM   16  O   UNL     2      -9.321  10.021  68.604  1.00  0.00    -0.147 OA 
BRANCH  14  17
HETATM   17  C   UNL     2      -9.955   7.750  69.056  1.00  0.00    -0.182 C  
HETATM   18  C   UNL     2     -10.296   6.550  68.154  1.00  0.00    -0.187 C  
HETATM   19  H   UNL     2     -11.821   7.983  69.641  1.00  0.00     0.000 HD 
HETATM   20  O   UNL     2     -11.160   8.542  69.250  1.00  0.00    -0.040 OA 
HETATM   21  O   UNL     2     -11.127   6.786  67.187  1.00  0.00    -0.384 OA 
HETATM   22  O   UNL     2     -10.080   5.395  68.513  1.00  0.00    -0.163 OA 
ENDBRANCH  14  17
ENDBRANCH  11  14
ENDBRANCH   2  11
BRANCH   3  23
HETATM   23  C   UNL     3     -11.547  13.845  65.639  1.00  0.00    -0.333 C  
HETATM   24  O   UNL     3     -12.600  14.543  66.316  1.00  0.00    -0.405 OA 
HETATM   25  H   UNL     3     -12.254  14.866  67.140  1.00  0.00     0.000 HD 
BRANCH  23  26
HETATM   26  C   UNL     3     -10.933  12.828  66.628  1.00  0.00    -0.270 C  
HETATM   27  O   UNL     3     -10.715  11.569  65.970  1.00  0.00    -0.268 OA 
HETATM   28  H   UNL     3     -10.338  10.944  66.577  1.00  0.00     0.000 HD 
BRANCH  26  29
HETATM   29  C   UNL     3     -11.933  12.625  67.790  1.00  0.00    -0.243 C  
HETATM   30  C   UNL     3     -11.592  13.316  69.134  1.00  0.00    -0.319 C  
HETATM   31  O   UNL     3     -12.111  11.191  68.060  1.00  0.00    -0.674 OA 
HETATM   32  O   UNL     3     -11.235  14.507  69.141  1.00  0.00    -0.245 OA 
HETATM   33  O   UNL     3     -11.761  12.489  70.131  1.00  0.00    -0.280 OA 
HETATM   34  H   UNL     3     -12.726  11.067  68.774  1.00  0.00     0.000 HD 
ENDBRANCH  26  29
ENDBRANCH  23  26
ENDBRANCH   3  23
BRANCH   3  35
HETATM   35  C   UNL     3     -11.118  12.550  63.443  1.00  0.00    -0.361 C  
HETATM   36  O   UNL     3     -11.710  11.280  63.155  1.00  0.00    -0.840 OA 
HETATM   37  H   UNL     3     -11.099  10.796  62.611  1.00  0.00     0.000 HD 
ENDBRANCH   3  35
TORSDOF 8
ENDMDL
MODEL      155
REMARK 921   NORMALIZED FREE ENERGY PREDICTED BY IDOCK:   -4.46 KCAL/MOL
REMARK 922        TOTAL FREE ENERGY PREDICTED BY IDOCK:   -8.65 KCAL/MOL
REMARK 923 INTER-LIGAND FREE ENERGY PREDICTED BY IDOCK:   -6.46 KCAL/MOL
REMARK 924 INTRA-LIGAND FREE ENERGY PREDICTED BY IDOCK:   -2.19 KCAL/MOL
REMARK 927      BINDING AFFINITY PREDICTED BY RF-SCORE:    0.00 PKD
ROOT
HETATM    1 FE   UNL     1     -11.014   6.086  65.552  1.00  0.00    -0.429 Fe 
HETATM    2  C   UNL     2     -10.055   5.148  72.215  1.00  0.00    -0.192 C  
HETATM    3  C   UNL     3      -9.840  12.324  66.026  1.00  0.00    -0.248 C  
HETATM    4  H   UNL     3      -7.910  12.472  66.244  1.00  0.00     0.000 HD 
HETATM    5  H   UNL     2      -8.734   4.551  70.873  1.00  0.00     0.000 HD 
HETATM    6  O   UNL     2      -9.328   4.147  71.494  1.00  0.00    -0.126 OA 
HETATM    7  O   UNL     3      -8.661  12.632  66.803  1.00  0.00    -0.199 OA 
ENDROOT
BRANCH   2   8
HETATM    8  C   UNL     2     -11.013   4.498  73.216  1.00  0.00    -0.288 C  
HETATM    9  H   UNL     2     -11.400   4.598  75.158  1.00  0.00     0.000 HD 
HETATM   10  O   UNL     2     -10.805   5.001  74.536  1.00  0.00    -0.331 OA 
ENDBRANCH   2   8
BRANCH   2  11
HETATM   11  C   UNL     2     -10.782   6.078  71.224  1.00  0.00    -0.263 C  
HETATM   12  H   UNL     2     -12.519   7.032  71.115  1.00  0.00     0.000 HD 
HETATM   13  O   UNL     2     -12.071   6.459  71.726  1.00  0.00    -0.340 OA 
BRANCH  11  14
HETATM   14  C   UNL     2      -9.935   7.335  70.963  1.00  0.00    -0.187 C  
HETATM   15  H   UNL     2      -8.862   8.584  72.056  1.00  0.00     0.000 HD 
HETATM   16  O   UNL     2      -9.385   7.807  72.217  1.00  0.00    -0.139 OA 
BRANCH  14  17
HETATM   17  C   UNL     2     -10.695   8.495  70.326  1.00  0.00    -0.230 C  
HETATM   18  C   UNL     2     -10.208   8.780  68.894  1.00  0.00    -0.207 C  
HETATM   19  H   UNL     2     -10.944  10.404  70.742  1.00  0.00     0.000 HD 
HETATM   20  O   UNL     2     -10.471   9.682  71.138  1.00  0.00    -0.307 OA 
HETATM   21  O   UNL     2      -9.126   9.488  68.794  1.00  0.00    -0.130 OA 
HETATM   22  O   UNL     2     -10.952   8.652  67.925  1.00  0.00    -0.057 OA 
ENDBRANCH  14  17
ENDBRANCH  11  14
ENDBRANCH   2  11
BRANCH   3  23
HETATM   23  C   UNL     3      -9.671  10.889  65.539  1.00  0.00    -0.233 C  
HETATM   24  O   UNL     3     -10.487  10.721  64.373  1.00  0.00    -0.365 OA 
HETATM   25  H   UNL     3     -10.382   9.827  64.070  1.00  0.00     0.000 HD 
BRANCH  23  26
HETATM   26  C   UNL     3      -8.247  10.389  65.204  1.00  0.00    -0.158 C  
HETATM   27  O   UNL     3      -7.962  10.608  63.813  1.00  0.00    -0.338 OA 
HETATM   28  H   UNL     3      -7.086  10.300  63.607  1.00  0.00     0.000 HD 
BRANCH  26  29
HETATM   29  C   UNL     3      -8.189   8.872  65.500  1.00  0.00    -0.129 C  
HETATM   30  C   UNL     3      -7.450   7.986  64.466  1.00  0.00    -0.102 C  
HETATM   31  O   UNL     3      -9.547   8.334  65.657  1.00  0.00    -0.437 OA 
HETATM   32  O   UNL     3      -6.336   8.335  64.041  1.00  0.00    -0.066 OA 
HETATM   33  O   UNL     3      -8.152   6.919  64.191  1.00  0.00    -0.111 OA 
HETATM   34  H   UNL     3      -9.511   7.402  65.839  1.00  0.00     0.000 HD 
ENDBRANCH  26  29
ENDBRANCH  23  26
ENDBRANCH   3  23
BRANCH   3  35
HETATM   35  C   UNL     3     -11.049  12.581  66.927  1.00  0.00    -0.278 C  
HETATM   36  O   UNL     3     -12.202  12.669  66.084  1.00  0.00    -0.568 OA 
HETATM   37  H   UNL     3     -12.953  12.828  66.643  1.00  0.00     0.000 HD 
ENDBRANCH   3  35
TORSDOF 8
ENDMDL
MODEL      156
REMARK 921   NORMALIZED FREE ENERGY PREDICTED BY IDOCK:   -4.46 KCAL/MOL
REMARK 922        TOTAL FREE ENERGY PREDICTED BY IDOCK:   -8.64 KCAL/MOL
REMARK 923 INTER-LIGAND FREE ENERGY PREDICTED BY IDOCK:   -7.66 KCAL/MOL
REMARK 924 INTRA-LIGAND FREE ENERGY PREDICTED BY IDOCK:   -0.99 KCAL/MOL
REMARK 927      BINDING AFFINITY PREDICTED BY RF-SCORE:    0.00 PKD
ROOT
HETATM    1 FE   UNL     1     -10.452   9.407  65.838  1.00  0.00    -0.265 Fe 
HETATM    2  C   UNL     2      -8.347   6.013  71.338  1.00  0.00    -0.127 C  
HETATM    3  C   UNL     3     -11.453  14.712  69.209  1.00  0.00    -0.291 C  
HETATM    4  H   UNL     3      -9.681  15.445  69.558  1.00  0.00     0.000 HD 
HETATM    5  H   UNL     2      -7.093   6.612  69.934  1.00  0.00     0.000 HD 
HETATM    6  O   UNL     2      -7.423   5.787  70.269  1.00  0.00    -0.077 OA 
HETATM    7  O   UNL     3     -10.360  15.049  70.093  1.00  0.00    -0.159 OA 
ENDROOT
BRANCH   2   8
HETATM    8  C   UNL     2      -8.879   4.683  71.877  1.00  0.00    -0.123 C  
HETATM    9  H   UNL     2      -8.231   2.824  72.103  1.00  0.00     0.000 HD 
HETATM   10  O   UNL     2      -7.900   3.649  71.768  1.00  0.00    -0.059 OA 
ENDBRANCH   2   8
BRANCH   2  11
HETATM   11  C   UNL     2      -9.476   6.947  70.860  1.00  0.00    -0.157 C  
HETATM   12  H   UNL     2     -10.244   7.555  69.134  1.00  0.00     0.000 HD 
HETATM   13  O   UNL     2      -9.548   6.980  69.428  1.00  0.00    -0.155 OA 
BRANCH  11  14
HETATM   14  C   UNL     2     -10.824   6.481  71.436  1.00  0.00    -0.245 C  
HETATM   15  H   UNL     2     -12.648   6.184  70.736  1.00  0.00     0.000 HD 
HETATM   16  O   UNL     2     -11.815   6.472  70.380  1.00  0.00    -0.400 OA 
BRANCH  14  17
HETATM   17  C   UNL     2     -11.366   7.344  72.571  1.00  0.00    -0.313 C  
HETATM   18  C   UNL     2     -12.208   8.521  72.044  1.00  0.00    -0.366 C  
HETATM   19  H   UNL     2     -10.571   8.417  74.019  1.00  0.00     0.000 HD 
HETATM   20  O   UNL     2     -10.234   7.879  73.312  1.00  0.00    -0.324 OA 
HETATM   21  O   UNL     2     -11.542   9.554  71.632  1.00  0.00    -0.377 OA 
HETATM   22  O   UNL     2     -13.404   8.623  72.307  1.00  0.00    -0.370 OA 
ENDBRANCH  14  17
ENDBRANCH  11  14
ENDBRANCH   2  11
BRANCH   3  23
HETATM   23  C   UNL     3     -10.865  13.822  68.120  1.00  0.00    -0.246 C  
HETATM   24  O   UNL     3     -11.764  12.725  67.915  1.00  0.00    -0.327 OA 
HETATM   25  H   UNL     3     -11.397  12.171  67.236  1.00  0.00     0.000 HD 
BRANCH  23  26
HETATM   26  C   UNL     3     -10.555  14.452  66.742  1.00  0.00    -0.282 C  
HETATM   27  O   UNL     3      -9.512  13.714  66.085  1.00  0.00    -0.421 OA 
HETATM   28  H   UNL     3      -9.322  14.101  65.238  1.00  0.00     0.000 HD 
BRANCH  26  29
HETATM   29  C   UNL     3     -10.079  15.904  66.974  1.00  0.00    -0.268 C  
HETATM   30  C   UNL     3      -9.974  16.814  65.725  1.00  0.00    -0.215 C  
HETATM   31  O   UNL     3      -8.768  15.908  67.638  1.00  0.00    -0.165 OA 
HETATM   32  O   UNL     3     -10.908  16.845  64.906  1.00  0.00    -0.715 OA 
HETATM   33  O   UNL     3      -8.846  17.473  65.730  1.00  0.00    -0.514 OA 
HETATM   34  H   UNL     3      -8.475  16.800  67.781  1.00  0.00     0.000 HD 
ENDBRANCH  26  29
ENDBRANCH  23  26
ENDBRANCH   3  23
BRANCH   3  35
HETATM   35  C   UNL     3     -12.544  14.074  70.070  1.00  0.00    -0.194 C  
HETATM   36  O   UNL     3     -11.974  12.926  70.706  1.00  0.00    -0.500 OA 
HETATM   37  H   UNL     3     -12.652  12.530  71.241  1.00  0.00     0.000 HD 
ENDBRANCH   3  35
TORSDOF 8
ENDMDL
MODEL      157
REMARK 921   NORMALIZED FREE ENERGY PREDICTED BY IDOCK:   -4.46 KCAL/MOL
REMARK 922        TOTAL FREE ENERGY PREDICTED BY IDOCK:   -8.64 KCAL/MOL
REMARK 923 INTER-LIGAND FREE ENERGY PREDICTED BY IDOCK:   -8.16 KCAL/MOL
REMARK 924 INTRA-LIGAND FREE ENERGY PREDICTED BY IDOCK:   -0.47 KCAL/MOL
REMARK 927      BINDING AFFINITY PREDICTED BY RF-SCORE:    0.00 PKD
ROOT
HETATM    1 FE   UNL     1     -11.931  18.615  67.932  1.00  0.00     0.090 Fe 
HETATM    2  C   UNL     2     -11.611  13.292  63.719  1.00  0.00    -0.375 C  
HETATM    3  C   UNL     3      -5.668  19.648  67.476  1.00  0.00    -0.178 C  
HETATM    4  H   UNL     3      -5.403  20.457  65.723  1.00  0.00     0.000 HD 
HETATM    5  H   UNL     2     -12.386  15.022  63.163  1.00  0.00     0.000 HD 
HETATM    6  O   UNL     2     -12.695  14.137  63.320  1.00  0.00    -0.714 OA 
HETATM    7  O   UNL     3      -5.176  19.623  66.117  1.00  0.00    -0.157 OA 
ENDROOT
BRANCH   2   8
HETATM    8  C   UNL     2     -12.109  11.867  63.973  1.00  0.00    -0.342 C  
HETATM    9  H   UNL     2     -11.332  10.093  64.398  1.00  0.00     0.000 HD 
HETATM   10  O   UNL     2     -11.024  10.977  64.241  1.00  0.00    -0.309 OA 
ENDBRANCH   2   8
BRANCH   2  11
HETATM   11  C   UNL     2     -10.907  13.895  64.950  1.00  0.00    -0.405 C  
HETATM   12  H   UNL     2     -10.324  15.688  65.573  1.00  0.00     0.000 HD 
HETATM   13  O   UNL     2     -10.758  15.316  64.815  1.00  0.00    -0.410 OA 
BRANCH  11  14
HETATM   14  C   UNL     2     -11.707  13.578  66.225  1.00  0.00    -0.367 C  
HETATM   15  H   UNL     2     -13.055  14.508  67.331  1.00  0.00     0.000 HD 
HETATM   16  O   UNL     2     -12.561  14.704  66.543  1.00  0.00    -0.099 OA 
BRANCH  14  17
HETATM   17  C   UNL     2     -10.857  13.279  67.455  1.00  0.00    -0.267 C  
HETATM   18  C   UNL     2     -10.502  11.784  67.556  1.00  0.00    -0.202 C  
HETATM   19  H   UNL     2     -11.091  13.470  69.401  1.00  0.00     0.000 HD 
HETATM   20  O   UNL     2     -11.621  13.656  68.635  1.00  0.00    -0.282 OA 
HETATM   21  O   UNL     2     -11.421  11.017  68.056  1.00  0.00    -0.353 OA 
HETATM   22  O   UNL     2      -9.339  11.395  67.498  1.00  0.00    -0.161 OA 
ENDBRANCH  14  17
ENDBRANCH  11  14
ENDBRANCH   2  11
BRANCH   3  23
HETATM   23  C   UNL     3      -7.159  19.955  67.388  1.00  0.00    -0.235 C  
HETATM   24  O   UNL     3      -7.318  21.378  67.431  1.00  0.00    -0.683 OA 
HETATM   25  H   UNL     3      -8.247  21.569  67.377  1.00  0.00     0.000 HD 
BRANCH  23  26
HETATM   26  C   UNL     3      -7.949  19.420  66.171  1.00  0.00    -0.310 C  
HETATM   27  O   UNL     3      -8.108  20.459  65.191  1.00  0.00    -0.345 OA 
HETATM   28  H   UNL     3      -8.593  20.131  64.443  1.00  0.00     0.000 HD 
BRANCH  26  29
HETATM   29  C   UNL     3      -9.344  18.973  66.665  1.00  0.00    -0.332 C  
HETATM   30  C   UNL     3      -9.420  18.356  68.084  1.00  0.00    -0.310 C  
HETATM   31  O   UNL     3      -9.926  18.003  65.727  1.00  0.00    -0.550 OA 
HETATM   32  O   UNL     3      -8.841  18.917  69.030  1.00  0.00    -0.258 OA 
HETATM   33  O   UNL     3     -10.146  17.270  68.075  1.00  0.00    -0.292 OA 
HETATM   34  H   UNL     3     -10.784  17.728  66.030  1.00  0.00     0.000 HD 
ENDBRANCH  26  29
ENDBRANCH  23  26
ENDBRANCH   3  23
BRANCH   3  35
HETATM   35  C   UNL     3      -5.303  18.305  68.109  1.00  0.00    -0.165 C  
HETATM   36  O   UNL     3      -6.427  17.434  67.949  1.00  0.00    -0.152 OA 
HETATM   37  H   UNL     3      -6.200  16.599  68.342  1.00  0.00     0.000 HD 
ENDBRANCH   3  35
TORSDOF 8
ENDMDL
MODEL      158
REMARK 921   NORMALIZED FREE ENERGY PREDICTED BY IDOCK:   -4.45 KCAL/MOL
REMARK 922        TOTAL FREE ENERGY PREDICTED BY IDOCK:   -8.63 KCAL/MOL
REMARK 923 INTER-LIGAND FREE ENERGY PREDICTED BY IDOCK:   -7.13 KCAL/MOL
REMARK 924 INTRA-LIGAND FREE ENERGY PREDICTED BY IDOCK:   -1.50 KCAL/MOL
REMARK 927      BINDING AFFINITY PREDICTED BY RF-SCORE:    0.00 PKD
ROOT
HETATM    1 FE   UNL     1      -6.041  13.649  69.714  1.00  0.00    -0.083 Fe 
HETATM    2  C   UNL     2     -10.148  18.118  66.657  1.00  0.00    -0.373 C  
HETATM    3  C   UNL     3     -10.397   9.025  69.322  1.00  0.00    -0.219 C  
HETATM    4  H   UNL     3     -10.389   8.463  67.456  1.00  0.00     0.000 HD 
HETATM    5  H   UNL     2      -8.586  17.332  65.737  1.00  0.00     0.000 HD 
HETATM    6  O   UNL     2      -8.853  18.187  66.053  1.00  0.00    -0.499 OA 
HETATM    7  O   UNL     3     -11.008   8.917  68.017  1.00  0.00    -0.073 OA 
ENDROOT
BRANCH   2   8
HETATM    8  C   UNL     2     -10.577  19.496  67.167  1.00  0.00    -0.487 C  
HETATM    9  H   UNL     2      -9.740  21.065  68.042  1.00  0.00     0.000 HD 
HETATM   10  O   UNL     2      -9.473  20.210  67.726  1.00  0.00    -0.356 OA 
ENDBRANCH   2   8
BRANCH   2  11
HETATM   11  C   UNL     2     -10.147  17.053  67.772  1.00  0.00    -0.302 C  
HETATM   12  H   UNL     2     -10.503  16.974  69.723  1.00  0.00     0.000 HD 
HETATM   13  O   UNL     2     -10.504  17.630  69.036  1.00  0.00    -0.342 OA 
BRANCH  11  14
HETATM   14  C   UNL     2     -11.130  15.922  67.422  1.00  0.00    -0.207 C  
HETATM   15  H   UNL     2     -12.499  14.874  68.387  1.00  0.00     0.000 HD 
HETATM   16  O   UNL     2     -11.892  15.573  68.603  1.00  0.00    -0.362 OA 
BRANCH  14  17
HETATM   17  C   UNL     2     -10.476  14.647  66.899  1.00  0.00    -0.270 C  
HETATM   18  C   UNL     2     -11.189  14.112  65.644  1.00  0.00    -0.308 C  
HETATM   19  H   UNL     2     -10.147  12.844  67.619  1.00  0.00     0.000 HD 
HETATM   20  O   UNL     2     -10.554  13.638  67.945  1.00  0.00    -0.241 OA 
HETATM   21  O   UNL     2     -12.267  13.423  65.856  1.00  0.00    -0.416 OA 
HETATM   22  O   UNL     2     -10.614  14.040  64.561  1.00  0.00    -0.416 OA 
ENDBRANCH  14  17
ENDBRANCH  11  14
ENDBRANCH   2  11
BRANCH   3  23
HETATM   23  C   UNL     3      -9.058   9.724  69.113  1.00  0.00    -0.165 C  
HETATM   24  O   UNL     3      -9.259  11.129  69.313  1.00  0.00    -0.397 OA 
HETATM   25  H   UNL     3      -8.425  11.564  69.182  1.00  0.00     0.000 HD 
BRANCH  23  26
HETATM   26  C   UNL     3      -7.855   9.284  69.978  1.00  0.00    -0.116 C  
HETATM   27  O   UNL     3      -7.353  10.401  70.730  1.00  0.00    -0.398 OA 
HETATM   28  H   UNL     3      -6.614  10.131  71.262  1.00  0.00     0.000 HD 
BRANCH  26  29
HETATM   29  C   UNL     3      -6.745   8.771  69.032  1.00  0.00    -0.052 C  
HETATM   30  C   UNL     3      -6.178   9.783  68.006  1.00  0.00    -0.055 C  
HETATM   31  O   UNL     3      -7.219   7.598  68.284  1.00  0.00    -0.087 OA 
HETATM   32  O   UNL     3      -5.865  10.927  68.378  1.00  0.00    -0.044 OA 
HETATM   33  O   UNL     3      -6.092   9.238  66.822  1.00  0.00    -0.061 OA 
HETATM   34  H   UNL     3      -6.536   7.283  67.703  1.00  0.00     0.000 HD 
ENDBRANCH  26  29
ENDBRANCH  23  26
ENDBRANCH   3  23
BRANCH   3  35
HETATM   35  C   UNL     3     -11.393   9.755  70.223  1.00  0.00    -0.272 C  
HETATM   36  O   UNL     3     -12.224  10.561  69.382  1.00  0.00    -0.529 OA 
HETATM   37  H   UNL     3     -12.843  11.014  69.943  1.00  0.00     0.000 HD 
ENDBRANCH   3  35
TORSDOF 8
ENDMDL
MODEL      159
REMARK 921   NORMALIZED FREE ENERGY PREDICTED BY IDOCK:   -4.44 KCAL/MOL
REMARK 922        TOTAL FREE ENERGY PREDICTED BY IDOCK:   -8.61 KCAL/MOL
REMARK 923 INTER-LIGAND FREE ENERGY PREDICTED BY IDOCK:   -8.09 KCAL/MOL
REMARK 924 INTRA-LIGAND FREE ENERGY PREDICTED BY IDOCK:   -0.52 KCAL/MOL
REMARK 927      BINDING AFFINITY PREDICTED BY RF-SCORE:    0.00 PKD
ROOT
HETATM    1 FE   UNL     1     -10.637   7.854  65.947  1.00  0.00    -0.470 Fe 
HETATM    2  C   UNL     2      -8.732   7.124  72.430  1.00  0.00    -0.123 C  
HETATM    3  C   UNL     3     -11.362  14.141  66.625  1.00  0.00    -0.344 C  
HETATM    4  H   UNL     3      -9.555  14.868  66.664  1.00  0.00     0.000 HD 
HETATM    5  H   UNL     2      -7.443   6.987  70.939  1.00  0.00     0.000 HD 
HETATM    6  O   UNL     2      -7.818   6.409  71.593  1.00  0.00    -0.099 OA 
HETATM    7  O   UNL     3     -10.255  14.779  67.300  1.00  0.00    -0.239 OA 
ENDROOT
BRANCH   2   8
HETATM    8  C   UNL     2      -9.336   6.193  73.484  1.00  0.00    -0.131 C  
HETATM    9  H   UNL     2     -10.925   6.148  74.668  1.00  0.00     0.000 HD 
HETATM   10  O   UNL     2     -10.550   6.727  74.014  1.00  0.00    -0.343 OA 
ENDBRANCH   2   8
BRANCH   2  11
HETATM   11  C   UNL     2      -9.808   7.806  71.563  1.00  0.00    -0.167 C  
HETATM   12  H   UNL     2     -10.231   9.637  70.922  1.00  0.00     0.000 HD 
HETATM   13  O   UNL     2      -9.568   9.217  71.456  1.00  0.00    -0.283 OA 
BRANCH  11  14
HETATM   14  C   UNL     2      -9.829   7.177  70.158  1.00  0.00    -0.179 C  
HETATM   15  H   UNL     2     -10.222   7.798  68.324  1.00  0.00     0.000 HD 
HETATM   16  O   UNL     2     -10.209   8.187  69.191  1.00  0.00    -0.205 OA 
BRANCH  14  17
HETATM   17  C   UNL     2     -10.786   6.001  70.000  1.00  0.00    -0.359 C  
HETATM   18  C   UNL     2     -10.039   4.655  69.972  1.00  0.00    -0.197 C  
HETATM   19  H   UNL     2     -12.095   5.431  68.643  1.00  0.00     0.000 HD 
HETATM   20  O   UNL     2     -11.498   6.164  68.741  1.00  0.00    -0.259 OA 
HETATM   21  O   UNL     2      -9.511   4.324  68.835  1.00  0.00    -0.147 OA 
HETATM   22  O   UNL     2     -10.217   3.804  70.839  1.00  0.00     0.005 OA 
ENDBRANCH  14  17
ENDBRANCH  11  14
ENDBRANCH   2  11
BRANCH   3  23
HETATM   23  C   UNL     3     -10.819  12.836  66.051  1.00  0.00    -0.276 C  
HETATM   24  O   UNL     3     -11.925  11.944  65.864  1.00  0.00    -0.480 OA 
HETATM   25  H   UNL     3     -11.587  11.132  65.507  1.00  0.00     0.000 HD 
BRANCH  23  26
HETATM   26  C   UNL     3     -10.018  12.890  64.730  1.00  0.00    -0.129 C  
HETATM   27  O   UNL     3      -9.764  14.256  64.363  1.00  0.00    -0.483 OA 
HETATM   28  H   UNL     3      -9.271  14.290  63.551  1.00  0.00     0.000 HD 
BRANCH  26  29
HETATM   29  C   UNL     3     -10.867  12.219  63.626  1.00  0.00    -0.469 C  
HETATM   30  C   UNL     3     -12.316  12.736  63.446  1.00  0.00    -0.437 C  
HETATM   31  O   UNL     3     -10.938  10.769  63.853  1.00  0.00    -0.406 OA 
HETATM   32  O   UNL     3     -12.531  13.960  63.403  1.00  0.00    -0.833 OA 
HETATM   33  O   UNL     3     -13.151  11.737  63.341  1.00  0.00    -0.622 OA 
HETATM   34  H   UNL     3     -11.459  10.356  63.174  1.00  0.00     0.000 HD 
ENDBRANCH  26  29
ENDBRANCH  23  26
ENDBRANCH   3  23
BRANCH   3  35
HETATM   35  C   UNL     3     -12.488  13.997  67.649  1.00  0.00     0.171 C  
HETATM   36  O   UNL     3     -12.311  15.024  68.630  1.00  0.00    -0.585 OA 
HETATM   37  H   UNL     3     -13.011  14.935  69.266  1.00  0.00     0.000 HD 
ENDBRANCH   3  35
TORSDOF 8
ENDMDL
MODEL      160
REMARK 921   NORMALIZED FREE ENERGY PREDICTED BY IDOCK:   -4.44 KCAL/MOL
REMARK 922        TOTAL FREE ENERGY PREDICTED BY IDOCK:   -8.61 KCAL/MOL
REMARK 923 INTER-LIGAND FREE ENERGY PREDICTED BY IDOCK:   -7.26 KCAL/MOL
REMARK 924 INTRA-LIGAND FREE ENERGY PREDICTED BY IDOCK:   -1.35 KCAL/MOL
REMARK 927      BINDING AFFINITY PREDICTED BY RF-SCORE:    0.00 PKD
ROOT
HETATM    1 FE   UNL     1     -11.125  10.206  66.928  1.00  0.00    -0.244 Fe 
HETATM    2  C   UNL     2     -10.294   6.242  72.386  1.00  0.00    -0.191 C  
HETATM    3  C   UNL     3     -12.203  15.339  70.533  1.00  0.00    -0.371 C  
HETATM    4  H   UNL     3     -10.458  15.861  71.226  1.00  0.00     0.000 HD 
HETATM    5  H   UNL     2      -8.771   6.805  71.260  1.00  0.00     0.000 HD 
HETATM    6  O   UNL     2      -9.226   5.996  71.466  1.00  0.00    -0.143 OA 
HETATM    7  O   UNL     3     -11.250  15.500  71.608  1.00  0.00    -0.386 OA 
ENDROOT
BRANCH   2   8
HETATM    8  C   UNL     2     -11.027   4.939  72.717  1.00  0.00    -0.225 C  
HETATM    9  H   UNL     2     -11.566   3.926  74.333  1.00  0.00     0.000 HD 
HETATM   10  O   UNL     2     -11.111   4.735  74.128  1.00  0.00    -0.302 OA 
ENDBRANCH   2   8
BRANCH   2  11
HETATM   11  C   UNL     2     -11.238   7.317  71.814  1.00  0.00    -0.247 C  
HETATM   12  H   UNL     2     -12.505   8.677  72.512  1.00  0.00     0.000 HD 
HETATM   13  O   UNL     2     -11.923   8.014  72.864  1.00  0.00    -0.297 OA 
BRANCH  11  14
HETATM   14  C   UNL     2     -10.439   8.320  70.963  1.00  0.00    -0.202 C  
HETATM   15  H   UNL     2      -9.800  10.178  71.174  1.00  0.00     0.000 HD 
HETATM   16  O   UNL     2     -10.293   9.559  71.700  1.00  0.00    -0.232 OA 
BRANCH  14  17
HETATM   17  C   UNL     2     -11.068   8.655  69.614  1.00  0.00    -0.013 C  
HETATM   18  C   UNL     2     -10.080   8.441  68.453  1.00  0.00    -0.198 C  
HETATM   19  H   UNL     2     -11.856  10.265  68.796  1.00  0.00     0.000 HD 
HETATM   20  O   UNL     2     -11.464  10.056  69.636  1.00  0.00    -0.226 OA 
HETATM   21  O   UNL     2      -9.231   9.400  68.248  1.00  0.00    -0.131 OA 
HETATM   22  O   UNL     2     -10.291   7.607  67.577  1.00  0.00    -0.212 OA 
ENDBRANCH  14  17
ENDBRANCH  11  14
ENDBRANCH   2  11
BRANCH   3  23
HETATM   23  C   UNL     3     -11.521  14.471  69.481  1.00  0.00    -0.288 C  
HETATM   24  O   UNL     3     -12.514  14.077  68.526  1.00  0.00    -0.496 OA 
HETATM   25  H   UNL     3     -12.089  13.536  67.870  1.00  0.00     0.000 HD 
BRANCH  23  26
HETATM   26  C   UNL     3     -10.319  15.060  68.708  1.00  0.00    -0.240 C  
HETATM   27  O   UNL     3      -9.650  16.046  69.512  1.00  0.00    -0.254 OA 
HETATM   28  H   UNL     3      -8.911  16.408  69.037  1.00  0.00     0.000 HD 
BRANCH  26  29
HETATM   29  C   UNL     3     -10.857  15.734  67.425  1.00  0.00    -0.306 C  
HETATM   30  C   UNL     3      -9.910  15.760  66.199  1.00  0.00    -0.315 C  
HETATM   31  O   UNL     3     -11.254  17.120  67.708  1.00  0.00    -0.170 OA 
HETATM   32  O   UNL     3      -9.308  14.725  65.864  1.00  0.00    -0.271 OA 
HETATM   33  O   UNL     3      -9.899  16.946  65.652  1.00  0.00    -0.549 OA 
HETATM   34  H   UNL     3     -11.585  17.534  66.920  1.00  0.00     0.000 HD 
ENDBRANCH  26  29
ENDBRANCH  23  26
ENDBRANCH   3  23
BRANCH   3  35
HETATM   35  C   UNL     3     -13.477  14.759  71.148  1.00  0.00    -0.390 C  
HETATM   36  O   UNL     3     -13.096  13.631  71.943  1.00  0.00    -0.356 OA 
HETATM   37  H   UNL     3     -13.888  13.271  72.325  1.00  0.00     0.000 HD 
ENDBRANCH   3  35
TORSDOF 8
ENDMDL
MODEL      161
REMARK 921   NORMALIZED FREE ENERGY PREDICTED BY IDOCK:   -4.40 KCAL/MOL
REMARK 922        TOTAL FREE ENERGY PREDICTED BY IDOCK:   -8.56 KCAL/MOL
REMARK 923 INTER-LIGAND FREE ENERGY PREDICTED BY IDOCK:   -7.87 KCAL/MOL
REMARK 924 INTRA-LIGAND FREE ENERGY PREDICTED BY IDOCK:   -0.69 KCAL/MOL
REMARK 927      BINDING AFFINITY PREDICTED BY RF-SCORE:    0.00 PKD
ROOT
HETATM    1 FE   UNL     1     -11.335   7.690  66.358  1.00  0.00    -0.288 Fe 
HETATM    2  C   UNL     2      -9.445   5.536  72.521  1.00  0.00    -0.145 C  
HETATM    3  C   UNL     3     -11.035  13.792  68.144  1.00  0.00    -0.246 C  
HETATM    4  H   UNL     3      -9.134  14.215  68.222  1.00  0.00     0.000 HD 
HETATM    5  H   UNL     2      -8.224   5.470  70.969  1.00  0.00     0.000 HD 
HETATM    6  O   UNL     2      -8.674   4.849  71.530  1.00  0.00    -0.125 OA 
HETATM    7  O   UNL     3      -9.827  14.123  68.865  1.00  0.00    -0.199 OA 
ENDROOT
BRANCH   2   8
HETATM    8  C   UNL     2     -10.169   4.536  73.426  1.00  0.00    -0.169 C  
HETATM    9  H   UNL     2     -10.875   2.688  73.304  1.00  0.00     0.000 HD 
HETATM   10  O   UNL     2     -10.425   3.308  72.742  1.00  0.00    -0.162 OA 
ENDBRANCH   2   8
BRANCH   2  11
HETATM   11  C   UNL     2     -10.415   6.518  71.836  1.00  0.00    -0.206 C  
HETATM   12  H   UNL     2     -12.319   7.055  72.004  1.00  0.00     0.000 HD 
HETATM   13  O   UNL     2     -11.721   6.450  72.426  1.00  0.00    -0.287 OA 
BRANCH  11  14
HETATM   14  C   UNL     2      -9.874   7.955  71.942  1.00  0.00    -0.178 C  
HETATM   15  H   UNL     2     -10.645   9.774  71.925  1.00  0.00     0.000 HD 
HETATM   16  O   UNL     2     -10.980   8.887  71.859  1.00  0.00    -0.336 OA 
BRANCH  14  17
HETATM   17  C   UNL     2      -8.864   8.337  70.865  1.00  0.00    -0.150 C  
HETATM   18  C   UNL     2      -7.418   8.278  71.389  1.00  0.00    -0.085 C  
HETATM   19  H   UNL     2      -8.521   9.939  69.771  1.00  0.00     0.000 HD 
HETATM   20  O   UNL     2      -9.150   9.700  70.442  1.00  0.00    -0.246 OA 
HETATM   21  O   UNL     2      -7.019   9.307  72.070  1.00  0.00    -0.313 OA 
HETATM   22  O   UNL     2      -6.597   7.494  70.920  1.00  0.00    -0.042 OA 
ENDBRANCH  14  17
ENDBRANCH  11  14
ENDBRANCH   2  11
BRANCH   3  23
HETATM   23  C   UNL     3     -10.719  12.543  67.328  1.00  0.00    -0.233 C  
HETATM   24  O   UNL     3     -11.746  11.577  67.587  1.00  0.00    -0.538 OA 
HETATM   25  H   UNL     3     -11.548  10.799  67.079  1.00  0.00     0.000 HD 
BRANCH  23  26
HETATM   26  C   UNL     3     -10.566  12.683  65.796  1.00  0.00    -0.272 C  
HETATM   27  O   UNL     3      -9.673  13.765  65.486  1.00  0.00    -0.492 OA 
HETATM   28  H   UNL     3      -9.579  13.851  64.544  1.00  0.00     0.000 HD 
BRANCH  26  29
HETATM   29  C   UNL     3     -11.960  12.990  65.202  1.00  0.00    -0.402 C  
HETATM   30  C   UNL     3     -12.176  12.638  63.708  1.00  0.00    -0.514 C  
HETATM   31  O   UNL     3     -12.282  14.413  65.374  1.00  0.00    -0.387 OA 
HETATM   32  O   UNL     3     -11.812  11.530  63.278  1.00  0.00    -0.300 OA 
HETATM   33  O   UNL     3     -12.766  13.623  63.085  1.00  0.00    -0.737 OA 
HETATM   34  H   UNL     3     -13.139  14.602  65.008  1.00  0.00     0.000 HD 
ENDBRANCH  26  29
ENDBRANCH  23  26
ENDBRANCH   3  23
BRANCH   3  35
HETATM   35  C   UNL     3     -12.149  13.644  69.180  1.00  0.00    -0.319 C  
HETATM   36  O   UNL     3     -11.590  13.954  70.460  1.00  0.00    -0.496 OA 
HETATM   37  H   UNL     3     -12.283  13.862  71.104  1.00  0.00     0.000 HD 
ENDBRANCH   3  35
TORSDOF 8
ENDMDL
MODEL      162
REMARK 921   NORMALIZED FREE ENERGY PREDICTED BY IDOCK:   -4.40 KCAL/MOL
REMARK 922        TOTAL FREE ENERGY PREDICTED BY IDOCK:   -8.55 KCAL/MOL
REMARK 923 INTER-LIGAND FREE ENERGY PREDICTED BY IDOCK:   -7.23 KCAL/MOL
REMARK 924 INTRA-LIGAND FREE ENERGY PREDICTED BY IDOCK:   -1.32 KCAL/MOL
REMARK 927      BINDING AFFINITY PREDICTED BY RF-SCORE:    0.00 PKD
ROOT
HETATM    1 FE   UNL     1      -6.438  10.428  66.948  1.00  0.00    -0.061 Fe 
HETATM    2  C   UNL     2      -9.828   5.976  70.805  1.00  0.00    -0.181 C  
HETATM    3  C   UNL     3     -11.476  14.299  66.578  1.00  0.00    -0.360 C  
HETATM    4  H   UNL     3     -11.584  15.175  68.315  1.00  0.00     0.000 HD 
HETATM    5  H   UNL     2      -8.424   7.149  71.549  1.00  0.00     0.000 HD 
HETATM    6  O   UNL     2      -8.547   6.221  71.393  1.00  0.00    -0.130 OA 
HETATM    7  O   UNL     3     -12.115  14.538  67.853  1.00  0.00    -0.325 OA 
ENDROOT
BRANCH   2   8
HETATM    8  C   UNL     2     -10.026   4.479  70.552  1.00  0.00    -0.208 C  
HETATM    9  H   UNL     2      -9.792   2.778  71.543  1.00  0.00     0.000 HD 
HETATM   10  O   UNL     2      -9.669   3.707  71.700  1.00  0.00    -0.149 OA 
ENDBRANCH   2   8
BRANCH   2  11
HETATM   11  C   UNL     2      -9.980   6.814  69.520  1.00  0.00    -0.162 C  
HETATM   12  H   UNL     2     -10.640   6.548  67.666  1.00  0.00     0.000 HD 
HETATM   13  O   UNL     2     -10.547   6.032  68.458  1.00  0.00    -0.210 OA 
BRANCH  11  14
HETATM   14  C   UNL     2     -10.868   8.040  69.791  1.00  0.00    -0.194 C  
HETATM   15  H   UNL     2     -10.925   9.921  69.188  1.00  0.00     0.000 HD 
HETATM   16  O   UNL     2     -10.376   9.163  69.020  1.00  0.00    -0.206 OA 
BRANCH  14  17
HETATM   17  C   UNL     2     -10.929   8.473  71.252  1.00  0.00    -0.256 C  
HETATM   18  C   UNL     2     -12.214   9.264  71.561  1.00  0.00    -0.362 C  
HETATM   19  H   UNL     2      -9.820   9.597  72.429  1.00  0.00     0.000 HD 
HETATM   20  O   UNL     2      -9.782   9.327  71.519  1.00  0.00    -0.274 OA 
HETATM   21  O   UNL     2     -12.199  10.518  71.233  1.00  0.00    -0.357 OA 
HETATM   22  O   UNL     2     -13.049   8.845  72.358  1.00  0.00    -0.407 OA 
ENDBRANCH  14  17
ENDBRANCH  11  14
ENDBRANCH   2  11
BRANCH   3  23
HETATM   23  C   UNL     3     -10.047  13.869  66.889  1.00  0.00    -0.260 C  
HETATM   24  O   UNL     3      -9.498  13.278  65.704  1.00  0.00    -0.483 OA 
HETATM   25  H   UNL     3      -8.608  13.010  65.898  1.00  0.00     0.000 HD 
BRANCH  23  26
HETATM   26  C   UNL     3      -9.051  14.936  67.398  1.00  0.00    -0.189 C  
HETATM   27  O   UNL     3      -8.316  15.491  66.294  1.00  0.00    -0.371 OA 
HETATM   28  H   UNL     3      -7.704  16.147  66.607  1.00  0.00     0.000 HD 
BRANCH  26  29
HETATM   29  C   UNL     3      -8.064  14.248  68.369  1.00  0.00    -0.142 C  
HETATM   30  C   UNL     3      -6.637  13.970  67.835  1.00  0.00    -0.165 C  
HETATM   31  O   UNL     3      -8.621  12.972  68.837  1.00  0.00    -0.368 OA 
HETATM   32  O   UNL     3      -6.020  14.865  67.233  1.00  0.00    -0.312 OA 
HETATM   33  O   UNL     3      -6.264  12.754  68.134  1.00  0.00    -0.070 OA 
HETATM   34  H   UNL     3      -8.015  12.549  69.434  1.00  0.00     0.000 HD 
ENDBRANCH  26  29
ENDBRANCH  23  26
ENDBRANCH   3  23
BRANCH   3  35
HETATM   35  C   UNL     3     -12.331  13.273  65.835  1.00  0.00    -0.418 C  
HETATM   36  O   UNL     3     -12.074  11.993  66.420  1.00  0.00    -0.610 OA 
HETATM   37  H   UNL     3     -12.605  11.355  65.958  1.00  0.00     0.000 HD 
ENDBRANCH   3  35
TORSDOF 8
ENDMDL
MODEL      163
REMARK 921   NORMALIZED FREE ENERGY PREDICTED BY IDOCK:   -4.39 KCAL/MOL
REMARK 922        TOTAL FREE ENERGY PREDICTED BY IDOCK:   -8.54 KCAL/MOL
REMARK 923 INTER-LIGAND FREE ENERGY PREDICTED BY IDOCK:   -6.38 KCAL/MOL
REMARK 924 INTRA-LIGAND FREE ENERGY PREDICTED BY IDOCK:   -2.16 KCAL/MOL
REMARK 927      BINDING AFFINITY PREDICTED BY RF-SCORE:    0.00 PKD
ROOT
HETATM    1 FE   UNL     1     -10.549   7.592  65.874  1.00  0.00    -0.468 Fe 
HETATM    2  C   UNL     2     -11.908  14.183  66.818  1.00  0.00    -0.425 C  
HETATM    3  C   UNL     3     -10.910   6.385  72.112  1.00  0.00    -0.237 C  
HETATM    4  H   UNL     3     -12.812   6.412  72.535  1.00  0.00     0.000 HD 
HETATM    5  H   UNL     2     -13.238  12.940  66.050  1.00  0.00     0.000 HD 
HETATM    6  O   UNL     2     -12.729  13.686  65.756  1.00  0.00    -0.471 OA 
HETATM    7  O   UNL     3     -12.070   6.968  72.746  1.00  0.00     0.025 OA 
ENDROOT
BRANCH   2   8
HETATM    8  C   UNL     2     -11.087  15.385  66.344  1.00  0.00    -0.230 C  
HETATM    9  H   UNL     2     -10.373  17.070  67.107  1.00  0.00     0.000 HD 
HETATM   10  O   UNL     2     -10.883  16.324  67.401  1.00  0.00    -0.313 OA 
ENDBRANCH   2   8
BRANCH   2  11
HETATM   11  C   UNL     2     -11.023  13.047  67.367  1.00  0.00    -0.260 C  
HETATM   12  H   UNL     2      -9.133  12.800  67.921  1.00  0.00     0.000 HD 
HETATM   13  O   UNL     2      -9.678  13.499  67.582  1.00  0.00    -0.218 OA 
BRANCH  11  14
HETATM   14  C   UNL     2     -11.607  12.515  68.687  1.00  0.00    -0.314 C  
HETATM   15  H   UNL     2     -11.071  12.519  70.589  1.00  0.00     0.000 HD 
HETATM   16  O   UNL     2     -10.710  12.849  69.773  1.00  0.00     0.301 OA 
BRANCH  14  17
HETATM   17  C   UNL     2     -11.835  11.007  68.721  1.00  0.00    -0.282 C  
HETATM   18  C   UNL     2     -11.056  10.336  69.868  1.00  0.00    -0.304 C  
HETATM   19  H   UNL     2     -11.513   9.512  67.480  1.00  0.00     0.000 HD 
HETATM   20  O   UNL     2     -11.372  10.451  67.458  1.00  0.00    -0.374 OA 
HETATM   21  O   UNL     2      -9.802  10.100  69.639  1.00  0.00    -0.224 OA 
HETATM   22  O   UNL     2     -11.635   9.759  70.785  1.00  0.00    -0.290 OA 
ENDBRANCH  14  17
ENDBRANCH  11  14
ENDBRANCH   2  11
BRANCH   3  23
HETATM   23  C   UNL     3     -11.246   6.265  70.630  1.00  0.00    -0.337 C  
HETATM   24  O   UNL     3     -12.536   6.854  70.422  1.00  0.00    -0.611 OA 
HETATM   25  H   UNL     3     -12.745   6.779  69.498  1.00  0.00     0.000 HD 
BRANCH  23  26
HETATM   26  C   UNL     3     -10.267   6.876  69.601  1.00  0.00    -0.193 C  
HETATM   27  O   UNL     3     -10.998   7.571  68.578  1.00  0.00    -0.422 OA 
HETATM   28  H   UNL     3     -10.397   7.947  67.945  1.00  0.00     0.000 HD 
BRANCH  26  29
HETATM   29  C   UNL     3      -9.466   5.722  68.956  1.00  0.00    -0.124 C  
HETATM   30  C   UNL     3     -10.222   4.826  67.944  1.00  0.00    -0.001 C  
HETATM   31  O   UNL     3      -8.910   4.847  69.997  1.00  0.00    -0.092 OA 
HETATM   32  O   UNL     3     -10.919   5.350  67.058  1.00  0.00    -0.138 OA 
HETATM   33  O   UNL     3      -9.983   3.563  68.181  1.00  0.00     0.033 OA 
HETATM   34  H   UNL     3      -8.418   4.138  69.601  1.00  0.00     0.000 HD 
ENDBRANCH  26  29
ENDBRANCH  23  26
ENDBRANCH   3  23
BRANCH   3  35
HETATM   35  C   UNL     3      -9.718   7.280  72.452  1.00  0.00    -0.154 C  
HETATM   36  O   UNL     3     -10.226   8.590  72.720  1.00  0.00    -0.256 OA 
HETATM   37  H   UNL     3      -9.485   9.146  72.932  1.00  0.00     0.000 HD 
ENDBRANCH   3  35
TORSDOF 8
ENDMDL
MODEL      164
REMARK 921   NORMALIZED FREE ENERGY PREDICTED BY IDOCK:   -4.38 KCAL/MOL
REMARK 922        TOTAL FREE ENERGY PREDICTED BY IDOCK:   -8.53 KCAL/MOL
REMARK 923 INTER-LIGAND FREE ENERGY PREDICTED BY IDOCK:   -6.94 KCAL/MOL
REMARK 924 INTRA-LIGAND FREE ENERGY PREDICTED BY IDOCK:   -1.59 KCAL/MOL
REMARK 927      BINDING AFFINITY PREDICTED BY RF-SCORE:    0.00 PKD
ROOT
HETATM    1 FE   UNL     1      -6.639  11.580  71.114  1.00  0.00    -0.082 Fe 
HETATM    2  C   UNL     2     -10.869   6.570  72.903  1.00  0.00    -0.258 C  
HETATM    3  C   UNL     3     -10.948  14.128  67.183  1.00  0.00    -0.299 C  
HETATM    4  H   UNL     3     -12.248  15.006  68.340  1.00  0.00     0.000 HD 
HETATM    5  H   UNL     2     -10.443   8.066  74.121  1.00  0.00     0.000 HD 
HETATM    6  O   UNL     2     -10.285   7.130  74.083  1.00  0.00    -0.309 OA 
HETATM    7  O   UNL     3     -12.264  14.247  67.769  1.00  0.00    -0.325 OA 
ENDROOT
BRANCH   2   8
HETATM    8  C   UNL     2     -10.612   5.062  72.841  1.00  0.00    -0.228 C  
HETATM    9  H   UNL     2     -10.525   3.533  74.100  1.00  0.00     0.000 HD 
HETATM   10  O   UNL     2     -10.684   4.469  74.138  1.00  0.00    -0.264 OA 
ENDBRANCH   2   8
BRANCH   2  11
HETATM   11  C   UNL     2     -10.337   7.307  71.658  1.00  0.00    -0.197 C  
HETATM   12  H   UNL     2      -9.022   6.976  70.209  1.00  0.00     0.000 HD 
HETATM   13  O   UNL     2      -9.349   6.521  70.975  1.00  0.00    -0.160 OA 
BRANCH  11  14
HETATM   14  C   UNL     2     -11.496   7.628  70.700  1.00  0.00    -0.258 C  
HETATM   15  H   UNL     2     -11.984   7.158  68.843  1.00  0.00     0.000 HD 
HETATM   16  O   UNL     2     -11.267   6.959  69.435  1.00  0.00    -0.228 OA 
BRANCH  14  17
HETATM   17  C   UNL     2     -11.692   9.113  70.409  1.00  0.00    -0.088 C  
HETATM   18  C   UNL     2     -10.780   9.598  69.267  1.00  0.00    -0.226 C  
HETATM   19  H   UNL     2     -11.484  10.781  71.435  1.00  0.00     0.000 HD 
HETATM   20  O   UNL     2     -11.362   9.856  71.616  1.00  0.00    -0.300 OA 
HETATM   21  O   UNL     2      -9.555   9.866  69.597  1.00  0.00    -0.203 OA 
HETATM   22  O   UNL     2     -11.243  10.027  68.214  1.00  0.00    -0.229 OA 
ENDBRANCH  14  17
ENDBRANCH  11  14
ENDBRANCH   2  11
BRANCH   3  23
HETATM   23  C   UNL     3      -9.965  14.060  68.347  1.00  0.00    -0.236 C  
HETATM   24  O   UNL     3      -9.727  12.678  68.642  1.00  0.00    -0.371 OA 
HETATM   25  H   UNL     3      -9.115  12.636  69.367  1.00  0.00     0.000 HD 
BRANCH  23  26
HETATM   26  C   UNL     3      -8.596  14.761  68.196  1.00  0.00    -0.159 C  
HETATM   27  O   UNL     3      -7.751  14.440  69.313  1.00  0.00    -0.280 OA 
HETATM   28  H   UNL     3      -6.909  14.870  69.220  1.00  0.00     0.000 HD 
BRANCH  26  29
HETATM   29  C   UNL     3      -8.839  16.288  68.167  1.00  0.00    -0.183 C  
HETATM   30  C   UNL     3      -8.655  17.000  66.804  1.00  0.00    -0.237 C  
HETATM   31  O   UNL     3      -7.964  16.958  69.140  1.00  0.00    -0.213 OA 
HETATM   32  O   UNL     3      -9.167  16.512  65.781  1.00  0.00    -0.486 OA 
HETATM   33  O   UNL     3      -7.955  18.093  66.947  1.00  0.00    -0.218 OA 
HETATM   34  H   UNL     3      -8.114  17.896  69.122  1.00  0.00     0.000 HD 
ENDBRANCH  26  29
ENDBRANCH  23  26
ENDBRANCH   3  23
BRANCH   3  35
HETATM   35  C   UNL     3     -10.976  12.906  66.266  1.00  0.00    -0.281 C  
HETATM   36  O   UNL     3     -12.105  12.111  66.641  1.00  0.00    -0.622 OA 
HETATM   37  H   UNL     3     -12.122  11.351  66.070  1.00  0.00     0.000 HD 
ENDBRANCH   3  35
TORSDOF 8
ENDMDL
MODEL      165
REMARK 921   NORMALIZED FREE ENERGY PREDICTED BY IDOCK:   -4.38 KCAL/MOL
REMARK 922        TOTAL FREE ENERGY PREDICTED BY IDOCK:   -8.53 KCAL/MOL
REMARK 923 INTER-LIGAND FREE ENERGY PREDICTED BY IDOCK:   -7.48 KCAL/MOL
REMARK 924 INTRA-LIGAND FREE ENERGY PREDICTED BY IDOCK:   -1.05 KCAL/MOL
REMARK 927      BINDING AFFINITY PREDICTED BY RF-SCORE:    0.00 PKD
ROOT
HETATM    1 FE   UNL     1      -9.310  12.701  69.790  1.00  0.00    -0.040 Fe 
HETATM    2  C   UNL     2     -11.118   6.164  70.223  1.00  0.00    -0.366 C  
HETATM    3  C   UNL     3     -11.599  13.182  63.871  1.00  0.00    -0.433 C  
HETATM    4  H   UNL     3     -13.536  13.248  64.070  1.00  0.00     0.000 HD 
HETATM    5  H   UNL     2     -12.091   7.585  71.190  1.00  0.00     0.000 HD 
HETATM    6  O   UNL     2     -11.540   6.843  71.410  1.00  0.00    -0.267 OA 
HETATM    7  O   UNL     3     -12.920  12.617  63.716  1.00  0.00    -0.707 OA 
ENDROOT
BRANCH   2   8
HETATM    8  C   UNL     2     -10.229   4.969  70.577  1.00  0.00    -0.246 C  
HETATM    9  H   UNL     2      -8.772   4.548  71.853  1.00  0.00     0.000 HD 
HETATM   10  O   UNL     2      -9.323   5.290  71.633  1.00  0.00    -0.144 OA 
ENDBRANCH   2   8
BRANCH   2  11
HETATM   11  C   UNL     2     -10.416   7.157  69.276  1.00  0.00    -0.211 C  
HETATM   12  H   UNL     2      -9.205   8.722  69.430  1.00  0.00     0.000 HD 
HETATM   13  O   UNL     2      -9.637   8.110  70.014  1.00  0.00    -0.170 OA 
BRANCH  11  14
HETATM   14  C   UNL     2      -9.509   6.397  68.293  1.00  0.00    -0.121 C  
HETATM   15  H   UNL     2      -7.564   6.224  67.990  1.00  0.00     0.000 HD 
HETATM   16  O   UNL     2      -8.125   6.693  68.598  1.00  0.00    -0.116 OA 
BRANCH  14  17
HETATM   17  C   UNL     2      -9.742   6.729  66.823  1.00  0.00    -0.171 C  
HETATM   18  C   UNL     2      -8.481   7.316  66.162  1.00  0.00    -0.142 C  
HETATM   19  H   UNL     2     -10.953   7.924  65.831  1.00  0.00     0.000 HD 
HETATM   20  O   UNL     2     -10.809   7.716  66.746  1.00  0.00    -0.274 OA 
HETATM   21  O   UNL     2      -8.267   8.578  66.371  1.00  0.00    -0.104 OA 
HETATM   22  O   UNL     2      -7.912   6.740  65.239  1.00  0.00    -0.113 OA 
ENDBRANCH  14  17
ENDBRANCH  11  14
ENDBRANCH   2  11
BRANCH   3  23
HETATM   23  C   UNL     3     -11.441  13.502  65.353  1.00  0.00    -0.302 C  
HETATM   24  O   UNL     3     -12.652  14.124  65.801  1.00  0.00    -0.488 OA 
HETATM   25  H   UNL     3     -12.554  14.324  66.724  1.00  0.00     0.000 HD 
BRANCH  23  26
HETATM   26  C   UNL     3     -11.107  12.347  66.325  1.00  0.00    -0.303 C  
HETATM   27  O   UNL     3     -12.049  12.327  67.410  1.00  0.00    -0.533 OA 
HETATM   28  H   UNL     3     -11.845  11.617  68.007  1.00  0.00     0.000 HD 
BRANCH  26  29
HETATM   29  C   UNL     3      -9.689  12.589  66.890  1.00  0.00    -0.232 C  
HETATM   30  C   UNL     3      -9.339  14.041  67.303  1.00  0.00    -0.230 C  
HETATM   31  O   UNL     3      -8.675  12.145  65.923  1.00  0.00    -0.406 OA 
HETATM   32  O   UNL     3     -10.142  14.695  67.990  1.00  0.00    -0.222 OA 
HETATM   33  O   UNL     3      -8.161  14.376  66.849  1.00  0.00    -0.131 OA 
HETATM   34  H   UNL     3      -7.804  12.294  66.271  1.00  0.00     0.000 HD 
ENDBRANCH  26  29
ENDBRANCH  23  26
ENDBRANCH   3  23
BRANCH   3  35
HETATM   35  C   UNL     3     -10.608  12.167  63.302  1.00  0.00    -0.319 C  
HETATM   36  O   UNL     3     -11.367  11.094  62.737  1.00  0.00    -0.683 OA 
HETATM   37  H   UNL     3     -10.751  10.463  62.383  1.00  0.00     0.000 HD 
ENDBRANCH   3  35
TORSDOF 8
ENDMDL
MODEL      166
REMARK 921   NORMALIZED FREE ENERGY PREDICTED BY IDOCK:   -4.36 KCAL/MOL
REMARK 922        TOTAL FREE ENERGY PREDICTED BY IDOCK:   -8.50 KCAL/MOL
REMARK 923 INTER-LIGAND FREE ENERGY PREDICTED BY IDOCK:   -7.02 KCAL/MOL
REMARK 924 INTRA-LIGAND FREE ENERGY PREDICTED BY IDOCK:   -1.48 KCAL/MOL
REMARK 927      BINDING AFFINITY PREDICTED BY RF-SCORE:    0.00 PKD
ROOT
HETATM    1 FE   UNL     1      -6.767  11.706  69.430  1.00  0.00    -0.067 Fe 
HETATM    2  C   UNL     2     -10.552   6.563  71.756  1.00  0.00    -0.215 C  
HETATM    3  C   UNL     3     -11.216  13.371  65.194  1.00  0.00    -0.305 C  
HETATM    4  H   UNL     3     -12.612  14.252  66.230  1.00  0.00     0.000 HD 
HETATM    5  H   UNL     2     -10.289   8.223  72.795  1.00  0.00     0.000 HD 
HETATM    6  O   UNL     2     -10.044   7.308  72.868  1.00  0.00    -0.190 OA 
HETATM    7  O   UNL     3     -12.548  13.433  65.751  1.00  0.00    -0.446 OA 
ENDROOT
BRANCH   2   8
HETATM    8  C   UNL     2     -10.157   5.089  71.873  1.00  0.00    -0.197 C  
HETATM    9  H   UNL     2      -9.650   3.812  73.302  1.00  0.00     0.000 HD 
HETATM   10  O   UNL     2      -9.895   4.727  73.229  1.00  0.00    -0.144 OA 
ENDBRANCH   2   8
BRANCH   2  11
HETATM   11  C   UNL     2     -10.066   7.199  70.439  1.00  0.00    -0.191 C  
HETATM   12  H   UNL     2     -10.245   6.854  68.492  1.00  0.00     0.000 HD 
HETATM   13  O   UNL     2     -10.544   6.462  69.304  1.00  0.00    -0.208 OA 
BRANCH  11  14
HETATM   14  C   UNL     2     -10.547   8.658  70.349  1.00  0.00    -0.220 C  
HETATM   15  H   UNL     2     -11.794   9.680  69.208  1.00  0.00     0.000 HD 
HETATM   16  O   UNL     2     -11.498   8.779  69.263  1.00  0.00     0.264 OA 
BRANCH  14  17
HETATM   17  C   UNL     2      -9.440   9.680  70.111  1.00  0.00    -0.253 C  
HETATM   18  C   UNL     2      -9.074   9.792  68.619  1.00  0.00    -0.130 C  
HETATM   19  H   UNL     2      -7.572   9.886  70.699  1.00  0.00     0.000 HD 
HETATM   20  O   UNL     2      -8.261   9.250  70.847  1.00  0.00    -0.189 OA 
HETATM   21  O   UNL     2      -8.273   8.880  68.163  1.00  0.00    -0.112 OA 
HETATM   22  O   UNL     2      -9.239  10.836  67.995  1.00  0.00    -0.144 OA 
ENDBRANCH  14  17
ENDBRANCH  11  14
ENDBRANCH   2  11
BRANCH   3  23
HETATM   23  C   UNL     3     -10.253  13.530  66.366  1.00  0.00    -0.291 C  
HETATM   24  O   UNL     3      -8.982  13.004  65.965  1.00  0.00    -0.435 OA 
HETATM   25  H   UNL     3      -8.382  13.103  66.695  1.00  0.00     0.000 HD 
BRANCH  23  26
HETATM   26  C   UNL     3     -10.026  14.945  66.945  1.00  0.00    -0.242 C  
HETATM   27  O   UNL     3     -11.283  15.534  67.317  1.00  0.00    -0.308 OA 
HETATM   28  H   UNL     3     -11.144  16.404  67.673  1.00  0.00     0.000 HD 
BRANCH  26  29
HETATM   29  C   UNL     3      -9.365  15.812  65.849  1.00  0.00    -0.321 C  
HETATM   30  C   UNL     3      -8.116  16.630  66.264  1.00  0.00    -0.326 C  
HETATM   31  O   UNL     3     -10.345  16.751  65.286  1.00  0.00    -0.622 OA 
HETATM   32  O   UNL     3      -7.211  16.084  66.917  1.00  0.00    -0.215 OA 
HETATM   33  O   UNL     3      -8.201  17.855  65.817  1.00  0.00    -0.530 OA 
HETATM   34  H   UNL     3      -9.938  17.283  64.612  1.00  0.00     0.000 HD 
ENDBRANCH  26  29
ENDBRANCH  23  26
ENDBRANCH   3  23
BRANCH   3  35
HETATM   35  C   UNL     3     -11.114  12.054  64.425  1.00  0.00    -0.342 C  
HETATM   36  O   UNL     3     -10.867  12.375  63.053  1.00  0.00    -0.640 OA 
HETATM   37  H   UNL     3     -10.803  11.556  62.575  1.00  0.00     0.000 HD 
ENDBRANCH   3  35
TORSDOF 8
ENDMDL
MODEL      167
REMARK 921   NORMALIZED FREE ENERGY PREDICTED BY IDOCK:   -4.36 KCAL/MOL
REMARK 922        TOTAL FREE ENERGY PREDICTED BY IDOCK:   -8.49 KCAL/MOL
REMARK 923 INTER-LIGAND FREE ENERGY PREDICTED BY IDOCK:   -7.00 KCAL/MOL
REMARK 924 INTRA-LIGAND FREE ENERGY PREDICTED BY IDOCK:   -1.49 KCAL/MOL
REMARK 927      BINDING AFFINITY PREDICTED BY RF-SCORE:    0.00 PKD
ROOT
HETATM    1 FE   UNL     1     -11.288  12.292  70.351  1.00  0.00    -0.396 Fe 
HETATM    2  C   UNL     2      -6.661  16.333  67.443  1.00  0.00    -0.177 C  
HETATM    3  C   UNL     3      -8.513   7.056  68.028  1.00  0.00    -0.125 C  
HETATM    4  H   UNL     3      -6.917   6.792  69.113  1.00  0.00     0.000 HD 
HETATM    5  H   UNL     2      -6.681  15.996  69.390  1.00  0.00     0.000 HD 
HETATM    6  O   UNL     2      -6.835  16.730  68.807  1.00  0.00    -0.166 OA 
HETATM    7  O   UNL     3      -7.080   7.034  68.209  1.00  0.00    -0.077 OA 
ENDROOT
BRANCH   2   8
HETATM    8  C   UNL     2      -6.910  17.517  66.504  1.00  0.00    -0.247 C  
HETATM    9  H   UNL     2      -8.249  18.059  65.147  1.00  0.00     0.000 HD 
HETATM   10  O   UNL     2      -8.095  17.325  65.729  1.00  0.00    -0.527 OA 
ENDBRANCH   2   8
BRANCH   2  11
HETATM   11  C   UNL     2      -7.576  15.133  67.130  1.00  0.00    -0.168 C  
HETATM   12  H   UNL     2      -7.408  13.159  66.992  1.00  0.00     0.000 HD 
HETATM   13  O   UNL     2      -6.845  13.899  67.185  1.00  0.00    -0.146 OA 
BRANCH  11  14
HETATM   14  C   UNL     2      -8.745  15.086  68.129  1.00  0.00    -0.165 C  
HETATM   15  H   UNL     2      -9.676  13.689  69.170  1.00  0.00     0.000 HD 
HETATM   16  O   UNL     2      -8.953  13.717  68.554  1.00  0.00    -0.180 OA 
BRANCH  14  17
HETATM   17  C   UNL     2     -10.071  15.609  67.584  1.00  0.00    -0.248 C  
HETATM   18  C   UNL     2     -10.489  16.926  68.262  1.00  0.00    -0.352 C  
HETATM   19  H   UNL     2     -11.918  14.932  67.506  1.00  0.00     0.000 HD 
HETATM   20  O   UNL     2     -11.093  14.606  67.845  1.00  0.00    -0.271 OA 
HETATM   21  O   UNL     2     -11.059  16.810  69.422  1.00  0.00    -0.252 OA 
HETATM   22  O   UNL     2     -10.596  17.971  67.626  1.00  0.00    -0.400 OA 
ENDBRANCH  14  17
ENDBRANCH  11  14
ENDBRANCH   2  11
BRANCH   3  23
HETATM   23  C   UNL     3      -9.064   8.013  69.079  1.00  0.00    -0.144 C  
HETATM   24  O   UNL     3      -8.192   7.967  70.216  1.00  0.00    -0.119 OA 
HETATM   25  H   UNL     3      -8.536   8.563  70.871  1.00  0.00     0.000 HD 
BRANCH  23  26
HETATM   26  C   UNL     3      -9.267   9.496  68.691  1.00  0.00    -0.135 C  
HETATM   27  O   UNL     3      -8.888  10.348  69.784  1.00  0.00    -0.369 OA 
HETATM   28  H   UNL     3      -9.013  11.260  69.545  1.00  0.00     0.000 HD 
BRANCH  26  29
HETATM   29  C   UNL     3     -10.766   9.709  68.378  1.00  0.00    -0.209 C  
HETATM   30  C   UNL     3     -11.119  10.856  67.398  1.00  0.00    -0.307 C  
HETATM   31  O   UNL     3     -11.516   9.939  69.620  1.00  0.00    -0.380 OA 
HETATM   32  O   UNL     3     -10.486  10.974  66.335  1.00  0.00    -0.246 OA 
HETATM   33  O   UNL     3     -12.113  11.566  67.862  1.00  0.00    -0.630 OA 
HETATM   34  H   UNL     3     -12.437  10.071  69.428  1.00  0.00     0.000 HD 
ENDBRANCH  26  29
ENDBRANCH  23  26
ENDBRANCH   3  23
BRANCH   3  35
HETATM   35  C   UNL     3      -8.775   7.446  66.573  1.00  0.00    -0.140 C  
HETATM   36  O   UNL     3     -10.045   6.902  66.203  1.00  0.00    -0.426 OA 
HETATM   37  H   UNL     3     -10.208   7.145  65.299  1.00  0.00     0.000 HD 
ENDBRANCH   3  35
TORSDOF 8
ENDMDL
MODEL      168
REMARK 921   NORMALIZED FREE ENERGY PREDICTED BY IDOCK:   -4.35 KCAL/MOL
REMARK 922        TOTAL FREE ENERGY PREDICTED BY IDOCK:   -8.49 KCAL/MOL
REMARK 923 INTER-LIGAND FREE ENERGY PREDICTED BY IDOCK:   -6.50 KCAL/MOL
REMARK 924 INTRA-LIGAND FREE ENERGY PREDICTED BY IDOCK:   -1.99 KCAL/MOL
REMARK 927      BINDING AFFINITY PREDICTED BY RF-SCORE:    0.00 PKD
ROOT
HETATM    1 FE   UNL     1      -6.058  11.410  64.100  1.00  0.00    -0.360 Fe 
HETATM    2  C   UNL     2     -10.480  16.202  66.016  1.00  0.00    -0.338 C  
HETATM    3  C   UNL     3      -8.381   7.251  68.321  1.00  0.00    -0.125 C  
HETATM    4  H   UNL     3     -10.075   6.647  67.573  1.00  0.00     0.000 HD 
HETATM    5  H   UNL     2     -10.659  15.238  64.301  1.00  0.00     0.000 HD 
HETATM    6  O   UNL     2     -10.468  16.123  64.587  1.00  0.00    -0.526 OA 
HETATM    7  O   UNL     3      -9.824   7.175  68.322  1.00  0.00    -0.145 OA 
ENDROOT
BRANCH   2   8
HETATM    8  C   UNL     2     -10.172  17.629  66.477  1.00  0.00    -0.355 C  
HETATM    9  H   UNL     2     -10.441  19.478  65.814  1.00  0.00     0.000 HD 
HETATM   10  O   UNL     2     -10.632  18.592  65.528  1.00  0.00    -0.608 OA 
ENDBRANCH   2   8
BRANCH   2  11
HETATM   11  C   UNL     2      -9.496  15.171  66.602  1.00  0.00    -0.263 C  
HETATM   12  H   UNL     2      -7.877  15.178  67.751  1.00  0.00     0.000 HD 
HETATM   13  O   UNL     2      -8.483  15.813  67.390  1.00  0.00    -0.157 OA 
BRANCH  11  14
HETATM   14  C   UNL     2     -10.255  14.150  67.467  1.00  0.00    -0.241 C  
HETATM   15  H   UNL     2     -10.459  13.791  69.400  1.00  0.00     0.000 HD 
HETATM   16  O   UNL     2      -9.990  14.422  68.865  1.00  0.00    -0.225 OA 
BRANCH  14  17
HETATM   17  C   UNL     2      -9.892  12.693  67.201  1.00  0.00    -0.212 C  
HETATM   18  C   UNL     2     -11.117  11.869  66.762  1.00  0.00    -0.308 C  
HETATM   19  H   UNL     2      -9.143  11.218  68.270  1.00  0.00     0.000 HD 
HETATM   20  O   UNL     2      -9.369  12.125  68.435  1.00  0.00    -0.203 OA 
HETATM   21  O   UNL     2     -11.895  11.459  67.715  1.00  0.00    -0.595 OA 
HETATM   22  O   UNL     2     -11.175  11.348  65.651  1.00  0.00    -0.205 OA 
ENDBRANCH  14  17
ENDBRANCH  11  14
ENDBRANCH   2  11
BRANCH   3  23
HETATM   23  C   UNL     3      -7.981   7.803  66.957  1.00  0.00    -0.116 C  
HETATM   24  O   UNL     3      -8.225   6.782  65.981  1.00  0.00    -0.115 OA 
HETATM   25  H   UNL     3      -7.975   7.126  65.131  1.00  0.00     0.000 HD 
BRANCH  23  26
HETATM   26  C   UNL     3      -8.650   9.107  66.466  1.00  0.00    -0.127 C  
HETATM   27  O   UNL     3      -9.673   8.804  65.502  1.00  0.00    -0.459 OA 
HETATM   28  H   UNL     3     -10.085   9.605  65.200  1.00  0.00     0.000 HD 
BRANCH  26  29
HETATM   29  C   UNL     3      -7.565   9.980  65.794  1.00  0.00    -0.120 C  
HETATM   30  C   UNL     3      -6.524  10.644  66.730  1.00  0.00    -0.086 C  
HETATM   31  O   UNL     3      -8.192  11.045  64.999  1.00  0.00    -0.375 OA 
HETATM   32  O   UNL     3      -5.976   9.969  67.618  1.00  0.00    -0.052 OA 
HETATM   33  O   UNL     3      -6.354  11.899  66.409  1.00  0.00    -0.032 OA 
HETATM   34  H   UNL     3      -7.525  11.581  64.586  1.00  0.00     0.000 HD 
ENDBRANCH  26  29
ENDBRANCH  23  26
ENDBRANCH   3  23
BRANCH   3  35
HETATM   35  C   UNL     3      -7.977   8.101  69.526  1.00  0.00    -0.113 C  
HETATM   36  O   UNL     3      -6.554   8.024  69.649  1.00  0.00    -0.037 OA 
HETATM   37  H   UNL     3      -6.303   8.553  70.397  1.00  0.00     0.000 HD 
ENDBRANCH   3  35
TORSDOF 8
ENDMDL
MODEL      169
REMARK 921   NORMALIZED FREE ENERGY PREDICTED BY IDOCK:   -4.35 KCAL/MOL
REMARK 922        TOTAL FREE ENERGY PREDICTED BY IDOCK:   -8.49 KCAL/MOL
REMARK 923 INTER-LIGAND FREE ENERGY PREDICTED BY IDOCK:   -7.63 KCAL/MOL
REMARK 924 INTRA-LIGAND FREE ENERGY PREDICTED BY IDOCK:   -0.85 KCAL/MOL
REMARK 927      BINDING AFFINITY PREDICTED BY RF-SCORE:    0.00 PKD
ROOT
HETATM    1 FE   UNL     1     -12.421  12.017  65.752  1.00  0.00    -0.391 Fe 
HETATM    2  C   UNL     2     -12.954  14.594  72.018  1.00  0.00    -0.334 C  
HETATM    3  C   UNL     3      -9.057   7.033  67.838  1.00  0.00    -0.127 C  
HETATM    4  H   UNL     3     -10.350   5.866  68.712  1.00  0.00     0.000 HD 
HETATM    5  H   UNL     2     -14.484  13.743  71.103  1.00  0.00     0.000 HD 
HETATM    6  O   UNL     2     -14.242  14.614  71.395  1.00  0.00    -0.416 OA 
HETATM    7  O   UNL     3      -9.625   6.403  69.009  1.00  0.00    -0.132 OA 
ENDROOT
BRANCH   2   8
HETATM    8  C   UNL     2     -12.565  15.998  72.489  1.00  0.00    -0.451 C  
HETATM    9  H   UNL     2     -12.833  17.139  74.088  1.00  0.00     0.000 HD 
HETATM   10  O   UNL     2     -13.075  16.268  73.796  1.00  0.00    -0.670 OA 
ENDBRANCH   2   8
BRANCH   2  11
HETATM   11  C   UNL     2     -11.917  13.991  71.051  1.00  0.00    -0.233 C  
HETATM   12  H   UNL     2     -11.522  12.221  70.243  1.00  0.00     0.000 HD 
HETATM   13  O   UNL     2     -12.161  12.593  70.839  1.00  0.00    -0.349 OA 
BRANCH  11  14
HETATM   14  C   UNL     2     -11.959  14.733  69.704  1.00  0.00    -0.316 C  
HETATM   15  H   UNL     2     -12.362  14.261  67.828  1.00  0.00     0.000 HD 
HETATM   16  O   UNL     2     -12.337  13.802  68.660  1.00  0.00    -0.271 OA 
BRANCH  14  17
HETATM   17  C   UNL     2     -10.642  15.382  69.291  1.00  0.00    -0.252 C  
HETATM   18  C   UNL     2     -10.829  16.362  68.118  1.00  0.00    -0.346 C  
HETATM   19  H   UNL     2      -8.909  14.731  68.618  1.00  0.00     0.000 HD 
HETATM   20  O   UNL     2      -9.730  14.327  68.874  1.00  0.00    -0.201 OA 
HETATM   21  O   UNL     2     -10.888  15.828  66.938  1.00  0.00    -0.319 OA 
HETATM   22  O   UNL     2     -10.596  17.561  68.241  1.00  0.00    -0.372 OA 
ENDBRANCH  14  17
ENDBRANCH  11  14
ENDBRANCH   2  11
BRANCH   3  23
HETATM   23  C   UNL     3     -10.199   7.779  67.157  1.00  0.00    -0.295 C  
HETATM   24  O   UNL     3     -11.399   7.515  67.895  1.00  0.00    -0.322 OA 
HETATM   25  H   UNL     3     -12.110   7.980  67.469  1.00  0.00     0.000 HD 
BRANCH  23  26
HETATM   26  C   UNL     3     -10.073   9.309  66.976  1.00  0.00    -0.247 C  
HETATM   27  O   UNL     3     -11.210   9.970  67.557  1.00  0.00    -0.392 OA 
HETATM   28  H   UNL     3     -11.133  10.910  67.446  1.00  0.00     0.000 HD 
BRANCH  26  29
HETATM   29  C   UNL     3     -10.032   9.612  65.460  1.00  0.00    -0.209 C  
HETATM   30  C   UNL     3      -8.669   9.430  64.748  1.00  0.00    -0.197 C  
HETATM   31  O   UNL     3     -10.488  10.985  65.205  1.00  0.00    -0.281 OA 
HETATM   32  O   UNL     3      -8.000   8.402  64.951  1.00  0.00    -0.120 OA 
HETATM   33  O   UNL     3      -8.417  10.450  63.971  1.00  0.00    -0.170 OA 
HETATM   34  H   UNL     3     -10.463  11.171  64.273  1.00  0.00     0.000 HD 
ENDBRANCH  26  29
ENDBRANCH  23  26
ENDBRANCH   3  23
BRANCH   3  35
HETATM   35  C   UNL     3      -7.891   7.897  68.316  1.00  0.00    -0.120 C  
HETATM   36  O   UNL     3      -7.802   7.754  69.737  1.00  0.00    -0.101 OA 
HETATM   37  H   UNL     3      -7.077   8.292  70.034  1.00  0.00     0.000 HD 
ENDBRANCH   3  35
TORSDOF 8
ENDMDL
MODEL      170
REMARK 921   NORMALIZED FREE ENERGY PREDICTED BY IDOCK:   -4.35 KCAL/MOL
REMARK 922        TOTAL FREE ENERGY PREDICTED BY IDOCK:   -8.48 KCAL/MOL
REMARK 923 INTER-LIGAND FREE ENERGY PREDICTED BY IDOCK:   -7.43 KCAL/MOL
REMARK 924 INTRA-LIGAND FREE ENERGY PREDICTED BY IDOCK:   -1.05 KCAL/MOL
REMARK 927      BINDING AFFINITY PREDICTED BY RF-SCORE:    0.00 PKD
ROOT
HETATM    1 FE   UNL     1      -6.628  17.506  70.593  1.00  0.00    -0.031 Fe 
HETATM    2  C   UNL     2     -11.773  13.543  68.590  1.00  0.00    -0.354 C  
HETATM    3  C   UNL     3      -6.029  20.055  64.791  1.00  0.00    -0.247 C  
HETATM    4  H   UNL     3      -7.525  21.290  64.612  1.00  0.00     0.000 HD 
HETATM    5  H   UNL     2     -12.056  15.124  69.740  1.00  0.00     0.000 HD 
HETATM    6  O   UNL     2     -12.128  14.180  69.821  1.00  0.00    -0.316 OA 
HETATM    7  O   UNL     3      -7.286  20.464  64.208  1.00  0.00     0.017 OA 
ENDROOT
BRANCH   2   8
HETATM    8  C   UNL     2     -11.889  12.022  68.721  1.00  0.00    -0.302 C  
HETATM    9  H   UNL     2     -12.208  10.690  70.154  1.00  0.00     0.000 HD 
HETATM   10  O   UNL     2     -12.136  11.634  70.073  1.00  0.00    -0.316 OA 
ENDBRANCH   2   8
BRANCH   2  11
HETATM   11  C   UNL     2     -10.362  13.990  68.161  1.00  0.00    -0.241 C  
HETATM   12  H   UNL     2      -8.882  15.085  68.903  1.00  0.00     0.000 HD 
HETATM   13  O   UNL     2      -9.752  14.810  69.167  1.00  0.00    -0.207 OA 
BRANCH  11  14
HETATM   14  C   UNL     2      -9.479  12.759  67.891  1.00  0.00    -0.208 C  
HETATM   15  H   UNL     2      -7.714  12.110  68.497  1.00  0.00     0.000 HD 
HETATM   16  O   UNL     2      -8.259  12.871  68.664  1.00  0.00    -0.099 OA 
BRANCH  14  17
HETATM   17  C   UNL     2      -9.085  12.565  66.430  1.00  0.00    -0.127 C  
HETATM   18  C   UNL     2     -10.309  12.608  65.497  1.00  0.00    -0.286 C  
HETATM   19  H   UNL     2      -8.205  11.140  65.394  1.00  0.00     0.000 HD 
HETATM   20  O   UNL     2      -8.450  11.262  66.303  1.00  0.00    -0.170 OA 
HETATM   21  O   UNL     2     -10.997  11.512  65.414  1.00  0.00    -0.282 OA 
HETATM   22  O   UNL     2     -10.432  13.479  64.640  1.00  0.00    -0.400 OA 
ENDBRANCH  14  17
ENDBRANCH  11  14
ENDBRANCH   2  11
BRANCH   3  23
HETATM   23  C   UNL     3      -6.248  20.016  66.300  1.00  0.00    -0.184 C  
HETATM   24  O   UNL     3      -6.537  21.350  66.737  1.00  0.00    -0.599 OA 
HETATM   25  H   UNL     3      -6.673  21.325  67.677  1.00  0.00     0.000 HD 
BRANCH  23  26
HETATM   26  C   UNL     3      -7.343  19.080  66.860  1.00  0.00    -0.210 C  
HETATM   27  O   UNL     3      -7.832  18.215  65.822  1.00  0.00    -0.526 OA 
HETATM   28  H   UNL     3      -8.505  17.640  66.166  1.00  0.00     0.000 HD 
BRANCH  26  29
HETATM   29  C   UNL     3      -8.505  19.957  67.379  1.00  0.00    -0.327 C  
HETATM   30  C   UNL     3      -9.577  19.254  68.249  1.00  0.00    -0.371 C  
HETATM   31  O   UNL     3      -9.198  20.599  66.253  1.00  0.00    -0.590 OA 
HETATM   32  O   UNL     3      -9.224  18.502  69.174  1.00  0.00    -0.145 OA 
HETATM   33  O   UNL     3     -10.778  19.596  67.863  1.00  0.00    -0.408 OA 
HETATM   34  H   UNL     3      -9.912  21.138  66.572  1.00  0.00     0.000 HD 
ENDBRANCH  26  29
ENDBRANCH  23  26
ENDBRANCH   3  23
BRANCH   3  35
HETATM   35  C   UNL     3      -5.645  18.725  64.142  1.00  0.00    -0.150 C  
HETATM   36  O   UNL     3      -5.678  18.914  62.724  1.00  0.00    -0.356 OA 
HETATM   37  H   UNL     3      -5.439  18.087  62.320  1.00  0.00     0.000 HD 
ENDBRANCH   3  35
TORSDOF 8
ENDMDL
MODEL      171
REMARK 921   NORMALIZED FREE ENERGY PREDICTED BY IDOCK:   -4.35 KCAL/MOL
REMARK 922        TOTAL FREE ENERGY PREDICTED BY IDOCK:   -8.48 KCAL/MOL
REMARK 923 INTER-LIGAND FREE ENERGY PREDICTED BY IDOCK:   -7.58 KCAL/MOL
REMARK 924 INTRA-LIGAND FREE ENERGY PREDICTED BY IDOCK:   -0.90 KCAL/MOL
REMARK 927      BINDING AFFINITY PREDICTED BY RF-SCORE:    0.00 PKD
ROOT
HETATM    1 FE   UNL     1     -12.941  12.011  65.944  1.00  0.00    -0.105 Fe 
HETATM    2  C   UNL     2      -7.182   8.407  66.125  1.00  0.00    -0.077 C  
HETATM    3  C   UNL     3      -9.807  17.494  66.732  1.00  0.00    -0.306 C  
HETATM    4  H   UNL     3      -8.972  17.865  65.011  1.00  0.00     0.000 HD 
HETATM    5  H   UNL     2      -8.178   8.705  64.445  1.00  0.00     0.000 HD 
HETATM    6  O   UNL     2      -7.969   7.972  65.011  1.00  0.00    -0.112 OA 
HETATM    7  O   UNL     3      -8.652  17.627  65.874  1.00  0.00    -0.526 OA 
ENDROOT
BRANCH   2   8
HETATM    8  C   UNL     2      -6.845   7.225  67.038  1.00  0.00    -0.076 C  
HETATM    9  H   UNL     2      -7.253   5.288  67.146  1.00  0.00     0.000 HD 
HETATM   10  O   UNL     2      -7.462   6.022  66.579  1.00  0.00    -0.086 OA 
ENDBRANCH   2   8
BRANCH   2  11
HETATM   11  C   UNL     2      -7.917   9.536  66.872  1.00  0.00    -0.109 C  
HETATM   12  H   UNL     2      -7.808  11.513  67.015  1.00  0.00     0.000 HD 
HETATM   13  O   UNL     2      -7.355  10.817  66.555  1.00  0.00    -0.125 OA 
BRANCH  11  14
HETATM   14  C   UNL     2      -9.412   9.523  66.508  1.00  0.00    -0.182 C  
HETATM   15  H   UNL     2     -10.680  10.766  65.640  1.00  0.00     0.000 HD 
HETATM   16  O   UNL     2      -9.756  10.774  65.865  1.00  0.00    -0.204 OA 
BRANCH  14  17
HETATM   17  C   UNL     2     -10.356   9.336  67.692  1.00  0.00    -0.253 C  
HETATM   18  C   UNL     2     -10.497  10.627  68.520  1.00  0.00    -0.191 C  
HETATM   19  H   UNL     2     -10.395   8.177  69.284  1.00  0.00     0.000 HD 
HETATM   20  O   UNL     2      -9.808   8.293  68.546  1.00  0.00    -0.166 OA 
HETATM   21  O   UNL     2      -9.545  10.862  69.369  1.00  0.00    -0.114 OA 
HETATM   22  O   UNL     2     -11.574  11.207  68.627  1.00  0.00    -0.270 OA 
ENDBRANCH  14  17
ENDBRANCH  11  14
ENDBRANCH   2  11
BRANCH   3  23
HETATM   23  C   UNL     3     -10.725  16.477  66.063  1.00  0.00    -0.177 C  
HETATM   24  O   UNL     3     -10.840  16.832  64.679  1.00  0.00    -0.835 OA 
HETATM   25  H   UNL     3     -11.412  16.198  64.262  1.00  0.00     0.000 HD 
BRANCH  23  26
HETATM   26  C   UNL     3     -10.347  14.980  66.144  1.00  0.00    -0.299 C  
HETATM   27  O   UNL     3      -8.930  14.838  66.336  1.00  0.00    -0.391 OA 
HETATM   28  H   UNL     3      -8.698  13.918  66.386  1.00  0.00     0.000 HD 
BRANCH  26  29
HETATM   29  C   UNL     3     -10.747  14.310  64.810  1.00  0.00    -0.416 C  
HETATM   30  C   UNL     3     -12.159  13.677  64.741  1.00  0.00    -0.402 C  
HETATM   31  O   UNL     3      -9.775  13.268  64.453  1.00  0.00    -0.624 OA 
HETATM   32  O   UNL     3     -13.141  14.314  65.158  1.00  0.00    -0.704 OA 
HETATM   33  O   UNL     3     -12.104  12.489  64.199  1.00  0.00    -0.387 OA 
HETATM   34  H   UNL     3     -10.021  12.857  63.633  1.00  0.00     0.000 HD 
ENDBRANCH  26  29
ENDBRANCH  23  26
ENDBRANCH   3  23
BRANCH   3  35
HETATM   35  C   UNL     3      -9.292  17.111  68.120  1.00  0.00    -0.264 C  
HETATM   36  O   UNL     3      -7.868  17.002  68.035  1.00  0.00    -0.174 OA 
HETATM   37  H   UNL     3      -7.548  16.765  68.898  1.00  0.00     0.000 HD 
ENDBRANCH   3  35
TORSDOF 8
ENDMDL
MODEL      172
REMARK 921   NORMALIZED FREE ENERGY PREDICTED BY IDOCK:   -4.34 KCAL/MOL
REMARK 922        TOTAL FREE ENERGY PREDICTED BY IDOCK:   -8.47 KCAL/MOL
REMARK 923 INTER-LIGAND FREE ENERGY PREDICTED BY IDOCK:   -5.49 KCAL/MOL
REMARK 924 INTRA-LIGAND FREE ENERGY PREDICTED BY IDOCK:   -2.98 KCAL/MOL
REMARK 927      BINDING AFFINITY PREDICTED BY RF-SCORE:    0.00 PKD
ROOT
HETATM    1 FE   UNL     1      -9.490  10.787  66.480  1.00  0.00    -0.154 Fe 
HETATM    2  C   UNL     2      -7.399   4.557  64.748  1.00  0.00    -0.071 C  
HETATM    3  C   UNL     3     -11.621   8.756  72.123  1.00  0.00    -0.364 C  
HETATM    4  H   UNL     3     -10.027   8.481  73.210  1.00  0.00     0.000 HD 
HETATM    5  H   UNL     2      -6.130   5.987  65.245  1.00  0.00     0.000 HD 
HETATM    6  O   UNL     2      -6.356   5.494  64.464  1.00  0.00    -0.028 OA 
HETATM    7  O   UNL     3     -10.681   7.911  72.824  1.00  0.00    -0.315 OA 
ENDROOT
BRANCH   2   8
HETATM    8  C   UNL     2      -7.764   3.763  63.491  1.00  0.00    -0.071 C  
HETATM    9  H   UNL     2      -7.615   1.898  62.836  1.00  0.00     0.000 HD 
HETATM   10  O   UNL     2      -7.388   2.390  63.616  1.00  0.00    -0.050 OA 
ENDBRANCH   2   8
BRANCH   2  11
HETATM   11  C   UNL     2      -8.612   5.294  65.349  1.00  0.00    -0.149 C  
HETATM   12  H   UNL     2     -10.139   4.872  66.546  1.00  0.00     0.000 HD 
HETATM   13  O   UNL     2      -9.392   4.418  66.176  1.00  0.00    -0.138 OA 
BRANCH  11  14
HETATM   14  C   UNL     2      -8.137   6.500  66.178  1.00  0.00    -0.118 C  
HETATM   15  H   UNL     2      -8.489   7.215  67.987  1.00  0.00     0.000 HD 
HETATM   16  O   UNL     2      -8.782   6.470  67.475  1.00  0.00    -0.115 OA 
BRANCH  14  17
HETATM   17  C   UNL     2      -8.426   7.860  65.550  1.00  0.00    -0.139 C  
HETATM   18  C   UNL     2      -7.303   8.873  65.836  1.00  0.00    -0.093 C  
HETATM   19  H   UNL     2      -9.845   9.214  65.729  1.00  0.00     0.000 HD 
HETATM   20  O   UNL     2      -9.665   8.367  66.120  1.00  0.00    -0.224 OA 
HETATM   21  O   UNL     2      -7.341   9.448  66.998  1.00  0.00    -0.086 OA 
HETATM   22  O   UNL     2      -6.629   9.358  64.931  1.00  0.00    -0.077 OA 
ENDBRANCH  14  17
ENDBRANCH  11  14
ENDBRANCH   2  11
BRANCH   3  23
HETATM   23  C   UNL     3     -10.802   9.583  71.139  1.00  0.00    -0.355 C  
HETATM   24  O   UNL     3      -9.427   9.505  71.535  1.00  0.00    -0.279 OA 
HETATM   25  H   UNL     3      -8.917  10.021  70.922  1.00  0.00     0.000 HD 
BRANCH  23  26
HETATM   26  C   UNL     3     -10.888   9.235  69.635  1.00  0.00    -0.212 C  
HETATM   27  O   UNL     3      -9.571   9.004  69.106  1.00  0.00    -0.158 OA 
HETATM   28  H   UNL     3      -9.624   8.790  68.181  1.00  0.00     0.000 HD 
BRANCH  26  29
HETATM   29  C   UNL     3     -11.525  10.437  68.900  1.00  0.00    -0.186 C  
HETATM   30  C   UNL     3     -10.771  11.788  68.984  1.00  0.00    -0.169 C  
HETATM   31  O   UNL     3     -12.894  10.661  69.385  1.00  0.00    -0.629 OA 
HETATM   32  O   UNL     3      -9.545  11.822  68.781  1.00  0.00    -0.152 OA 
HETATM   33  O   UNL     3     -11.600  12.760  69.257  1.00  0.00    -0.282 OA 
HETATM   34  H   UNL     3     -13.285  11.399  68.934  1.00  0.00     0.000 HD 
ENDBRANCH  26  29
ENDBRANCH  23  26
ENDBRANCH   3  23
BRANCH   3  35
HETATM   35  C   UNL     3     -12.674   7.837  71.503  1.00  0.00    -0.332 C  
HETATM   36  O   UNL     3     -13.861   8.612  71.311  1.00  0.00    -0.548 OA 
HETATM   37  H   UNL     3     -14.516   8.041  70.925  1.00  0.00     0.000 HD 
ENDBRANCH   3  35
TORSDOF 8
ENDMDL
MODEL      173
REMARK 921   NORMALIZED FREE ENERGY PREDICTED BY IDOCK:   -4.34 KCAL/MOL
REMARK 922        TOTAL FREE ENERGY PREDICTED BY IDOCK:   -8.47 KCAL/MOL
REMARK 923 INTER-LIGAND FREE ENERGY PREDICTED BY IDOCK:   -6.20 KCAL/MOL
REMARK 924 INTRA-LIGAND FREE ENERGY PREDICTED BY IDOCK:   -2.27 KCAL/MOL
REMARK 927      BINDING AFFINITY PREDICTED BY RF-SCORE:    0.00 PKD
ROOT
HETATM    1 FE   UNL     1     -10.069  13.113  63.581  1.00  0.00    -0.395 Fe 
HETATM    2  C   UNL     2      -8.334  18.969  66.562  1.00  0.00    -0.305 C  
HETATM    3  C   UNL     3      -8.009   9.706  68.547  1.00  0.00    -0.089 C  
HETATM    4  H   UNL     3      -9.360   9.941  69.931  1.00  0.00     0.000 HD 
HETATM    5  H   UNL     2     -10.219  18.401  66.388  1.00  0.00     0.000 HD 
HETATM    6  O   UNL     2      -9.661  19.087  66.040  1.00  0.00    -0.450 OA 
HETATM    7  O   UNL     3      -8.457  10.217  69.822  1.00  0.00    -0.159 OA 
ENDROOT
BRANCH   2   8
HETATM    8  C   UNL     2      -7.437  20.075  66.001  1.00  0.00    -0.309 C  
HETATM    9  H   UNL     2      -6.653  21.787  66.621  1.00  0.00     0.000 HD 
HETATM   10  O   UNL     2      -7.211  21.101  66.969  1.00  0.00    -0.368 OA 
ENDBRANCH   2   8
BRANCH   2  11
HETATM   11  C   UNL     2      -7.783  17.560  66.269  1.00  0.00    -0.298 C  
HETATM   12  H   UNL     2      -6.094  16.756  65.604  1.00  0.00     0.000 HD 
HETATM   13  O   UNL     2      -6.434  17.624  65.785  1.00  0.00    -0.215 OA 
BRANCH  11  14
HETATM   14  C   UNL     2      -7.837  16.697  67.542  1.00  0.00    -0.171 C  
HETATM   15  H   UNL     2      -6.617  15.452  68.472  1.00  0.00     0.000 HD 
HETATM   16  O   UNL     2      -6.584  15.985  67.686  1.00  0.00    -0.132 OA 
BRANCH  14  17
HETATM   17  C   UNL     2      -8.960  15.667  67.567  1.00  0.00    -0.192 C  
HETATM   18  C   UNL     2     -10.096  16.082  68.521  1.00  0.00    -0.233 C  
HETATM   19  H   UNL     2      -9.104  13.761  68.045  1.00  0.00     0.000 HD 
HETATM   20  O   UNL     2      -8.405  14.403  68.029  1.00  0.00    -0.139 OA 
HETATM   21  O   UNL     2      -9.897  15.836  69.779  1.00  0.00    -0.273 OA 
HETATM   22  O   UNL     2     -11.231  16.306  68.109  1.00  0.00    -0.350 OA 
ENDBRANCH  14  17
ENDBRANCH  11  14
ENDBRANCH   2  11
BRANCH   3  23
HETATM   23  C   UNL     3      -8.992  10.231  67.506  1.00  0.00    -0.134 C  
HETATM   24  O   UNL     3      -8.751   9.528  66.280  1.00  0.00    -0.137 OA 
HETATM   25  H   UNL     3      -9.363   9.855  65.631  1.00  0.00     0.000 HD 
BRANCH  23  26
HETATM   26  C   UNL     3     -10.504  10.151  67.814  1.00  0.00    -0.232 C  
HETATM   27  O   UNL     3     -11.098   9.058  67.095  1.00  0.00    -0.306 OA 
HETATM   28  H   UNL     3     -12.028   9.009  67.285  1.00  0.00     0.000 HD 
BRANCH  26  29
HETATM   29  C   UNL     3     -11.159  11.475  67.354  1.00  0.00    -0.282 C  
HETATM   30  C   UNL     3     -10.940  11.886  65.877  1.00  0.00    -0.307 C  
HETATM   31  O   UNL     3     -10.701  12.587  68.198  1.00  0.00    -0.212 OA 
HETATM   32  O   UNL     3     -11.099  11.047  64.974  1.00  0.00    -0.117 OA 
HETATM   33  O   UNL     3     -10.615  13.149  65.795  1.00  0.00    -0.274 OA 
HETATM   34  H   UNL     3     -11.103  13.400  67.916  1.00  0.00     0.000 HD 
ENDBRANCH  26  29
ENDBRANCH  23  26
ENDBRANCH   3  23
BRANCH   3  35
HETATM   35  C   UNL     3      -6.557  10.150  68.372  1.00  0.00    -0.053 C  
HETATM   36  O   UNL     3      -6.540  11.190  67.388  1.00  0.00    -0.066 OA 
HETATM   37  H   UNL     3      -5.637  11.466  67.280  1.00  0.00     0.000 HD 
ENDBRANCH   3  35
TORSDOF 8
ENDMDL
MODEL      174
REMARK 921   NORMALIZED FREE ENERGY PREDICTED BY IDOCK:   -4.34 KCAL/MOL
REMARK 922        TOTAL FREE ENERGY PREDICTED BY IDOCK:   -8.47 KCAL/MOL
REMARK 923 INTER-LIGAND FREE ENERGY PREDICTED BY IDOCK:   -7.92 KCAL/MOL
REMARK 924 INTRA-LIGAND FREE ENERGY PREDICTED BY IDOCK:   -0.54 KCAL/MOL
REMARK 927      BINDING AFFINITY PREDICTED BY RF-SCORE:    0.00 PKD
ROOT
HETATM    1 FE   UNL     1      -6.193  11.254  64.582  1.00  0.00    -0.355 Fe 
HETATM    2  C   UNL     2      -7.629   6.166  68.853  1.00  0.00    -0.092 C  
HETATM    3  C   UNL     3     -11.891  13.939  65.497  1.00  0.00    -0.362 C  
HETATM    4  H   UNL     3     -11.796  14.768  67.257  1.00  0.00     0.000 HD 
HETATM    5  H   UNL     2      -6.376   7.615  69.335  1.00  0.00     0.000 HD 
HETATM    6  O   UNL     2      -6.331   6.682  69.163  1.00  0.00    -0.032 OA 
HETATM    7  O   UNL     3     -12.269  14.031  66.889  1.00  0.00    -0.436 OA 
ENDROOT
BRANCH   2   8
HETATM    8  C   UNL     2      -7.557   4.662  68.575  1.00  0.00    -0.069 C  
HETATM    9  H   UNL     2      -6.159   3.291  68.267  1.00  0.00     0.000 HD 
HETATM   10  O   UNL     2      -6.204   4.224  68.439  1.00  0.00    -0.030 OA 
ENDBRANCH   2   8
BRANCH   2  11
HETATM   11  C   UNL     2      -8.234   6.953  67.673  1.00  0.00    -0.117 C  
HETATM   12  H   UNL     2      -8.764   6.598  65.793  1.00  0.00     0.000 HD 
HETATM   13  O   UNL     2      -8.392   6.113  66.520  1.00  0.00    -0.109 OA 
BRANCH  11  14
HETATM   14  C   UNL     2      -9.597   7.541  68.076  1.00  0.00    -0.143 C  
HETATM   15  H   UNL     2     -11.394   7.663  67.261  1.00  0.00     0.000 HD 
HETATM   16  O   UNL     2     -10.551   7.300  67.013  1.00  0.00    -0.306 OA 
BRANCH  14  17
HETATM   17  C   UNL     2      -9.587   9.040  68.358  1.00  0.00    -0.152 C  
HETATM   18  C   UNL     2      -9.768   9.342  69.857  1.00  0.00    -0.201 C  
HETATM   19  H   UNL     2     -10.684  10.578  67.801  1.00  0.00     0.000 HD 
HETATM   20  O   UNL     2     -10.690   9.645  67.625  1.00  0.00    -0.267 OA 
HETATM   21  O   UNL     2     -10.987   9.309  70.298  1.00  0.00    -0.230 OA 
HETATM   22  O   UNL     2      -8.892   9.903  70.509  1.00  0.00    -0.089 OA 
ENDBRANCH  14  17
ENDBRANCH  11  14
ENDBRANCH   2  11
BRANCH   3  23
HETATM   23  C   UNL     3     -10.371  13.829  65.471  1.00  0.00    -0.321 C  
HETATM   24  O   UNL     3      -9.990  13.299  64.195  1.00  0.00    -0.711 OA 
HETATM   25  H   UNL     3      -9.042  13.231  64.179  1.00  0.00     0.000 HD 
BRANCH  23  26
HETATM   26  C   UNL     3      -9.536  15.104  65.729  1.00  0.00    -0.309 C  
HETATM   27  O   UNL     3      -8.368  14.782  66.502  1.00  0.00    -0.410 OA 
HETATM   28  H   UNL     3      -7.855  15.566  66.661  1.00  0.00     0.000 HD 
BRANCH  26  29
HETATM   29  C   UNL     3     -10.412  16.098  66.526  1.00  0.00    -0.297 C  
HETATM   30  C   UNL     3     -10.695  17.469  65.863  1.00  0.00    -0.119 C  
HETATM   31  O   UNL     3      -9.815  16.357  67.844  1.00  0.00    -0.233 OA 
HETATM   32  O   UNL     3     -11.051  17.515  64.673  1.00  0.00    -0.978 OA 
HETATM   33  O   UNL     3     -10.522  18.439  66.720  1.00  0.00    -0.380 OA 
HETATM   34  H   UNL     3     -10.353  16.968  68.333  1.00  0.00     0.000 HD 
ENDBRANCH  26  29
ENDBRANCH  23  26
ENDBRANCH   3  23
BRANCH   3  35
HETATM   35  C   UNL     3     -12.652  12.753  64.904  1.00  0.00    -0.470 C  
HETATM   36  O   UNL     3     -12.775  12.979  63.497  1.00  0.00    -0.708 OA 
HETATM   37  H   UNL     3     -13.247  12.242  63.128  1.00  0.00     0.000 HD 
ENDBRANCH   3  35
TORSDOF 8
ENDMDL
MODEL      175
REMARK 921   NORMALIZED FREE ENERGY PREDICTED BY IDOCK:   -4.30 KCAL/MOL
REMARK 922        TOTAL FREE ENERGY PREDICTED BY IDOCK:   -8.41 KCAL/MOL
REMARK 923 INTER-LIGAND FREE ENERGY PREDICTED BY IDOCK:   -6.91 KCAL/MOL
REMARK 924 INTRA-LIGAND FREE ENERGY PREDICTED BY IDOCK:   -1.50 KCAL/MOL
REMARK 927      BINDING AFFINITY PREDICTED BY RF-SCORE:    0.00 PKD
ROOT
HETATM    1 FE   UNL     1     -10.998  12.543  63.617  1.00  0.00    -0.300 Fe 
HETATM    2  C   UNL     2      -8.834   7.057  66.994  1.00  0.00    -0.124 C  
HETATM    3  C   UNL     3     -10.933  16.103  68.892  1.00  0.00    -0.324 C  
HETATM    4  H   UNL     3      -9.053  16.481  69.238  1.00  0.00     0.000 HD 
HETATM    5  H   UNL     2      -7.656   8.063  65.767  1.00  0.00     0.000 HD 
HETATM    6  O   UNL     2      -8.060   7.204  65.799  1.00  0.00    -0.115 OA 
HETATM    7  O   UNL     3      -9.722  15.962  69.669  1.00  0.00    -0.265 OA 
ENDROOT
BRANCH   2   8
HETATM    8  C   UNL     2      -9.484   5.672  67.045  1.00  0.00    -0.127 C  
HETATM    9  H   UNL     2     -10.652   4.554  65.898  1.00  0.00     0.000 HD 
HETATM   10  O   UNL     2     -10.249   5.414  65.866  1.00  0.00    -0.100 OA 
ENDBRANCH   2   8
BRANCH   2  11
HETATM   11  C   UNL     2      -9.868   8.196  67.087  1.00  0.00    -0.217 C  
HETATM   12  H   UNL     2     -11.458   8.645  68.188  1.00  0.00     0.000 HD 
HETATM   13  O   UNL     2     -10.821   7.943  68.130  1.00  0.00    -0.085 OA 
BRANCH  11  14
HETATM   14  C   UNL     2      -9.157   9.534  67.349  1.00  0.00    -0.130 C  
HETATM   15  H   UNL     2      -9.340  11.018  68.642  1.00  0.00     0.000 HD 
HETATM   16  O   UNL     2      -9.780  10.191  68.480  1.00  0.00    -0.147 OA 
BRANCH  14  17
HETATM   17  C   UNL     2      -9.180  10.510  66.177  1.00  0.00    -0.170 C  
HETATM   18  C   UNL     2      -9.796  11.865  66.572  1.00  0.00    -0.206 C  
HETATM   19  H   UNL     2     -10.003  10.531  64.387  1.00  0.00     0.000 HD 
HETATM   20  O   UNL     2      -9.988   9.924  65.117  1.00  0.00    -0.318 OA 
HETATM   21  O   UNL     2     -11.092  11.915  66.586  1.00  0.00    -0.280 OA 
HETATM   22  O   UNL     2      -9.139  12.902  66.540  1.00  0.00    -0.213 OA 
ENDBRANCH  14  17
ENDBRANCH  11  14
ENDBRANCH   2  11
BRANCH   3  23
HETATM   23  C   UNL     3     -10.582  15.682  67.470  1.00  0.00    -0.297 C  
HETATM   24  O   UNL     3     -11.620  14.813  66.999  1.00  0.00    -0.362 OA 
HETATM   25  H   UNL     3     -11.401  14.551  66.113  1.00  0.00     0.000 HD 
BRANCH  23  26
HETATM   26  C   UNL     3     -10.362  16.785  66.409  1.00  0.00    -0.306 C  
HETATM   27  O   UNL     3      -9.458  16.320  65.393  1.00  0.00    -0.405 OA 
HETATM   28  H   UNL     3      -9.323  16.997  64.741  1.00  0.00     0.000 HD 
BRANCH  26  29
HETATM   29  C   UNL     3      -9.743  18.014  67.114  1.00  0.00    -0.297 C  
HETATM   30  C   UNL     3      -9.716  19.339  66.313  1.00  0.00    -0.374 C  
HETATM   31  O   UNL     3      -8.365  17.718  67.531  1.00  0.00    -0.222 OA 
HETATM   32  O   UNL     3     -10.737  19.717  65.713  1.00  0.00    -0.512 OA 
HETATM   33  O   UNL     3      -8.545  19.911  66.410  1.00  0.00    -0.335 OA 
HETATM   34  H   UNL     3      -7.985  18.473  67.964  1.00  0.00     0.000 HD 
ENDBRANCH  26  29
ENDBRANCH  23  26
ENDBRANCH   3  23
BRANCH   3  35
HETATM   35  C   UNL     3     -12.008  15.267  69.586  1.00  0.00    -0.338 C  
HETATM   36  O   UNL     3     -11.436  13.990  69.883  1.00  0.00    -0.345 OA 
HETATM   37  H   UNL     3     -12.105  13.470  70.314  1.00  0.00     0.000 HD 
ENDBRANCH   3  35
TORSDOF 8
ENDMDL
MODEL      176
REMARK 921   NORMALIZED FREE ENERGY PREDICTED BY IDOCK:   -4.30 KCAL/MOL
REMARK 922        TOTAL FREE ENERGY PREDICTED BY IDOCK:   -8.40 KCAL/MOL
REMARK 923 INTER-LIGAND FREE ENERGY PREDICTED BY IDOCK:   -7.39 KCAL/MOL
REMARK 924 INTRA-LIGAND FREE ENERGY PREDICTED BY IDOCK:   -1.01 KCAL/MOL
REMARK 927      BINDING AFFINITY PREDICTED BY RF-SCORE:    0.00 PKD
ROOT
HETATM    1 FE   UNL     1     -14.152  10.226  70.779  1.00  0.00    -0.296 Fe 
HETATM    2  C   UNL     2     -10.617  15.921  69.658  1.00  0.00    -0.301 C  
HETATM    3  C   UNL     3      -9.267   6.564  68.981  1.00  0.00    -0.130 C  
HETATM    4  H   UNL     3      -8.002   6.625  70.462  1.00  0.00     0.000 HD 
HETATM    5  H   UNL     2     -11.007  15.273  71.483  1.00  0.00     0.000 HD 
HETATM    6  O   UNL     2     -11.252  16.011  70.938  1.00  0.00    -0.358 OA 
HETATM    7  O   UNL     3      -8.006   6.954  69.570  1.00  0.00    -0.119 OA 
ENDROOT
BRANCH   2   8
HETATM    8  C   UNL     2     -11.012  17.110  68.779  1.00  0.00    -0.109 C  
HETATM    9  H   UNL     2     -10.125  18.656  67.912  1.00  0.00     0.000 HD 
HETATM   10  O   UNL     2      -9.879  17.918  68.458  1.00  0.00    -0.329 OA 
ENDBRANCH   2   8
BRANCH   2  11
HETATM   11  C   UNL     2     -10.956  14.568  69.003  1.00  0.00    -0.257 C  
HETATM   12  H   UNL     2     -12.315  13.136  69.216  1.00  0.00     0.000 HD 
HETATM   13  O   UNL     2     -12.106  13.969  69.620  1.00  0.00    -0.321 OA 
BRANCH  11  14
HETATM   14  C   UNL     2     -11.218  14.761  67.499  1.00  0.00    -0.332 C  
HETATM   15  H   UNL     2     -12.493  14.046  66.170  1.00  0.00     0.000 HD 
HETATM   16  O   UNL     2     -12.331  13.926  67.099  1.00  0.00    -0.372 OA 
BRANCH  14  17
HETATM   17  C   UNL     2     -10.036  14.421  66.597  1.00  0.00    -0.272 C  
HETATM   18  C   UNL     2      -9.522  15.657  65.836  1.00  0.00    -0.341 C  
HETATM   19  H   UNL     2      -9.743  13.217  65.066  1.00  0.00     0.000 HD 
HETATM   20  O   UNL     2     -10.478  13.429  65.628  1.00  0.00    -0.279 OA 
HETATM   21  O   UNL     2     -10.187  15.984  64.772  1.00  0.00    -0.425 OA 
HETATM   22  O   UNL     2      -8.387  16.092  66.012  1.00  0.00    -0.281 OA 
ENDBRANCH  14  17
ENDBRANCH  11  14
ENDBRANCH   2  11
BRANCH   3  23
HETATM   23  C   UNL     3     -10.356   7.115  69.894  1.00  0.00    -0.213 C  
HETATM   24  O   UNL     3     -11.196   7.972  69.110  1.00  0.00    -0.424 OA 
HETATM   25  H   UNL     3     -11.874   8.315  69.680  1.00  0.00     0.000 HD 
BRANCH  23  26
HETATM   26  C   UNL     3     -11.262   6.113  70.647  1.00  0.00    -0.319 C  
HETATM   27  O   UNL     3     -12.639   6.512  70.534  1.00  0.00    -0.292 OA 
HETATM   28  H   UNL     3     -13.196   5.897  70.997  1.00  0.00     0.000 HD 
BRANCH  26  29
HETATM   29  C   UNL     3     -10.853   6.122  72.138  1.00  0.00    -0.247 C  
HETATM   30  C   UNL     3     -11.014   7.461  72.899  1.00  0.00    -0.361 C  
HETATM   31  O   UNL     3      -9.455   5.694  72.282  1.00  0.00    -0.145 OA 
HETATM   32  O   UNL     3     -12.069   8.109  72.789  1.00  0.00    -0.337 OA 
HETATM   33  O   UNL     3      -9.947   7.718  73.608  1.00  0.00    -0.301 OA 
HETATM   34  H   UNL     3      -9.203   5.699  73.198  1.00  0.00     0.000 HD 
ENDBRANCH  26  29
ENDBRANCH  23  26
ENDBRANCH   3  23
BRANCH   3  35
HETATM   35  C   UNL     3      -9.274   7.093  67.547  1.00  0.00    -0.125 C  
HETATM   36  O   UNL     3      -8.600   6.130  66.730  1.00  0.00    -0.109 OA 
HETATM   37  H   UNL     3      -8.604   6.459  65.838  1.00  0.00     0.000 HD 
ENDBRANCH   3  35
TORSDOF 8
ENDMDL
MODEL      177
REMARK 921   NORMALIZED FREE ENERGY PREDICTED BY IDOCK:   -4.27 KCAL/MOL
REMARK 922        TOTAL FREE ENERGY PREDICTED BY IDOCK:   -8.37 KCAL/MOL
REMARK 923 INTER-LIGAND FREE ENERGY PREDICTED BY IDOCK:   -6.49 KCAL/MOL
REMARK 924 INTRA-LIGAND FREE ENERGY PREDICTED BY IDOCK:   -1.88 KCAL/MOL
REMARK 927      BINDING AFFINITY PREDICTED BY RF-SCORE:    0.00 PKD
ROOT
HETATM    1 FE   UNL     1      -7.468  11.662  70.228  1.00  0.00    -0.350 Fe 
HETATM    2  C   UNL     2     -11.279   6.456  72.364  1.00  0.00    -0.277 C  
HETATM    3  C   UNL     3     -10.993  12.390  64.979  1.00  0.00    -0.298 C  
HETATM    4  H   UNL     3     -12.643  13.236  65.577  1.00  0.00     0.000 HD 
HETATM    5  H   UNL     2     -11.373   8.238  73.210  1.00  0.00     0.000 HD 
HETATM    6  O   UNL     2     -11.083   7.366  73.451  1.00  0.00    -0.340 OA 
HETATM    7  O   UNL     3     -12.415  12.380  65.233  1.00  0.00    -0.611 OA 
ENDROOT
BRANCH   2   8
HETATM    8  C   UNL     2     -10.811   5.050  72.751  1.00  0.00    -0.244 C  
HETATM    9  H   UNL     2     -10.843   3.879  74.350  1.00  0.00     0.000 HD 
HETATM   10  O   UNL     2     -11.133   4.752  74.110  1.00  0.00    -0.302 OA 
ENDBRANCH   2   8
BRANCH   2  11
HETATM   11  C   UNL     2     -10.565   6.986  71.106  1.00  0.00    -0.217 C  
HETATM   12  H   UNL     2     -11.061   7.902  69.415  1.00  0.00     0.000 HD 
HETATM   13  O   UNL     2     -11.501   7.575  70.191  1.00  0.00    -0.215 OA 
BRANCH  11  14
HETATM   14  C   UNL     2      -9.503   8.027  71.501  1.00  0.00    -0.160 C  
HETATM   15  H   UNL     2      -9.359   9.998  71.475  1.00  0.00     0.000 HD 
HETATM   16  O   UNL     2     -10.015   9.355  71.231  1.00  0.00    -0.287 OA 
BRANCH  14  17
HETATM   17  C   UNL     2      -8.171   7.888  70.772  1.00  0.00    -0.110 C  
HETATM   18  C   UNL     2      -8.168   8.649  69.434  1.00  0.00    -0.113 C  
HETATM   19  H   UNL     2      -7.118   6.388  70.050  1.00  0.00     0.000 HD 
HETATM   20  O   UNL     2      -7.948   6.475  70.504  1.00  0.00    -0.108 OA 
HETATM   21  O   UNL     2      -8.730   8.041  68.436  1.00  0.00    -0.130 OA 
HETATM   22  O   UNL     2      -7.405   9.590  69.231  1.00  0.00    -0.067 OA 
ENDBRANCH  14  17
ENDBRANCH  11  14
ENDBRANCH   2  11
BRANCH   3  23
HETATM   23  C   UNL     3     -10.324  12.774  66.294  1.00  0.00    -0.258 C  
HETATM   24  O   UNL     3     -11.350  12.906  67.287  1.00  0.00    -0.278 OA 
HETATM   25  H   UNL     3     -10.933  13.145  68.106  1.00  0.00     0.000 HD 
BRANCH  23  26
HETATM   26  C   UNL     3      -9.225  11.845  66.860  1.00  0.00    -0.193 C  
HETATM   27  O   UNL     3      -9.773  11.002  67.888  1.00  0.00    -0.166 OA 
HETATM   28  H   UNL     3      -9.097  10.431  68.235  1.00  0.00     0.000 HD 
BRANCH  26  29
HETATM   29  C   UNL     3      -8.115  12.732  67.471  1.00  0.00    -0.180 C  
HETATM   30  C   UNL     3      -6.654  12.258  67.272  1.00  0.00    -0.146 C  
HETATM   31  O   UNL     3      -8.336  12.899  68.914  1.00  0.00    -0.345 OA 
HETATM   32  O   UNL     3      -6.274  11.889  66.147  1.00  0.00     0.078 OA 
HETATM   33  O   UNL     3      -5.988  12.339  68.393  1.00  0.00    -0.052 OA 
HETATM   34  H   UNL     3      -7.654  13.444  69.289  1.00  0.00     0.000 HD 
ENDBRANCH  26  29
ENDBRANCH  23  26
ENDBRANCH   3  23
BRANCH   3  35
HETATM   35  C   UNL     3     -10.627  11.012  64.426  1.00  0.00    -0.325 C  
HETATM   36  O   UNL     3     -10.816  11.054  63.008  1.00  0.00    -0.797 OA 
HETATM   37  H   UNL     3     -10.589  10.197  62.665  1.00  0.00     0.000 HD 
ENDBRANCH   3  35
TORSDOF 8
ENDMDL
MODEL      178
REMARK 921   NORMALIZED FREE ENERGY PREDICTED BY IDOCK:   -4.27 KCAL/MOL
REMARK 922        TOTAL FREE ENERGY PREDICTED BY IDOCK:   -8.37 KCAL/MOL
REMARK 923 INTER-LIGAND FREE ENERGY PREDICTED BY IDOCK:   -7.11 KCAL/MOL
REMARK 924 INTRA-LIGAND FREE ENERGY PREDICTED BY IDOCK:   -1.26 KCAL/MOL
REMARK 927      BINDING AFFINITY PREDICTED BY RF-SCORE:    0.00 PKD
ROOT
HETATM    1 FE   UNL     1      -7.642   8.647  66.354  1.00  0.00    -0.079 Fe 
HETATM    2  C   UNL     2     -11.936  13.607  64.581  1.00  0.00    -0.407 C  
HETATM    3  C   UNL     3     -11.225   7.016  71.355  1.00  0.00    -0.252 C  
HETATM    4  H   UNL     3     -12.753   6.064  70.608  1.00  0.00     0.000 HD 
HETATM    5  H   UNL     2     -11.808  11.920  63.561  1.00  0.00     0.000 HD 
HETATM    6  O   UNL     2     -11.608  12.838  63.419  1.00  0.00    -0.499 OA 
HETATM    7  O   UNL     3     -12.632   6.900  71.044  1.00  0.00    -0.374 OA 
ENDROOT
BRANCH   2   8
HETATM    8  C   UNL     2     -11.615  15.086  64.353  1.00  0.00    -0.276 C  
HETATM    9  H   UNL     2     -12.547  16.709  63.699  1.00  0.00     0.000 HD 
HETATM   10  O   UNL     2     -12.746  15.791  63.840  1.00  0.00    -0.672 OA 
ENDBRANCH   2   8
BRANCH   2  11
HETATM   11  C   UNL     2     -11.207  13.030  65.810  1.00  0.00    -0.289 C  
HETATM   12  H   UNL     2      -9.400  12.336  66.250  1.00  0.00     0.000 HD 
HETATM   13  O   UNL     2      -9.850  12.691  65.493  1.00  0.00    -0.242 OA 
BRANCH  11  14
HETATM   14  C   UNL     2     -11.230  14.049  66.962  1.00  0.00    -0.313 C  
HETATM   15  H   UNL     2      -9.900  15.164  67.907  1.00  0.00     0.000 HD 
HETATM   16  O   UNL     2      -9.885  14.534  67.195  1.00  0.00    -0.238 OA 
BRANCH  14  17
HETATM   17  C   UNL     2     -11.762  13.505  68.285  1.00  0.00    -0.359 C  
HETATM   18  C   UNL     2     -12.007  14.629  69.309  1.00  0.00    -0.302 C  
HETATM   19  H   UNL     2     -11.100  12.251  69.651  1.00  0.00     0.000 HD 
HETATM   20  O   UNL     2     -10.769  12.590  68.828  1.00  0.00    -0.228 OA 
HETATM   21  O   UNL     2     -10.960  15.049  69.950  1.00  0.00    -0.255 OA 
HETATM   22  O   UNL     2     -13.131  14.871  69.739  1.00  0.00     0.100 OA 
ENDBRANCH  14  17
ENDBRANCH  11  14
ENDBRANCH   2  11
BRANCH   3  23
HETATM   23  C   UNL     3     -10.478   6.841  70.037  1.00  0.00    -0.210 C  
HETATM   24  O   UNL     3      -9.112   6.536  70.343  1.00  0.00    -0.154 OA 
HETATM   25  H   UNL     3      -8.647   6.428  69.522  1.00  0.00     0.000 HD 
BRANCH  23  26
HETATM   26  C   UNL     3     -10.993   5.784  69.034  1.00  0.00    -0.210 C  
HETATM   27  O   UNL     3     -10.192   4.594  69.117  1.00  0.00    -0.143 OA 
HETATM   28  H   UNL     3     -10.508   3.944  68.500  1.00  0.00     0.000 HD 
BRANCH  26  29
HETATM   29  C   UNL     3     -10.875   6.376  67.610  1.00  0.00    -0.339 C  
HETATM   30  C   UNL     3      -9.979   5.608  66.607  1.00  0.00    -0.181 C  
HETATM   31  O   UNL     3     -10.386   7.760  67.675  1.00  0.00    -0.206 OA 
HETATM   32  O   UNL     3     -10.090   4.375  66.500  1.00  0.00    -0.232 OA 
HETATM   33  O   UNL     3      -9.197   6.435  65.964  1.00  0.00    -0.143 OA 
HETATM   34  H   UNL     3     -10.314   8.123  66.800  1.00  0.00     0.000 HD 
ENDBRANCH  26  29
ENDBRANCH  23  26
ENDBRANCH   3  23
BRANCH   3  35
HETATM   35  C   UNL     3     -11.031   8.361  72.055  1.00  0.00    -0.323 C  
HETATM   36  O   UNL     3     -10.414   9.249  71.117  1.00  0.00    -0.282 OA 
HETATM   37  H   UNL     3     -10.293  10.085  71.552  1.00  0.00     0.000 HD 
ENDBRANCH   3  35
TORSDOF 8
ENDMDL
MODEL      179
REMARK 921   NORMALIZED FREE ENERGY PREDICTED BY IDOCK:   -4.25 KCAL/MOL
REMARK 922        TOTAL FREE ENERGY PREDICTED BY IDOCK:   -8.34 KCAL/MOL
REMARK 923 INTER-LIGAND FREE ENERGY PREDICTED BY IDOCK:   -6.97 KCAL/MOL
REMARK 924 INTRA-LIGAND FREE ENERGY PREDICTED BY IDOCK:   -1.37 KCAL/MOL
REMARK 927      BINDING AFFINITY PREDICTED BY RF-SCORE:    0.00 PKD
ROOT
HETATM    1 FE   UNL     1     -11.804  12.730  65.123  1.00  0.00    -0.302 Fe 
HETATM    2  C   UNL     2      -9.901  18.451  68.260  1.00  0.00    -0.359 C  
HETATM    3  C   UNL     3     -11.268   9.339  70.482  1.00  0.00    -0.265 C  
HETATM    4  H   UNL     3     -12.822   9.820  71.556  1.00  0.00     0.000 HD 
HETATM    5  H   UNL     2     -11.773  18.128  67.717  1.00  0.00     0.000 HD 
HETATM    6  O   UNL     2     -11.068  18.716  67.475  1.00  0.00    -0.303 OA 
HETATM    7  O   UNL     3     -11.886   9.969  71.627  1.00  0.00    -0.365 OA 
ENDROOT
BRANCH   2   8
HETATM    8  C   UNL     2      -8.765  19.400  67.868  1.00  0.00    -0.317 C  
HETATM    9  H   UNL     2      -7.363  20.467  68.777  1.00  0.00     0.000 HD 
HETATM   10  O   UNL     2      -8.069  19.879  69.020  1.00  0.00    -0.180 OA 
ENDBRANCH   2   8
BRANCH   2  11
HETATM   11  C   UNL     2      -9.504  16.969  68.117  1.00  0.00    -0.262 C  
HETATM   12  H   UNL     2      -7.840  15.915  67.867  1.00  0.00     0.000 HD 
HETATM   13  O   UNL     2      -8.085  16.828  67.954  1.00  0.00    -0.179 OA 
BRANCH  11  14
HETATM   14  C   UNL     2      -9.964  16.179  69.355  1.00  0.00    -0.243 C  
HETATM   15  H   UNL     2      -9.171  14.828  70.560  1.00  0.00     0.000 HD 
HETATM   16  O   UNL     2      -8.887  15.316  69.795  1.00  0.00    -0.191 OA 
BRANCH  14  17
HETATM   17  C   UNL     2     -11.195  15.307  69.134  1.00  0.00    -0.278 C  
HETATM   18  C   UNL     2     -12.199  15.428  70.295  1.00  0.00    -0.380 C  
HETATM   19  H   UNL     2     -11.524  13.378  68.904  1.00  0.00     0.000 HD 
HETATM   20  O   UNL     2     -10.757  13.922  69.041  1.00  0.00    -0.240 OA 
HETATM   21  O   UNL     2     -11.935  14.718  71.348  1.00  0.00    -0.320 OA 
HETATM   22  O   UNL     2     -13.328  15.880  70.124  1.00  0.00    -0.024 OA 
ENDBRANCH  14  17
ENDBRANCH  11  14
ENDBRANCH   2  11
BRANCH   3  23
HETATM   23  C   UNL     3     -11.941   9.935  69.250  1.00  0.00     0.409 C  
HETATM   24  O   UNL     3     -13.139  10.596  69.679  1.00  0.00    -0.502 OA 
HETATM   25  H   UNL     3     -13.558  10.966  68.911  1.00  0.00     0.000 HD 
BRANCH  23  26
HETATM   26  C   UNL     3     -11.135  10.923  68.376  1.00  0.00    -0.262 C  
HETATM   27  O   UNL     3     -12.028  11.799  67.670  1.00  0.00    -0.599 OA 
HETATM   28  H   UNL     3     -11.533  12.407  67.133  1.00  0.00     0.000 HD 
BRANCH  26  29
HETATM   29  C   UNL     3     -10.317  10.101  67.353  1.00  0.00    -0.238 C  
HETATM   30  C   UNL     3      -9.968  10.800  66.015  1.00  0.00    -0.242 C  
HETATM   31  O   UNL     3     -11.018   8.850  67.031  1.00  0.00    -0.299 OA 
HETATM   32  O   UNL     3      -9.515  11.958  66.025  1.00  0.00    -0.231 OA 
HETATM   33  O   UNL     3     -10.201  10.004  65.006  1.00  0.00    -0.280 OA 
HETATM   34  H   UNL     3     -10.515   8.346  66.402  1.00  0.00     0.000 HD 
ENDBRANCH  26  29
ENDBRANCH  23  26
ENDBRANCH   3  23
BRANCH   3  35
HETATM   35  C   UNL     3      -9.763   9.579  70.597  1.00  0.00    -0.245 C  
HETATM   36  O   UNL     3      -9.317   8.943  71.799  1.00  0.00    -0.272 OA 
HETATM   37  H   UNL     3      -8.381   9.092  71.871  1.00  0.00     0.000 HD 
ENDBRANCH   3  35
TORSDOF 8
ENDMDL
MODEL      180
REMARK 921   NORMALIZED FREE ENERGY PREDICTED BY IDOCK:   -4.24 KCAL/MOL
REMARK 922        TOTAL FREE ENERGY PREDICTED BY IDOCK:   -8.32 KCAL/MOL
REMARK 923 INTER-LIGAND FREE ENERGY PREDICTED BY IDOCK:   -6.20 KCAL/MOL
REMARK 924 INTRA-LIGAND FREE ENERGY PREDICTED BY IDOCK:   -2.12 KCAL/MOL
REMARK 927      BINDING AFFINITY PREDICTED BY RF-SCORE:    0.00 PKD
ROOT
HETATM    1 FE   UNL     1     -11.468   8.026  68.929  1.00  0.00    -0.423 Fe 
HETATM    2  C   UNL     2     -11.106  13.808  65.377  1.00  0.00    -0.302 C  
HETATM    3  C   UNL     3      -7.041   5.246  65.299  1.00  0.00    -0.066 C  
HETATM    4  H   UNL     3      -5.347   6.030  65.858  1.00  0.00     0.000 HD 
HETATM    5  H   UNL     2     -10.350  13.648  67.196  1.00  0.00     0.000 HD 
HETATM    6  O   UNL     2     -11.061  14.116  66.774  1.00  0.00    -0.299 OA 
HETATM    7  O   UNL     3      -5.878   6.074  65.071  1.00  0.00    -0.023 OA 
ENDROOT
BRANCH   2   8
HETATM    8  C   UNL     2     -12.251  14.563  64.698  1.00  0.00    -0.460 C  
HETATM    9  H   UNL     2     -14.210  14.772  64.921  1.00  0.00     0.000 HD 
HETATM   10  O   UNL     2     -13.499  14.303  65.343  1.00  0.00    -0.581 OA 
ENDBRANCH   2   8
BRANCH   2  11
HETATM   11  C   UNL     2     -11.211  12.283  65.184  1.00  0.00    -0.324 C  
HETATM   12  H   UNL     2     -11.613  11.017  63.708  1.00  0.00     0.000 HD 
HETATM   13  O   UNL     2     -11.548  11.957  63.827  1.00  0.00    -0.417 OA 
BRANCH  11  14
HETATM   14  C   UNL     2      -9.880  11.611  65.562  1.00  0.00    -0.234 C  
HETATM   15  H   UNL     2      -8.421  10.692  64.596  1.00  0.00     0.000 HD 
HETATM   16  O   UNL     2      -9.243  11.107  64.362  1.00  0.00    -0.188 OA 
BRANCH  14  17
HETATM   17  C   UNL     2     -10.008  10.448  66.540  1.00  0.00    -0.217 C  
HETATM   18  C   UNL     2     -10.795  10.845  67.803  1.00  0.00    -0.259 C  
HETATM   19  H   UNL     2      -8.748   9.317  67.547  1.00  0.00     0.000 HD 
HETATM   20  O   UNL     2      -8.668  10.042  66.938  1.00  0.00    -0.128 OA 
HETATM   21  O   UNL     2     -10.124  11.482  68.711  1.00  0.00    -0.213 OA 
HETATM   22  O   UNL     2     -11.865  10.313  68.086  1.00  0.00    -0.238 OA 
ENDBRANCH  14  17
ENDBRANCH  11  14
ENDBRANCH   2  11
BRANCH   3  23
HETATM   23  C   UNL     3      -7.698   5.769  66.572  1.00  0.00    -0.100 C  
HETATM   24  O   UNL     3      -8.717   6.702  66.190  1.00  0.00    -0.140 OA 
HETATM   25  H   UNL     3      -9.126   7.027  66.983  1.00  0.00     0.000 HD 
BRANCH  23  26
HETATM   26  C   UNL     3      -8.324   4.748  67.550  1.00  0.00    -0.104 C  
HETATM   27  O   UNL     3      -8.551   3.498  66.879  1.00  0.00    -0.103 OA 
HETATM   28  H   UNL     3      -8.936   2.870  67.480  1.00  0.00     0.000 HD 
BRANCH  26  29
HETATM   29  C   UNL     3      -9.677   5.316  68.035  1.00  0.00    -0.141 C  
HETATM   30  C   UNL     3     -10.734   5.630  66.947  1.00  0.00    -0.272 C  
HETATM   31  O   UNL     3      -9.462   6.545  68.813  1.00  0.00    -0.130 OA 
HETATM   32  O   UNL     3     -10.968   4.795  66.057  1.00  0.00    -0.213 OA 
HETATM   33  O   UNL     3     -11.273   6.802  67.155  1.00  0.00    -0.379 OA 
HETATM   34  H   UNL     3     -10.294   6.894  69.111  1.00  0.00     0.000 HD 
ENDBRANCH  26  29
ENDBRANCH  23  26
ENDBRANCH   3  23
BRANCH   3  35
HETATM   35  C   UNL     3      -7.896   5.318  64.034  1.00  0.00    -0.098 C  
HETATM   36  O   UNL     3      -8.966   4.380  64.184  1.00  0.00    -0.144 OA 
HETATM   37  H   UNL     3      -9.497   4.424  63.397  1.00  0.00     0.000 HD 
ENDBRANCH   3  35
TORSDOF 8
ENDMDL
MODEL      181
REMARK 921   NORMALIZED FREE ENERGY PREDICTED BY IDOCK:   -4.24 KCAL/MOL
REMARK 922        TOTAL FREE ENERGY PREDICTED BY IDOCK:   -8.31 KCAL/MOL
REMARK 923 INTER-LIGAND FREE ENERGY PREDICTED BY IDOCK:   -6.22 KCAL/MOL
REMARK 924 INTRA-LIGAND FREE ENERGY PREDICTED BY IDOCK:   -2.09 KCAL/MOL
REMARK 927      BINDING AFFINITY PREDICTED BY RF-SCORE:    0.00 PKD
ROOT
HETATM    1 FE   UNL     1     -12.693  10.228  68.821  1.00  0.00    -0.501 Fe 
HETATM    2  C   UNL     2      -9.054   4.544  68.021  1.00  0.00    -0.123 C  
HETATM    3  C   UNL     3      -7.540  13.900  68.136  1.00  0.00    -0.134 C  
HETATM    4  H   UNL     3      -7.134  13.872  66.230  1.00  0.00     0.000 HD 
HETATM    5  H   UNL     2     -10.266   5.218  66.614  1.00  0.00     0.000 HD 
HETATM    6  O   UNL     2     -10.222   4.469  67.198  1.00  0.00    -0.158 OA 
HETATM    7  O   UNL     3      -6.713  13.530  67.010  1.00  0.00    -0.048 OA 
ENDROOT
BRANCH   2   8
HETATM    8  C   UNL     2      -8.982   3.339  68.962  1.00  0.00    -0.129 C  
HETATM    9  H   UNL     2      -8.316   1.472  68.911  1.00  0.00     0.000 HD 
HETATM   10  O   UNL     2      -8.361   2.220  68.327  1.00  0.00    -0.057 OA 
ENDBRANCH   2   8
BRANCH   2  11
HETATM   11  C   UNL     2      -9.039   5.884  68.782  1.00  0.00    -0.116 C  
HETATM   12  H   UNL     2      -8.034   7.595  68.718  1.00  0.00     0.000 HD 
HETATM   13  O   UNL     2      -8.043   6.770  68.249  1.00  0.00    -0.113 OA 
BRANCH  11  14
HETATM   14  C   UNL     2     -10.422   6.553  68.701  1.00  0.00    -0.218 C  
HETATM   15  H   UNL     2     -11.149   8.242  67.978  1.00  0.00     0.000 HD 
HETATM   16  O   UNL     2     -10.295   7.829  68.028  1.00  0.00    -0.200 OA 
BRANCH  14  17
HETATM   17  C   UNL     2     -11.090   6.804  70.049  1.00  0.00    -0.315 C  
HETATM   18  C   UNL     2     -10.861   8.245  70.541  1.00  0.00    -0.232 C  
HETATM   19  H   UNL     2     -10.928   6.042  71.857  1.00  0.00     0.000 HD 
HETATM   20  O   UNL     2     -10.512   5.885  71.018  1.00  0.00    -0.216 OA 
HETATM   21  O   UNL     2      -9.719   8.475  71.110  1.00  0.00    -0.174 OA 
HETATM   22  O   UNL     2     -11.796   9.026  70.699  1.00  0.00    -0.255 OA 
ENDBRANCH  14  17
ENDBRANCH  11  14
ENDBRANCH   2  11
BRANCH   3  23
HETATM   23  C   UNL     3      -8.933  13.355  67.843  1.00  0.00    -0.201 C  
HETATM   24  O   UNL     3      -9.412  12.711  69.030  1.00  0.00    -0.377 OA 
HETATM   25  H   UNL     3     -10.280  12.371  68.847  1.00  0.00     0.000 HD 
BRANCH  23  26
HETATM   26  C   UNL     3     -10.022  14.339  67.358  1.00  0.00    -0.242 C  
HETATM   27  O   UNL     3     -10.991  14.554  68.398  1.00  0.00    -0.232 OA 
HETATM   28  H   UNL     3     -11.661  15.159  68.101  1.00  0.00     0.000 HD 
BRANCH  26  29
HETATM   29  C   UNL     3     -10.726  13.713  66.133  1.00  0.00    -0.286 C  
HETATM   30  C   UNL     3     -11.320  12.294  66.317  1.00  0.00    -0.345 C  
HETATM   31  O   UNL     3      -9.803  13.663  64.990  1.00  0.00    -0.577 OA 
HETATM   32  O   UNL     3     -12.005  12.040  67.323  1.00  0.00    -0.591 OA 
HETATM   33  O   UNL     3     -11.004  11.528  65.307  1.00  0.00    -0.284 OA 
HETATM   34  H   UNL     3     -10.236  13.277  64.236  1.00  0.00     0.000 HD 
ENDBRANCH  26  29
ENDBRANCH  23  26
ENDBRANCH   3  23
BRANCH   3  35
HETATM   35  C   UNL     3      -6.862  13.349  69.390  1.00  0.00     0.005 C  
HETATM   36  O   UNL     3      -6.709  11.938  69.212  1.00  0.00    -0.102 OA 
HETATM   37  H   UNL     3      -6.288  11.595  69.991  1.00  0.00     0.000 HD 
ENDBRANCH   3  35
TORSDOF 8
ENDMDL
MODEL      182
REMARK 921   NORMALIZED FREE ENERGY PREDICTED BY IDOCK:   -4.24 KCAL/MOL
REMARK 922        TOTAL FREE ENERGY PREDICTED BY IDOCK:   -8.31 KCAL/MOL
REMARK 923 INTER-LIGAND FREE ENERGY PREDICTED BY IDOCK:   -6.24 KCAL/MOL
REMARK 924 INTRA-LIGAND FREE ENERGY PREDICTED BY IDOCK:   -2.08 KCAL/MOL
REMARK 927      BINDING AFFINITY PREDICTED BY RF-SCORE:    0.00 PKD
ROOT
HETATM    1 FE   UNL     1      -6.980   7.430  66.615  1.00  0.00    -0.054 Fe 
HETATM    2  C   UNL     2     -10.284  13.363  66.353  1.00  0.00    -0.293 C  
HETATM    3  C   UNL     3      -9.071   6.261  72.512  1.00  0.00    -0.141 C  
HETATM    4  H   UNL     3     -10.939   5.745  72.305  1.00  0.00     0.000 HD 
HETATM    5  H   UNL     2     -10.897  11.778  65.345  1.00  0.00     0.000 HD 
HETATM    6  O   UNL     2     -10.537  12.635  65.147  1.00  0.00    -0.284 OA 
HETATM    7  O   UNL     3     -10.488   6.494  72.678  1.00  0.00    -0.198 OA 
ENDROOT
BRANCH   2   8
HETATM    8  C   UNL     2      -9.704  14.744  66.034  1.00  0.00    -0.321 C  
HETATM    9  H   UNL     2     -10.171  16.310  64.913  1.00  0.00     0.000 HD 
HETATM   10  O   UNL     2     -10.531  15.453  65.110  1.00  0.00    -0.392 OA 
ENDBRANCH   2   8
BRANCH   2  11
HETATM   11  C   UNL     2      -9.364  12.539  67.275  1.00  0.00    -0.190 C  
HETATM   12  H   UNL     2      -7.604  12.759  68.166  1.00  0.00     0.000 HD 
HETATM   13  O   UNL     2      -8.171  13.267  67.598  1.00  0.00    -0.153 OA 
BRANCH  11  14
HETATM   14  C   UNL     2     -10.110  12.168  68.568  1.00  0.00    -0.187 C  
HETATM   15  H   UNL     2     -10.483  10.508  69.573  1.00  0.00     0.000 HD 
HETATM   16  O   UNL     2     -10.022  10.737  68.774  1.00  0.00    -0.178 OA 
BRANCH  14  17
HETATM   17  C   UNL     2     -11.587  12.548  68.584  1.00  0.00    -0.314 C  
HETATM   18  C   UNL     2     -11.961  13.337  69.853  1.00  0.00    -0.330 C  
HETATM   19  H   UNL     2     -13.290  11.557  68.563  1.00  0.00     0.000 HD 
HETATM   20  O   UNL     2     -12.370  11.321  68.553  1.00  0.00    -0.543 OA 
HETATM   21  O   UNL     2     -12.174  12.629  70.918  1.00  0.00    -0.349 OA 
HETATM   22  O   UNL     2     -12.364  14.496  69.792  1.00  0.00    -0.316 OA 
ENDBRANCH  14  17
ENDBRANCH  11  14
ENDBRANCH   2  11
BRANCH   3  23
HETATM   23  C   UNL     3      -8.847   6.027  71.022  1.00  0.00    -0.139 C  
HETATM   24  O   UNL     3      -8.662   4.620  70.820  1.00  0.00    -0.100 OA 
HETATM   25  H   UNL     3      -8.522   4.475  69.892  1.00  0.00     0.000 HD 
BRANCH  23  26
HETATM   26  C   UNL     3      -9.926   6.517  70.029  1.00  0.00    -0.169 C  
HETATM   27  O   UNL     3     -10.841   5.450  69.729  1.00  0.00    -0.297 OA 
HETATM   28  H   UNL     3     -11.505   5.751  69.119  1.00  0.00     0.000 HD 
BRANCH  26  29
HETATM   29  C   UNL     3      -9.217   6.957  68.727  1.00  0.00    -0.131 C  
HETATM   30  C   UNL     3      -9.956   6.668  67.397  1.00  0.00    -0.145 C  
HETATM   31  O   UNL     3      -7.887   6.338  68.641  1.00  0.00    -0.099 OA 
HETATM   32  O   UNL     3     -11.162   6.949  67.289  1.00  0.00    -0.317 OA 
HETATM   33  O   UNL     3      -9.137   6.151  66.520  1.00  0.00    -0.139 OA 
HETATM   34  H   UNL     3      -7.451   6.608  67.841  1.00  0.00     0.000 HD 
ENDBRANCH  26  29
ENDBRANCH  23  26
ENDBRANCH   3  23
BRANCH   3  35
HETATM   35  C   UNL     3      -8.346   7.466  73.111  1.00  0.00    -0.123 C  
HETATM   36  O   UNL     3      -8.720   8.617  72.347  1.00  0.00    -0.336 OA 
HETATM   37  H   UNL     3      -8.269   9.366  72.720  1.00  0.00     0.000 HD 
ENDBRANCH   3  35
TORSDOF 8
ENDMDL
MODEL      183
REMARK 921   NORMALIZED FREE ENERGY PREDICTED BY IDOCK:   -4.21 KCAL/MOL
REMARK 922        TOTAL FREE ENERGY PREDICTED BY IDOCK:   -8.28 KCAL/MOL
REMARK 923 INTER-LIGAND FREE ENERGY PREDICTED BY IDOCK:   -6.30 KCAL/MOL
REMARK 924 INTRA-LIGAND FREE ENERGY PREDICTED BY IDOCK:   -1.97 KCAL/MOL
REMARK 927      BINDING AFFINITY PREDICTED BY RF-SCORE:    0.00 PKD
ROOT
HETATM    1 FE   UNL     1      -6.273   9.584  67.601  1.00  0.00    -0.048 Fe 
HETATM    2  C   UNL     2      -9.454  15.579  67.243  1.00  0.00    -0.213 C  
HETATM    3  C   UNL     3     -10.709   7.200  71.493  1.00  0.00    -0.223 C  
HETATM    4  H   UNL     3     -12.252   6.840  70.359  1.00  0.00     0.000 HD 
HETATM    5  H   UNL     2      -9.456  14.301  65.736  1.00  0.00     0.000 HD 
HETATM    6  O   UNL     2      -9.098  15.161  65.922  1.00  0.00    -0.259 OA 
HETATM    7  O   UNL     3     -12.061   7.460  71.054  1.00  0.00    -0.312 OA 
ENDROOT
BRANCH   2   8
HETATM    8  C   UNL     2      -8.876  16.964  67.542  1.00  0.00    -0.209 C  
HETATM    9  H   UNL     2      -9.532  18.829  67.689  1.00  0.00     0.000 HD 
HETATM   10  O   UNL     2      -9.890  17.970  67.503  1.00  0.00    -0.291 OA 
ENDBRANCH   2   8
BRANCH   2  11
HETATM   11  C   UNL     2      -8.998  14.519  68.265  1.00  0.00    -0.184 C  
HETATM   12  H   UNL     2      -7.875  14.448  69.900  1.00  0.00     0.000 HD 
HETATM   13  O   UNL     2      -8.156  15.101  69.271  1.00  0.00    -0.199 OA 
BRANCH  11  14
HETATM   14  C   UNL     2     -10.222  13.866  68.929  1.00  0.00    -0.127 C  
HETATM   15  H   UNL     2     -11.221  12.173  68.725  1.00  0.00     0.000 HD 
HETATM   16  O   UNL     2     -10.465  12.576  68.315  1.00  0.00    -0.221 OA 
BRANCH  14  17
HETATM   17  C   UNL     2     -11.510  14.676  68.830  1.00  0.00    -0.296 C  
HETATM   18  C   UNL     2     -12.213  14.803  70.194  1.00  0.00    -0.337 C  
HETATM   19  H   UNL     2     -13.207  14.495  67.846  1.00  0.00     0.000 HD 
HETATM   20  O   UNL     2     -12.405  13.991  67.908  1.00  0.00    -0.238 OA 
HETATM   21  O   UNL     2     -12.930  13.786  70.558  1.00  0.00    -0.203 OA 
HETATM   22  O   UNL     2     -12.372  15.894  70.735  1.00  0.00    -0.406 OA 
ENDBRANCH  14  17
ENDBRANCH  11  14
ENDBRANCH   2  11
BRANCH   3  23
HETATM   23  C   UNL     3      -9.828   7.304  70.253  1.00  0.00    -0.179 C  
HETATM   24  O   UNL     3      -9.622   5.978  69.747  1.00  0.00    -0.146 OA 
HETATM   25  H   UNL     3      -9.072   6.043  68.975  1.00  0.00     0.000 HD 
BRANCH  23  26
HETATM   26  C   UNL     3     -10.305   8.194  69.083  1.00  0.00    -0.220 C  
HETATM   27  O   UNL     3     -11.136   7.434  68.191  1.00  0.00    -0.459 OA 
HETATM   28  H   UNL     3     -11.430   7.981  67.472  1.00  0.00     0.000 HD 
BRANCH  26  29
HETATM   29  C   UNL     3      -9.057   8.688  68.315  1.00  0.00    -0.141 C  
HETATM   30  C   UNL     3      -8.993   8.361  66.802  1.00  0.00    -0.145 C  
HETATM   31  O   UNL     3      -7.836   8.157  68.937  1.00  0.00    -0.108 OA 
HETATM   32  O   UNL     3      -9.988   8.564  66.085  1.00  0.00    -0.239 OA 
HETATM   33  O   UNL     3      -7.811   7.905  66.481  1.00  0.00    -0.094 OA 
HETATM   34  H   UNL     3      -7.070   8.461  68.465  1.00  0.00     0.000 HD 
ENDBRANCH  26  29
ENDBRANCH  23  26
ENDBRANCH   3  23
BRANCH   3  35
HETATM   35  C   UNL     3     -10.402   8.197  72.610  1.00  0.00    -0.328 C  
HETATM   36  O   UNL     3     -10.920   7.651  73.828  1.00  0.00    -0.479 OA 
HETATM   37  H   UNL     3     -10.729   8.271  74.522  1.00  0.00     0.000 HD 
ENDBRANCH   3  35
TORSDOF 8
ENDMDL
MODEL      184
REMARK 921   NORMALIZED FREE ENERGY PREDICTED BY IDOCK:   -4.21 KCAL/MOL
REMARK 922        TOTAL FREE ENERGY PREDICTED BY IDOCK:   -8.28 KCAL/MOL
REMARK 923 INTER-LIGAND FREE ENERGY PREDICTED BY IDOCK:   -6.56 KCAL/MOL
REMARK 924 INTRA-LIGAND FREE ENERGY PREDICTED BY IDOCK:   -1.72 KCAL/MOL
REMARK 927      BINDING AFFINITY PREDICTED BY RF-SCORE:    0.00 PKD
ROOT
HETATM    1 FE   UNL     1      -7.091   9.255  67.274  1.00  0.00    -0.072 Fe 
HETATM    2  C   UNL     2     -10.660  14.875  65.910  1.00  0.00    -0.325 C  
HETATM    3  C   UNL     3     -11.469   7.198  71.410  1.00  0.00    -0.272 C  
HETATM    4  H   UNL     3     -12.950   6.555  70.319  1.00  0.00     0.000 HD 
HETATM    5  H   UNL     2     -10.530  13.380  64.625  1.00  0.00     0.000 HD 
HETATM    6  O   UNL     2     -10.236  14.282  64.679  1.00  0.00    -0.387 OA 
HETATM    7  O   UNL     3     -12.822   7.288  70.910  1.00  0.00    -0.259 OA 
ENDROOT
BRANCH   2   8
HETATM    8  C   UNL     2     -10.187  16.328  65.997  1.00  0.00    -0.358 C  
HETATM    9  H   UNL     2     -10.434  17.886  67.198  1.00  0.00     0.000 HD 
HETATM   10  O   UNL     2     -10.728  16.984  67.144  1.00  0.00    -0.282 OA 
ENDBRANCH   2   8
BRANCH   2  11
HETATM   11  C   UNL     2     -10.163  14.024  67.095  1.00  0.00    -0.258 C  
HETATM   12  H   UNL     2      -8.690  14.081  68.425  1.00  0.00     0.000 HD 
HETATM   13  O   UNL     2      -8.996  14.605  67.694  1.00  0.00    -0.176 OA 
BRANCH  11  14
HETATM   14  C   UNL     2     -11.275  13.891  68.151  1.00  0.00    -0.268 C  
HETATM   15  H   UNL     2     -11.424  14.149  70.104  1.00  0.00     0.000 HD 
HETATM   16  O   UNL     2     -10.737  14.231  69.452  1.00  0.00    -0.218 OA 
BRANCH  14  17
HETATM   17  C   UNL     2     -11.893  12.501  68.254  1.00  0.00    -0.309 C  
HETATM   18  C   UNL     2     -11.076  11.578  69.178  1.00  0.00    -0.259 C  
HETATM   19  H   UNL     2     -12.305  11.052  66.985  1.00  0.00     0.000 HD 
HETATM   20  O   UNL     2     -11.920  11.918  66.921  1.00  0.00    -0.614 OA 
HETATM   21  O   UNL     2     -10.029  11.028  68.646  1.00  0.00    -0.185 OA 
HETATM   22  O   UNL     2     -11.551  11.123  70.215  1.00  0.00    -0.307 OA 
ENDBRANCH  14  17
ENDBRANCH  11  14
ENDBRANCH   2  11
BRANCH   3  23
HETATM   23  C   UNL     3     -10.561   7.169  70.186  1.00  0.00    -0.230 C  
HETATM   24  O   UNL     3      -9.941   8.456  70.067  1.00  0.00    -0.184 OA 
HETATM   25  H   UNL     3      -9.376   8.438  69.304  1.00  0.00     0.000 HD 
BRANCH  23  26
HETATM   26  C   UNL     3      -9.451   6.095  70.118  1.00  0.00    -0.159 C  
HETATM   27  O   UNL     3      -9.548   5.362  68.886  1.00  0.00    -0.126 OA 
HETATM   28  H   UNL     3      -8.866   4.701  68.844  1.00  0.00     0.000 HD 
BRANCH  26  29
HETATM   29  C   UNL     3      -9.650   5.122  71.303  1.00  0.00    -0.162 C  
HETATM   30  C   UNL     3      -8.511   5.053  72.350  1.00  0.00    -0.121 C  
HETATM   31  O   UNL     3      -9.882   3.759  70.806  1.00  0.00    -0.181 OA 
HETATM   32  O   UNL     3      -8.020   6.104  72.796  1.00  0.00    -0.106 OA 
HETATM   33  O   UNL     3      -8.229   3.810  72.640  1.00  0.00    -0.086 OA 
HETATM   34  H   UNL     3     -10.005   3.161  71.535  1.00  0.00     0.000 HD 
ENDBRANCH  26  29
ENDBRANCH  23  26
ENDBRANCH   3  23
BRANCH   3  35
HETATM   35  C   UNL     3     -11.264   8.377  72.361  1.00  0.00    -0.368 C  
HETATM   36  O   UNL     3     -10.022   8.170  73.041  1.00  0.00    -0.285 OA 
HETATM   37  H   UNL     3      -9.894   8.903  73.632  1.00  0.00     0.000 HD 
ENDBRANCH   3  35
TORSDOF 8
ENDMDL
MODEL      185
REMARK 921   NORMALIZED FREE ENERGY PREDICTED BY IDOCK:   -4.21 KCAL/MOL
REMARK 922        TOTAL FREE ENERGY PREDICTED BY IDOCK:   -8.27 KCAL/MOL
REMARK 923 INTER-LIGAND FREE ENERGY PREDICTED BY IDOCK:   -6.88 KCAL/MOL
REMARK 924 INTRA-LIGAND FREE ENERGY PREDICTED BY IDOCK:   -1.39 KCAL/MOL
REMARK 927      BINDING AFFINITY PREDICTED BY RF-SCORE:    0.00 PKD
ROOT
HETATM    1 FE   UNL     1      -6.541  10.910  65.249  1.00  0.00    -0.120 Fe 
HETATM    2  C   UNL     2      -9.687   5.976  68.706  1.00  0.00    -0.131 C  
HETATM    3  C   UNL     3     -12.009  14.005  64.235  1.00  0.00    -0.435 C  
HETATM    4  H   UNL     3     -12.454  14.841  65.938  1.00  0.00     0.000 HD 
HETATM    5  H   UNL     2      -8.570   7.336  69.604  1.00  0.00     0.000 HD 
HETATM    6  O   UNL     2      -8.536   6.400  69.443  1.00  0.00    -0.124 OA 
HETATM    7  O   UNL     3     -12.826  14.136  65.420  1.00  0.00    -0.637 OA 
ENDROOT
BRANCH   2   8
HETATM    8  C   UNL     2      -9.631   4.469  68.445  1.00  0.00    -0.145 C  
HETATM    9  H   UNL     2      -8.452   3.182  67.505  1.00  0.00     0.000 HD 
HETATM   10  O   UNL     2      -8.486   4.118  67.666  1.00  0.00    -0.097 OA 
ENDBRANCH   2   8
BRANCH   2  11
HETATM   11  C   UNL     2      -9.801   6.794  67.404  1.00  0.00    -0.137 C  
HETATM   12  H   UNL     2     -11.214   7.275  66.095  1.00  0.00     0.000 HD 
HETATM   13  O   UNL     2     -11.144   6.771  66.897  1.00  0.00    -0.397 OA 
BRANCH  11  14
HETATM   14  C   UNL     2      -9.367   8.248  67.655  1.00  0.00    -0.137 C  
HETATM   15  H   UNL     2     -10.277   9.986  67.898  1.00  0.00     0.000 HD 
HETATM   16  O   UNL     2     -10.545   9.087  67.743  1.00  0.00    -0.246 OA 
BRANCH  14  17
HETATM   17  C   UNL     2      -8.459   8.837  66.581  1.00  0.00    -0.108 C  
HETATM   18  C   UNL     2      -7.171   8.012  66.405  1.00  0.00    -0.079 C  
HETATM   19  H   UNL     2      -7.528  10.553  66.320  1.00  0.00     0.000 HD 
HETATM   20  O   UNL     2      -8.094  10.186  66.988  1.00  0.00    -0.116 OA 
HETATM   21  O   UNL     2      -6.230   8.239  67.268  1.00  0.00    -0.053 OA 
HETATM   22  O   UNL     2      -6.913   7.442  65.348  1.00  0.00    -0.057 OA 
ENDBRANCH  14  17
ENDBRANCH  11  14
ENDBRANCH   2  11
BRANCH   3  23
HETATM   23  C   UNL     3     -10.580  13.786  64.720  1.00  0.00    -0.428 C  
HETATM   24  O   UNL     3     -10.081  15.042  65.198  1.00  0.00    -0.361 OA 
HETATM   25  H   UNL     3      -9.191  14.905  65.500  1.00  0.00     0.000 HD 
BRANCH  23  26
HETATM   26  C   UNL     3     -10.329  12.723  65.814  1.00  0.00    -0.281 C  
HETATM   27  O   UNL     3     -10.517  11.404  65.273  1.00  0.00    -0.265 OA 
HETATM   28  H   UNL     3     -10.362  10.751  65.945  1.00  0.00     0.000 HD 
BRANCH  26  29
HETATM   29  C   UNL     3     -11.351  12.953  66.952  1.00  0.00    -0.312 C  
HETATM   30  C   UNL     3     -10.794  13.497  68.291  1.00  0.00    -0.259 C  
HETATM   31  O   UNL     3     -12.074  11.708  67.243  1.00  0.00    -0.595 OA 
HETATM   32  O   UNL     3     -10.005  14.457  68.286  1.00  0.00    -0.219 OA 
HETATM   33  O   UNL     3     -11.287  12.827  69.299  1.00  0.00    -0.263 OA 
HETATM   34  H   UNL     3     -12.702  11.850  67.942  1.00  0.00     0.000 HD 
ENDBRANCH  26  29
ENDBRANCH  23  26
ENDBRANCH   3  23
BRANCH   3  35
HETATM   35  C   UNL     3     -12.608  12.871  63.402  1.00  0.00    -0.166 C  
HETATM   36  O   UNL     3     -13.472  12.118  64.258  1.00  0.00    -0.708 OA 
HETATM   37  H   UNL     3     -13.845  11.414  63.741  1.00  0.00     0.000 HD 
ENDBRANCH   3  35
TORSDOF 8
ENDMDL
MODEL      186
REMARK 921   NORMALIZED FREE ENERGY PREDICTED BY IDOCK:   -4.17 KCAL/MOL
REMARK 922        TOTAL FREE ENERGY PREDICTED BY IDOCK:   -8.21 KCAL/MOL
REMARK 923 INTER-LIGAND FREE ENERGY PREDICTED BY IDOCK:   -6.04 KCAL/MOL
REMARK 924 INTRA-LIGAND FREE ENERGY PREDICTED BY IDOCK:   -2.17 KCAL/MOL
REMARK 927      BINDING AFFINITY PREDICTED BY RF-SCORE:    0.00 PKD
ROOT
HETATM    1 FE   UNL     1      -5.992  11.202  67.882  1.00  0.00    -0.045 Fe 
HETATM    2  C   UNL     2     -10.491  16.128  66.585  1.00  0.00    -0.300 C  
HETATM    3  C   UNL     3     -10.564   6.783  68.171  1.00  0.00    -0.230 C  
HETATM    4  H   UNL     3     -11.088   6.460  66.322  1.00  0.00     0.000 HD 
HETATM    5  H   UNL     2      -9.282  15.421  65.191  1.00  0.00     0.000 HD 
HETATM    6  O   UNL     2      -9.402  16.237  65.663  1.00  0.00    -0.457 OA 
HETATM    7  O   UNL     3     -11.506   6.856  67.078  1.00  0.00    -0.154 OA 
ENDROOT
BRANCH   2   8
HETATM    8  C   UNL     2     -10.685  17.442  67.345  1.00  0.00    -0.251 C  
HETATM    9  H   UNL     2     -10.397  19.378  67.030  1.00  0.00     0.000 HD 
HETATM   10  O   UNL     2     -10.277  18.563  66.558  1.00  0.00    -0.365 OA 
ENDBRANCH   2   8
BRANCH   2  11
HETATM   11  C   UNL     2     -10.256  14.933  67.529  1.00  0.00    -0.233 C  
HETATM   12  H   UNL     2      -9.717  14.641  69.417  1.00  0.00     0.000 HD 
HETATM   13  O   UNL     2      -9.862  15.377  68.835  1.00  0.00    -0.196 OA 
BRANCH  11  14
HETATM   14  C   UNL     2     -11.535  14.084  67.634  1.00  0.00    -0.334 C  
HETATM   15  H   UNL     2     -12.615  13.309  69.096  1.00  0.00     0.000 HD 
HETATM   16  O   UNL     2     -11.825  13.833  69.031  1.00  0.00    -0.315 OA 
BRANCH  14  17
HETATM   17  C   UNL     2     -11.465  12.735  66.926  1.00  0.00    -0.340 C  
HETATM   18  C   UNL     2     -11.148  11.590  67.905  1.00  0.00    -0.256 C  
HETATM   19  H   UNL     2     -10.363  11.961  65.489  1.00  0.00     0.000 HD 
HETATM   20  O   UNL     2     -10.406  12.802  65.930  1.00  0.00    -0.271 OA 
HETATM   21  O   UNL     2      -9.898  11.443  68.218  1.00  0.00    -0.186 OA 
HETATM   22  O   UNL     2     -11.945  10.677  68.105  1.00  0.00    -0.460 OA 
ENDBRANCH  14  17
ENDBRANCH  11  14
ENDBRANCH   2  11
BRANCH   3  23
HETATM   23  C   UNL     3      -9.290   7.466  67.685  1.00  0.00    -0.133 C  
HETATM   24  O   UNL     3      -8.236   6.495  67.703  1.00  0.00    -0.119 OA 
HETATM   25  H   UNL     3      -7.442   6.921  67.401  1.00  0.00     0.000 HD 
BRANCH  23  26
HETATM   26  C   UNL     3      -9.300   8.138  66.293  1.00  0.00    -0.196 C  
HETATM   27  O   UNL     3      -8.936   7.184  65.282  1.00  0.00    -0.373 OA 
HETATM   28  H   UNL     3      -8.942   7.597  64.426  1.00  0.00     0.000 HD 
BRANCH  26  29
HETATM   29  C   UNL     3      -8.261   9.284  66.306  1.00  0.00    -0.107 C  
HETATM   30  C   UNL     3      -7.055   9.144  65.344  1.00  0.00    -0.081 C  
HETATM   31  O   UNL     3      -7.729   9.471  67.663  1.00  0.00    -0.094 OA 
HETATM   32  O   UNL     3      -7.245   8.813  64.161  1.00  0.00    -0.089 OA 
HETATM   33  O   UNL     3      -5.940   9.432  65.961  1.00  0.00    -0.059 OA 
HETATM   34  H   UNL     3      -7.091  10.175  67.670  1.00  0.00     0.000 HD 
ENDBRANCH  26  29
ENDBRANCH  23  26
ENDBRANCH   3  23
BRANCH   3  35
HETATM   35  C   UNL     3     -11.237   7.422  69.386  1.00  0.00     0.061 C  
HETATM   36  O   UNL     3     -12.057   6.422  69.998  1.00  0.00    -0.460 OA 
HETATM   37  H   UNL     3     -12.476   6.818  70.753  1.00  0.00     0.000 HD 
ENDBRANCH   3  35
TORSDOF 8
ENDMDL
MODEL      187
REMARK 921   NORMALIZED FREE ENERGY PREDICTED BY IDOCK:   -4.16 KCAL/MOL
REMARK 922        TOTAL FREE ENERGY PREDICTED BY IDOCK:   -8.21 KCAL/MOL
REMARK 923 INTER-LIGAND FREE ENERGY PREDICTED BY IDOCK:   -5.84 KCAL/MOL
REMARK 924 INTRA-LIGAND FREE ENERGY PREDICTED BY IDOCK:   -2.37 KCAL/MOL
REMARK 927      BINDING AFFINITY PREDICTED BY RF-SCORE:    0.00 PKD
ROOT
HETATM    1 FE   UNL     1      -7.652  10.709  66.122  1.00  0.00    -0.099 Fe 
HETATM    2  C   UNL     2     -10.876  16.372  68.053  1.00  0.00    -0.342 C  
HETATM    3  C   UNL     3     -10.626   7.230  70.545  1.00  0.00    -0.222 C  
HETATM    4  H   UNL     3     -12.440   6.984  69.876  1.00  0.00     0.000 HD 
HETATM    5  H   UNL     2     -11.326  15.431  66.375  1.00  0.00     0.000 HD 
HETATM    6  O   UNL     2     -10.940  16.262  66.628  1.00  0.00    -0.184 OA 
HETATM    7  O   UNL     3     -12.052   7.463  70.599  1.00  0.00    -0.240 OA 
ENDROOT
BRANCH   2   8
HETATM    8  C   UNL     2     -10.254  17.710  68.460  1.00  0.00    -0.386 C  
HETATM    9  H   UNL     2     -10.299  19.597  67.854  1.00  0.00     0.000 HD 
HETATM   10  O   UNL     2     -10.685  18.766  67.601  1.00  0.00    -0.429 OA 
ENDBRANCH   2   8
BRANCH   2  11
HETATM   11  C   UNL     2     -10.109  15.167  68.634  1.00  0.00    -0.222 C  
HETATM   12  H   UNL     2      -9.215  14.682  70.339  1.00  0.00     0.000 HD 
HETATM   13  O   UNL     2      -9.687  15.424  69.981  1.00  0.00    -0.241 OA 
BRANCH  11  14
HETATM   14  C   UNL     2     -10.997  13.911  68.600  1.00  0.00    -0.261 C  
HETATM   15  H   UNL     2     -12.285  13.043  69.822  1.00  0.00     0.000 HD 
HETATM   16  O   UNL     2     -11.737  13.819  69.842  1.00  0.00    -0.284 OA 
BRANCH  14  17
HETATM   17  C   UNL     2     -10.241  12.600  68.413  1.00  0.00    -0.232 C  
HETATM   18  C   UNL     2     -10.648  11.885  67.111  1.00  0.00    -0.231 C  
HETATM   19  H   UNL     2     -10.086  10.915  69.421  1.00  0.00     0.000 HD 
HETATM   20  O   UNL     2     -10.557  11.732  69.538  1.00  0.00    -0.017 OA 
HETATM   21  O   UNL     2     -11.746  11.197  67.163  1.00  0.00    -0.501 OA 
HETATM   22  O   UNL     2      -9.841  11.692  66.206  1.00  0.00    -0.207 OA 
ENDBRANCH  14  17
ENDBRANCH  11  14
ENDBRANCH   2  11
BRANCH   3  23
HETATM   23  C   UNL     3     -10.175   7.655  69.152  1.00  0.00    -0.203 C  
HETATM   24  O   UNL     3     -11.047   8.702  68.708  1.00  0.00    -0.434 OA 
HETATM   25  H   UNL     3     -10.766   8.967  67.839  1.00  0.00     0.000 HD 
BRANCH  23  26
HETATM   26  C   UNL     3      -8.717   8.133  68.964  1.00  0.00    -0.144 C  
HETATM   27  O   UNL     3      -8.695   9.387  68.261  1.00  0.00    -0.124 OA 
HETATM   28  H   UNL     3      -7.799   9.681  68.146  1.00  0.00     0.000 HD 
BRANCH  26  29
HETATM   29  C   UNL     3      -7.967   7.071  68.128  1.00  0.00    -0.119 C  
HETATM   30  C   UNL     3      -6.543   6.686  68.602  1.00  0.00    -0.051 C  
HETATM   31  O   UNL     3      -7.868   7.504  66.728  1.00  0.00    -0.106 OA 
HETATM   32  O   UNL     3      -6.339   6.442  69.803  1.00  0.00    -0.035 OA 
HETATM   33  O   UNL     3      -5.715   6.658  67.592  1.00  0.00    -0.014 OA 
HETATM   34  H   UNL     3      -7.407   6.851  66.214  1.00  0.00     0.000 HD 
ENDBRANCH  26  29
ENDBRANCH  23  26
ENDBRANCH   3  23
BRANCH   3  35
HETATM   35  C   UNL     3     -10.002   8.000  71.708  1.00  0.00    -0.187 C  
HETATM   36  O   UNL     3     -10.423   9.364  71.597  1.00  0.00    -0.325 OA 
HETATM   37  H   UNL     3     -10.035   9.842  72.320  1.00  0.00     0.000 HD 
ENDBRANCH   3  35
TORSDOF 8
ENDMDL
MODEL      188
REMARK 921   NORMALIZED FREE ENERGY PREDICTED BY IDOCK:   -4.13 KCAL/MOL
REMARK 922        TOTAL FREE ENERGY PREDICTED BY IDOCK:   -8.17 KCAL/MOL
REMARK 923 INTER-LIGAND FREE ENERGY PREDICTED BY IDOCK:   -6.94 KCAL/MOL
REMARK 924 INTRA-LIGAND FREE ENERGY PREDICTED BY IDOCK:   -1.22 KCAL/MOL
REMARK 927      BINDING AFFINITY PREDICTED BY RF-SCORE:    0.00 PKD
ROOT
HETATM    1 FE   UNL     1     -11.966   6.368  66.430  1.00  0.00    -0.535 Fe 
HETATM    2  C   UNL     2     -11.124  13.103  66.095  1.00  0.00    -0.282 C  
HETATM    3  C   UNL     3      -8.676   5.994  71.865  1.00  0.00    -0.137 C  
HETATM    4  H   UNL     3      -9.871   6.681  73.242  1.00  0.00     0.000 HD 
HETATM    5  H   UNL     2     -12.859  12.288  66.572  1.00  0.00     0.000 HD 
HETATM    6  O   UNL     2     -12.500  12.793  65.852  1.00  0.00    -0.560 OA 
HETATM    7  O   UNL     3      -9.064   6.984  72.844  1.00  0.00    -0.132 OA 
ENDROOT
BRANCH   2   8
HETATM    8  C   UNL     2     -10.545  13.918  64.935  1.00  0.00    -0.419 C  
HETATM    9  H   UNL     2      -9.574  15.627  64.681  1.00  0.00     0.000 HD 
HETATM   10  O   UNL     2      -9.933  15.122  65.400  1.00  0.00    -0.344 OA 
ENDBRANCH   2   8
BRANCH   2  11
HETATM   11  C   UNL     2     -10.336  11.805  66.352  1.00  0.00    -0.222 C  
HETATM   12  H   UNL     2     -10.725   9.939  66.907  1.00  0.00     0.000 HD 
HETATM   13  O   UNL     2     -11.211  10.739  66.749  1.00  0.00    -0.217 OA 
BRANCH  11  14
HETATM   14  C   UNL     2      -9.565  11.396  65.084  1.00  0.00    -0.229 C  
HETATM   15  H   UNL     2      -9.989  10.454  63.400  1.00  0.00     0.000 HD 
HETATM   16  O   UNL     2     -10.465  10.706  64.183  1.00  0.00    -0.336 OA 
BRANCH  14  17
HETATM   17  C   UNL     2      -8.368  10.484  65.331  1.00  0.00    -0.165 C  
HETATM   18  C   UNL     2      -8.718   9.003  65.092  1.00  0.00    -0.189 C  
HETATM   19  H   UNL     2      -7.209  10.078  66.871  1.00  0.00     0.000 HD 
HETATM   20  O   UNL     2      -7.955  10.646  66.717  1.00  0.00    -0.123 OA 
HETATM   21  O   UNL     2      -9.325   8.401  66.066  1.00  0.00    -0.209 OA 
HETATM   22  O   UNL     2      -8.171   8.349  64.208  1.00  0.00    -0.159 OA 
ENDBRANCH  14  17
ENDBRANCH  11  14
ENDBRANCH   2  11
BRANCH   3  23
HETATM   23  C   UNL     3      -9.862   5.837  70.920  1.00  0.00    -0.179 C  
HETATM   24  O   UNL     3     -10.643   4.724  71.375  1.00  0.00    -0.113 OA 
HETATM   25  H   UNL     3     -11.381   4.627  70.785  1.00  0.00     0.000 HD 
BRANCH  23  26
HETATM   26  C   UNL     3     -10.811   7.041  70.724  1.00  0.00    -0.246 C  
HETATM   27  O   UNL     3     -12.050   6.603  70.143  1.00  0.00    -0.610 OA 
HETATM   28  H   UNL     3     -12.634   7.343  70.022  1.00  0.00     0.000 HD 
BRANCH  26  29
HETATM   29  C   UNL     3     -10.127   8.041  69.764  1.00  0.00    -0.196 C  
HETATM   30  C   UNL     3      -9.722   9.414  70.356  1.00  0.00    -0.261 C  
HETATM   31  O   UNL     3     -10.986   8.295  68.599  1.00  0.00    -0.424 OA 
HETATM   32  O   UNL     3      -9.128   9.463  71.446  1.00  0.00    -0.285 OA 
HETATM   33  O   UNL     3     -10.077  10.383  69.554  1.00  0.00    -0.229 OA 
HETATM   34  H   UNL     3     -10.565   8.909  68.009  1.00  0.00     0.000 HD 
ENDBRANCH  26  29
ENDBRANCH  23  26
ENDBRANCH   3  23
BRANCH   3  35
HETATM   35  C   UNL     3      -7.377   6.482  71.225  1.00  0.00    -0.080 C  
HETATM   36  O   UNL     3      -7.233   5.804  69.973  1.00  0.00    -0.065 OA 
HETATM   37  H   UNL     3      -6.425   6.108  69.575  1.00  0.00     0.000 HD 
ENDBRANCH   3  35
TORSDOF 8
ENDMDL
MODEL      189
REMARK 921   NORMALIZED FREE ENERGY PREDICTED BY IDOCK:   -4.12 KCAL/MOL
REMARK 922        TOTAL FREE ENERGY PREDICTED BY IDOCK:   -8.15 KCAL/MOL
REMARK 923 INTER-LIGAND FREE ENERGY PREDICTED BY IDOCK:   -6.25 KCAL/MOL
REMARK 924 INTRA-LIGAND FREE ENERGY PREDICTED BY IDOCK:   -1.90 KCAL/MOL
REMARK 927      BINDING AFFINITY PREDICTED BY RF-SCORE:    0.00 PKD
ROOT
HETATM    1 FE   UNL     1      -6.061  13.678  69.719  1.00  0.00    -0.083 Fe 
HETATM    2  C   UNL     2     -10.165  18.201  66.736  1.00  0.00    -0.372 C  
HETATM    3  C   UNL     3     -10.310   8.996  68.991  1.00  0.00    -0.219 C  
HETATM    4  H   UNL     3     -10.235   8.518  67.104  1.00  0.00     0.000 HD 
HETATM    5  H   UNL     2      -8.561  17.486  65.831  1.00  0.00     0.000 HD 
HETATM    6  O   UNL     2      -8.854  18.321  66.176  1.00  0.00    -0.464 OA 
HETATM    7  O   UNL     3     -10.879   8.934  67.665  1.00  0.00    -0.205 OA 
ENDROOT
BRANCH   2   8
HETATM    8  C   UNL     2     -10.637  19.546  67.293  1.00  0.00    -0.490 C  
HETATM    9  H   UNL     2      -9.959  20.948  68.519  1.00  0.00     0.000 HD 
HETATM   10  O   UNL     2      -9.666  20.113  68.174  1.00  0.00    -0.355 OA 
ENDBRANCH   2   8
BRANCH   2  11
HETATM   11  C   UNL     2     -10.175  17.088  67.802  1.00  0.00    -0.312 C  
HETATM   12  H   UNL     2     -11.464  15.762  68.525  1.00  0.00     0.000 HD 
HETATM   13  O   UNL     2     -11.458  16.448  67.869  1.00  0.00    -0.177 OA 
BRANCH  11  14
HETATM   14  C   UNL     2      -9.091  16.043  67.485  1.00  0.00    -0.199 C  
HETATM   15  H   UNL     2      -9.004  14.074  67.352  1.00  0.00     0.000 HD 
HETATM   16  O   UNL     2      -9.674  14.719  67.548  1.00  0.00    -0.211 OA 
BRANCH  14  17
HETATM   17  C   UNL     2      -7.889  16.066  68.423  1.00  0.00    -0.149 C  
HETATM   18  C   UNL     2      -6.565  15.871  67.662  1.00  0.00    -0.172 C  
HETATM   19  H   UNL     2      -7.292  14.991  69.962  1.00  0.00     0.000 HD 
HETATM   20  O   UNL     2      -8.040  14.977  69.377  1.00  0.00    -0.194 OA 
HETATM   21  O   UNL     2      -6.257  14.647  67.364  1.00  0.00    -0.332 OA 
HETATM   22  O   UNL     2      -5.703  16.746  67.639  1.00  0.00    -0.125 OA 
ENDBRANCH  14  17
ENDBRANCH  11  14
ENDBRANCH   2  11
BRANCH   3  23
HETATM   23  C   UNL     3      -8.980   9.728  68.854  1.00  0.00    -0.144 C  
HETATM   24  O   UNL     3      -9.210  11.115  69.135  1.00  0.00    -0.378 OA 
HETATM   25  H   UNL     3      -8.381  11.571  69.049  1.00  0.00     0.000 HD 
BRANCH  23  26
HETATM   26  C   UNL     3      -7.787   9.256  69.716  1.00  0.00    -0.100 C  
HETATM   27  O   UNL     3      -7.304  10.340  70.527  1.00  0.00    -0.410 OA 
HETATM   28  H   UNL     3      -6.571  10.049  71.057  1.00  0.00     0.000 HD 
BRANCH  26  29
HETATM   29  C   UNL     3      -6.659   8.795  68.764  1.00  0.00    -0.054 C  
HETATM   30  C   UNL     3      -6.083   9.858  67.796  1.00  0.00    -0.054 C  
HETATM   31  O   UNL     3      -7.113   7.656  67.954  1.00  0.00    -0.080 OA 
HETATM   32  O   UNL     3      -5.782  10.985  68.228  1.00  0.00    -0.043 OA 
HETATM   33  O   UNL     3      -5.975   9.370  66.589  1.00  0.00    -0.057 OA 
HETATM   34  H   UNL     3      -6.420   7.373  67.369  1.00  0.00     0.000 HD 
ENDBRANCH  26  29
ENDBRANCH  23  26
ENDBRANCH   3  23
BRANCH   3  35
HETATM   35  C   UNL     3     -11.346   9.666  69.893  1.00  0.00    -0.159 C  
HETATM   36  O   UNL     3     -12.184  10.473  69.059  1.00  0.00    -0.716 OA 
HETATM   37  H   UNL     3     -12.828  10.890  69.620  1.00  0.00     0.000 HD 
ENDBRANCH   3  35
TORSDOF 8
ENDMDL
MODEL      190
REMARK 921   NORMALIZED FREE ENERGY PREDICTED BY IDOCK:   -4.12 KCAL/MOL
REMARK 922        TOTAL FREE ENERGY PREDICTED BY IDOCK:   -8.15 KCAL/MOL
REMARK 923 INTER-LIGAND FREE ENERGY PREDICTED BY IDOCK:   -6.41 KCAL/MOL
REMARK 924 INTRA-LIGAND FREE ENERGY PREDICTED BY IDOCK:   -1.74 KCAL/MOL
REMARK 927      BINDING AFFINITY PREDICTED BY RF-SCORE:    0.00 PKD
ROOT
HETATM    1 FE   UNL     1     -13.077  10.058  69.753  1.00  0.00    -0.540 Fe 
HETATM    2  C   UNL     2     -10.153  15.632  67.191  1.00  0.00    -0.256 C  
HETATM    3  C   UNL     3      -7.565   8.001  72.182  1.00  0.00    -0.104 C  
HETATM    4  H   UNL     3      -7.240   9.117  73.746  1.00  0.00     0.000 HD 
HETATM    5  H   UNL     2     -11.334  15.703  68.773  1.00  0.00     0.000 HD 
HETATM    6  O   UNL     2     -11.353  16.008  67.873  1.00  0.00    -0.314 OA 
HETATM    7  O   UNL     3      -6.831   9.023  72.893  1.00  0.00    -0.325 OA 
ENDROOT
BRANCH   2   8
HETATM    8  C   UNL     2     -10.185  16.123  65.741  1.00  0.00    -0.374 C  
HETATM    9  H   UNL     2      -9.404  17.599  64.672  1.00  0.00     0.000 HD 
HETATM   10  O   UNL     2      -9.385  17.295  65.572  1.00  0.00    -0.383 OA 
ENDBRANCH   2   8
BRANCH   2  11
HETATM   11  C   UNL     2      -9.953  14.107  67.289  1.00  0.00    -0.249 C  
HETATM   12  H   UNL     2      -8.455  12.813  67.149  1.00  0.00     0.000 HD 
HETATM   13  O   UNL     2      -8.578  13.753  67.087  1.00  0.00    -0.206 OA 
BRANCH  11  14
HETATM   14  C   UNL     2     -10.421  13.603  68.666  1.00  0.00    -0.234 C  
HETATM   15  H   UNL     2     -10.011  12.063  69.835  1.00  0.00     0.000 HD 
HETATM   16  O   UNL     2      -9.721  12.375  68.985  1.00  0.00     0.089 OA 
BRANCH  14  17
HETATM   17  C   UNL     2     -11.917  13.323  68.768  1.00  0.00    -0.300 C  
HETATM   18  C   UNL     2     -12.404  13.341  70.229  1.00  0.00    -0.264 C  
HETATM   19  H   UNL     2     -13.101  11.829  68.274  1.00  0.00     0.000 HD 
HETATM   20  O   UNL     2     -12.169  12.003  68.210  1.00  0.00    -0.398 OA 
HETATM   21  O   UNL     2     -12.196  12.255  70.908  1.00  0.00    -0.353 OA 
HETATM   22  O   UNL     2     -13.222  14.167  70.623  1.00  0.00    -0.254 OA 
ENDBRANCH  14  17
ENDBRANCH  11  14
ENDBRANCH   2  11
BRANCH   3  23
HETATM   23  C   UNL     3      -9.022   8.449  72.170  1.00  0.00    -0.223 C  
HETATM   24  O   UNL     3      -9.213   9.296  71.029  1.00  0.00    -0.246 OA 
HETATM   25  H   UNL     3     -10.121   9.575  71.023  1.00  0.00     0.000 HD 
BRANCH  23  26
HETATM   26  C   UNL     3     -10.125   7.366  72.154  1.00  0.00    -0.190 C  
HETATM   27  O   UNL     3      -9.564   6.096  71.779  1.00  0.00    -0.152 OA 
HETATM   28  H   UNL     3     -10.242   5.430  71.769  1.00  0.00     0.000 HD 
BRANCH  26  29
HETATM   29  C   UNL     3     -11.187   7.778  71.109  1.00  0.00    -0.264 C  
HETATM   30  C   UNL     3     -10.718   7.878  69.636  1.00  0.00    -0.218 C  
HETATM   31  O   UNL     3     -11.783   9.071  71.475  1.00  0.00    -0.296 OA 
HETATM   32  O   UNL     3     -10.033   6.964  69.145  1.00  0.00    -0.157 OA 
HETATM   33  O   UNL     3     -11.159   8.978  69.087  1.00  0.00    -0.074 OA 
HETATM   34  H   UNL     3     -12.436   9.324  70.833  1.00  0.00     0.000 HD 
ENDBRANCH  26  29
ENDBRANCH  23  26
ENDBRANCH   3  23
BRANCH   3  35
HETATM   35  C   UNL     3      -6.906   7.850  70.810  1.00  0.00    -0.041 C  
HETATM   36  O   UNL     3      -7.450   6.677  70.199  1.00  0.00    -0.089 OA 
HETATM   37  H   UNL     3      -7.041   6.583  69.346  1.00  0.00     0.000 HD 
ENDBRANCH   3  35
TORSDOF 8
ENDMDL
MODEL      191
REMARK 921   NORMALIZED FREE ENERGY PREDICTED BY IDOCK:   -4.10 KCAL/MOL
REMARK 922        TOTAL FREE ENERGY PREDICTED BY IDOCK:   -8.11 KCAL/MOL
REMARK 923 INTER-LIGAND FREE ENERGY PREDICTED BY IDOCK:   -7.47 KCAL/MOL
REMARK 924 INTRA-LIGAND FREE ENERGY PREDICTED BY IDOCK:   -0.64 KCAL/MOL
REMARK 927      BINDING AFFINITY PREDICTED BY RF-SCORE:    0.00 PKD
ROOT
HETATM    1 FE   UNL     1     -12.832  10.953  70.139  1.00  0.00    -0.292 Fe 
HETATM    2  C   UNL     2      -9.242  16.287  67.937  1.00  0.00    -0.201 C  
HETATM    3  C   UNL     3      -8.059   6.932  68.892  1.00  0.00    -0.120 C  
HETATM    4  H   UNL     3      -6.751   7.227  70.305  1.00  0.00     0.000 HD 
HETATM    5  H   UNL     2      -9.589  15.980  69.858  1.00  0.00     0.000 HD 
HETATM    6  O   UNL     2      -9.838  16.615  69.196  1.00  0.00    -0.263 OA 
HETATM    7  O   UNL     3      -6.776   7.393  69.370  1.00  0.00    -0.040 OA 
ENDROOT
BRANCH   2   8
HETATM    8  C   UNL     2      -9.644  17.310  66.871  1.00  0.00    -0.268 C  
HETATM    9  H   UNL     2     -11.101  18.619  66.566  1.00  0.00     0.000 HD 
HETATM   10  O   UNL     2     -10.852  17.984  67.228  1.00  0.00    -0.334 OA 
ENDBRANCH   2   8
BRANCH   2  11
HETATM   11  C   UNL     2      -9.621  14.847  67.541  1.00  0.00    -0.204 C  
HETATM   12  H   UNL     2     -10.046  13.138  68.457  1.00  0.00     0.000 HD 
HETATM   13  O   UNL     2      -9.812  14.025  68.702  1.00  0.00    -0.225 OA 
BRANCH  11  14
HETATM   14  C   UNL     2     -10.906  14.854  66.695  1.00  0.00    -0.319 C  
HETATM   15  H   UNL     2     -12.711  14.062  66.837  1.00  0.00     0.000 HD 
HETATM   16  O   UNL     2     -11.918  14.058  67.360  1.00  0.00    -0.388 OA 
BRANCH  14  17
HETATM   17  C   UNL     2     -10.743  14.307  65.281  1.00  0.00    -0.366 C  
HETATM   18  C   UNL     2     -12.102  14.024  64.615  1.00  0.00    -0.440 C  
HETATM   19  H   UNL     2      -9.894  12.719  64.481  1.00  0.00     0.000 HD 
HETATM   20  O   UNL     2      -9.997  13.060  65.362  1.00  0.00    -0.263 OA 
HETATM   21  O   UNL     2     -12.668  12.903  64.939  1.00  0.00    -0.637 OA 
HETATM   22  O   UNL     2     -12.462  14.628  63.609  1.00  0.00    -0.754 OA 
ENDBRANCH  14  17
ENDBRANCH  11  14
ENDBRANCH   2  11
BRANCH   3  23
HETATM   23  C   UNL     3      -9.112   7.657  69.721  1.00  0.00    -0.147 C  
HETATM   24  O   UNL     3      -8.737   7.551  71.100  1.00  0.00    -0.134 OA 
HETATM   25  H   UNL     3      -9.394   8.003  71.617  1.00  0.00     0.000 HD 
BRANCH  23  26
HETATM   26  C   UNL     3      -9.394   9.146  69.414  1.00  0.00    -0.160 C  
HETATM   27  O   UNL     3      -9.529   9.886  70.639  1.00  0.00    -0.335 OA 
HETATM   28  H   UNL     3      -9.702  10.801  70.451  1.00  0.00     0.000 HD 
BRANCH  26  29
HETATM   29  C   UNL     3     -10.720   9.231  68.623  1.00  0.00    -0.143 C  
HETATM   30  C   UNL     3     -10.951  10.511  67.781  1.00  0.00    -0.313 C  
HETATM   31  O   UNL     3     -11.864   9.085  69.534  1.00  0.00    -0.135 OA 
HETATM   32  O   UNL     3     -10.041  10.939  67.050  1.00  0.00    -0.192 OA 
HETATM   33  O   UNL     3     -12.160  10.970  67.966  1.00  0.00    -0.615 OA 
HETATM   34  H   UNL     3     -12.678   9.137  69.048  1.00  0.00     0.000 HD 
ENDBRANCH  26  29
ENDBRANCH  23  26
ENDBRANCH   3  23
BRANCH   3  35
HETATM   35  C   UNL     3      -8.099   7.199  67.387  1.00  0.00    -0.112 C  
HETATM   36  O   UNL     3      -7.197   6.280  66.763  1.00  0.00    -0.071 OA 
HETATM   37  H   UNL     3      -7.222   6.446  65.827  1.00  0.00     0.000 HD 
ENDBRANCH   3  35
TORSDOF 8
ENDMDL
MODEL      192
REMARK 921   NORMALIZED FREE ENERGY PREDICTED BY IDOCK:   -4.08 KCAL/MOL
REMARK 922        TOTAL FREE ENERGY PREDICTED BY IDOCK:   -8.09 KCAL/MOL
REMARK 923 INTER-LIGAND FREE ENERGY PREDICTED BY IDOCK:   -6.84 KCAL/MOL
REMARK 924 INTRA-LIGAND FREE ENERGY PREDICTED BY IDOCK:   -1.25 KCAL/MOL
REMARK 927      BINDING AFFINITY PREDICTED BY RF-SCORE:    0.00 PKD
ROOT
HETATM    1 FE   UNL     1     -12.592  12.372  65.612  1.00  0.00    -0.414 Fe 
HETATM    2  C   UNL     2     -12.418  14.881  71.926  1.00  0.00    -0.333 C  
HETATM    3  C   UNL     3      -8.705   7.577  67.162  1.00  0.00    -0.121 C  
HETATM    4  H   UNL     3      -9.801   6.333  68.186  1.00  0.00     0.000 HD 
HETATM    5  H   UNL     2     -14.007  13.949  71.213  1.00  0.00     0.000 HD 
HETATM    6  O   UNL     2     -13.777  14.831  71.482  1.00  0.00    -0.377 OA 
HETATM    7  O   UNL     3      -9.073   6.910  68.390  1.00  0.00    -0.128 OA 
ENDROOT
BRANCH   2   8
HETATM    8  C   UNL     2     -12.047  16.302  72.358  1.00  0.00    -0.513 C  
HETATM    9  H   UNL     2     -11.910  17.336  74.044  1.00  0.00     0.000 HD 
HETATM   10  O   UNL     2     -12.141  16.455  73.776  1.00  0.00    -0.464 OA 
ENDBRANCH   2   8
BRANCH   2  11
HETATM   11  C   UNL     2     -11.489  14.343  70.820  1.00  0.00    -0.086 C  
HETATM   12  H   UNL     2     -11.619  13.115  69.265  1.00  0.00     0.000 HD 
HETATM   13  O   UNL     2     -12.191  13.446  69.947  1.00  0.00    -0.314 OA 
BRANCH  11  14
HETATM   14  C   UNL     2     -10.909  15.511  70.004  1.00  0.00    -0.318 C  
HETATM   15  H   UNL     2     -11.621  16.877  68.765  1.00  0.00     0.000 HD 
HETATM   16  O   UNL     2     -11.979  16.155  69.269  1.00  0.00    -0.264 OA 
BRANCH  14  17
HETATM   17  C   UNL     2      -9.831  15.116  69.000  1.00  0.00    -0.238 C  
HETATM   18  C   UNL     2      -8.429  15.554  69.463  1.00  0.00    -0.211 C  
HETATM   19  H   UNL     2      -9.457  15.525  67.110  1.00  0.00     0.000 HD 
HETATM   20  O   UNL     2     -10.129  15.771  67.735  1.00  0.00    -0.233 OA 
HETATM   21  O   UNL     2      -8.122  16.794  69.242  1.00  0.00    -0.167 OA 
HETATM   22  O   UNL     2      -7.548  14.734  69.704  1.00  0.00    -0.143 OA 
ENDBRANCH  14  17
ENDBRANCH  11  14
ENDBRANCH   2  11
BRANCH   3  23
HETATM   23  C   UNL     3      -9.968   8.260  66.650  1.00  0.00    -0.278 C  
HETATM   24  O   UNL     3     -11.090   7.453  67.029  1.00  0.00    -0.522 OA 
HETATM   25  H   UNL     3     -11.876   7.880  66.710  1.00  0.00     0.000 HD 
BRANCH  23  26
HETATM   26  C   UNL     3     -10.250   9.714  67.094  1.00  0.00    -0.243 C  
HETATM   27  O   UNL     3     -11.631   9.857  67.465  1.00  0.00    -0.394 OA 
HETATM   28  H   UNL     3     -11.805  10.750  67.739  1.00  0.00     0.000 HD 
BRANCH  26  29
HETATM   29  C   UNL     3      -9.946  10.649  65.901  1.00  0.00    -0.255 C  
HETATM   30  C   UNL     3      -9.459  12.079  66.240  1.00  0.00    -0.229 C  
HETATM   31  O   UNL     3     -11.132  10.775  65.042  1.00  0.00     0.012 OA 
HETATM   32  O   UNL     3      -8.565  12.240  67.089  1.00  0.00    -0.174 OA 
HETATM   33  O   UNL     3     -10.094  12.964  65.519  1.00  0.00    -0.278 OA 
HETATM   34  H   UNL     3     -10.945  11.350  64.308  1.00  0.00     0.000 HD 
ENDBRANCH  26  29
ENDBRANCH  23  26
ENDBRANCH   3  23
BRANCH   3  35
HETATM   35  C   UNL     3      -7.534   8.504  67.489  1.00  0.00    -0.093 C  
HETATM   36  O   UNL     3      -6.628   8.459  66.383  1.00  0.00    -0.057 OA 
HETATM   37  H   UNL     3      -5.900   9.036  66.587  1.00  0.00     0.000 HD 
ENDBRANCH   3  35
TORSDOF 8
ENDMDL
MODEL      193
REMARK 921   NORMALIZED FREE ENERGY PREDICTED BY IDOCK:   -4.08 KCAL/MOL
REMARK 922        TOTAL FREE ENERGY PREDICTED BY IDOCK:   -8.08 KCAL/MOL
REMARK 923 INTER-LIGAND FREE ENERGY PREDICTED BY IDOCK:   -6.21 KCAL/MOL
REMARK 924 INTRA-LIGAND FREE ENERGY PREDICTED BY IDOCK:   -1.87 KCAL/MOL
REMARK 927      BINDING AFFINITY PREDICTED BY RF-SCORE:    0.00 PKD
ROOT
HETATM    1 FE   UNL     1     -11.277  10.433  66.386  1.00  0.00    -0.210 Fe 
HETATM    2  C   UNL     2      -5.494   9.570  69.849  1.00  0.00    -0.032 C  
HETATM    3  C   UNL     3     -10.548  16.755  66.290  1.00  0.00    -0.190 C  
HETATM    4  H   UNL     3      -9.158  17.096  64.968  1.00  0.00     0.000 HD 
HETATM    5  H   UNL     2      -5.645   9.113  67.933  1.00  0.00     0.000 HD 
HETATM    6  O   UNL     2      -5.522   8.650  68.753  1.00  0.00    -0.035 OA 
HETATM    7  O   UNL     3      -9.218  17.177  65.912  1.00  0.00    -0.506 OA 
ENDROOT
BRANCH   2   8
HETATM    8  C   UNL     2      -5.297   8.823  71.171  1.00  0.00    -0.033 C  
HETATM    9  H   UNL     2      -5.860   9.010  73.063  1.00  0.00     0.000 HD 
HETATM   10  O   UNL     2      -5.982   9.474  72.243  1.00  0.00    -0.277 OA 
ENDBRANCH   2   8
BRANCH   2  11
HETATM   11  C   UNL     2      -6.776  10.426  69.844  1.00  0.00    -0.134 C  
HETATM   12  H   UNL     2      -7.284  12.307  70.225  1.00  0.00     0.000 HD 
HETATM   13  O   UNL     2      -6.494  11.779  70.228  1.00  0.00    -0.155 OA 
BRANCH  11  14
HETATM   14  C   UNL     2      -7.415  10.408  68.445  1.00  0.00    -0.091 C  
HETATM   15  H   UNL     2      -7.803  11.739  67.037  1.00  0.00     0.000 HD 
HETATM   16  O   UNL     2      -7.408  11.750  67.901  1.00  0.00    -0.087 OA 
BRANCH  14  17
HETATM   17  C   UNL     2      -8.854   9.901  68.407  1.00  0.00    -0.120 C  
HETATM   18  C   UNL     2      -8.921   8.364  68.468  1.00  0.00    -0.136 C  
HETATM   19  H   UNL     2     -10.352  10.028  67.135  1.00  0.00     0.000 HD 
HETATM   20  O   UNL     2      -9.456  10.343  67.158  1.00  0.00    -0.156 OA 
HETATM   21  O   UNL     2      -8.717   7.743  67.348  1.00  0.00    -0.127 OA 
HETATM   22  O   UNL     2      -9.459   7.782  69.406  1.00  0.00    -0.156 OA 
ENDBRANCH  14  17
ENDBRANCH  11  14
ENDBRANCH   2  11
BRANCH   3  23
HETATM   23  C   UNL     3     -10.725  15.347  65.735  1.00  0.00    -0.351 C  
HETATM   24  O   UNL     3      -9.901  15.227  64.568  1.00  0.00    -0.278 OA 
HETATM   25  H   UNL     3     -10.013  14.349  64.221  1.00  0.00     0.000 HD 
BRANCH  23  26
HETATM   26  C   UNL     3     -10.423  14.146  66.660  1.00  0.00    -0.278 C  
HETATM   27  O   UNL     3      -9.562  13.211  65.990  1.00  0.00    -0.387 OA 
HETATM   28  H   UNL     3      -9.376  12.473  66.559  1.00  0.00     0.000 HD 
BRANCH  26  29
HETATM   29  C   UNL     3     -11.762  13.451  66.997  1.00  0.00    -0.381 C  
HETATM   30  C   UNL     3     -11.826  12.665  68.331  1.00  0.00    -0.301 C  
HETATM   31  O   UNL     3     -12.139  12.527  65.919  1.00  0.00    -0.537 OA 
HETATM   32  O   UNL     3     -11.392  13.185  69.373  1.00  0.00    -0.258 OA 
HETATM   33  O   UNL     3     -12.381  11.496  68.150  1.00  0.00    -0.473 OA 
HETATM   34  H   UNL     3     -12.962  12.099  66.126  1.00  0.00     0.000 HD 
ENDBRANCH  26  29
ENDBRANCH  23  26
ENDBRANCH   3  23
BRANCH   3  35
HETATM   35  C   UNL     3     -10.644  16.886  67.810  1.00  0.00    -0.340 C  
HETATM   36  O   UNL     3     -11.120  18.204  68.100  1.00  0.00    -0.180 OA 
HETATM   37  H   UNL     3     -11.179  18.285  69.045  1.00  0.00     0.000 HD 
ENDBRANCH   3  35
TORSDOF 8
ENDMDL
MODEL      194
REMARK 921   NORMALIZED FREE ENERGY PREDICTED BY IDOCK:   -4.07 KCAL/MOL
REMARK 922        TOTAL FREE ENERGY PREDICTED BY IDOCK:   -8.06 KCAL/MOL
REMARK 923 INTER-LIGAND FREE ENERGY PREDICTED BY IDOCK:   -6.05 KCAL/MOL
REMARK 924 INTRA-LIGAND FREE ENERGY PREDICTED BY IDOCK:   -2.02 KCAL/MOL
REMARK 927      BINDING AFFINITY PREDICTED BY RF-SCORE:    0.00 PKD
ROOT
HETATM    1 FE   UNL     1      -7.313   9.085  68.056  1.00  0.00    -0.073 Fe 
HETATM    2  C   UNL     2     -10.627   6.282  73.286  1.00  0.00    -0.262 C  
HETATM    3  C   UNL     3     -10.734  14.437  68.456  1.00  0.00    -0.253 C  
HETATM    4  H   UNL     3     -10.036  15.383  70.010  1.00  0.00     0.000 HD 
HETATM    5  H   UNL     2      -8.769   6.933  73.452  1.00  0.00     0.000 HD 
HETATM    6  O   UNL     2      -9.220   6.097  73.473  1.00  0.00    -0.131 OA 
HETATM    7  O   UNL     3     -10.854  14.946  69.803  1.00  0.00    -0.257 OA 
ENDROOT
BRANCH   2   8
HETATM    8  C   UNL     2     -11.355   4.936  73.320  1.00  0.00    -0.327 C  
HETATM    9  H   UNL     2     -10.886   3.015  73.464  1.00  0.00     0.000 HD 
HETATM   10  O   UNL     2     -10.434   3.851  73.443  1.00  0.00    -0.148 OA 
ENDBRANCH   2   8
BRANCH   2  11
HETATM   11  C   UNL     2     -10.881   7.054  71.977  1.00  0.00    -0.223 C  
HETATM   12  H   UNL     2     -12.117   8.463  71.322  1.00  0.00     0.000 HD 
HETATM   13  O   UNL     2     -11.961   7.987  72.128  1.00  0.00    -0.312 OA 
BRANCH  11  14
HETATM   14  C   UNL     2      -9.606   7.803  71.550  1.00  0.00    -0.155 C  
HETATM   15  H   UNL     2      -8.583   9.363  72.202  1.00  0.00     0.000 HD 
HETATM   16  O   UNL     2      -9.371   8.901  72.466  1.00  0.00    -0.308 OA 
BRANCH  14  17
HETATM   17  C   UNL     2      -9.646   8.378  70.138  1.00  0.00    -0.165 C  
HETATM   18  C   UNL     2      -9.370   7.300  69.073  1.00  0.00    -0.148 C  
HETATM   19  H   UNL     2      -8.642   9.762  69.159  1.00  0.00     0.000 HD 
HETATM   20  O   UNL     2      -8.618   9.403  70.039  1.00  0.00    -0.163 OA 
HETATM   21  O   UNL     2      -8.122   7.007  68.875  1.00  0.00    -0.118 OA 
HETATM   22  O   UNL     2     -10.216   6.991  68.239  1.00  0.00    -0.167 OA 
ENDBRANCH  14  17
ENDBRANCH  11  14
ENDBRANCH   2  11
BRANCH   3  23
HETATM   23  C   UNL     3      -9.491  13.555  68.439  1.00  0.00    -0.185 C  
HETATM   24  O   UNL     3      -9.885  12.231  68.821  1.00  0.00    -0.387 OA 
HETATM   25  H   UNL     3      -9.110  11.682  68.811  1.00  0.00     0.000 HD 
BRANCH  23  26
HETATM   26  C   UNL     3      -8.677  13.454  67.129  1.00  0.00    -0.215 C  
HETATM   27  O   UNL     3      -9.219  14.347  66.141  1.00  0.00    -0.473 OA 
HETATM   28  H   UNL     3      -8.719  14.285  65.336  1.00  0.00     0.000 HD 
BRANCH  26  29
HETATM   29  C   UNL     3      -8.781  12.002  66.609  1.00  0.00    -0.171 C  
HETATM   30  C   UNL     3      -7.459  11.202  66.499  1.00  0.00    -0.131 C  
HETATM   31  O   UNL     3      -9.425  11.981  65.289  1.00  0.00    -0.404 OA 
HETATM   32  O   UNL     3      -6.652  11.213  67.444  1.00  0.00    -0.066 OA 
HETATM   33  O   UNL     3      -7.395  10.577  65.353  1.00  0.00    -0.142 OA 
HETATM   34  H   UNL     3      -9.490  11.088  64.970  1.00  0.00     0.000 HD 
ENDBRANCH  26  29
ENDBRANCH  23  26
ENDBRANCH   3  23
BRANCH   3  35
HETATM   35  C   UNL     3     -12.051  13.734  68.124  1.00  0.00    -0.281 C  
HETATM   36  O   UNL     3     -11.942  13.223  66.792  1.00  0.00    -0.382 OA 
HETATM   37  H   UNL     3     -12.760  12.786  66.586  1.00  0.00     0.000 HD 
ENDBRANCH   3  35
TORSDOF 8
ENDMDL
MODEL      195
REMARK 921   NORMALIZED FREE ENERGY PREDICTED BY IDOCK:   -4.06 KCAL/MOL
REMARK 922        TOTAL FREE ENERGY PREDICTED BY IDOCK:   -8.06 KCAL/MOL
REMARK 923 INTER-LIGAND FREE ENERGY PREDICTED BY IDOCK:   -6.36 KCAL/MOL
REMARK 924 INTRA-LIGAND FREE ENERGY PREDICTED BY IDOCK:   -1.69 KCAL/MOL
REMARK 927      BINDING AFFINITY PREDICTED BY RF-SCORE:    0.00 PKD
ROOT
HETATM    1 FE   UNL     1     -10.660   6.842  65.888  1.00  0.00    -0.452 Fe 
HETATM    2  C   UNL     2      -7.930   6.155  72.074  1.00  0.00    -0.106 C  
HETATM    3  C   UNL     3     -10.697  13.190  66.356  1.00  0.00    -0.284 C  
HETATM    4  H   UNL     3      -8.843  13.737  66.110  1.00  0.00     0.000 HD 
HETATM    5  H   UNL     2      -6.884   5.839  70.428  1.00  0.00     0.000 HD 
HETATM    6  O   UNL     2      -7.214   5.324  71.155  1.00  0.00    -0.068 OA 
HETATM    7  O   UNL     3      -9.451  13.740  66.840  1.00  0.00    -0.244 OA 
ENDROOT
BRANCH   2   8
HETATM    8  C   UNL     2      -8.462   5.324  73.245  1.00  0.00    -0.117 C  
HETATM    9  H   UNL     2      -8.401   5.369  75.226  1.00  0.00     0.000 HD 
HETATM   10  O   UNL     2      -8.070   5.884  74.499  1.00  0.00    -0.108 OA 
ENDBRANCH   2   8
BRANCH   2  11
HETATM   11  C   UNL     2      -9.051   6.908  71.332  1.00  0.00    -0.148 C  
HETATM   12  H   UNL     2      -9.249   7.971  69.666  1.00  0.00     0.000 HD 
HETATM   13  O   UNL     2      -8.558   7.507  70.124  1.00  0.00    -0.138 OA 
BRANCH  11  14
HETATM   14  C   UNL     2     -10.203   5.945  70.999  1.00  0.00    -0.211 C  
HETATM   15  H   UNL     2     -11.048   5.246  69.355  1.00  0.00     0.000 HD 
HETATM   16  O   UNL     2     -10.336   5.841  69.560  1.00  0.00    -0.212 OA 
BRANCH  14  17
HETATM   17  C   UNL     2     -11.560   6.355  71.561  1.00  0.00    -0.310 C  
HETATM   18  C   UNL     2     -11.634   7.869  71.831  1.00  0.00    -0.292 C  
HETATM   19  H   UNL     2     -12.607   5.904  73.168  1.00  0.00     0.000 HD 
HETATM   20  O   UNL     2     -11.761   5.648  72.817  1.00  0.00    -0.283 OA 
HETATM   21  O   UNL     2     -11.098   8.273  72.941  1.00  0.00    -0.332 OA 
HETATM   22  O   UNL     2     -12.426   8.590  71.231  1.00  0.00    -0.305 OA 
ENDBRANCH  14  17
ENDBRANCH  11  14
ENDBRANCH   2  11
BRANCH   3  23
HETATM   23  C   UNL     3     -10.364  11.819  65.777  1.00  0.00    -0.253 C  
HETATM   24  O   UNL     3     -10.490  11.902  64.351  1.00  0.00    -0.273 OA 
HETATM   25  H   UNL     3     -10.283  11.048  63.990  1.00  0.00     0.000 HD 
BRANCH  23  26
HETATM   26  C   UNL     3      -8.987  11.197  66.101  1.00  0.00    -0.195 C  
HETATM   27  O   UNL     3      -8.123  11.285  64.955  1.00  0.00    -0.325 OA 
HETATM   28  H   UNL     3      -7.276  10.902  65.155  1.00  0.00     0.000 HD 
BRANCH  26  29
HETATM   29  C   UNL     3      -9.204   9.709  66.458  1.00  0.00    -0.158 C  
HETATM   30  C   UNL     3      -8.043   8.735  66.136  1.00  0.00    -0.107 C  
HETATM   31  O   UNL     3     -10.410   9.198  65.792  1.00  0.00    -0.266 OA 
HETATM   32  O   UNL     3      -6.880   9.039  66.453  1.00  0.00    -0.076 OA 
HETATM   33  O   UNL     3      -8.496   7.657  65.554  1.00  0.00    -0.137 OA 
HETATM   34  H   UNL     3     -10.544   8.284  66.012  1.00  0.00     0.000 HD 
ENDBRANCH  26  29
ENDBRANCH  23  26
ENDBRANCH   3  23
BRANCH   3  35
HETATM   35  C   UNL     3     -11.674  13.193  67.531  1.00  0.00    -0.366 C  
HETATM   36  O   UNL     3     -12.086  11.841  67.753  1.00  0.00    -0.595 OA 
HETATM   37  H   UNL     3     -12.694  11.843  68.483  1.00  0.00     0.000 HD 
ENDBRANCH   3  35
TORSDOF 8
ENDMDL
MODEL      196
REMARK 921   NORMALIZED FREE ENERGY PREDICTED BY IDOCK:   -4.05 KCAL/MOL
REMARK 922        TOTAL FREE ENERGY PREDICTED BY IDOCK:   -8.05 KCAL/MOL
REMARK 923 INTER-LIGAND FREE ENERGY PREDICTED BY IDOCK:   -6.52 KCAL/MOL
REMARK 924 INTRA-LIGAND FREE ENERGY PREDICTED BY IDOCK:   -1.53 KCAL/MOL
REMARK 927      BINDING AFFINITY PREDICTED BY RF-SCORE:    0.00 PKD
ROOT
HETATM    1 FE   UNL     1     -12.161  18.978  68.177  1.00  0.00     0.205 Fe 
HETATM    2  C   UNL     2     -12.099  13.578  64.050  1.00  0.00    -0.441 C  
HETATM    3  C   UNL     3      -5.910  18.502  69.274  1.00  0.00    -0.233 C  
HETATM    4  H   UNL     3      -5.049  19.163  67.656  1.00  0.00     0.000 HD 
HETATM    5  H   UNL     2     -12.287  15.420  63.361  1.00  0.00     0.000 HD 
HETATM    6  O   UNL     2     -12.824  14.638  63.419  1.00  0.00    -0.401 OA 
HETATM    7  O   UNL     3      -5.126  18.313  68.075  1.00  0.00    -0.160 OA 
ENDROOT
BRANCH   2   8
HETATM    8  C   UNL     2     -12.964  12.318  64.144  1.00  0.00    -0.169 C  
HETATM    9  H   UNL     2     -13.726  10.964  62.913  1.00  0.00     0.000 HD 
HETATM   10  O   UNL     2     -13.190  11.746  62.855  1.00  0.00    -0.357 OA 
ENDBRANCH   2   8
BRANCH   2  11
HETATM   11  C   UNL     2     -11.589  14.044  65.428  1.00  0.00    -0.328 C  
HETATM   12  H   UNL     2     -12.262  14.110  67.294  1.00  0.00     0.000 HD 
HETATM   13  O   UNL     2     -12.576  13.823  66.445  1.00  0.00    -0.389 OA 
BRANCH  11  14
HETATM   14  C   UNL     2     -10.294  13.297  65.791  1.00  0.00    -0.288 C  
HETATM   15  H   UNL     2      -9.032  12.095  64.860  1.00  0.00     0.000 HD 
HETATM   16  O   UNL     2      -9.832  12.557  64.635  1.00  0.00    -0.174 OA 
BRANCH  14  17
HETATM   17  C   UNL     2     -10.430  12.311  66.947  1.00  0.00    -0.217 C  
HETATM   18  C   UNL     2     -10.036  12.948  68.292  1.00  0.00    -0.234 C  
HETATM   19  H   UNL     2      -9.628  10.572  67.408  1.00  0.00     0.000 HD 
HETATM   20  O   UNL     2      -9.543  11.186  66.688  1.00  0.00    -0.184 OA 
HETATM   21  O   UNL     2      -8.765  13.003  68.542  1.00  0.00    -0.142 OA 
HETATM   22  O   UNL     2     -10.849  13.080  69.203  1.00  0.00    -0.195 OA 
ENDBRANCH  14  17
ENDBRANCH  11  14
ENDBRANCH   2  11
BRANCH   3  23
HETATM   23  C   UNL     3      -7.220  19.145  68.834  1.00  0.00    -0.341 C  
HETATM   24  O   UNL     3      -6.978  20.543  68.633  1.00  0.00    -0.179 OA 
HETATM   25  H   UNL     3      -7.795  20.944  68.359  1.00  0.00     0.000 HD 
BRANCH  23  26
HETATM   26  C   UNL     3      -7.923  18.594  67.573  1.00  0.00    -0.244 C  
HETATM   27  O   UNL     3      -7.788  19.524  66.486  1.00  0.00    -0.261 OA 
HETATM   28  H   UNL     3      -8.220  19.185  65.710  1.00  0.00     0.000 HD 
BRANCH  26  29
HETATM   29  C   UNL     3      -9.424  18.412  67.900  1.00  0.00    -0.285 C  
HETATM   30  C   UNL     3      -9.889  16.984  68.280  1.00  0.00    -0.278 C  
HETATM   31  O   UNL     3     -10.247  18.862  66.769  1.00  0.00    -0.344 OA 
HETATM   32  O   UNL     3      -9.235  16.323  69.105  1.00  0.00    -0.251 OA 
HETATM   33  O   UNL     3     -10.987  16.674  67.644  1.00  0.00    -0.296 OA 
HETATM   34  H   UNL     3     -11.169  18.750  66.970  1.00  0.00     0.000 HD 
ENDBRANCH  26  29
ENDBRANCH  23  26
ENDBRANCH   3  23
BRANCH   3  35
HETATM   35  C   UNL     3      -6.034  17.135  69.947  1.00  0.00    -0.220 C  
HETATM   36  O   UNL     3      -5.737  16.141  68.961  1.00  0.00    -0.115 OA 
HETATM   37  H   UNL     3      -5.814  15.291  69.379  1.00  0.00     0.000 HD 
ENDBRANCH   3  35
TORSDOF 8
ENDMDL
MODEL      197
REMARK 921   NORMALIZED FREE ENERGY PREDICTED BY IDOCK:   -4.05 KCAL/MOL
REMARK 922        TOTAL FREE ENERGY PREDICTED BY IDOCK:   -8.04 KCAL/MOL
REMARK 923 INTER-LIGAND FREE ENERGY PREDICTED BY IDOCK:   -6.71 KCAL/MOL
REMARK 924 INTRA-LIGAND FREE ENERGY PREDICTED BY IDOCK:   -1.34 KCAL/MOL
REMARK 927      BINDING AFFINITY PREDICTED BY RF-SCORE:    0.00 PKD
ROOT
HETATM    1 FE   UNL     1     -10.595   8.847  65.492  1.00  0.00    -0.381 Fe 
HETATM    2  C   UNL     2      -8.768   5.807  71.289  1.00  0.00    -0.132 C  
HETATM    3  C   UNL     3     -10.957  14.538  68.319  1.00  0.00    -0.247 C  
HETATM    4  H   UNL     3      -9.111  15.104  68.580  1.00  0.00     0.000 HD 
HETATM    5  H   UNL     2      -7.483   6.123  69.823  1.00  0.00     0.000 HD 
HETATM    6  O   UNL     2      -7.894   5.376  70.242  1.00  0.00    -0.081 OA 
HETATM    7  O   UNL     3      -9.818  14.840  69.156  1.00  0.00    -0.215 OA 
ENDROOT
BRANCH   2   8
HETATM    8  C   UNL     2      -9.431   4.603  71.964  1.00  0.00    -0.142 C  
HETATM    9  H   UNL     2      -8.914   3.143  73.201  1.00  0.00     0.000 HD 
HETATM   10  O   UNL     2      -8.502   3.890  72.782  1.00  0.00    -0.096 OA 
ENDBRANCH   2   8
BRANCH   2  11
HETATM   11  C   UNL     2      -9.799   6.807  70.729  1.00  0.00    -0.183 C  
HETATM   12  H   UNL     2     -10.460   7.387  68.949  1.00  0.00     0.000 HD 
HETATM   13  O   UNL     2      -9.825   6.772  69.294  1.00  0.00    -0.153 OA 
BRANCH  11  14
HETATM   14  C   UNL     2     -11.199   6.485  71.279  1.00  0.00    -0.288 C  
HETATM   15  H   UNL     2     -12.993   6.169  70.516  1.00  0.00     0.000 HD 
HETATM   16  O   UNL     2     -12.129   6.367  70.175  1.00  0.00    -0.266 OA 
BRANCH  14  17
HETATM   17  C   UNL     2     -11.758   7.524  72.247  1.00  0.00    -0.304 C  
HETATM   18  C   UNL     2     -12.542   8.626  71.512  1.00  0.00    -0.322 C  
HETATM   19  H   UNL     2     -10.987   8.784  73.549  1.00  0.00     0.000 HD 
HETATM   20  O   UNL     2     -10.639   8.137  72.947  1.00  0.00    -0.346 OA 
HETATM   21  O   UNL     2     -11.829   9.568  70.978  1.00  0.00    -0.291 OA 
HETATM   22  O   UNL     2     -13.743   8.796  71.704  1.00  0.00    -0.381 OA 
ENDBRANCH  14  17
ENDBRANCH  11  14
ENDBRANCH   2  11
BRANCH   3  23
HETATM   23  C   UNL     3     -10.488  13.486  67.320  1.00  0.00    -0.248 C  
HETATM   24  O   UNL     3     -10.597  14.048  66.006  1.00  0.00    -0.286 OA 
HETATM   25  H   UNL     3     -10.306  13.392  65.384  1.00  0.00     0.000 HD 
BRANCH  23  26
HETATM   26  C   UNL     3      -9.064  12.905  67.477  1.00  0.00    -0.191 C  
HETATM   27  O   UNL     3      -8.126  13.687  66.719  1.00  0.00    -0.402 OA 
HETATM   28  H   UNL     3      -7.251  13.329  66.815  1.00  0.00     0.000 HD 
BRANCH  26  29
HETATM   29  C   UNL     3      -9.074  11.458  66.932  1.00  0.00    -0.175 C  
HETATM   30  C   UNL     3      -8.873  10.321  67.965  1.00  0.00    -0.122 C  
HETATM   31  O   UNL     3      -8.048  11.300  65.892  1.00  0.00    -0.336 OA 
HETATM   32  O   UNL     3      -9.517  10.334  69.028  1.00  0.00    -0.179 OA 
HETATM   33  O   UNL     3      -8.007   9.448  67.524  1.00  0.00    -0.102 OA 
HETATM   34  H   UNL     3      -8.054  10.411  65.558  1.00  0.00     0.000 HD 
ENDBRANCH  26  29
ENDBRANCH  23  26
ENDBRANCH   3  23
BRANCH   3  35
HETATM   35  C   UNL     3     -12.094  14.112  69.247  1.00  0.00    -0.324 C  
HETATM   36  O   UNL     3     -11.544  13.218  70.220  1.00  0.00    -0.514 OA 
HETATM   37  H   UNL     3     -12.252  12.953  70.797  1.00  0.00     0.000 HD 
ENDBRANCH   3  35
TORSDOF 8
ENDMDL
MODEL      198
REMARK 921   NORMALIZED FREE ENERGY PREDICTED BY IDOCK:   -4.04 KCAL/MOL
REMARK 922        TOTAL FREE ENERGY PREDICTED BY IDOCK:   -8.02 KCAL/MOL
REMARK 923 INTER-LIGAND FREE ENERGY PREDICTED BY IDOCK:   -7.11 KCAL/MOL
REMARK 924 INTRA-LIGAND FREE ENERGY PREDICTED BY IDOCK:   -0.91 KCAL/MOL
REMARK 927      BINDING AFFINITY PREDICTED BY RF-SCORE:    0.00 PKD
ROOT
HETATM    1 FE   UNL     1     -13.772  10.452  70.329  1.00  0.00    -0.374 Fe 
HETATM    2  C   UNL     2     -10.331  16.087  68.717  1.00  0.00    -0.237 C  
HETATM    3  C   UNL     3      -9.179   6.705  68.011  1.00  0.00    -0.112 C  
HETATM    4  H   UNL     3      -7.746   6.768  69.330  1.00  0.00     0.000 HD 
HETATM    5  H   UNL     2     -10.507  15.466  70.584  1.00  0.00     0.000 HD 
HETATM    6  O   UNL     2     -10.807  16.201  70.061  1.00  0.00    -0.325 OA 
HETATM    7  O   UNL     3      -7.853   7.085  68.441  1.00  0.00    -0.117 OA 
ENDROOT
BRANCH   2   8
HETATM    8  C   UNL     2     -10.814  17.270  67.874  1.00  0.00    -0.283 C  
HETATM    9  H   UNL     2     -10.053  18.922  67.087  1.00  0.00     0.000 HD 
HETATM   10  O   UNL     2      -9.752  18.188  67.610  1.00  0.00    -0.279 OA 
ENDBRANCH   2   8
BRANCH   2  11
HETATM   11  C   UNL     2     -10.761  14.730  68.125  1.00  0.00    -0.247 C  
HETATM   12  H   UNL     2     -12.117  14.055  66.842  1.00  0.00     0.000 HD 
HETATM   13  O   UNL     2     -11.852  14.890  67.207  1.00  0.00    -0.345 OA 
BRANCH  11  14
HETATM   14  C   UNL     2      -9.573  14.067  67.407  1.00  0.00    -0.227 C  
HETATM   15  H   UNL     2      -8.759  14.165  65.609  1.00  0.00     0.000 HD 
HETATM   16  O   UNL     2      -9.493  14.574  66.053  1.00  0.00    -0.292 OA 
BRANCH  14  17
HETATM   17  C   UNL     2      -9.643  12.546  67.329  1.00  0.00    -0.205 C  
HETATM   18  C   UNL     2     -10.935  11.999  67.964  1.00  0.00    -0.223 C  
HETATM   19  H   UNL     2      -8.547  11.055  68.004  1.00  0.00     0.000 HD 
HETATM   20  O   UNL     2      -8.503  12.003  68.053  1.00  0.00    -0.152 OA 
HETATM   21  O   UNL     2     -10.928  11.890  69.256  1.00  0.00    -0.220 OA 
HETATM   22  O   UNL     2     -11.770  11.392  67.298  1.00  0.00    -0.577 OA 
ENDBRANCH  14  17
ENDBRANCH  11  14
ENDBRANCH   2  11
BRANCH   3  23
HETATM   23  C   UNL     3     -10.145   7.281  69.041  1.00  0.00    -0.186 C  
HETATM   24  O   UNL     3     -11.156   8.013  68.335  1.00  0.00    -0.414 OA 
HETATM   25  H   UNL     3     -11.757   8.372  68.976  1.00  0.00     0.000 HD 
BRANCH  23  26
HETATM   26  C   UNL     3     -10.849   6.309  70.015  1.00  0.00    -0.324 C  
HETATM   27  O   UNL     3     -12.253   6.611  70.084  1.00  0.00    -0.598 OA 
HETATM   28  H   UNL     3     -12.686   6.013  70.683  1.00  0.00     0.000 HD 
BRANCH  26  29
HETATM   29  C   UNL     3     -10.222   6.494  71.415  1.00  0.00    -0.197 C  
HETATM   30  C   UNL     3     -10.246   7.925  72.009  1.00  0.00    -0.211 C  
HETATM   31  O   UNL     3      -8.825   6.039  71.409  1.00  0.00    -0.135 OA 
HETATM   32  O   UNL     3     -11.295   8.590  71.969  1.00  0.00    -0.307 OA 
HETATM   33  O   UNL     3      -9.081   8.232  72.514  1.00  0.00    -0.206 OA 
HETATM   34  H   UNL     3      -8.439   6.153  72.270  1.00  0.00     0.000 HD 
ENDBRANCH  26  29
ENDBRANCH  23  26
ENDBRANCH   3  23
BRANCH   3  35
HETATM   35  C   UNL     3      -9.351   7.216  66.581  1.00  0.00    -0.166 C  
HETATM   36  O   UNL     3      -8.743   6.261  65.707  1.00  0.00    -0.153 OA 
HETATM   37  H   UNL     3      -8.850   6.579  64.817  1.00  0.00     0.000 HD 
ENDBRANCH   3  35
TORSDOF 8
ENDMDL
MODEL      199
REMARK 921   NORMALIZED FREE ENERGY PREDICTED BY IDOCK:   -4.03 KCAL/MOL
REMARK 922        TOTAL FREE ENERGY PREDICTED BY IDOCK:   -8.01 KCAL/MOL
REMARK 923 INTER-LIGAND FREE ENERGY PREDICTED BY IDOCK:   -6.66 KCAL/MOL
REMARK 924 INTRA-LIGAND FREE ENERGY PREDICTED BY IDOCK:   -1.36 KCAL/MOL
REMARK 927      BINDING AFFINITY PREDICTED BY RF-SCORE:    0.00 PKD
ROOT
HETATM    1 FE   UNL     1     -10.307   6.694  65.676  1.00  0.00    -0.410 Fe 
HETATM    2  C   UNL     2     -12.385  13.110  64.837  1.00  0.00    -0.441 C  
HETATM    3  C   UNL     3      -7.934   7.972  71.442  1.00  0.00    -0.102 C  
HETATM    4  H   UNL     3      -9.481   8.117  72.617  1.00  0.00     0.000 HD 
HETATM    5  H   UNL     2     -13.652  11.638  65.197  1.00  0.00     0.000 HD 
HETATM    6  O   UNL     2     -13.450  12.225  64.478  1.00  0.00    -0.686 OA 
HETATM    7  O   UNL     3      -8.835   8.728  72.282  1.00  0.00    -0.367 OA 
ENDROOT
BRANCH   2   8
HETATM    8  C   UNL     2     -12.059  14.056  63.678  1.00  0.00    -0.112 C  
HETATM    9  H   UNL     2     -12.299  15.973  63.233  1.00  0.00     0.000 HD 
HETATM   10  O   UNL     2     -12.502  15.386  63.952  1.00  0.00    -0.695 OA 
ENDBRANCH   2   8
BRANCH   2  11
HETATM   11  C   UNL     2     -11.160  12.293  65.290  1.00  0.00    -0.316 C  
HETATM   12  H   UNL     2      -9.197  12.306  64.990  1.00  0.00     0.000 HD 
HETATM   13  O   UNL     2      -9.952  12.809  64.711  1.00  0.00    -0.231 OA 
BRANCH  11  14
HETATM   14  C   UNL     2     -11.049  12.316  66.824  1.00  0.00    -0.296 C  
HETATM   15  H   UNL     2      -9.596  12.537  68.146  1.00  0.00     0.000 HD 
HETATM   16  O   UNL     2      -9.664  12.523  67.198  1.00  0.00    -0.199 OA 
BRANCH  14  17
HETATM   17  C   UNL     2     -11.531  11.047  67.518  1.00  0.00    -0.185 C  
HETATM   18  C   UNL     2     -11.418  11.154  69.050  1.00  0.00    -0.296 C  
HETATM   19  H   UNL     2     -11.000   9.150  67.499  1.00  0.00     0.000 HD 
HETATM   20  O   UNL     2     -10.700   9.941  67.067  1.00  0.00    -0.231 OA 
HETATM   21  O   UNL     2     -10.242  10.929  69.548  1.00  0.00    -0.178 OA 
HETATM   22  O   UNL     2     -12.411  11.111  69.772  1.00  0.00    -0.303 OA 
ENDBRANCH  14  17
ENDBRANCH  11  14
ENDBRANCH   2  11
BRANCH   3  23
HETATM   23  C   UNL     3      -8.801   7.283  70.393  1.00  0.00    -0.150 C  
HETATM   24  O   UNL     3     -10.062   6.973  71.000  1.00  0.00    -0.195 OA 
HETATM   25  H   UNL     3     -10.602   6.544  70.346  1.00  0.00     0.000 HD 
BRANCH  23  26
HETATM   26  C   UNL     3      -9.077   8.024  69.065  1.00  0.00    -0.144 C  
HETATM   27  O   UNL     3     -10.355   7.630  68.537  1.00  0.00    -0.196 OA 
HETATM   28  H   UNL     3     -10.525   8.085  67.720  1.00  0.00     0.000 HD 
BRANCH  26  29
HETATM   29  C   UNL     3      -7.971   7.633  68.058  1.00  0.00    -0.122 C  
HETATM   30  C   UNL     3      -7.387   8.771  67.184  1.00  0.00    -0.080 C  
HETATM   31  O   UNL     3      -8.457   6.582  67.153  1.00  0.00    -0.112 OA 
HETATM   32  O   UNL     3      -7.060   9.847  67.713  1.00  0.00    -0.085 OA 
HETATM   33  O   UNL     3      -7.304   8.394  65.935  1.00  0.00    -0.071 OA 
HETATM   34  H   UNL     3      -7.777   6.342  66.534  1.00  0.00     0.000 HD 
ENDBRANCH  26  29
ENDBRANCH  23  26
ENDBRANCH   3  23
BRANCH   3  35
HETATM   35  C   UNL     3      -6.895   8.954  70.902  1.00  0.00    -0.076 C  
HETATM   36  O   UNL     3      -7.541  10.221  70.745  1.00  0.00    -0.377 OA 
HETATM   37  H   UNL     3      -6.895  10.832  70.409  1.00  0.00     0.000 HD 
ENDBRANCH   3  35
TORSDOF 8
ENDMDL
MODEL      200
REMARK 921   NORMALIZED FREE ENERGY PREDICTED BY IDOCK:   -4.01 KCAL/MOL
REMARK 922        TOTAL FREE ENERGY PREDICTED BY IDOCK:   -7.99 KCAL/MOL
REMARK 923 INTER-LIGAND FREE ENERGY PREDICTED BY IDOCK:   -6.37 KCAL/MOL
REMARK 924 INTRA-LIGAND FREE ENERGY PREDICTED BY IDOCK:   -1.62 KCAL/MOL
REMARK 927      BINDING AFFINITY PREDICTED BY RF-SCORE:    0.00 PKD
ROOT
HETATM    1 FE   UNL     1     -11.299   9.354  66.674  1.00  0.00    -0.081 Fe 
HETATM    2  C   UNL     2      -6.669   7.012  71.063  1.00  0.00    -0.053 C  
HETATM    3  C   UNL     3     -11.533  15.010  69.582  1.00  0.00    -0.294 C  
HETATM    4  H   UNL     3      -9.895  15.927  69.062  1.00  0.00     0.000 HD 
HETATM    5  H   UNL     2      -6.201   7.490  69.204  1.00  0.00     0.000 HD 
HETATM    6  O   UNL     2      -6.247   6.701  69.731  1.00  0.00    -0.038 OA 
HETATM    7  O   UNL     3     -10.230  15.564  69.873  1.00  0.00    -0.287 OA 
ENDROOT
BRANCH   2   8
HETATM    8  C   UNL     2      -6.743   5.740  71.913  1.00  0.00    -0.059 C  
HETATM    9  H   UNL     2      -8.107   4.744  72.950  1.00  0.00     0.000 HD 
HETATM   10  O   UNL     2      -8.061   5.533  72.423  1.00  0.00    -0.106 OA 
ENDBRANCH   2   8
BRANCH   2  11
HETATM   11  C   UNL     2      -8.010   7.769  71.021  1.00  0.00    -0.090 C  
HETATM   12  H   UNL     2      -8.792   9.411  71.817  1.00  0.00     0.000 HD 
HETATM   13  O   UNL     2      -7.966   8.944  71.843  1.00  0.00    -0.328 OA 
BRANCH  11  14
HETATM   14  C   UNL     2      -8.348   8.163  69.572  1.00  0.00    -0.122 C  
HETATM   15  H   UNL     2      -8.096   9.758  68.433  1.00  0.00     0.000 HD 
HETATM   16  O   UNL     2      -7.888   9.515  69.328  1.00  0.00    -0.079 OA 
BRANCH  14  17
HETATM   17  C   UNL     2      -9.832   8.110  69.226  1.00  0.00    -0.182 C  
HETATM   18  C   UNL     2     -10.573   7.039  70.047  1.00  0.00    -0.230 C  
HETATM   19  H   UNL     2     -10.879   7.746  67.598  1.00  0.00     0.000 HD 
HETATM   20  O   UNL     2      -9.955   7.779  67.814  1.00  0.00    -0.157 OA 
HETATM   21  O   UNL     2     -10.470   5.821  69.614  1.00  0.00    -0.236 OA 
HETATM   22  O   UNL     2     -11.465   7.338  70.837  1.00  0.00    -0.275 OA 
ENDBRANCH  14  17
ENDBRANCH  11  14
ENDBRANCH   2  11
BRANCH   3  23
HETATM   23  C   UNL     3     -11.332  14.016  68.444  1.00  0.00    -0.291 C  
HETATM   24  O   UNL     3     -12.432  14.159  67.535  1.00  0.00    -0.542 OA 
HETATM   25  H   UNL     3     -12.307  13.539  66.826  1.00  0.00     0.000 HD 
BRANCH  23  26
HETATM   26  C   UNL     3     -10.023  14.088  67.626  1.00  0.00    -0.237 C  
HETATM   27  O   UNL     3      -9.802  15.430  67.163  1.00  0.00    -0.219 OA 
HETATM   28  H   UNL     3      -8.997  15.475  66.660  1.00  0.00     0.000 HD 
BRANCH  26  29
HETATM   29  C   UNL     3     -10.166  13.149  66.406  1.00  0.00    -0.286 C  
HETATM   30  C   UNL     3     -10.935  13.705  65.182  1.00  0.00    -0.330 C  
HETATM   31  O   UNL     3     -10.816  11.893  66.806  1.00  0.00    -0.242 OA 
HETATM   32  O   UNL     3     -10.677  14.845  64.759  1.00  0.00    -0.404 OA 
HETATM   33  O   UNL     3     -11.788  12.822  64.736  1.00  0.00    -0.336 OA 
HETATM   34  H   UNL     3     -10.903  11.316  66.057  1.00  0.00     0.000 HD 
ENDBRANCH  26  29
ENDBRANCH  23  26
ENDBRANCH   3  23
BRANCH   3  35
HETATM   35  C   UNL     3     -12.073  14.425  70.887  1.00  0.00    -0.344 C  
HETATM   36  O   UNL     3     -11.247  14.908  71.950  1.00  0.00    -0.525 OA 
HETATM   37  H   UNL     3     -11.583  14.545  72.761  1.00  0.00     0.000 HD 
ENDBRANCH   3  35
TORSDOF 8
ENDMDL
MODEL      201
REMARK 921   NORMALIZED FREE ENERGY PREDICTED BY IDOCK:   -4.01 KCAL/MOL
REMARK 922        TOTAL FREE ENERGY PREDICTED BY IDOCK:   -7.98 KCAL/MOL
REMARK 923 INTER-LIGAND FREE ENERGY PREDICTED BY IDOCK:   -6.31 KCAL/MOL
REMARK 924 INTRA-LIGAND FREE ENERGY PREDICTED BY IDOCK:   -1.67 KCAL/MOL
REMARK 927      BINDING AFFINITY PREDICTED BY RF-SCORE:    0.00 PKD
ROOT
HETATM    1 FE   UNL     1     -12.070  10.012  70.690  1.00  0.00    -0.236 Fe 
HETATM    2  C   UNL     2      -8.287  14.448  67.197  1.00  0.00    -0.191 C  
HETATM    3  C   UNL     3      -9.336   5.047  67.796  1.00  0.00    -0.127 C  
HETATM    4  H   UNL     3      -7.569   4.887  68.601  1.00  0.00     0.000 HD 
HETATM    5  H   UNL     2      -7.965  14.076  69.110  1.00  0.00     0.000 HD 
HETATM    6  O   UNL     2      -8.265  14.806  68.582  1.00  0.00    -0.145 OA 
HETATM    7  O   UNL     3      -7.894   5.132  67.743  1.00  0.00    -0.090 OA 
ENDROOT
BRANCH   2   8
HETATM    8  C   UNL     2      -8.772  15.625  66.346  1.00  0.00    -0.318 C  
HETATM    9  H   UNL     2     -10.075  15.945  64.887  1.00  0.00     0.000 HD 
HETATM   10  O   UNL     2      -9.774  15.214  65.415  1.00  0.00    -0.316 OA 
ENDBRANCH   2   8
BRANCH   2  11
HETATM   11  C   UNL     2      -9.150  13.186  67.000  1.00  0.00    -0.231 C  
HETATM   12  H   UNL     2      -8.892  11.314  66.390  1.00  0.00     0.000 HD 
HETATM   13  O   UNL     2      -8.361  12.092  66.511  1.00  0.00    -0.136 OA 
BRANCH  11  14
HETATM   14  C   UNL     2      -9.817  12.790  68.329  1.00  0.00    -0.224 C  
HETATM   15  H   UNL     2      -9.724  11.255  69.569  1.00  0.00     0.000 HD 
HETATM   16  O   UNL     2      -9.312  11.499  68.748  1.00  0.00    -0.169 OA 
BRANCH  14  17
HETATM   17  C   UNL     2     -11.338  12.697  68.276  1.00  0.00    -0.295 C  
HETATM   18  C   UNL     2     -11.955  13.854  67.468  1.00  0.00    -0.386 C  
HETATM   19  H   UNL     2     -12.790  12.705  69.608  1.00  0.00     0.000 HD 
HETATM   20  O   UNL     2     -11.842  12.763  69.640  1.00  0.00    -0.311 OA 
HETATM   21  O   UNL     2     -12.087  14.979  68.100  1.00  0.00    -0.231 OA 
HETATM   22  O   UNL     2     -12.587  13.650  66.435  1.00  0.00    -0.364 OA 
ENDBRANCH  14  17
ENDBRANCH  11  14
ENDBRANCH   2  11
BRANCH   3  23
HETATM   23  C   UNL     3      -9.776   5.940  68.950  1.00  0.00    -0.135 C  
HETATM   24  O   UNL     3     -10.751   5.220  69.716  1.00  0.00    -0.286 OA 
HETATM   25  H   UNL     3     -11.025   5.777  70.435  1.00  0.00     0.000 HD 
BRANCH  23  26
HETATM   26  C   UNL     3      -8.699   6.471  69.922  1.00  0.00    -0.140 C  
HETATM   27  O   UNL     3      -8.153   5.388  70.694  1.00  0.00    -0.104 OA 
HETATM   28  H   UNL     3      -7.490   5.715  71.292  1.00  0.00     0.000 HD 
BRANCH  26  29
HETATM   29  C   UNL     3      -9.371   7.485  70.877  1.00  0.00    -0.154 C  
HETATM   30  C   UNL     3      -8.456   8.565  71.507  1.00  0.00    -0.170 C  
HETATM   31  O   UNL     3     -10.044   6.778  71.975  1.00  0.00    -0.183 OA 
HETATM   32  O   UNL     3      -7.656   9.189  70.789  1.00  0.00    -0.109 OA 
HETATM   33  O   UNL     3      -8.693   8.678  72.786  1.00  0.00    -0.387 OA 
HETATM   34  H   UNL     3     -10.458   7.401  72.561  1.00  0.00     0.000 HD 
ENDBRANCH  26  29
ENDBRANCH  23  26
ENDBRANCH   3  23
BRANCH   3  35
HETATM   35  C   UNL     3      -9.859   5.441  66.414  1.00  0.00    -0.176 C  
HETATM   36  O   UNL     3     -11.248   5.756  66.554  1.00  0.00    -0.698 OA 
HETATM   37  H   UNL     3     -11.573   6.001  65.695  1.00  0.00     0.000 HD 
ENDBRANCH   3  35
TORSDOF 8
ENDMDL
MODEL      202
REMARK 921   NORMALIZED FREE ENERGY PREDICTED BY IDOCK:   -3.99 KCAL/MOL
REMARK 922        TOTAL FREE ENERGY PREDICTED BY IDOCK:   -7.95 KCAL/MOL
REMARK 923 INTER-LIGAND FREE ENERGY PREDICTED BY IDOCK:   -6.85 KCAL/MOL
REMARK 924 INTRA-LIGAND FREE ENERGY PREDICTED BY IDOCK:   -1.10 KCAL/MOL
REMARK 927      BINDING AFFINITY PREDICTED BY RF-SCORE:    0.00 PKD
ROOT
HETATM    1 FE   UNL     1      -8.965  11.716  69.641  1.00  0.00    -0.365 Fe 
HETATM    2  C   UNL     2     -10.519   5.103  69.410  1.00  0.00    -0.133 C  
HETATM    3  C   UNL     3     -11.632  12.778  63.961  1.00  0.00    -0.424 C  
HETATM    4  H   UNL     3     -13.555  12.741  64.277  1.00  0.00     0.000 HD 
HETATM    5  H   UNL     2     -11.478   6.363  70.591  1.00  0.00     0.000 HD 
HETATM    6  O   UNL     2     -10.889   5.624  70.690  1.00  0.00    -0.273 OA 
HETATM    7  O   UNL     3     -12.940  12.181  63.817  1.00  0.00    -0.753 OA 
ENDROOT
BRANCH   2   8
HETATM    8  C   UNL     2      -9.569   3.913  69.570  1.00  0.00    -0.178 C  
HETATM    9  H   UNL     2      -9.312   2.396  70.820  1.00  0.00     0.000 HD 
HETATM   10  O   UNL     2      -9.901   3.135  70.721  1.00  0.00    -0.139 OA 
ENDBRANCH   2   8
BRANCH   2  11
HETATM   11  C   UNL     2      -9.911   6.227  68.547  1.00  0.00    -0.144 C  
HETATM   12  H   UNL     2      -9.143   8.036  68.825  1.00  0.00     0.000 HD 
HETATM   13  O   UNL     2      -9.518   7.344  69.357  1.00  0.00    -0.155 OA 
BRANCH  11  14
HETATM   14  C   UNL     2      -8.694   5.695  67.771  1.00  0.00    -0.107 C  
HETATM   15  H   UNL     2      -6.883   6.355  67.334  1.00  0.00     0.000 HD 
HETATM   16  O   UNL     2      -7.635   6.683  67.814  1.00  0.00    -0.101 OA 
BRANCH  14  17
HETATM   17  C   UNL     2      -8.964   5.369  66.306  1.00  0.00    -0.137 C  
HETATM   18  C   UNL     2      -9.931   4.180  66.153  1.00  0.00    -0.173 C  
HETATM   19  H   UNL     2      -7.865   4.816  64.768  1.00  0.00     0.000 HD 
HETATM   20  O   UNL     2      -7.697   5.020  65.680  1.00  0.00    -0.085 OA 
HETATM   21  O   UNL     2      -9.404   3.002  66.276  1.00  0.00    -0.145 OA 
HETATM   22  O   UNL     2     -11.030   4.312  65.621  1.00  0.00    -0.011 OA 
ENDBRANCH  14  17
ENDBRANCH  11  14
ENDBRANCH   2  11
BRANCH   3  23
HETATM   23  C   UNL     3     -11.394  12.933  65.459  1.00  0.00    -0.307 C  
HETATM   24  O   UNL     3     -12.614  13.394  66.054  1.00  0.00    -0.401 OA 
HETATM   25  H   UNL     3     -12.464  13.490  66.987  1.00  0.00     0.000 HD 
BRANCH  23  26
HETATM   26  C   UNL     3     -10.906  11.702  66.257  1.00  0.00    -0.286 C  
HETATM   27  O   UNL     3     -11.808  11.429  67.343  1.00  0.00    -0.609 OA 
HETATM   28  H   UNL     3     -11.508  10.672  67.834  1.00  0.00     0.000 HD 
BRANCH  26  29
HETATM   29  C   UNL     3      -9.507  12.025  66.830  1.00  0.00    -0.203 C  
HETATM   30  C   UNL     3      -9.353  13.370  67.582  1.00  0.00    -0.217 C  
HETATM   31  O   UNL     3      -8.502  11.997  65.759  1.00  0.00    -0.350 OA 
HETATM   32  O   UNL     3     -10.199  13.702  68.430  1.00  0.00    -0.236 OA 
HETATM   33  O   UNL     3      -8.269  13.990  67.197  1.00  0.00    -0.182 OA 
HETATM   34  H   UNL     3      -7.642  12.195  66.111  1.00  0.00     0.000 HD 
ENDBRANCH  26  29
ENDBRANCH  23  26
ENDBRANCH   3  23
BRANCH   3  35
HETATM   35  C   UNL     3     -10.644  11.877  63.221  1.00  0.00    -0.365 C  
HETATM   36  O   UNL     3      -9.395  12.572  63.153  1.00  0.00    -0.373 OA 
HETATM   37  H   UNL     3      -8.781  12.011  62.694  1.00  0.00     0.000 HD 
ENDBRANCH   3  35
TORSDOF 8
ENDMDL
MODEL      203
REMARK 921   NORMALIZED FREE ENERGY PREDICTED BY IDOCK:   -3.99 KCAL/MOL
REMARK 922        TOTAL FREE ENERGY PREDICTED BY IDOCK:   -7.95 KCAL/MOL
REMARK 923 INTER-LIGAND FREE ENERGY PREDICTED BY IDOCK:   -6.86 KCAL/MOL
REMARK 924 INTRA-LIGAND FREE ENERGY PREDICTED BY IDOCK:   -1.08 KCAL/MOL
REMARK 927      BINDING AFFINITY PREDICTED BY RF-SCORE:    0.00 PKD
ROOT
HETATM    1 FE   UNL     1      -8.122  10.773  70.406  1.00  0.00    -0.343 Fe 
HETATM    2  C   UNL     2      -9.946   4.323  69.283  1.00  0.00    -0.016 C  
HETATM    3  C   UNL     3     -11.242  12.798  65.242  1.00  0.00    -0.293 C  
HETATM    4  H   UNL     3     -13.129  12.757  65.728  1.00  0.00     0.000 HD 
HETATM    5  H   UNL     2     -10.746   5.400  70.733  1.00  0.00     0.000 HD 
HETATM    6  O   UNL     2     -10.180   4.641  70.659  1.00  0.00    -0.217 OA 
HETATM    7  O   UNL     3     -12.580  12.263  65.130  1.00  0.00    -0.585 OA 
ENDROOT
BRANCH   2   8
HETATM    8  C   UNL     2      -9.033   3.100  69.163  1.00  0.00    -0.122 C  
HETATM    9  H   UNL     2      -8.251   1.986  67.722  1.00  0.00     0.000 HD 
HETATM   10  O   UNL     2      -8.817   2.745  67.796  1.00  0.00    -0.107 OA 
ENDBRANCH   2   8
BRANCH   2  11
HETATM   11  C   UNL     2      -9.375   5.555  68.554  1.00  0.00    -0.121 C  
HETATM   12  H   UNL     2      -9.360   6.292  66.711  1.00  0.00     0.000 HD 
HETATM   13  O   UNL     2      -9.712   5.533  67.160  1.00  0.00    -0.126 OA 
BRANCH  11  14
HETATM   14  C   UNL     2      -9.915   6.845  69.197  1.00  0.00    -0.162 C  
HETATM   15  H   UNL     2     -10.740   8.521  68.553  1.00  0.00     0.000 HD 
HETATM   16  O   UNL     2     -10.406   7.725  68.156  1.00  0.00    -0.197 OA 
BRANCH  14  17
HETATM   17  C   UNL     2      -8.894   7.625  70.019  1.00  0.00    -0.143 C  
HETATM   18  C   UNL     2      -9.550   8.344  71.212  1.00  0.00    -0.185 C  
HETATM   19  H   UNL     2      -7.649   9.109  69.664  1.00  0.00     0.000 HD 
HETATM   20  O   UNL     2      -8.285   8.623  69.153  1.00  0.00    -0.114 OA 
HETATM   21  O   UNL     2     -10.133   9.471  70.943  1.00  0.00    -0.286 OA 
HETATM   22  O   UNL     2      -9.256   8.063  72.371  1.00  0.00    -0.161 OA 
ENDBRANCH  14  17
ENDBRANCH  11  14
ENDBRANCH   2  11
BRANCH   3  23
HETATM   23  C   UNL     3     -10.865  12.704  66.716  1.00  0.00    -0.250 C  
HETATM   24  O   UNL     3      -9.463  12.415  66.794  1.00  0.00    -0.215 OA 
HETATM   25  H   UNL     3      -9.228  12.356  67.712  1.00  0.00     0.000 HD 
BRANCH  23  26
HETATM   26  C   UNL     3     -11.155  13.917  67.629  1.00  0.00    -0.277 C  
HETATM   27  O   UNL     3     -12.432  14.489  67.299  1.00  0.00    -0.578 OA 
HETATM   28  H   UNL     3     -12.611  15.234  67.861  1.00  0.00     0.000 HD 
BRANCH  26  29
HETATM   29  C   UNL     3     -10.051  14.973  67.392  1.00  0.00    -0.228 C  
HETATM   30  C   UNL     3     -10.311  16.394  67.950  1.00  0.00    -0.286 C  
HETATM   31  O   UNL     3      -9.776  15.103  65.954  1.00  0.00    -0.309 OA 
HETATM   32  O   UNL     3     -10.727  16.531  69.113  1.00  0.00    -0.295 OA 
HETATM   33  O   UNL     3     -10.014  17.300  67.057  1.00  0.00    -0.270 OA 
HETATM   34  H   UNL     3      -9.097  15.752  65.808  1.00  0.00     0.000 HD 
ENDBRANCH  26  29
ENDBRANCH  23  26
ENDBRANCH   3  23
BRANCH   3  35
HETATM   35  C   UNL     3     -10.360  12.004  64.279  1.00  0.00    -0.322 C  
HETATM   36  O   UNL     3     -11.146  11.706  63.121  1.00  0.00    -0.655 OA 
HETATM   37  H   UNL     3     -10.598  11.212  62.522  1.00  0.00     0.000 HD 
ENDBRANCH   3  35
TORSDOF 8
ENDMDL
MODEL      204
REMARK 921   NORMALIZED FREE ENERGY PREDICTED BY IDOCK:   -3.96 KCAL/MOL
REMARK 922        TOTAL FREE ENERGY PREDICTED BY IDOCK:   -7.91 KCAL/MOL
REMARK 923 INTER-LIGAND FREE ENERGY PREDICTED BY IDOCK:   -6.76 KCAL/MOL
REMARK 924 INTRA-LIGAND FREE ENERGY PREDICTED BY IDOCK:   -1.15 KCAL/MOL
REMARK 927      BINDING AFFINITY PREDICTED BY RF-SCORE:    0.00 PKD
ROOT
HETATM    1 FE   UNL     1     -12.870  10.728  68.488  1.00  0.00    -0.324 Fe 
HETATM    2  C   UNL     2     -10.483   5.894  72.626  1.00  0.00    -0.206 C  
HETATM    3  C   UNL     3      -8.182   9.774  64.290  1.00  0.00    -0.160 C  
HETATM    4  H   UNL     3      -8.636   8.114  63.376  1.00  0.00     0.000 HD 
HETATM    5  H   UNL     2     -12.111   5.631  71.538  1.00  0.00     0.000 HD 
HETATM    6  O   UNL     2     -11.892   5.710  72.459  1.00  0.00    -0.282 OA 
HETATM    7  O   UNL     3      -7.956   8.379  63.985  1.00  0.00    -0.139 OA 
ENDROOT
BRANCH   2   8
HETATM    8  C   UNL     2     -10.131   6.023  74.110  1.00  0.00    -0.280 C  
HETATM    9  H   UNL     2      -9.044   5.051  75.453  1.00  0.00     0.000 HD 
HETATM   10  O   UNL     2      -9.262   4.970  74.532  1.00  0.00    -0.113 OA 
ENDBRANCH   2   8
BRANCH   2  11
HETATM   11  C   UNL     2     -10.016   7.112  71.804  1.00  0.00    -0.175 C  
HETATM   12  H   UNL     2      -9.449   8.983  72.149  1.00  0.00     0.000 HD 
HETATM   13  O   UNL     2      -9.737   8.233  72.656  1.00  0.00    -0.264 OA 
BRANCH  11  14
HETATM   14  C   UNL     2      -8.759   6.750  70.995  1.00  0.00    -0.137 C  
HETATM   15  H   UNL     2      -8.366   5.722  69.354  1.00  0.00     0.000 HD 
HETATM   16  O   UNL     2      -9.143   5.946  69.854  1.00  0.00    -0.143 OA 
BRANCH  14  17
HETATM   17  C   UNL     2      -7.700   5.975  71.773  1.00  0.00    -0.101 C  
HETATM   18  C   UNL     2      -6.526   6.877  72.196  1.00  0.00    -0.053 C  
HETATM   19  H   UNL     2      -6.529   4.437  71.395  1.00  0.00     0.000 HD 
HETATM   20  O   UNL     2      -7.188   4.920  70.911  1.00  0.00    -0.056 OA 
HETATM   21  O   UNL     2      -5.631   7.105  71.286  1.00  0.00    -0.031 OA 
HETATM   22  O   UNL     2      -6.269   7.082  73.379  1.00  0.00    -0.061 OA 
ENDBRANCH  14  17
ENDBRANCH  11  14
ENDBRANCH   2  11
BRANCH   3  23
HETATM   23  C   UNL     3      -9.612   9.873  64.810  1.00  0.00    -0.271 C  
HETATM   24  O   UNL     3      -9.822   8.791  65.727  1.00  0.00    -0.462 OA 
HETATM   25  H   UNL     3     -10.713   8.853  66.051  1.00  0.00     0.000 HD 
BRANCH  23  26
HETATM   26  C   UNL     3     -10.054  11.182  65.503  1.00  0.00    -0.257 C  
HETATM   27  O   UNL     3     -10.813  10.882  66.687  1.00  0.00    -0.252 OA 
HETATM   28  H   UNL     3     -11.084  11.687  67.113  1.00  0.00     0.000 HD 
BRANCH  26  29
HETATM   29  C   UNL     3     -10.945  11.970  64.516  1.00  0.00    -0.318 C  
HETATM   30  C   UNL     3     -12.304  12.483  65.057  1.00  0.00    -0.453 C  
HETATM   31  O   UNL     3     -11.220  11.160  63.322  1.00  0.00    -0.775 OA 
HETATM   32  O   UNL     3     -12.350  13.058  66.158  1.00  0.00    -0.439 OA 
HETATM   33  O   UNL     3     -13.262  12.230  64.206  1.00  0.00    -0.785 OA 
HETATM   34  H   UNL     3     -11.768  11.644  62.716  1.00  0.00     0.000 HD 
ENDBRANCH  26  29
ENDBRANCH  23  26
ENDBRANCH   3  23
BRANCH   3  35
HETATM   35  C   UNL     3      -7.088  10.201  65.269  1.00  0.00    -0.137 C  
HETATM   36  O   UNL     3      -7.304   9.490  66.492  1.00  0.00    -0.089 OA 
HETATM   37  H   UNL     3      -6.624   9.755  67.100  1.00  0.00     0.000 HD 
ENDBRANCH   3  35
TORSDOF 8
ENDMDL
MODEL      205
REMARK 921   NORMALIZED FREE ENERGY PREDICTED BY IDOCK:   -3.96 KCAL/MOL
REMARK 922        TOTAL FREE ENERGY PREDICTED BY IDOCK:   -7.91 KCAL/MOL
REMARK 923 INTER-LIGAND FREE ENERGY PREDICTED BY IDOCK:   -6.60 KCAL/MOL
REMARK 924 INTRA-LIGAND FREE ENERGY PREDICTED BY IDOCK:   -1.30 KCAL/MOL
REMARK 927      BINDING AFFINITY PREDICTED BY RF-SCORE:    0.00 PKD
ROOT
HETATM    1 FE   UNL     1      -5.578  11.465  70.815  1.00  0.00    -0.075 Fe 
HETATM    2  C   UNL     2      -9.048  16.224  67.424  1.00  0.00    -0.195 C  
HETATM    3  C   UNL     3     -10.690   7.695  71.220  1.00  0.00    -0.228 C  
HETATM    4  H   UNL     3     -10.911   6.931  69.441  1.00  0.00     0.000 HD 
HETATM    5  H   UNL     2      -7.716  15.067  66.535  1.00  0.00     0.000 HD 
HETATM    6  O   UNL     2      -7.806  15.987  66.754  1.00  0.00    -0.226 OA 
HETATM    7  O   UNL     3     -11.401   7.551  69.969  1.00  0.00    -0.212 OA 
ENDROOT
BRANCH   2   8
HETATM    8  C   UNL     2      -9.193  17.706  67.777  1.00  0.00    -0.251 C  
HETATM    9  H   UNL     2     -10.569  19.125  67.625  1.00  0.00     0.000 HD 
HETATM   10  O   UNL     2     -10.479  18.205  67.406  1.00  0.00    -0.375 OA 
ENDBRANCH   2   8
BRANCH   2  11
HETATM   11  C   UNL     2      -9.153  15.312  68.662  1.00  0.00    -0.193 C  
HETATM   12  H   UNL     2      -9.873  15.426  70.508  1.00  0.00     0.000 HD 
HETATM   13  O   UNL     2      -9.808  15.988  69.746  1.00  0.00    -0.246 OA 
BRANCH  11  14
HETATM   14  C   UNL     2      -9.927  14.030  68.308  1.00  0.00    -0.236 C  
HETATM   15  H   UNL     2     -10.318  13.008  66.663  1.00  0.00     0.000 HD 
HETATM   16  O   UNL     2      -9.839  13.800  66.881  1.00  0.00    -0.250 OA 
BRANCH  14  17
HETATM   17  C   UNL     2     -11.406  14.054  68.683  1.00  0.00    -0.276 C  
HETATM   18  C   UNL     2     -11.887  12.685  69.200  1.00  0.00    -0.297 C  
HETATM   19  H   UNL     2     -13.089  14.410  67.725  1.00  0.00     0.000 HD 
HETATM   20  O   UNL     2     -12.168  14.395  67.492  1.00  0.00    -0.342 OA 
HETATM   21  O   UNL     2     -12.174  11.806  68.291  1.00  0.00    -0.486 OA 
HETATM   22  O   UNL     2     -12.297  12.541  70.348  1.00  0.00    -0.309 OA 
ENDBRANCH  14  17
ENDBRANCH  11  14
ENDBRANCH   2  11
BRANCH   3  23
HETATM   23  C   UNL     3      -9.268   8.111  70.859  1.00  0.00    -0.151 C  
HETATM   24  O   UNL     3      -8.720   7.103  69.999  1.00  0.00    -0.140 OA 
HETATM   25  H   UNL     3      -7.834   7.362  69.776  1.00  0.00     0.000 HD 
BRANCH  23  26
HETATM   26  C   UNL     3      -9.051   9.485  70.187  1.00  0.00    -0.240 C  
HETATM   27  O   UNL     3     -10.275  10.238  70.195  1.00  0.00    -0.391 OA 
HETATM   28  H   UNL     3     -10.142  11.083  69.781  1.00  0.00     0.000 HD 
BRANCH  26  29
HETATM   29  C   UNL     3      -8.616   9.241  68.723  1.00  0.00    -0.131 C  
HETATM   30  C   UNL     3      -7.571  10.219  68.131  1.00  0.00    -0.087 C  
HETATM   31  O   UNL     3      -9.789   9.253  67.838  1.00  0.00    -0.155 OA 
HETATM   32  O   UNL     3      -6.556  10.507  68.788  1.00  0.00    -0.051 OA 
HETATM   33  O   UNL     3      -7.931  10.608  66.937  1.00  0.00    -0.117 OA 
HETATM   34  H   UNL     3      -9.522   9.103  66.938  1.00  0.00     0.000 HD 
ENDBRANCH  26  29
ENDBRANCH  23  26
ENDBRANCH   3  23
BRANCH   3  35
HETATM   35  C   UNL     3     -11.478   8.693  72.069  1.00  0.00    -0.367 C  
HETATM   36  O   UNL     3     -12.553   7.978  72.686  1.00  0.00    -0.575 OA 
HETATM   37  H   UNL     3     -13.042   8.598  73.214  1.00  0.00     0.000 HD 
ENDBRANCH   3  35
TORSDOF 8
ENDMDL
MODEL      206
REMARK 921   NORMALIZED FREE ENERGY PREDICTED BY IDOCK:   -3.93 KCAL/MOL
REMARK 922        TOTAL FREE ENERGY PREDICTED BY IDOCK:   -7.87 KCAL/MOL
REMARK 923 INTER-LIGAND FREE ENERGY PREDICTED BY IDOCK:   -7.22 KCAL/MOL
REMARK 924 INTRA-LIGAND FREE ENERGY PREDICTED BY IDOCK:   -0.65 KCAL/MOL
REMARK 927      BINDING AFFINITY PREDICTED BY RF-SCORE:    0.00 PKD
ROOT
HETATM    1 FE   UNL     1      -9.482   9.527  65.576  1.00  0.00    -0.154 Fe 
HETATM    2  C   UNL     2      -9.983  16.166  66.941  1.00  0.00    -0.254 C  
HETATM    3  C   UNL     3     -10.337   7.970  71.688  1.00  0.00    -0.214 C  
HETATM    4  H   UNL     3     -12.238   8.233  72.028  1.00  0.00     0.000 HD 
HETATM    5  H   UNL     2     -11.426  15.174  66.026  1.00  0.00     0.000 HD 
HETATM    6  O   UNL     2     -10.805  15.860  65.810  1.00  0.00    -0.314 OA 
HETATM    7  O   UNL     3     -11.440   8.665  72.311  1.00  0.00    -0.365 OA 
ENDROOT
BRANCH   2   8
HETATM    8  C   UNL     2      -8.982  17.271  66.593  1.00  0.00    -0.256 C  
HETATM    9  H   UNL     2      -9.006  19.059  65.738  1.00  0.00     0.000 HD 
HETATM   10  O   UNL     2      -9.627  18.374  65.954  1.00  0.00    -0.499 OA 
ENDBRANCH   2   8
BRANCH   2  11
HETATM   11  C   UNL     2      -9.290  14.884  67.444  1.00  0.00    -0.199 C  
HETATM   12  H   UNL     2      -8.645  14.148  69.171  1.00  0.00     0.000 HD 
HETATM   13  O   UNL     2      -9.071  14.938  68.861  1.00  0.00    -0.189 OA 
BRANCH  11  14
HETATM   14  C   UNL     2     -10.146  13.653  67.099  1.00  0.00    -0.245 C  
HETATM   15  H   UNL     2     -10.908  12.860  65.457  1.00  0.00     0.000 HD 
HETATM   16  O   UNL     2     -10.379  13.621  65.670  1.00  0.00    -0.285 OA 
BRANCH  14  17
HETATM   17  C   UNL     2     -11.505  13.606  67.790  1.00  0.00    -0.318 C  
HETATM   18  C   UNL     2     -11.665  12.341  68.654  1.00  0.00    -0.328 C  
HETATM   19  H   UNL     2     -13.381  13.571  67.193  1.00  0.00     0.000 HD 
HETATM   20  O   UNL     2     -12.535  13.600  66.762  1.00  0.00    -0.341 OA 
HETATM   21  O   UNL     2     -11.997  11.261  68.019  1.00  0.00    -0.621 OA 
HETATM   22  O   UNL     2     -11.808  12.410  69.871  1.00  0.00    -0.322 OA 
ENDBRANCH  14  17
ENDBRANCH  11  14
ENDBRANCH   2  11
BRANCH   3  23
HETATM   23  C   UNL     3     -10.606   7.996  70.188  1.00  0.00    -0.237 C  
HETATM   24  O   UNL     3     -11.625   8.974  69.941  1.00  0.00    -0.452 OA 
HETATM   25  H   UNL     3     -11.793   8.990  69.006  1.00  0.00     0.000 HD 
BRANCH  23  26
HETATM   26  C   UNL     3      -9.425   8.283  69.233  1.00  0.00    -0.155 C  
HETATM   27  O   UNL     3      -9.701   9.451  68.443  1.00  0.00    -0.145 OA 
HETATM   28  H   UNL     3      -8.975   9.628  67.856  1.00  0.00     0.000 HD 
BRANCH  26  29
HETATM   29  C   UNL     3      -9.260   7.065  68.294  1.00  0.00    -0.128 C  
HETATM   30  C   UNL     3     -10.355   6.858  67.218  1.00  0.00    -0.251 C  
HETATM   31  O   UNL     3      -9.170   5.827  69.081  1.00  0.00    -0.119 OA 
HETATM   32  O   UNL     3     -10.732   7.822  66.531  1.00  0.00    -0.093 OA 
HETATM   33  O   UNL     3     -10.731   5.607  67.181  1.00  0.00    -0.264 OA 
HETATM   34  H   UNL     3      -9.069   5.079  68.504  1.00  0.00     0.000 HD 
ENDBRANCH  26  29
ENDBRANCH  23  26
ENDBRANCH   3  23
BRANCH   3  35
HETATM   35  C   UNL     3      -9.055   8.665  72.144  1.00  0.00    -0.231 C  
HETATM   36  O   UNL     3      -8.909   8.421  73.547  1.00  0.00    -0.242 OA 
HETATM   37  H   UNL     3      -8.111   8.853  73.831  1.00  0.00     0.000 HD 
ENDBRANCH   3  35
TORSDOF 8
ENDMDL
MODEL      207
REMARK 921   NORMALIZED FREE ENERGY PREDICTED BY IDOCK:   -3.92 KCAL/MOL
REMARK 922        TOTAL FREE ENERGY PREDICTED BY IDOCK:   -7.85 KCAL/MOL
REMARK 923 INTER-LIGAND FREE ENERGY PREDICTED BY IDOCK:   -6.67 KCAL/MOL
REMARK 924 INTRA-LIGAND FREE ENERGY PREDICTED BY IDOCK:   -1.19 KCAL/MOL
REMARK 927      BINDING AFFINITY PREDICTED BY RF-SCORE:    0.00 PKD
ROOT
HETATM    1 FE   UNL     1      -8.703  11.030  70.250  1.00  0.00    -0.314 Fe 
HETATM    2  C   UNL     2     -10.157   4.710  68.217  1.00  0.00     0.001 C  
HETATM    3  C   UNL     3     -12.049  13.584  65.476  1.00  0.00    -0.419 C  
HETATM    4  H   UNL     3     -13.919  13.354  65.974  1.00  0.00     0.000 HD 
HETATM    5  H   UNL     2     -10.990   5.512  69.819  1.00  0.00     0.000 HD 
HETATM    6  O   UNL     2     -10.381   4.809  69.627  1.00  0.00    -0.217 OA 
HETATM    7  O   UNL     3     -13.354  12.988  65.303  1.00  0.00    -0.534 OA 
ENDROOT
BRANCH   2   8
HETATM    8  C   UNL     2      -9.175   3.577  67.908  1.00  0.00    -0.183 C  
HETATM    9  H   UNL     2      -8.259   2.818  66.322  1.00  0.00     0.000 HD 
HETATM   10  O   UNL     2      -8.869   3.521  66.514  1.00  0.00    -0.118 OA 
ENDBRANCH   2   8
BRANCH   2  11
HETATM   11  C   UNL     2      -9.677   6.069  67.670  1.00  0.00    -0.115 C  
HETATM   12  H   UNL     2     -10.235   7.971  67.776  1.00  0.00     0.000 HD 
HETATM   13  O   UNL     2     -10.531   7.134  68.113  1.00  0.00    -0.188 OA 
BRANCH  11  14
HETATM   14  C   UNL     2      -8.233   6.340  68.125  1.00  0.00    -0.115 C  
HETATM   15  H   UNL     2      -7.363   7.341  69.590  1.00  0.00     0.000 HD 
HETATM   16  O   UNL     2      -8.256   7.173  69.309  1.00  0.00    -0.125 OA 
BRANCH  14  17
HETATM   17  C   UNL     2      -7.357   7.034  67.087  1.00  0.00    -0.090 C  
HETATM   18  C   UNL     2      -7.319   8.559  67.297  1.00  0.00    -0.088 C  
HETATM   19  H   UNL     2      -7.368   7.192  65.124  1.00  0.00     0.000 HD 
HETATM   20  O   UNL     2      -7.913   6.760  65.770  1.00  0.00    -0.100 OA 
HETATM   21  O   UNL     2      -8.330   9.220  66.826  1.00  0.00    -0.120 OA 
HETATM   22  O   UNL     2      -6.274   9.143  67.573  1.00  0.00    -0.057 OA 
ENDBRANCH  14  17
ENDBRANCH  11  14
ENDBRANCH   2  11
BRANCH   3  23
HETATM   23  C   UNL     3     -11.636  13.301  66.916  1.00  0.00    -0.364 C  
HETATM   24  O   UNL     3     -12.008  11.951  67.223  1.00  0.00    -0.605 OA 
HETATM   25  H   UNL     3     -11.750  11.775  68.121  1.00  0.00     0.000 HD 
BRANCH  23  26
HETATM   26  C   UNL     3     -10.152  13.490  67.307  1.00  0.00    -0.235 C  
HETATM   27  O   UNL     3      -9.844  12.705  68.471  1.00  0.00    -0.300 OA 
HETATM   28  H   UNL     3      -8.932  12.821  68.711  1.00  0.00     0.000 HD 
BRANCH  26  29
HETATM   29  C   UNL     3      -9.927  14.985  67.629  1.00  0.00    -0.225 C  
HETATM   30  C   UNL     3     -10.956  15.659  68.570  1.00  0.00    -0.303 C  
HETATM   31  O   UNL     3      -9.878  15.770  66.388  1.00  0.00    -0.244 OA 
HETATM   32  O   UNL     3     -11.296  15.089  69.621  1.00  0.00    -0.255 OA 
HETATM   33  O   UNL     3     -11.324  16.818  68.093  1.00  0.00    -0.255 OA 
HETATM   34  H   UNL     3      -9.740  16.688  66.586  1.00  0.00     0.000 HD 
ENDBRANCH  26  29
ENDBRANCH  23  26
ENDBRANCH   3  23
BRANCH   3  35
HETATM   35  C   UNL     3     -11.141  12.995  64.397  1.00  0.00    -0.370 C  
HETATM   36  O   UNL     3     -10.038  13.890  64.227  1.00  0.00    -0.727 OA 
HETATM   37  H   UNL     3      -9.473  13.523  63.557  1.00  0.00     0.000 HD 
ENDBRANCH   3  35
TORSDOF 8
ENDMDL
MODEL      208
REMARK 921   NORMALIZED FREE ENERGY PREDICTED BY IDOCK:   -3.92 KCAL/MOL
REMARK 922        TOTAL FREE ENERGY PREDICTED BY IDOCK:   -7.85 KCAL/MOL
REMARK 923 INTER-LIGAND FREE ENERGY PREDICTED BY IDOCK:   -6.08 KCAL/MOL
REMARK 924 INTRA-LIGAND FREE ENERGY PREDICTED BY IDOCK:   -1.77 KCAL/MOL
REMARK 927      BINDING AFFINITY PREDICTED BY RF-SCORE:    0.00 PKD
ROOT
HETATM    1 FE   UNL     1     -12.930  10.245  68.928  1.00  0.00    -0.482 Fe 
HETATM    2  C   UNL     2      -7.691   5.920  68.747  1.00  0.00    -0.091 C  
HETATM    3  C   UNL     3      -9.122  15.259  67.992  1.00  0.00    -0.176 C  
HETATM    4  H   UNL     3      -8.637  15.195  66.106  1.00  0.00     0.000 HD 
HETATM    5  H   UNL     2      -8.982   6.062  67.259  1.00  0.00     0.000 HD 
HETATM    6  O   UNL     2      -8.739   5.417  67.912  1.00  0.00    -0.108 OA 
HETATM    7  O   UNL     3      -8.169  15.068  66.923  1.00  0.00    -0.215 OA 
ENDROOT
BRANCH   2   8
HETATM    8  C   UNL     2      -7.298   4.880  69.800  1.00  0.00    -0.056 C  
HETATM    9  H   UNL     2      -8.187   3.476  70.881  1.00  0.00     0.000 HD 
HETATM   10  O   UNL     2      -8.430   4.122  70.228  1.00  0.00    -0.067 OA 
ENDBRANCH   2   8
BRANCH   2  11
HETATM   11  C   UNL     2      -8.123   7.259  69.376  1.00  0.00    -0.130 C  
HETATM   12  H   UNL     2      -9.675   7.968  70.390  1.00  0.00     0.000 HD 
HETATM   13  O   UNL     2      -9.409   7.143  70.002  1.00  0.00    -0.155 OA 
BRANCH  11  14
HETATM   14  C   UNL     2      -7.082   7.715  70.413  1.00  0.00    -0.058 C  
HETATM   15  H   UNL     2      -7.124   8.533  72.211  1.00  0.00     0.000 HD 
HETATM   16  O   UNL     2      -7.767   8.251  71.571  1.00  0.00    -0.080 OA 
BRANCH  14  17
HETATM   17  C   UNL     2      -6.110   8.780  69.915  1.00  0.00    -0.034 C  
HETATM   18  C   UNL     2      -6.652  10.202  70.147  1.00  0.00    -0.128 C  
HETATM   19  H   UNL     2      -5.313   9.247  68.176  1.00  0.00     0.000 HD 
HETATM   20  O   UNL     2      -5.918   8.584  68.486  1.00  0.00    -0.043 OA 
HETATM   21  O   UNL     2      -7.507  10.632  69.272  1.00  0.00    -0.107 OA 
HETATM   22  O   UNL     2      -6.078  10.995  70.889  1.00  0.00    -0.353 OA 
ENDBRANCH  14  17
ENDBRANCH  11  14
ENDBRANCH   2  11
BRANCH   3  23
HETATM   23  C   UNL     3     -10.266  14.286  67.726  1.00  0.00    -0.235 C  
HETATM   24  O   UNL     3     -10.903  14.003  68.979  1.00  0.00    -0.251 OA 
HETATM   25  H   UNL     3     -11.615  13.396  68.813  1.00  0.00     0.000 HD 
BRANCH  23  26
HETATM   26  C   UNL     3     -11.360  14.696  66.714  1.00  0.00    -0.356 C  
HETATM   27  O   UNL     3     -12.651  14.668  67.344  1.00  0.00    -0.461 OA 
HETATM   28  H   UNL     3     -13.324  14.920  66.722  1.00  0.00     0.000 HD 
BRANCH  26  29
HETATM   29  C   UNL     3     -11.343  13.677  65.551  1.00  0.00    -0.298 C  
HETATM   30  C   UNL     3     -11.238  12.180  65.934  1.00  0.00    -0.339 C  
HETATM   31  O   UNL     3     -10.239  13.979  64.629  1.00  0.00    -0.550 OA 
HETATM   32  O   UNL     3     -11.965  11.722  66.832  1.00  0.00    -0.605 OA 
HETATM   33  O   UNL     3     -10.350  11.577  65.189  1.00  0.00    -0.254 OA 
HETATM   34  H   UNL     3     -10.229  13.353  63.914  1.00  0.00     0.000 HD 
ENDBRANCH  26  29
ENDBRANCH  23  26
ENDBRANCH   3  23
BRANCH   3  35
HETATM   35  C   UNL     3      -8.369  15.054  69.307  1.00  0.00    -0.169 C  
HETATM   36  O   UNL     3      -7.939  13.690  69.347  1.00  0.00    -0.278 OA 
HETATM   37  H   UNL     3      -7.470  13.562  70.164  1.00  0.00     0.000 HD 
ENDBRANCH   3  35
TORSDOF 8
ENDMDL
MODEL      209
REMARK 921   NORMALIZED FREE ENERGY PREDICTED BY IDOCK:   -3.89 KCAL/MOL
REMARK 922        TOTAL FREE ENERGY PREDICTED BY IDOCK:   -7.81 KCAL/MOL
REMARK 923 INTER-LIGAND FREE ENERGY PREDICTED BY IDOCK:   -6.93 KCAL/MOL
REMARK 924 INTRA-LIGAND FREE ENERGY PREDICTED BY IDOCK:   -0.88 KCAL/MOL
REMARK 927      BINDING AFFINITY PREDICTED BY RF-SCORE:    0.00 PKD
ROOT
HETATM    1 FE   UNL     1      -7.269  12.051  70.369  1.00  0.00    -0.354 Fe 
HETATM    2  C   UNL     2      -8.785   5.552  71.655  1.00  0.00    -0.136 C  
HETATM    3  C   UNL     3     -10.064  11.814  64.656  1.00  0.00    -0.272 C  
HETATM    4  H   UNL     3     -11.979  11.845  65.015  1.00  0.00     0.000 HD 
HETATM    5  H   UNL     2      -9.727   7.042  72.546  1.00  0.00     0.000 HD 
HETATM    6  O   UNL     2      -9.132   6.345  72.795  1.00  0.00    -0.135 OA 
HETATM    7  O   UNL     3     -11.371  11.197  64.678  1.00  0.00    -0.099 OA 
ENDROOT
BRANCH   2   8
HETATM    8  C   UNL     2      -7.826   4.428  72.055  1.00  0.00    -0.090 C  
HETATM    9  H   UNL     2      -7.661   3.082  73.501  1.00  0.00     0.000 HD 
HETATM   10  O   UNL     2      -8.256   3.779  73.252  1.00  0.00    -0.085 OA 
ENDBRANCH   2   8
BRANCH   2  11
HETATM   11  C   UNL     2      -8.204   6.455  70.550  1.00  0.00    -0.118 C  
HETATM   12  H   UNL     2      -6.765   6.360  69.186  1.00  0.00     0.000 HD 
HETATM   13  O   UNL     2      -7.123   5.804  69.867  1.00  0.00    -0.063 OA 
BRANCH  11  14
HETATM   14  C   UNL     2      -9.304   6.827  69.540  1.00  0.00    -0.146 C  
HETATM   15  H   UNL     2     -10.748   8.171  69.437  1.00  0.00     0.000 HD 
HETATM   16  O   UNL     2     -10.069   7.942  70.061  1.00  0.00    -0.193 OA 
BRANCH  14  17
HETATM   17  C   UNL     2     -10.283   5.703  69.220  1.00  0.00    -0.239 C  
HETATM   18  C   UNL     2     -10.293   5.363  67.718  1.00  0.00    -0.166 C  
HETATM   19  H   UNL     2     -12.226   5.441  69.406  1.00  0.00     0.000 HD 
HETATM   20  O   UNL     2     -11.616   6.141  69.606  1.00  0.00    -0.407 OA 
HETATM   21  O   UNL     2     -11.006   6.142  66.966  1.00  0.00    -0.340 OA 
HETATM   22  O   UNL     2      -9.946   4.258  67.308  1.00  0.00    -0.179 OA 
ENDBRANCH  14  17
ENDBRANCH  11  14
ENDBRANCH   2  11
BRANCH   3  23
HETATM   23  C   UNL     3      -9.794  12.299  66.075  1.00  0.00    -0.248 C  
HETATM   24  O   UNL     3      -8.664  11.576  66.581  1.00  0.00    -0.172 OA 
HETATM   25  H   UNL     3      -8.497  11.878  67.465  1.00  0.00     0.000 HD 
BRANCH  23  26
HETATM   26  C   UNL     3      -9.539  13.807  66.302  1.00  0.00    -0.249 C  
HETATM   27  O   UNL     3      -9.268  14.058  67.691  1.00  0.00    -0.182 OA 
HETATM   28  H   UNL     3      -9.111  14.985  67.831  1.00  0.00     0.000 HD 
BRANCH  26  29
HETATM   29  C   UNL     3     -10.814  14.577  65.888  1.00  0.00    -0.308 C  
HETATM   30  C   UNL     3     -12.162  14.042  66.432  1.00  0.00    -0.460 C  
HETATM   31  O   UNL     3     -10.918  14.636  64.424  1.00  0.00    -0.610 OA 
HETATM   32  O   UNL     3     -12.267  13.748  67.636  1.00  0.00    -0.337 OA 
HETATM   33  O   UNL     3     -13.055  13.994  65.480  1.00  0.00    -0.713 OA 
HETATM   34  H   UNL     3     -11.701  15.109  64.169  1.00  0.00     0.000 HD 
ENDBRANCH  26  29
ENDBRANCH  23  26
ENDBRANCH   3  23
BRANCH   3  35
HETATM   35  C   UNL     3      -9.086  10.771  64.114  1.00  0.00    -0.196 C  
HETATM   36  O   UNL     3      -9.541   9.487  64.550  1.00  0.00    -0.433 OA 
HETATM   37  H   UNL     3      -8.934   8.838  64.213  1.00  0.00     0.000 HD 
ENDBRANCH   3  35
TORSDOF 8
ENDMDL
MODEL      210
REMARK 921   NORMALIZED FREE ENERGY PREDICTED BY IDOCK:   -3.88 KCAL/MOL
REMARK 922        TOTAL FREE ENERGY PREDICTED BY IDOCK:   -7.80 KCAL/MOL
REMARK 923 INTER-LIGAND FREE ENERGY PREDICTED BY IDOCK:   -6.56 KCAL/MOL
REMARK 924 INTRA-LIGAND FREE ENERGY PREDICTED BY IDOCK:   -1.24 KCAL/MOL
REMARK 927      BINDING AFFINITY PREDICTED BY RF-SCORE:    0.00 PKD
ROOT
HETATM    1 FE   UNL     1     -10.874   8.231  65.955  1.00  0.00    -0.362 Fe 
HETATM    2  C   UNL     2      -5.605   7.073  70.087  1.00  0.00    -0.023 C  
HETATM    3  C   UNL     3     -10.929  14.433  67.381  1.00  0.00    -0.299 C  
HETATM    4  H   UNL     3      -9.412  15.197  66.426  1.00  0.00     0.000 HD 
HETATM    5  H   UNL     2      -5.412   7.074  68.121  1.00  0.00     0.000 HD 
HETATM    6  O   UNL     2      -5.356   6.441  68.828  1.00  0.00    -0.010 OA 
HETATM    7  O   UNL     3      -9.620  15.046  67.341  1.00  0.00    -0.203 OA 
ENDROOT
BRANCH   2   8
HETATM    8  C   UNL     2      -5.514   6.053  71.226  1.00  0.00    -0.018 C  
HETATM    9  H   UNL     2      -5.095   6.047  73.163  1.00  0.00     0.000 HD 
HETATM   10  O   UNL     2      -5.151   6.680  72.457  1.00  0.00    -0.030 OA 
ENDBRANCH   2   8
BRANCH   2  11
HETATM   11  C   UNL     2      -6.967   7.791  70.049  1.00  0.00    -0.050 C  
HETATM   12  H   UNL     2      -7.926   9.054  68.854  1.00  0.00     0.000 HD 
HETATM   13  O   UNL     2      -7.086   8.611  68.878  1.00  0.00    -0.064 OA 
BRANCH  11  14
HETATM   14  C   UNL     2      -8.108   6.760  70.077  1.00  0.00    -0.125 C  
HETATM   15  H   UNL     2      -9.301   5.917  68.746  1.00  0.00     0.000 HD 
HETATM   16  O   UNL     2      -8.596   6.554  68.729  1.00  0.00    -0.121 OA 
BRANCH  14  17
HETATM   17  C   UNL     2      -9.300   7.149  70.946  1.00  0.00    -0.160 C  
HETATM   18  C   UNL     2      -8.873   7.475  72.389  1.00  0.00    -0.127 C  
HETATM   19  H   UNL     2     -10.965   6.266  71.518  1.00  0.00     0.000 HD 
HETATM   20  O   UNL     2     -10.223   6.024  70.977  1.00  0.00    -0.189 OA 
HETATM   21  O   UNL     2      -8.690   6.455  73.169  1.00  0.00    -0.123 OA 
HETATM   22  O   UNL     2      -9.027   8.596  72.866  1.00  0.00    -0.343 OA 
ENDBRANCH  14  17
ENDBRANCH  11  14
ENDBRANCH   2  11
BRANCH   3  23
HETATM   23  C   UNL     3     -10.846  13.187  66.507  1.00  0.00    -0.280 C  
HETATM   24  O   UNL     3     -12.161  12.623  66.419  1.00  0.00    -0.550 OA 
HETATM   25  H   UNL     3     -12.109  11.846  65.875  1.00  0.00     0.000 HD 
BRANCH  23  26
HETATM   26  C   UNL     3     -10.289  13.330  65.072  1.00  0.00    -0.340 C  
HETATM   27  O   UNL     3     -10.645  14.613  64.530  1.00  0.00    -0.594 OA 
HETATM   28  H   UNL     3     -10.303  14.701  63.648  1.00  0.00     0.000 HD 
BRANCH  26  29
HETATM   29  C   UNL     3     -10.918  12.219  64.200  1.00  0.00    -0.363 C  
HETATM   30  C   UNL     3     -10.105  10.910  64.041  1.00  0.00    -0.358 C  
HETATM   31  O   UNL     3     -11.202  12.732  62.853  1.00  0.00    -0.611 OA 
HETATM   32  O   UNL     3      -9.603  10.372  65.042  1.00  0.00    -0.231 OA 
HETATM   33  O   UNL     3     -10.082  10.533  62.790  1.00  0.00    -0.163 OA 
HETATM   34  H   UNL     3     -11.589  12.050  62.317  1.00  0.00     0.000 HD 
ENDBRANCH  26  29
ENDBRANCH  23  26
ENDBRANCH   3  23
BRANCH   3  35
HETATM   35  C   UNL     3     -11.264  14.190  68.853  1.00  0.00    -0.267 C  
HETATM   36  O   UNL     3     -12.342  15.065  69.199  1.00  0.00    -0.559 OA 
HETATM   37  H   UNL     3     -12.550  14.913  70.114  1.00  0.00     0.000 HD 
ENDBRANCH   3  35
TORSDOF 8
ENDMDL
MODEL      211
REMARK 921   NORMALIZED FREE ENERGY PREDICTED BY IDOCK:   -3.88 KCAL/MOL
REMARK 922        TOTAL FREE ENERGY PREDICTED BY IDOCK:   -7.80 KCAL/MOL
REMARK 923 INTER-LIGAND FREE ENERGY PREDICTED BY IDOCK:   -6.23 KCAL/MOL
REMARK 924 INTRA-LIGAND FREE ENERGY PREDICTED BY IDOCK:   -1.57 KCAL/MOL
REMARK 927      BINDING AFFINITY PREDICTED BY RF-SCORE:    0.00 PKD
ROOT
HETATM    1 FE   UNL     1     -10.459  13.472  63.756  1.00  0.00    -0.401 Fe 
HETATM    2  C   UNL     2      -9.323  19.343  66.986  1.00  0.00    -0.326 C  
HETATM    3  C   UNL     3     -11.261  10.342  69.240  1.00  0.00    -0.248 C  
HETATM    4  H   UNL     3     -13.024  10.868  69.882  1.00  0.00     0.000 HD 
HETATM    5  H   UNL     2     -11.011  18.987  66.024  1.00  0.00     0.000 HD 
HETATM    6  O   UNL     2     -10.264  19.566  65.931  1.00  0.00    -0.444 OA 
HETATM    7  O   UNL     3     -12.132  11.024  70.171  1.00  0.00    -0.297 OA 
ENDROOT
BRANCH   2   8
HETATM    8  C   UNL     2      -8.118  20.275  66.837  1.00  0.00    -0.299 C  
HETATM    9  H   UNL     2      -6.639  20.571  65.551  1.00  0.00     0.000 HD 
HETATM   10  O   UNL     2      -7.387  19.992  65.643  1.00  0.00    -0.323 OA 
ENDBRANCH   2   8
BRANCH   2  11
HETATM   11  C   UNL     2      -8.916  17.857  67.014  1.00  0.00    -0.250 C  
HETATM   12  H   UNL     2      -7.586  16.719  67.952  1.00  0.00     0.000 HD 
HETATM   13  O   UNL     2      -7.837  17.634  67.934  1.00  0.00    -0.212 OA 
BRANCH  11  14
HETATM   14  C   UNL     2     -10.121  16.987  67.410  1.00  0.00    -0.291 C  
HETATM   15  H   UNL     2     -11.066  16.537  69.087  1.00  0.00     0.000 HD 
HETATM   16  O   UNL     2     -10.321  17.075  68.842  1.00  0.00    -0.300 OA 
BRANCH  14  17
HETATM   17  C   UNL     2      -9.988  15.510  67.051  1.00  0.00    -0.239 C  
HETATM   18  C   UNL     2      -9.574  14.661  68.267  1.00  0.00    -0.208 C  
HETATM   19  H   UNL     2      -8.880  14.466  65.802  1.00  0.00     0.000 HD 
HETATM   20  O   UNL     2      -8.963  15.385  66.026  1.00  0.00    -0.310 OA 
HETATM   21  O   UNL     2      -8.309  14.662  68.554  1.00  0.00    -0.149 OA 
HETATM   22  O   UNL     2     -10.307  13.785  68.718  1.00  0.00    -0.237 OA 
ENDBRANCH  14  17
ENDBRANCH  11  14
ENDBRANCH   2  11
BRANCH   3  23
HETATM   23  C   UNL     3     -11.612  10.876  67.855  1.00  0.00    -0.188 C  
HETATM   24  O   UNL     3     -12.248  12.150  68.023  1.00  0.00    -0.419 OA 
HETATM   25  H   UNL     3     -12.467  12.482  67.160  1.00  0.00     0.000 HD 
BRANCH  23  26
HETATM   26  C   UNL     3     -10.475  11.040  66.820  1.00  0.00    -0.251 C  
HETATM   27  O   UNL     3     -10.621  12.288  66.122  1.00  0.00    -0.239 OA 
HETATM   28  H   UNL     3      -9.922  12.389  65.485  1.00  0.00     0.000 HD 
BRANCH  26  29
HETATM   29  C   UNL     3     -10.577   9.877  65.807  1.00  0.00     0.197 C  
HETATM   30  C   UNL     3      -9.780   8.591  66.136  1.00  0.00    -0.189 C  
HETATM   31  O   UNL     3     -10.159  10.330  64.473  1.00  0.00    -0.338 OA 
HETATM   32  O   UNL     3      -9.837   8.107  67.280  1.00  0.00    -0.164 OA 
HETATM   33  O   UNL     3      -9.135   8.167  65.082  1.00  0.00     0.064 OA 
HETATM   34  H   UNL     3     -10.222   9.615  63.850  1.00  0.00     0.000 HD 
ENDBRANCH  26  29
ENDBRANCH  23  26
ENDBRANCH   3  23
BRANCH   3  35
HETATM   35  C   UNL     3      -9.826  10.593  69.704  1.00  0.00    -0.013 C  
HETATM   36  O   UNL     3      -9.183   9.320  69.820  1.00  0.00    -0.158 OA 
HETATM   37  H   UNL     3      -8.291   9.475  70.108  1.00  0.00     0.000 HD 
ENDBRANCH   3  35
TORSDOF 8
ENDMDL
MODEL      212
REMARK 921   NORMALIZED FREE ENERGY PREDICTED BY IDOCK:   -3.88 KCAL/MOL
REMARK 922        TOTAL FREE ENERGY PREDICTED BY IDOCK:   -7.79 KCAL/MOL
REMARK 923 INTER-LIGAND FREE ENERGY PREDICTED BY IDOCK:   -5.51 KCAL/MOL
REMARK 924 INTRA-LIGAND FREE ENERGY PREDICTED BY IDOCK:   -2.28 KCAL/MOL
REMARK 927      BINDING AFFINITY PREDICTED BY RF-SCORE:    0.00 PKD
ROOT
HETATM    1 FE   UNL     1     -10.565   6.701  65.723  1.00  0.00    -0.435 Fe 
HETATM    2  C   UNL     2      -7.443   4.352  71.284  1.00  0.00    -0.060 C  
HETATM    3  C   UNL     3     -10.784  12.616  68.062  1.00  0.00    -0.226 C  
HETATM    4  H   UNL     3      -8.967  13.304  67.902  1.00  0.00     0.000 HD 
HETATM    5  H   UNL     2      -6.490   4.590  69.570  1.00  0.00     0.000 HD 
HETATM    6  O   UNL     2      -6.758   3.867  70.125  1.00  0.00    -0.032 OA 
HETATM    7  O   UNL     3      -9.530  13.060  68.628  1.00  0.00    -0.134 OA 
ENDROOT
BRANCH   2   8
HETATM    8  C   UNL     2      -7.875   3.187  72.178  1.00  0.00    -0.058 C  
HETATM    9  H   UNL     2      -7.603   2.591  74.049  1.00  0.00     0.000 HD 
HETATM   10  O   UNL     2      -7.334   3.313  73.494  1.00  0.00    -0.052 OA 
ENDBRANCH   2   8
BRANCH   2  11
HETATM   11  C   UNL     2      -8.631   5.235  70.855  1.00  0.00    -0.128 C  
HETATM   12  H   UNL     2     -10.570   5.381  71.257  1.00  0.00     0.000 HD 
HETATM   13  O   UNL     2      -9.838   4.837  71.522  1.00  0.00    -0.170 OA 
BRANCH  11  14
HETATM   14  C   UNL     2      -8.331   6.711  71.166  1.00  0.00    -0.125 C  
HETATM   15  H   UNL     2      -7.105   7.695  72.364  1.00  0.00     0.000 HD 
HETATM   16  O   UNL     2      -7.291   6.783  72.172  1.00  0.00    -0.086 OA 
BRANCH  14  17
HETATM   17  C   UNL     2      -9.524   7.511  71.677  1.00  0.00    -0.149 C  
HETATM   18  C   UNL     2     -10.371   8.077  70.521  1.00  0.00    -0.202 C  
HETATM   19  H   UNL     2      -9.761   9.121  72.787  1.00  0.00     0.000 HD 
HETATM   20  O   UNL     2      -9.018   8.622  72.468  1.00  0.00    -0.337 OA 
HETATM   21  O   UNL     2      -9.928   9.166  69.975  1.00  0.00    -0.180 OA 
HETATM   22  O   UNL     2     -11.539   7.734  70.354  1.00  0.00    -0.220 OA 
ENDBRANCH  14  17
ENDBRANCH  11  14
ENDBRANCH   2  11
BRANCH   3  23
HETATM   23  C   UNL     3     -10.442  11.497  67.085  1.00  0.00    -0.224 C  
HETATM   24  O   UNL     3     -11.336  11.598  65.970  1.00  0.00    -0.294 OA 
HETATM   25  H   UNL     3     -11.123  10.901  65.361  1.00  0.00     0.000 HD 
BRANCH  23  26
HETATM   26  C   UNL     3      -8.999  11.414  66.537  1.00  0.00    -0.189 C  
HETATM   27  O   UNL     3      -8.920  12.057  65.254  1.00  0.00    -0.400 OA 
HETATM   28  H   UNL     3      -8.033  12.006  64.917  1.00  0.00     0.000 HD 
BRANCH  26  29
HETATM   29  C   UNL     3      -8.631   9.921  66.378  1.00  0.00    -0.128 C  
HETATM   30  C   UNL     3      -7.755   9.543  65.157  1.00  0.00    -0.112 C  
HETATM   31  O   UNL     3      -9.850   9.102  66.321  1.00  0.00    -0.252 OA 
HETATM   32  O   UNL     3      -6.744  10.216  64.893  1.00  0.00    -0.122 OA 
HETATM   33  O   UNL     3      -8.236   8.487  64.556  1.00  0.00    -0.155 OA 
HETATM   34  H   UNL     3      -9.623   8.184  66.223  1.00  0.00     0.000 HD 
ENDBRANCH  26  29
ENDBRANCH  23  26
ENDBRANCH   3  23
BRANCH   3  35
HETATM   35  C   UNL     3     -11.688  12.224  69.231  1.00  0.00    -0.330 C  
HETATM   36  O   UNL     3     -12.213  10.923  68.950  1.00  0.00    -0.709 OA 
HETATM   37  H   UNL     3     -12.775  10.679  69.677  1.00  0.00     0.000 HD 
ENDBRANCH   3  35
TORSDOF 8
ENDMDL
MODEL      213
REMARK 921   NORMALIZED FREE ENERGY PREDICTED BY IDOCK:   -3.86 KCAL/MOL
REMARK 922        TOTAL FREE ENERGY PREDICTED BY IDOCK:   -7.76 KCAL/MOL
REMARK 923 INTER-LIGAND FREE ENERGY PREDICTED BY IDOCK:   -5.81 KCAL/MOL
REMARK 924 INTRA-LIGAND FREE ENERGY PREDICTED BY IDOCK:   -1.96 KCAL/MOL
REMARK 927      BINDING AFFINITY PREDICTED BY RF-SCORE:    0.00 PKD
ROOT
HETATM    1 FE   UNL     1     -11.603   7.734  70.400  1.00  0.00    -0.263 Fe 
HETATM    2  C   UNL     2      -9.624  13.325  67.083  1.00  0.00    -0.240 C  
HETATM    3  C   UNL     3      -9.291   3.934  65.847  1.00  0.00    -0.165 C  
HETATM    4  H   UNL     3      -7.358   3.957  66.087  1.00  0.00     0.000 HD 
HETATM    5  H   UNL     2      -8.695  12.687  68.705  1.00  0.00     0.000 HD 
HETATM    6  O   UNL     2      -9.227  13.432  68.454  1.00  0.00    -0.195 OA 
HETATM    7  O   UNL     3      -7.955   4.286  65.425  1.00  0.00    -0.095 OA 
ENDROOT
BRANCH   2   8
HETATM    8  C   UNL     2     -10.482  14.526  66.677  1.00  0.00    -0.274 C  
HETATM    9  H   UNL     2     -10.367  16.504  66.744  1.00  0.00     0.000 HD 
HETATM   10  O   UNL     2      -9.834  15.759  66.996  1.00  0.00    -0.229 OA 
ENDBRANCH   2   8
BRANCH   2  11
HETATM   11  C   UNL     2     -10.346  11.983  66.853  1.00  0.00    -0.213 C  
HETATM   12  H   UNL     2     -12.164  11.364  66.351  1.00  0.00     0.000 HD 
HETATM   13  O   UNL     2     -11.719  12.191  66.493  1.00  0.00    -0.495 OA 
BRANCH  11  14
HETATM   14  C   UNL     2      -9.636  11.186  65.745  1.00  0.00    -0.221 C  
HETATM   15  H   UNL     2     -10.172  10.278  64.074  1.00  0.00     0.000 HD 
HETATM   16  O   UNL     2     -10.611  10.771  64.758  1.00  0.00    -0.310 OA 
BRANCH  14  17
HETATM   17  C   UNL     2      -8.904   9.937  66.227  1.00  0.00    -0.143 C  
HETATM   18  C   UNL     2      -7.699   9.597  65.331  1.00  0.00    -0.117 C  
HETATM   19  H   UNL     2      -9.385   8.045  66.490  1.00  0.00     0.000 HD 
HETATM   20  O   UNL     2      -9.840   8.823  66.190  1.00  0.00    -0.267 OA 
HETATM   21  O   UNL     2      -7.971   8.964  64.233  1.00  0.00    -0.130 OA 
HETATM   22  O   UNL     2      -6.551   9.610  65.767  1.00  0.00    -0.075 OA 
ENDBRANCH  14  17
ENDBRANCH  11  14
ENDBRANCH   2  11
BRANCH   3  23
HETATM   23  C   UNL     3      -9.467   4.515  67.246  1.00  0.00    -0.162 C  
HETATM   24  O   UNL     3      -9.133   3.492  68.193  1.00  0.00    -0.122 OA 
HETATM   25  H   UNL     3      -9.243   3.854  69.064  1.00  0.00     0.000 HD 
BRANCH  23  26
HETATM   26  C   UNL     3      -8.676   5.790  67.618  1.00  0.00    -0.107 C  
HETATM   27  O   UNL     3      -7.343   5.441  68.030  1.00  0.00    -0.071 OA 
HETATM   28  H   UNL     3      -6.857   6.224  68.259  1.00  0.00     0.000 HD 
BRANCH  26  29
HETATM   29  C   UNL     3      -9.404   6.481  68.794  1.00  0.00    -0.130 C  
HETATM   30  C   UNL     3      -9.471   5.701  70.131  1.00  0.00    -0.159 C  
HETATM   31  O   UNL     3     -10.781   6.820  68.408  1.00  0.00    -0.213 OA 
HETATM   32  O   UNL     3      -8.445   5.162  70.580  1.00  0.00    -0.111 OA 
HETATM   33  O   UNL     3     -10.677   5.746  70.629  1.00  0.00    -0.261 OA 
HETATM   34  H   UNL     3     -11.228   7.245  69.130  1.00  0.00     0.000 HD 
ENDBRANCH  26  29
ENDBRANCH  23  26
ENDBRANCH   3  23
BRANCH   3  35
HETATM   35  C   UNL     3     -10.251   4.464  64.783  1.00  0.00    -0.069 C  
HETATM   36  O   UNL     3     -11.549   4.552  65.379  1.00  0.00    -0.970 OA 
HETATM   37  H   UNL     3     -12.146   4.882  64.717  1.00  0.00     0.000 HD 
ENDBRANCH   3  35
TORSDOF 8
ENDMDL
MODEL      214
REMARK 921   NORMALIZED FREE ENERGY PREDICTED BY IDOCK:   -3.85 KCAL/MOL
REMARK 922        TOTAL FREE ENERGY PREDICTED BY IDOCK:   -7.75 KCAL/MOL
REMARK 923 INTER-LIGAND FREE ENERGY PREDICTED BY IDOCK:   -6.26 KCAL/MOL
REMARK 924 INTRA-LIGAND FREE ENERGY PREDICTED BY IDOCK:   -1.49 KCAL/MOL
REMARK 927      BINDING AFFINITY PREDICTED BY RF-SCORE:    0.00 PKD
ROOT
HETATM    1 FE   UNL     1     -11.665  11.412  71.092  1.00  0.00    -0.301 Fe 
HETATM    2  C   UNL     2     -10.110  15.876  66.208  1.00  0.00    -0.301 C  
HETATM    3  C   UNL     3      -9.373   6.543  67.692  1.00  0.00    -0.118 C  
HETATM    4  H   UNL     3      -7.434   6.700  67.806  1.00  0.00     0.000 HD 
HETATM    5  H   UNL     2      -9.080  15.763  67.890  1.00  0.00     0.000 HD 
HETATM    6  O   UNL     2      -9.659  16.386  67.467  1.00  0.00    -0.225 OA 
HETATM    7  O   UNL     3      -8.076   6.805  67.112  1.00  0.00    -0.114 OA 
ENDROOT
BRANCH   2   8
HETATM    8  C   UNL     2     -11.044  16.879  65.526  1.00  0.00     0.134 C  
HETATM    9  H   UNL     2     -11.946  17.090  63.774  1.00  0.00     0.000 HD 
HETATM   10  O   UNL     2     -11.366  16.467  64.197  1.00  0.00    -1.060 OA 
ENDBRANCH   2   8
BRANCH   2  11
HETATM   11  C   UNL     2     -10.775  14.500  66.413  1.00  0.00    -0.309 C  
HETATM   12  H   UNL     2     -10.619  12.670  65.660  1.00  0.00     0.000 HD 
HETATM   13  O   UNL     2     -10.209  13.518  65.534  1.00  0.00    -0.291 OA 
BRANCH  11  14
HETATM   14  C   UNL     2     -10.608  14.046  67.873  1.00  0.00    -0.244 C  
HETATM   15  H   UNL     2      -9.800  12.500  68.802  1.00  0.00     0.000 HD 
HETATM   16  O   UNL     2      -9.903  12.781  67.900  1.00  0.00    -0.209 OA 
BRANCH  14  17
HETATM   17  C   UNL     2     -11.915  13.864  68.638  1.00  0.00    -0.366 C  
HETATM   18  C   UNL     2     -11.930  14.676  69.947  1.00  0.00    -0.329 C  
HETATM   19  H   UNL     2     -12.867  12.339  69.442  1.00  0.00     0.000 HD 
HETATM   20  O   UNL     2     -12.053  12.452  68.966  1.00  0.00    -0.259 OA 
HETATM   21  O   UNL     2     -11.314  14.139  70.953  1.00  0.00    -0.021 OA 
HETATM   22  O   UNL     2     -12.740  15.581  70.131  1.00  0.00    -0.347 OA 
ENDBRANCH  14  17
ENDBRANCH  11  14
ENDBRANCH   2  11
BRANCH   3  23
HETATM   23  C   UNL     3      -9.515   7.496  68.874  1.00  0.00    -0.145 C  
HETATM   24  O   UNL     3      -9.370   6.730  70.077  1.00  0.00    -0.157 OA 
HETATM   25  H   UNL     3      -9.459   7.324  70.813  1.00  0.00     0.000 HD 
BRANCH  23  26
HETATM   26  C   UNL     3      -8.561   8.709  68.960  1.00  0.00    -0.129 C  
HETATM   27  O   UNL     3      -7.194   8.266  68.930  1.00  0.00    -0.074 OA 
HETATM   28  H   UNL     3      -6.608   9.012  68.983  1.00  0.00     0.000 HD 
BRANCH  26  29
HETATM   29  C   UNL     3      -8.828   9.437  70.298  1.00  0.00    -0.236 C  
HETATM   30  C   UNL     3      -8.427   8.688  71.593  1.00  0.00    -0.167 C  
HETATM   31  O   UNL     3     -10.251   9.786  70.409  1.00  0.00    -0.269 OA 
HETATM   32  O   UNL     3      -7.311   8.144  71.669  1.00  0.00    -0.069 OA 
HETATM   33  O   UNL     3      -9.383   8.760  72.481  1.00  0.00    -0.326 OA 
HETATM   34  H   UNL     3     -10.415  10.233  71.232  1.00  0.00     0.000 HD 
ENDBRANCH  26  29
ENDBRANCH  23  26
ENDBRANCH   3  23
BRANCH   3  35
HETATM   35  C   UNL     3     -10.405   6.712  66.576  1.00  0.00    -0.050 C  
HETATM   36  O   UNL     3     -10.018   7.851  65.802  1.00  0.00    -0.280 OA 
HETATM   37  H   UNL     3     -10.659   7.956  65.108  1.00  0.00     0.000 HD 
ENDBRANCH   3  35
TORSDOF 8
ENDMDL
MODEL      215
REMARK 921   NORMALIZED FREE ENERGY PREDICTED BY IDOCK:   -3.84 KCAL/MOL
REMARK 922        TOTAL FREE ENERGY PREDICTED BY IDOCK:   -7.73 KCAL/MOL
REMARK 923 INTER-LIGAND FREE ENERGY PREDICTED BY IDOCK:   -6.48 KCAL/MOL
REMARK 924 INTRA-LIGAND FREE ENERGY PREDICTED BY IDOCK:   -1.25 KCAL/MOL
REMARK 927      BINDING AFFINITY PREDICTED BY RF-SCORE:    0.00 PKD
ROOT
HETATM    1 FE   UNL     1     -11.664   9.651  69.890  1.00  0.00    -0.241 Fe 
HETATM    2  C   UNL     2     -11.096  14.043  64.736  1.00  0.00    -0.387 C  
HETATM    3  C   UNL     3      -9.031   4.960  66.488  1.00  0.00    -0.112 C  
HETATM    4  H   UNL     3      -7.127   5.368  66.432  1.00  0.00     0.000 HD 
HETATM    5  H   UNL     2      -9.930  14.142  66.328  1.00  0.00     0.000 HD 
HETATM    6  O   UNL     2     -10.617  14.665  65.932  1.00  0.00    -0.289 OA 
HETATM    7  O   UNL     3      -7.829   5.357  65.792  1.00  0.00    -0.096 OA 
ENDROOT
BRANCH   2   8
HETATM    8  C   UNL     2     -12.203  14.887  64.098  1.00  0.00    -0.255 C  
HETATM    9  H   UNL     2     -12.465  16.759  63.501  1.00  0.00     0.000 HD 
HETATM   10  O   UNL     2     -11.778  16.236  63.897  1.00  0.00    -0.986 OA 
ENDBRANCH   2   8
BRANCH   2  11
HETATM   11  C   UNL     2     -11.557  12.606  65.045  1.00  0.00    -0.345 C  
HETATM   12  H   UNL     2     -11.735  10.883  64.075  1.00  0.00     0.000 HD 
HETATM   13  O   UNL     2     -11.451  11.769  63.884  1.00  0.00    -0.383 OA 
BRANCH  11  14
HETATM   14  C   UNL     2     -10.713  12.016  66.188  1.00  0.00    -0.275 C  
HETATM   15  H   UNL     2      -9.800  10.300  66.547  1.00  0.00     0.000 HD 
HETATM   16  O   UNL     2     -10.322  10.665  65.841  1.00  0.00    -0.255 OA 
BRANCH  14  17
HETATM   17  C   UNL     2     -11.418  11.961  67.539  1.00  0.00    -0.326 C  
HETATM   18  C   UNL     2     -10.627  12.708  68.628  1.00  0.00    -0.222 C  
HETATM   19  H   UNL     2     -11.979  10.530  68.771  1.00  0.00     0.000 HD 
HETATM   20  O   UNL     2     -11.540  10.564  67.929  1.00  0.00    -0.461 OA 
HETATM   21  O   UNL     2      -9.642  12.054  69.162  1.00  0.00     0.164 OA 
HETATM   22  O   UNL     2     -11.088  13.696  69.193  1.00  0.00    -0.253 OA 
ENDBRANCH  14  17
ENDBRANCH  11  14
ENDBRANCH   2  11
BRANCH   3  23
HETATM   23  C   UNL     3      -9.203   5.941  67.642  1.00  0.00    -0.104 C  
HETATM   24  O   UNL     3     -10.600   6.013  67.955  1.00  0.00    -0.214 OA 
HETATM   25  H   UNL     3     -10.707   6.625  68.674  1.00  0.00     0.000 HD 
BRANCH  23  26
HETATM   26  C   UNL     3      -8.431   5.676  68.955  1.00  0.00    -0.102 C  
HETATM   27  O   UNL     3      -9.180   4.783  69.796  1.00  0.00    -0.105 OA 
HETATM   28  H   UNL     3      -8.705   4.620  70.603  1.00  0.00     0.000 HD 
BRANCH  26  29
HETATM   29  C   UNL     3      -8.249   7.026  69.686  1.00  0.00    -0.131 C  
HETATM   30  C   UNL     3      -9.538   7.796  70.065  1.00  0.00    -0.161 C  
HETATM   31  O   UNL     3      -7.412   7.929  68.883  1.00  0.00    -0.090 OA 
HETATM   32  O   UNL     3     -10.479   7.191  70.608  1.00  0.00    -0.207 OA 
HETATM   33  O   UNL     3      -9.429   9.059  69.751  1.00  0.00    -0.163 OA 
HETATM   34  H   UNL     3      -7.300   8.758  69.332  1.00  0.00     0.000 HD 
ENDBRANCH  26  29
ENDBRANCH  23  26
ENDBRANCH   3  23
BRANCH   3  35
HETATM   35  C   UNL     3     -10.161   4.944  65.458  1.00  0.00    -0.069 C  
HETATM   36  O   UNL     3     -10.447   3.575  65.154  1.00  0.00    -0.415 OA 
HETATM   37  H   UNL     3     -11.149   3.565  64.514  1.00  0.00     0.000 HD 
ENDBRANCH   3  35
TORSDOF 8
ENDMDL
MODEL      216
REMARK 921   NORMALIZED FREE ENERGY PREDICTED BY IDOCK:   -3.80 KCAL/MOL
REMARK 922        TOTAL FREE ENERGY PREDICTED BY IDOCK:   -7.67 KCAL/MOL
REMARK 923 INTER-LIGAND FREE ENERGY PREDICTED BY IDOCK:   -5.64 KCAL/MOL
REMARK 924 INTRA-LIGAND FREE ENERGY PREDICTED BY IDOCK:   -2.04 KCAL/MOL
REMARK 927      BINDING AFFINITY PREDICTED BY RF-SCORE:    0.00 PKD
ROOT
HETATM    1 FE   UNL     1      -5.759  13.437  66.991  1.00  0.00    -0.108 Fe 
HETATM    2  C   UNL     2     -10.661  18.144  67.017  1.00  0.00    -0.328 C  
HETATM    3  C   UNL     3      -9.696   8.990  69.277  1.00  0.00    -0.168 C  
HETATM    4  H   UNL     3     -10.833   8.486  67.777  1.00  0.00     0.000 HD 
HETATM    5  H   UNL     2     -10.000  17.331  65.343  1.00  0.00     0.000 HD 
HETATM    6  O   UNL     2      -9.983  18.185  65.758  1.00  0.00    -0.547 OA 
HETATM    7  O   UNL     3     -10.971   8.944  68.598  1.00  0.00    -0.055 OA 
ENDROOT
BRANCH   2   8
HETATM    8  C   UNL     2     -10.633  19.521  67.686  1.00  0.00    -0.440 C  
HETATM    9  H   UNL     2      -9.792  20.370  69.268  1.00  0.00     0.000 HD 
HETATM   10  O   UNL     2      -9.809  19.515  68.853  1.00  0.00    -0.424 OA 
ENDBRANCH   2   8
BRANCH   2  11
HETATM   11  C   UNL     2     -10.043  17.047  67.906  1.00  0.00    -0.306 C  
HETATM   12  H   UNL     2     -10.610  15.328  68.720  1.00  0.00     0.000 HD 
HETATM   13  O   UNL     2     -10.991  16.004  68.173  1.00  0.00    -0.314 OA 
BRANCH  11  14
HETATM   14  C   UNL     2      -8.799  16.454  67.222  1.00  0.00    -0.188 C  
HETATM   15  H   UNL     2      -8.254  14.679  66.545  1.00  0.00     0.000 HD 
HETATM   16  O   UNL     2      -9.023  15.046  66.967  1.00  0.00    -0.206 OA 
BRANCH  14  17
HETATM   17  C   UNL     2      -7.508  16.579  68.025  1.00  0.00    -0.156 C  
HETATM   18  C   UNL     2      -6.640  17.752  67.533  1.00  0.00    -0.164 C  
HETATM   19  H   UNL     2      -5.951  15.423  68.365  1.00  0.00     0.000 HD 
HETATM   20  O   UNL     2      -6.755  15.345  67.865  1.00  0.00    -0.130 OA 
HETATM   21  O   UNL     2      -5.915  17.519  66.483  1.00  0.00    -0.167 OA 
HETATM   22  O   UNL     2      -6.384  18.709  68.259  1.00  0.00    -0.206 OA 
ENDBRANCH  14  17
ENDBRANCH  11  14
ENDBRANCH   2  11
BRANCH   3  23
HETATM   23  C   UNL     3      -8.718   9.646  68.309  1.00  0.00    -0.120 C  
HETATM   24  O   UNL     3      -8.311   8.655  67.355  1.00  0.00    -0.114 OA 
HETATM   25  H   UNL     3      -7.701   9.064  66.753  1.00  0.00     0.000 HD 
BRANCH  23  26
HETATM   26  C   UNL     3      -9.180  10.899  67.530  1.00  0.00    -0.147 C  
HETATM   27  O   UNL     3      -9.974  10.511  66.397  1.00  0.00    -0.202 OA 
HETATM   28  H   UNL     3     -10.259  11.281  65.919  1.00  0.00     0.000 HD 
BRANCH  26  29
HETATM   29  C   UNL     3      -7.922  11.647  67.034  1.00  0.00    -0.164 C  
HETATM   30  C   UNL     3      -6.917  10.835  66.178  1.00  0.00    -0.124 C  
HETATM   31  O   UNL     3      -7.183  12.208  68.173  1.00  0.00    -0.081 OA 
HETATM   32  O   UNL     3      -7.335  10.128  65.245  1.00  0.00    -0.132 OA 
HETATM   33  O   UNL     3      -5.693  11.045  66.584  1.00  0.00    -0.075 OA 
HETATM   34  H   UNL     3      -6.409  12.668  67.868  1.00  0.00     0.000 HD 
ENDBRANCH  26  29
ENDBRANCH  23  26
ENDBRANCH   3  23
BRANCH   3  35
HETATM   35  C   UNL     3      -9.918   9.728  70.597  1.00  0.00    -0.146 C  
HETATM   36  O   UNL     3     -10.968  10.678  70.388  1.00  0.00    -0.428 OA 
HETATM   37  H   UNL     3     -11.106  11.136  71.208  1.00  0.00     0.000 HD 
ENDBRANCH   3  35
TORSDOF 8
ENDMDL
MODEL      217
REMARK 921   NORMALIZED FREE ENERGY PREDICTED BY IDOCK:   -3.79 KCAL/MOL
REMARK 922        TOTAL FREE ENERGY PREDICTED BY IDOCK:   -7.66 KCAL/MOL
REMARK 923 INTER-LIGAND FREE ENERGY PREDICTED BY IDOCK:   -6.68 KCAL/MOL
REMARK 924 INTRA-LIGAND FREE ENERGY PREDICTED BY IDOCK:   -0.98 KCAL/MOL
REMARK 927      BINDING AFFINITY PREDICTED BY RF-SCORE:    0.00 PKD
ROOT
HETATM    1 FE   UNL     1     -13.313  10.641  69.249  1.00  0.00    -0.406 Fe 
HETATM    2  C   UNL     2     -10.303  16.683  68.455  1.00  0.00    -0.303 C  
HETATM    3  C   UNL     3      -8.281   7.561  66.860  1.00  0.00    -0.124 C  
HETATM    4  H   UNL     3      -6.935   7.599  68.269  1.00  0.00     0.000 HD 
HETATM    5  H   UNL     2     -10.527  15.851  70.233  1.00  0.00     0.000 HD 
HETATM    6  O   UNL     2     -10.862  16.610  69.771  1.00  0.00    -0.333 OA 
HETATM    7  O   UNL     3      -7.020   8.001  67.412  1.00  0.00    -0.072 OA 
ENDROOT
BRANCH   2   8
HETATM    8  C   UNL     2     -10.843  17.907  67.710  1.00  0.00    -0.223 C  
HETATM    9  H   UNL     2     -10.725  19.881  67.847  1.00  0.00     0.000 HD 
HETATM   10  O   UNL     2     -10.391  19.121  68.310  1.00  0.00    -0.390 OA 
ENDBRANCH   2   8
BRANCH   2  11
HETATM   11  C   UNL     2     -10.577  15.368  67.700  1.00  0.00    -0.280 C  
HETATM   12  H   UNL     2     -10.737  14.766  65.815  1.00  0.00     0.000 HD 
HETATM   13  O   UNL     2     -10.569  15.576  66.280  1.00  0.00    -0.295 OA 
BRANCH  11  14
HETATM   14  C   UNL     2      -9.520  14.315  68.074  1.00  0.00    -0.204 C  
HETATM   15  H   UNL     2      -7.583  14.069  67.772  1.00  0.00     0.000 HD 
HETATM   16  O   UNL     2      -8.236  14.719  67.540  1.00  0.00    -0.158 OA 
BRANCH  14  17
HETATM   17  C   UNL     2      -9.811  12.908  67.563  1.00  0.00    -0.208 C  
HETATM   18  C   UNL     2     -11.266  12.487  67.842  1.00  0.00    -0.264 C  
HETATM   19  H   UNL     2      -9.102  11.107  67.931  1.00  0.00     0.000 HD 
HETATM   20  O   UNL     2      -8.921  11.984  68.250  1.00  0.00    -0.184 OA 
HETATM   21  O   UNL     2     -11.512  12.058  69.040  1.00  0.00    -0.253 OA 
HETATM   22  O   UNL     2     -12.051  12.247  66.928  1.00  0.00    -0.583 OA 
ENDBRANCH  14  17
ENDBRANCH  11  14
ENDBRANCH   2  11
BRANCH   3  23
HETATM   23  C   UNL     3      -9.351   7.940  67.879  1.00  0.00    -0.141 C  
HETATM   24  O   UNL     3     -10.453   8.515  67.165  1.00  0.00    -0.290 OA 
HETATM   25  H   UNL     3     -11.119   8.751  67.800  1.00  0.00     0.000 HD 
BRANCH  23  26
HETATM   26  C   UNL     3      -9.904   6.838  68.810  1.00  0.00    -0.143 C  
HETATM   27  O   UNL     3      -8.825   6.191  69.506  1.00  0.00    -0.128 OA 
HETATM   28  H   UNL     3      -9.166   5.514  70.078  1.00  0.00     0.000 HD 
BRANCH  26  29
HETATM   29  C   UNL     3     -10.640   5.795  67.936  1.00  0.00    -0.231 C  
HETATM   30  C   UNL     3      -9.759   4.884  67.046  1.00  0.00    -0.177 C  
HETATM   31  O   UNL     3     -11.614   6.463  67.062  1.00  0.00    -0.696 OA 
HETATM   32  O   UNL     3      -8.754   4.336  67.530  1.00  0.00    -0.103 OA 
HETATM   33  O   UNL     3     -10.251   4.809  65.838  1.00  0.00    -0.231 OA 
HETATM   34  H   UNL     3     -12.066   5.823  66.525  1.00  0.00     0.000 HD 
ENDBRANCH  26  29
ENDBRANCH  23  26
ENDBRANCH   3  23
BRANCH   3  35
HETATM   35  C   UNL     3      -8.417   8.209  65.483  1.00  0.00    -0.159 C  
HETATM   36  O   UNL     3      -7.933   9.551  65.588  1.00  0.00    -0.104 OA 
HETATM   37  H   UNL     3      -8.017   9.954  64.732  1.00  0.00     0.000 HD 
ENDBRANCH   3  35
TORSDOF 8
ENDMDL
MODEL      218
REMARK 921   NORMALIZED FREE ENERGY PREDICTED BY IDOCK:   -3.79 KCAL/MOL
REMARK 922        TOTAL FREE ENERGY PREDICTED BY IDOCK:   -7.66 KCAL/MOL
REMARK 923 INTER-LIGAND FREE ENERGY PREDICTED BY IDOCK:   -6.36 KCAL/MOL
REMARK 924 INTRA-LIGAND FREE ENERGY PREDICTED BY IDOCK:   -1.30 KCAL/MOL
REMARK 927      BINDING AFFINITY PREDICTED BY RF-SCORE:    0.00 PKD
ROOT
HETATM    1 FE   UNL     1     -13.666   9.805  70.350  1.00  0.00    -0.532 Fe 
HETATM    2  C   UNL     2     -11.423  13.956  65.459  1.00  0.00    -0.316 C  
HETATM    3  C   UNL     3      -7.812   7.565  71.454  1.00  0.00    -0.093 C  
HETATM    4  H   UNL     3      -6.892   8.979  72.430  1.00  0.00     0.000 HD 
HETATM    5  H   UNL     2     -11.979  14.631  67.231  1.00  0.00     0.000 HD 
HETATM    6  O   UNL     2     -12.286  14.690  66.333  1.00  0.00    -0.300 OA 
HETATM    7  O   UNL     3      -6.809   8.600  71.563  1.00  0.00    -0.072 OA 
ENDROOT
BRANCH   2   8
HETATM    8  C   UNL     2     -11.917  14.052  64.013  1.00  0.00    -0.354 C  
HETATM    9  H   UNL     2     -13.018  15.281  62.915  1.00  0.00     0.000 HD 
HETATM   10  O   UNL     2     -12.711  15.222  63.812  1.00  0.00    -0.687 OA 
ENDBRANCH   2   8
BRANCH   2  11
HETATM   11  C   UNL     2     -11.308  12.498  65.945  1.00  0.00    -0.340 C  
HETATM   12  H   UNL     2     -12.000  10.716  65.410  1.00  0.00     0.000 HD 
HETATM   13  O   UNL     2     -12.071  11.614  65.111  1.00  0.00    -0.151 OA 
BRANCH  11  14
HETATM   14  C   UNL     2      -9.833  12.059  65.951  1.00  0.00    -0.238 C  
HETATM   15  H   UNL     2      -8.804  10.509  65.286  1.00  0.00     0.000 HD 
HETATM   16  O   UNL     2      -9.715  10.780  65.282  1.00  0.00    -0.219 OA 
BRANCH  14  17
HETATM   17  C   UNL     2      -9.216  11.915  67.338  1.00  0.00    -0.177 C  
HETATM   18  C   UNL     2      -7.768  12.439  67.378  1.00  0.00    -0.170 C  
HETATM   19  H   UNL     2      -8.824  10.412  68.549  1.00  0.00     0.000 HD 
HETATM   20  O   UNL     2      -9.208  10.502  67.685  1.00  0.00    -0.144 OA 
HETATM   21  O   UNL     2      -6.860  11.626  66.934  1.00  0.00    -0.142 OA 
HETATM   22  O   UNL     2      -7.450  13.394  68.081  1.00  0.00    -0.107 OA 
ENDBRANCH  14  17
ENDBRANCH  11  14
ENDBRANCH   2  11
BRANCH   3  23
HETATM   23  C   UNL     3      -9.149   8.229  71.760  1.00  0.00    -0.193 C  
HETATM   24  O   UNL     3      -9.962   8.146  70.583  1.00  0.00    -0.187 OA 
HETATM   25  H   UNL     3     -10.795   8.560  70.774  1.00  0.00     0.000 HD 
BRANCH  23  26
HETATM   26  C   UNL     3      -9.978   7.701  72.954  1.00  0.00    -0.261 C  
HETATM   27  O   UNL     3      -9.260   7.904  74.182  1.00  0.00    -0.396 OA 
HETATM   28  H   UNL     3      -9.769   7.579  74.915  1.00  0.00     0.000 HD 
BRANCH  26  29
HETATM   29  C   UNL     3     -10.208   6.187  72.746  1.00  0.00    -0.185 C  
HETATM   30  C   UNL     3     -11.649   5.740  72.392  1.00  0.00    -0.264 C  
HETATM   31  O   UNL     3      -9.793   5.442  73.942  1.00  0.00    -0.153 OA 
HETATM   32  O   UNL     3     -12.283   6.348  71.512  1.00  0.00    -0.312 OA 
HETATM   33  O   UNL     3     -11.999   4.707  73.111  1.00  0.00    -0.176 OA 
HETATM   34  H   UNL     3      -9.934   4.511  73.814  1.00  0.00     0.000 HD 
ENDBRANCH  26  29
ENDBRANCH  23  26
ENDBRANCH   3  23
BRANCH   3  35
HETATM   35  C   UNL     3      -7.678   6.955  70.059  1.00  0.00    -0.101 C  
HETATM   36  O   UNL     3      -7.572   8.035  69.126  1.00  0.00    -0.093 OA 
HETATM   37  H   UNL     3      -7.488   7.656  68.259  1.00  0.00     0.000 HD 
ENDBRANCH   3  35
TORSDOF 8
ENDMDL
MODEL      219
REMARK 921   NORMALIZED FREE ENERGY PREDICTED BY IDOCK:   -3.79 KCAL/MOL
REMARK 922        TOTAL FREE ENERGY PREDICTED BY IDOCK:   -7.66 KCAL/MOL
REMARK 923 INTER-LIGAND FREE ENERGY PREDICTED BY IDOCK:   -5.65 KCAL/MOL
REMARK 924 INTRA-LIGAND FREE ENERGY PREDICTED BY IDOCK:   -2.00 KCAL/MOL
REMARK 927      BINDING AFFINITY PREDICTED BY RF-SCORE:    0.00 PKD
ROOT
HETATM    1 FE   UNL     1     -12.319  10.308  68.599  1.00  0.00    -0.506 Fe 
HETATM    2  C   UNL     2      -9.606   5.297  72.303  1.00  0.00    -0.152 C  
HETATM    3  C   UNL     3      -6.808  13.487  68.440  1.00  0.00    -0.102 C  
HETATM    4  H   UNL     3      -5.690  12.522  67.169  1.00  0.00     0.000 HD 
HETATM    5  H   UNL     2     -10.039   5.067  70.389  1.00  0.00     0.000 HD 
HETATM    6  O   UNL     2     -10.348   4.727  71.220  1.00  0.00    -0.187 OA 
HETATM    7  O   UNL     3      -5.672  12.657  68.109  1.00  0.00    -0.061 OA 
ENDROOT
BRANCH   2   8
HETATM    8  C   UNL     2     -10.105   4.748  73.643  1.00  0.00    -0.167 C  
HETATM    9  H   UNL     2     -11.584   3.607  74.304  1.00  0.00     0.000 HD 
HETATM   10  O   UNL     2     -11.275   3.948  73.473  1.00  0.00    -0.250 OA 
ENDBRANCH   2   8
BRANCH   2  11
HETATM   11  C   UNL     2      -9.683   6.835  72.234  1.00  0.00    -0.147 C  
HETATM   12  H   UNL     2     -10.698   8.293  73.120  1.00  0.00     0.000 HD 
HETATM   13  O   UNL     2     -10.651   7.346  73.162  1.00  0.00    -0.303 OA 
BRANCH  11  14
HETATM   14  C   UNL     2      -8.304   7.445  72.535  1.00  0.00    -0.109 C  
HETATM   15  H   UNL     2      -7.630   9.140  73.296  1.00  0.00     0.000 HD 
HETATM   16  O   UNL     2      -8.482   8.763  73.110  1.00  0.00    -0.386 OA 
BRANCH  14  17
HETATM   17  C   UNL     2      -7.391   7.590  71.322  1.00  0.00    -0.078 C  
HETATM   18  C   UNL     2      -7.627   8.921  70.583  1.00  0.00    -0.099 C  
HETATM   19  H   UNL     2      -7.109   6.585  69.652  1.00  0.00     0.000 HD 
HETATM   20  O   UNL     2      -7.678   6.495  70.407  1.00  0.00    -0.094 OA 
HETATM   21  O   UNL     2      -8.639   8.947  69.773  1.00  0.00    -0.123 OA 
HETATM   22  O   UNL     2      -6.746   9.771  70.496  1.00  0.00    -0.102 OA 
ENDBRANCH  14  17
ENDBRANCH  11  14
ENDBRANCH   2  11
BRANCH   3  23
HETATM   23  C   UNL     3      -8.038  12.768  67.898  1.00  0.00    -0.159 C  
HETATM   24  O   UNL     3      -8.062  11.451  68.465  1.00  0.00    -0.137 OA 
HETATM   25  H   UNL     3      -8.829  11.003  68.127  1.00  0.00     0.000 HD 
BRANCH  23  26
HETATM   26  C   UNL     3      -9.425  13.411  68.121  1.00  0.00    -0.218 C  
HETATM   27  O   UNL     3     -10.162  12.668  69.106  1.00  0.00    -0.422 OA 
HETATM   28  H   UNL     3     -11.015  13.063  69.244  1.00  0.00     0.000 HD 
BRANCH  26  29
HETATM   29  C   UNL     3     -10.194  13.374  66.780  1.00  0.00    -0.259 C  
HETATM   30  C   UNL     3     -10.332  11.993  66.092  1.00  0.00    -0.224 C  
HETATM   31  O   UNL     3      -9.573  14.291  65.815  1.00  0.00    -0.473 OA 
HETATM   32  O   UNL     3     -10.681  11.005  66.761  1.00  0.00    -0.256 OA 
HETATM   33  O   UNL     3     -10.059  12.085  64.818  1.00  0.00    -0.261 OA 
HETATM   34  H   UNL     3     -10.045  14.268  64.990  1.00  0.00     0.000 HD 
ENDBRANCH  26  29
ENDBRANCH  23  26
ENDBRANCH   3  23
BRANCH   3  35
HETATM   35  C   UNL     3      -6.779  13.704  69.953  1.00  0.00     0.113 C  
HETATM   36  O   UNL     3      -6.519  12.437  70.564  1.00  0.00    -0.489 OA 
HETATM   37  H   UNL     3      -6.500  12.572  71.505  1.00  0.00     0.000 HD 
ENDBRANCH   3  35
TORSDOF 8
ENDMDL
MODEL      220
REMARK 921   NORMALIZED FREE ENERGY PREDICTED BY IDOCK:   -3.79 KCAL/MOL
REMARK 922        TOTAL FREE ENERGY PREDICTED BY IDOCK:   -7.65 KCAL/MOL
REMARK 923 INTER-LIGAND FREE ENERGY PREDICTED BY IDOCK:   -6.34 KCAL/MOL
REMARK 924 INTRA-LIGAND FREE ENERGY PREDICTED BY IDOCK:   -1.31 KCAL/MOL
REMARK 927      BINDING AFFINITY PREDICTED BY RF-SCORE:    0.00 PKD
ROOT
HETATM    1 FE   UNL     1      -5.986  16.847  70.964  1.00  0.00    -0.159 Fe 
HETATM    2  C   UNL     2     -11.706  14.030  68.611  1.00  0.00    -0.354 C  
HETATM    3  C   UNL     3      -5.358  20.469  65.769  1.00  0.00    -0.179 C  
HETATM    4  H   UNL     3      -6.685  21.883  65.961  1.00  0.00     0.000 HD 
HETATM    5  H   UNL     2     -11.718  15.356  70.075  1.00  0.00     0.000 HD 
HETATM    6  O   UNL     2     -11.910  14.432  69.969  1.00  0.00    -0.279 OA 
HETATM    7  O   UNL     3      -6.579  21.137  65.381  1.00  0.00    -0.108 OA 
ENDROOT
BRANCH   2   8
HETATM    8  C   UNL     2     -12.015  12.540  68.440  1.00  0.00    -0.221 C  
HETATM    9  H   UNL     2     -12.382  10.974  69.598  1.00  0.00     0.000 HD 
HETATM   10  O   UNL     2     -12.191  11.898  69.704  1.00  0.00    -0.241 OA 
ENDBRANCH   2   8
BRANCH   2  11
HETATM   11  C   UNL     2     -10.273  14.387  68.172  1.00  0.00    -0.232 C  
HETATM   12  H   UNL     2      -8.618  13.424  67.645  1.00  0.00     0.000 HD 
HETATM   13  O   UNL     2      -9.502  13.204  67.916  1.00  0.00    -0.203 OA 
BRANCH  11  14
HETATM   14  C   UNL     2     -10.312  15.263  66.907  1.00  0.00    -0.278 C  
HETATM   15  H   UNL     2      -9.800  15.051  65.010  1.00  0.00     0.000 HD 
HETATM   16  O   UNL     2      -9.776  14.510  65.791  1.00  0.00    -0.314 OA 
BRANCH  14  17
HETATM   17  C   UNL     2      -9.524  16.565  67.008  1.00  0.00    -0.239 C  
HETATM   18  C   UNL     2     -10.268  17.621  67.846  1.00  0.00    -0.357 C  
HETATM   19  H   UNL     2      -8.848  17.897  65.725  1.00  0.00     0.000 HD 
HETATM   20  O   UNL     2      -9.339  17.086  65.662  1.00  0.00    -0.523 OA 
HETATM   21  O   UNL     2     -11.199  18.280  67.229  1.00  0.00    -0.057 OA 
HETATM   22  O   UNL     2      -9.802  18.051  68.897  1.00  0.00    -0.352 OA 
ENDBRANCH  14  17
ENDBRANCH  11  14
ENDBRANCH   2  11
BRANCH   3  23
HETATM   23  C   UNL     3      -5.502  20.140  67.251  1.00  0.00    -0.167 C  
HETATM   24  O   UNL     3      -6.115  21.265  67.894  1.00  0.00    -0.344 OA 
HETATM   25  H   UNL     3      -6.204  21.059  68.817  1.00  0.00     0.000 HD 
BRANCH  23  26
HETATM   26  C   UNL     3      -6.290  18.871  67.650  1.00  0.00    -0.205 C  
HETATM   27  O   UNL     3      -7.312  19.204  68.604  1.00  0.00    -0.301 OA 
HETATM   28  H   UNL     3      -7.796  18.425  68.849  1.00  0.00     0.000 HD 
BRANCH  26  29
HETATM   29  C   UNL     3      -5.300  17.874  68.296  1.00  0.00    -0.155 C  
HETATM   30  C   UNL     3      -5.550  16.369  68.030  1.00  0.00    -0.113 C  
HETATM   31  O   UNL     3      -5.263  18.068  69.752  1.00  0.00    -0.185 OA 
HETATM   32  O   UNL     3      -5.785  15.979  66.873  1.00  0.00    -0.322 OA 
HETATM   33  O   UNL     3      -5.452  15.684  69.138  1.00  0.00    -0.100 OA 
HETATM   34  H   UNL     3      -4.655  17.456  70.149  1.00  0.00     0.000 HD 
ENDBRANCH  26  29
ENDBRANCH  23  26
ENDBRANCH   3  23
BRANCH   3  35
HETATM   35  C   UNL     3      -5.187  19.270  64.836  1.00  0.00    -0.172 C  
HETATM   36  O   UNL     3      -5.216  19.763  63.493  1.00  0.00    -0.185 OA 
HETATM   37  H   UNL     3      -5.110  19.017  62.913  1.00  0.00     0.000 HD 
ENDBRANCH   3  35
TORSDOF 8
ENDMDL
MODEL      221
REMARK 921   NORMALIZED FREE ENERGY PREDICTED BY IDOCK:   -3.78 KCAL/MOL
REMARK 922        TOTAL FREE ENERGY PREDICTED BY IDOCK:   -7.65 KCAL/MOL
REMARK 923 INTER-LIGAND FREE ENERGY PREDICTED BY IDOCK:   -6.24 KCAL/MOL
REMARK 924 INTRA-LIGAND FREE ENERGY PREDICTED BY IDOCK:   -1.41 KCAL/MOL
REMARK 927      BINDING AFFINITY PREDICTED BY RF-SCORE:    0.00 PKD
ROOT
HETATM    1 FE   UNL     1     -12.173   9.111  69.608  1.00  0.00    -0.454 Fe 
HETATM    2  C   UNL     2      -9.284  14.913  67.562  1.00  0.00    -0.193 C  
HETATM    3  C   UNL     3      -7.405   5.628  67.232  1.00  0.00    -0.077 C  
HETATM    4  H   UNL     3      -5.921   5.871  68.471  1.00  0.00     0.000 HD 
HETATM    5  H   UNL     2      -9.320  14.375  69.462  1.00  0.00     0.000 HD 
HETATM    6  O   UNL     2      -9.703  15.056  68.923  1.00  0.00    -0.210 OA 
HETATM    7  O   UNL     3      -6.095   6.134  67.574  1.00  0.00    -0.017 OA 
ENDROOT
BRANCH   2   8
HETATM    8  C   UNL     2      -9.902  16.010  66.692  1.00  0.00    -0.260 C  
HETATM    9  H   UNL     2     -10.139  17.977  66.755  1.00  0.00     0.000 HD 
HETATM   10  O   UNL     2      -9.755  17.296  67.296  1.00  0.00    -0.252 OA 
ENDBRANCH   2   8
BRANCH   2  11
HETATM   11  C   UNL     2      -9.630  13.498  67.057  1.00  0.00    -0.248 C  
HETATM   12  H   UNL     2      -9.795  11.671  67.814  1.00  0.00     0.000 HD 
HETATM   13  O   UNL     2      -9.581  12.542  68.126  1.00  0.00    -0.206 OA 
BRANCH  11  14
HETATM   14  C   UNL     2     -11.031  13.494  66.421  1.00  0.00    -0.293 C  
HETATM   15  H   UNL     2     -12.845  12.935  66.972  1.00  0.00     0.000 HD 
HETATM   16  O   UNL     2     -11.979  12.938  67.365  1.00  0.00    -0.363 OA 
BRANCH  14  17
HETATM   17  C   UNL     2     -11.142  12.694  65.127  1.00  0.00    -0.294 C  
HETATM   18  C   UNL     2     -12.415  13.054  64.339  1.00  0.00    -0.337 C  
HETATM   19  H   UNL     2     -11.263  10.783  64.667  1.00  0.00     0.000 HD 
HETATM   20  O   UNL     2     -11.194  11.281  65.473  1.00  0.00    -0.148 OA 
HETATM   21  O   UNL     2     -13.509  12.482  64.738  1.00  0.00    -0.645 OA 
HETATM   22  O   UNL     2     -12.357  13.560  63.222  1.00  0.00    -0.709 OA 
ENDBRANCH  14  17
ENDBRANCH  11  14
ENDBRANCH   2  11
BRANCH   3  23
HETATM   23  C   UNL     3      -8.365   6.177  68.282  1.00  0.00    -0.114 C  
HETATM   24  O   UNL     3      -8.282   5.333  69.438  1.00  0.00    -0.093 OA 
HETATM   25  H   UNL     3      -8.881   5.675  70.092  1.00  0.00     0.000 HD 
BRANCH  23  26
HETATM   26  C   UNL     3      -8.191   7.642  68.745  1.00  0.00    -0.128 C  
HETATM   27  O   UNL     3      -7.261   7.706  69.839  1.00  0.00    -0.068 OA 
HETATM   28  H   UNL     3      -7.153   8.607  70.124  1.00  0.00     0.000 HD 
BRANCH  26  29
HETATM   29  C   UNL     3      -9.567   8.163  69.219  1.00  0.00    -0.164 C  
HETATM   30  C   UNL     3      -9.841   8.126  70.743  1.00  0.00    -0.180 C  
HETATM   31  O   UNL     3     -10.646   7.419  68.555  1.00  0.00    -0.240 OA 
HETATM   32  O   UNL     3      -8.980   8.548  71.534  1.00  0.00    -0.173 OA 
HETATM   33  O   UNL     3     -11.029   7.639  70.984  1.00  0.00    -0.240 OA 
HETATM   34  H   UNL     3     -11.492   7.739  68.846  1.00  0.00     0.000 HD 
ENDBRANCH  26  29
ENDBRANCH  23  26
ENDBRANCH   3  23
BRANCH   3  35
HETATM   35  C   UNL     3      -7.686   6.052  65.791  1.00  0.00    -0.097 C  
HETATM   36  O   UNL     3      -6.519   5.753  65.019  1.00  0.00    -0.039 OA 
HETATM   37  H   UNL     3      -6.693   6.016  64.123  1.00  0.00     0.000 HD 
ENDBRANCH   3  35
TORSDOF 8
ENDMDL
MODEL      222
REMARK 921   NORMALIZED FREE ENERGY PREDICTED BY IDOCK:   -3.73 KCAL/MOL
REMARK 922        TOTAL FREE ENERGY PREDICTED BY IDOCK:   -7.57 KCAL/MOL
REMARK 923 INTER-LIGAND FREE ENERGY PREDICTED BY IDOCK:   -5.32 KCAL/MOL
REMARK 924 INTRA-LIGAND FREE ENERGY PREDICTED BY IDOCK:   -2.25 KCAL/MOL
REMARK 927      BINDING AFFINITY PREDICTED BY RF-SCORE:    0.00 PKD
ROOT
HETATM    1 FE   UNL     1     -11.817   7.950  69.508  1.00  0.00    -0.455 Fe 
HETATM    2  C   UNL     2     -10.400  14.396  67.886  1.00  0.00    -0.232 C  
HETATM    3  C   UNL     3      -6.677   5.802  66.430  1.00  0.00    -0.057 C  
HETATM    4  H   UNL     3      -5.165   6.248  67.575  1.00  0.00     0.000 HD 
HETATM    5  H   UNL     2     -10.144  13.696  69.716  1.00  0.00     0.000 HD 
HETATM    6  O   UNL     2     -10.709  14.324  69.281  1.00  0.00    -0.232 OA 
HETATM    7  O   UNL     3      -5.474   6.546  66.727  1.00  0.00    -0.012 OA 
ENDROOT
BRANCH   2   8
HETATM    8  C   UNL     2     -11.312  15.407  67.186  1.00  0.00    -0.203 C  
HETATM    9  H   UNL     2     -11.223  17.291  66.578  1.00  0.00     0.000 HD 
HETATM   10  O   UNL     2     -10.657  16.664  67.013  1.00  0.00    -0.311 OA 
ENDBRANCH   2   8
BRANCH   2  11
HETATM   11  C   UNL     2     -10.492  12.991  67.260  1.00  0.00    -0.238 C  
HETATM   12  H   UNL     2      -9.760  12.041  65.678  1.00  0.00     0.000 HD 
HETATM   13  O   UNL     2      -9.704  12.906  66.063  1.00  0.00    -0.266 OA 
BRANCH  11  14
HETATM   14  C   UNL     2     -10.015  11.932  68.269  1.00  0.00    -0.202 C  
HETATM   15  H   UNL     2      -8.393  10.831  68.523  1.00  0.00     0.000 HD 
HETATM   16  O   UNL     2      -8.688  11.486  67.899  1.00  0.00    -0.134 OA 
BRANCH  14  17
HETATM   17  C   UNL     2     -10.907  10.698  68.368  1.00  0.00    -0.237 C  
HETATM   18  C   UNL     2     -11.795  10.733  69.626  1.00  0.00    -0.320 C  
HETATM   19  H   UNL     2     -10.604   8.756  68.500  1.00  0.00     0.000 HD 
HETATM   20  O   UNL     2     -10.049   9.525  68.438  1.00  0.00    -0.163 OA 
HETATM   21  O   UNL     2     -11.227  10.360  70.730  1.00  0.00    -0.326 OA 
HETATM   22  O   UNL     2     -13.019  10.774  69.546  1.00  0.00    -0.118 OA 
ENDBRANCH  14  17
ENDBRANCH  11  14
ENDBRANCH   2  11
BRANCH   3  23
HETATM   23  C   UNL     3      -7.626   6.035  67.600  1.00  0.00    -0.090 C  
HETATM   24  O   UNL     3      -8.463   7.152  67.272  1.00  0.00    -0.120 OA 
HETATM   25  H   UNL     3      -9.054   7.297  68.001  1.00  0.00     0.000 HD 
BRANCH  23  26
HETATM   26  C   UNL     3      -8.536   4.871  68.054  1.00  0.00    -0.103 C  
HETATM   27  O   UNL     3      -8.540   3.832  67.061  1.00  0.00    -0.102 OA 
HETATM   28  H   UNL     3      -9.100   3.116  67.340  1.00  0.00     0.000 HD 
BRANCH  26  29
HETATM   29  C   UNL     3      -9.972   5.420  68.220  1.00  0.00    -0.159 C  
HETATM   30  C   UNL     3     -10.732   5.791  66.922  1.00  0.00    -0.305 C  
HETATM   31  O   UNL     3      -9.964   6.607  69.085  1.00  0.00    -0.153 OA 
HETATM   32  O   UNL     3     -10.733   5.001  65.962  1.00  0.00    -0.298 OA 
HETATM   33  O   UNL     3     -11.315   6.953  67.048  1.00  0.00    -0.304 OA 
HETATM   34  H   UNL     3     -10.846   6.944  69.187  1.00  0.00     0.000 HD 
ENDBRANCH  26  29
ENDBRANCH  23  26
ENDBRANCH   3  23
BRANCH   3  35
HETATM   35  C   UNL     3      -7.175   6.281  65.066  1.00  0.00    -0.070 C  
HETATM   36  O   UNL     3      -8.068   5.285  64.559  1.00  0.00    -0.107 OA 
HETATM   37  H   UNL     3      -8.377   5.583  63.712  1.00  0.00     0.000 HD 
ENDBRANCH   3  35
TORSDOF 8
ENDMDL
MODEL      223
REMARK 921   NORMALIZED FREE ENERGY PREDICTED BY IDOCK:   -3.70 KCAL/MOL
REMARK 922        TOTAL FREE ENERGY PREDICTED BY IDOCK:   -7.52 KCAL/MOL
REMARK 923 INTER-LIGAND FREE ENERGY PREDICTED BY IDOCK:   -6.77 KCAL/MOL
REMARK 924 INTRA-LIGAND FREE ENERGY PREDICTED BY IDOCK:   -0.75 KCAL/MOL
REMARK 927      BINDING AFFINITY PREDICTED BY RF-SCORE:    0.00 PKD
ROOT
HETATM    1 FE   UNL     1     -12.393  10.100  68.255  1.00  0.00    -0.496 Fe 
HETATM    2  C   UNL     2      -9.495   5.063  71.778  1.00  0.00    -0.150 C  
HETATM    3  C   UNL     3      -7.852   9.908  63.799  1.00  0.00    -0.147 C  
HETATM    4  H   UNL     3      -8.235   8.318  62.739  1.00  0.00     0.000 HD 
HETATM    5  H   UNL     2     -11.150   4.792  70.734  1.00  0.00     0.000 HD 
HETATM    6  O   UNL     2     -10.894   4.795  71.649  1.00  0.00    -0.024 OA 
HETATM    7  O   UNL     3      -7.547   8.570  63.344  1.00  0.00    -0.110 OA 
ENDROOT
BRANCH   2   8
HETATM    8  C   UNL     2      -9.083   5.068  73.253  1.00  0.00    -0.125 C  
HETATM    9  H   UNL     2      -9.588   6.021  74.916  1.00  0.00     0.000 HD 
HETATM   10  O   UNL     2      -9.843   6.018  74.001  1.00  0.00    -0.171 OA 
ENDBRANCH   2   8
BRANCH   2  11
HETATM   11  C   UNL     2      -9.150   6.386  71.068  1.00  0.00    -0.154 C  
HETATM   12  H   UNL     2      -7.537   7.496  70.739  1.00  0.00     0.000 HD 
HETATM   13  O   UNL     2      -7.750   6.681  71.177  1.00  0.00    -0.094 OA 
BRANCH  11  14
HETATM   14  C   UNL     2      -9.547   6.307  69.584  1.00  0.00    -0.145 C  
HETATM   15  H   UNL     2     -11.230   6.110  68.567  1.00  0.00     0.000 HD 
HETATM   16  O   UNL     2     -10.985   6.159  69.484  1.00  0.00    -0.320 OA 
BRANCH  14  17
HETATM   17  C   UNL     2      -8.909   5.156  68.812  1.00  0.00    -0.093 C  
HETATM   18  C   UNL     2      -7.820   5.651  67.843  1.00  0.00    -0.097 C  
HETATM   19  H   UNL     2      -9.555   3.779  67.561  1.00  0.00     0.000 HD 
HETATM   20  O   UNL     2      -9.952   4.496  68.041  1.00  0.00    -0.122 OA 
HETATM   21  O   UNL     2      -8.241   6.122  66.711  1.00  0.00    -0.108 OA 
HETATM   22  O   UNL     2      -6.645   5.317  67.973  1.00  0.00    -0.046 OA 
ENDBRANCH  14  17
ENDBRANCH  11  14
ENDBRANCH   2  11
BRANCH   3  23
HETATM   23  C   UNL     3      -9.259   9.851  64.383  1.00  0.00    -0.264 C  
HETATM   24  O   UNL     3      -9.300   8.777  65.331  1.00  0.00    -0.412 OA 
HETATM   25  H   UNL     3     -10.177   8.742  65.694  1.00  0.00     0.000 HD 
BRANCH  23  26
HETATM   26  C   UNL     3      -9.823  11.117  65.069  1.00  0.00    -0.266 C  
HETATM   27  O   UNL     3     -10.609  10.749  66.215  1.00  0.00    -0.246 OA 
HETATM   28  H   UNL     3     -10.955  11.527  66.636  1.00  0.00     0.000 HD 
BRANCH  26  29
HETATM   29  C   UNL     3     -10.725  11.853  64.052  1.00  0.00    -0.375 C  
HETATM   30  C   UNL     3     -12.092  12.363  64.571  1.00  0.00    -0.417 C  
HETATM   31  O   UNL     3     -10.983  10.994  62.888  1.00  0.00    -0.793 OA 
HETATM   32  O   UNL     3     -12.151  12.979  65.649  1.00  0.00    -0.406 OA 
HETATM   33  O   UNL     3     -13.044  12.064  63.727  1.00  0.00    -0.730 OA 
HETATM   34  H   UNL     3     -11.537  11.447  62.263  1.00  0.00     0.000 HD 
ENDBRANCH  26  29
ENDBRANCH  23  26
ENDBRANCH   3  23
BRANCH   3  35
HETATM   35  C   UNL     3      -6.745  10.313  64.772  1.00  0.00    -0.089 C  
HETATM   36  O   UNL     3      -5.699  10.917  64.007  1.00  0.00    -0.370 OA 
HETATM   37  H   UNL     3      -5.011  11.169  64.612  1.00  0.00     0.000 HD 
ENDBRANCH   3  35
TORSDOF 8
ENDMDL
MODEL      224
REMARK 921   NORMALIZED FREE ENERGY PREDICTED BY IDOCK:   -3.70 KCAL/MOL
REMARK 922        TOTAL FREE ENERGY PREDICTED BY IDOCK:   -7.52 KCAL/MOL
REMARK 923 INTER-LIGAND FREE ENERGY PREDICTED BY IDOCK:   -5.85 KCAL/MOL
REMARK 924 INTRA-LIGAND FREE ENERGY PREDICTED BY IDOCK:   -1.67 KCAL/MOL
REMARK 927      BINDING AFFINITY PREDICTED BY RF-SCORE:    0.00 PKD
ROOT
HETATM    1 FE   UNL     1     -10.890   7.482  70.343  1.00  0.00    -0.210 Fe 
HETATM    2  C   UNL     2      -8.415  12.941  67.140  1.00  0.00    -0.179 C  
HETATM    3  C   UNL     3      -9.227   3.632  65.555  1.00  0.00    -0.155 C  
HETATM    4  H   UNL     3      -7.296   3.424  65.706  1.00  0.00     0.000 HD 
HETATM    5  H   UNL     2      -7.499  12.135  68.694  1.00  0.00     0.000 HD 
HETATM    6  O   UNL     2      -7.952  12.946  68.494  1.00  0.00    -0.144 OA 
HETATM    7  O   UNL     3      -7.878   3.846  65.085  1.00  0.00    -0.084 OA 
ENDROOT
BRANCH   2   8
HETATM    8  C   UNL     2      -9.144  14.248  66.818  1.00  0.00    -0.249 C  
HETATM    9  H   UNL     2     -10.545  14.879  65.566  1.00  0.00     0.000 HD 
HETATM   10  O   UNL     2     -10.093  14.068  65.766  1.00  0.00    -0.309 OA 
ENDBRANCH   2   8
BRANCH   2  11
HETATM   11  C   UNL     2      -9.297  11.701  66.896  1.00  0.00    -0.188 C  
HETATM   12  H   UNL     2      -9.047   9.811  66.344  1.00  0.00     0.000 HD 
HETATM   13  O   UNL     2      -8.504  10.575  66.494  1.00  0.00    -0.133 OA 
BRANCH  11  14
HETATM   14  C   UNL     2     -10.082  11.353  68.172  1.00  0.00    -0.189 C  
HETATM   15  H   UNL     2     -10.620   9.698  69.109  1.00  0.00     0.000 HD 
HETATM   16  O   UNL     2     -10.134   9.913  68.320  1.00  0.00    -0.151 OA 
BRANCH  14  17
HETATM   17  C   UNL     2     -11.515  11.874  68.203  1.00  0.00    -0.320 C  
HETATM   18  C   UNL     2     -11.680  13.038  69.198  1.00  0.00    -0.326 C  
HETATM   19  H   UNL     2     -13.277  11.107  68.635  1.00  0.00     0.000 HD 
HETATM   20  O   UNL     2     -12.384  10.783  68.616  1.00  0.00    -0.430 OA 
HETATM   21  O   UNL     2     -11.819  12.703  70.443  1.00  0.00    -0.291 OA 
HETATM   22  O   UNL     2     -12.000  14.163  68.823  1.00  0.00    -0.334 OA 
ENDBRANCH  14  17
ENDBRANCH  11  14
ENDBRANCH   2  11
BRANCH   3  23
HETATM   23  C   UNL     3      -9.276   4.172  66.980  1.00  0.00    -0.157 C  
HETATM   24  O   UNL     3      -9.993   3.227  67.785  1.00  0.00    -0.146 OA 
HETATM   25  H   UNL     3     -10.023   3.563  68.673  1.00  0.00     0.000 HD 
BRANCH  23  26
HETATM   26  C   UNL     3      -7.941   4.492  67.692  1.00  0.00    -0.096 C  
HETATM   27  O   UNL     3      -7.231   3.277  67.979  1.00  0.00    -0.050 OA 
HETATM   28  H   UNL     3      -6.410   3.473  68.417  1.00  0.00     0.000 HD 
BRANCH  26  29
HETATM   29  C   UNL     3      -8.267   5.214  69.020  1.00  0.00    -0.088 C  
HETATM   30  C   UNL     3      -8.915   4.362  70.139  1.00  0.00    -0.088 C  
HETATM   31  O   UNL     3      -9.148   6.363  68.770  1.00  0.00    -0.126 OA 
HETATM   32  O   UNL     3      -8.441   3.247  70.416  1.00  0.00    -0.055 OA 
HETATM   33  O   UNL     3      -9.925   4.996  70.673  1.00  0.00    -0.197 OA 
HETATM   34  H   UNL     3      -9.348   6.807  69.586  1.00  0.00     0.000 HD 
ENDBRANCH  26  29
ENDBRANCH  23  26
ENDBRANCH   3  23
BRANCH   3  35
HETATM   35  C   UNL     3     -10.163   4.312  64.556  1.00  0.00    -0.084 C  
HETATM   36  O   UNL     3     -11.414   4.529  65.216  1.00  0.00    -1.068 OA 
HETATM   37  H   UNL     3     -11.995   4.952  64.595  1.00  0.00     0.000 HD 
ENDBRANCH   3  35
TORSDOF 8
ENDMDL
MODEL      225
REMARK 921   NORMALIZED FREE ENERGY PREDICTED BY IDOCK:   -3.67 KCAL/MOL
REMARK 922        TOTAL FREE ENERGY PREDICTED BY IDOCK:   -7.49 KCAL/MOL
REMARK 923 INTER-LIGAND FREE ENERGY PREDICTED BY IDOCK:   -5.31 KCAL/MOL
REMARK 924 INTRA-LIGAND FREE ENERGY PREDICTED BY IDOCK:   -2.17 KCAL/MOL
REMARK 927      BINDING AFFINITY PREDICTED BY RF-SCORE:    0.00 PKD
ROOT
HETATM    1 FE   UNL     1     -10.568   8.846  65.334  1.00  0.00    -0.369 Fe 
HETATM    2  C   UNL     2      -5.982   3.923  66.289  1.00  0.00    -0.027 C  
HETATM    3  C   UNL     3     -12.237   8.803  71.475  1.00  0.00    -0.327 C  
HETATM    4  H   UNL     3     -10.782   9.698  72.413  1.00  0.00     0.000 HD 
HETATM    5  H   UNL     2      -5.452   5.802  65.989  1.00  0.00     0.000 HD 
HETATM    6  O   UNL     2      -5.383   4.975  65.526  1.00  0.00    -0.012 OA 
HETATM    7  O   UNL     3     -11.109   8.807  72.379  1.00  0.00    -0.327 OA 
ENDROOT
BRANCH   2   8
HETATM    8  C   UNL     2      -5.870   2.590  65.544  1.00  0.00    -0.018 C  
HETATM    9  H   UNL     2      -5.881   0.657  65.982  1.00  0.00     0.000 HD 
HETATM   10  O   UNL     2      -5.950   1.484  66.444  1.00  0.00    -0.018 OA 
ENDBRANCH   2   8
BRANCH   2  11
HETATM   11  C   UNL     2      -7.441   4.288  66.624  1.00  0.00    -0.081 C  
HETATM   12  H   UNL     2      -9.240   4.008  65.833  1.00  0.00     0.000 HD 
HETATM   13  O   UNL     2      -8.341   3.784  65.627  1.00  0.00    -0.104 OA 
BRANCH  11  14
HETATM   14  C   UNL     2      -7.824   3.720  68.002  1.00  0.00    -0.073 C  
HETATM   15  H   UNL     2      -9.157   2.436  68.694  1.00  0.00     0.000 HD 
HETATM   16  O   UNL     2      -8.921   2.787  67.843  1.00  0.00    -0.124 OA 
BRANCH  14  17
HETATM   17  C   UNL     2      -8.249   4.765  69.028  1.00  0.00    -0.081 C  
HETATM   18  C   UNL     2      -9.777   4.790  69.220  1.00  0.00    -0.196 C  
HETATM   19  H   UNL     2      -8.084   6.721  69.186  1.00  0.00     0.000 HD 
HETATM   20  O   UNL     2      -7.820   6.070  68.547  1.00  0.00    -0.097 OA 
HETATM   21  O   UNL     2     -10.449   5.451  68.329  1.00  0.00    -0.178 OA 
HETATM   22  O   UNL     2     -10.292   4.511  70.299  1.00  0.00    -0.160 OA 
ENDBRANCH  14  17
ENDBRANCH  11  14
ENDBRANCH   2  11
BRANCH   3  23
HETATM   23  C   UNL     3     -11.730   9.372  70.155  1.00  0.00    -0.015 C  
HETATM   24  O   UNL     3     -12.775  10.174  69.591  1.00  0.00    -0.480 OA 
HETATM   25  H   UNL     3     -12.459  10.528  68.768  1.00  0.00     0.000 HD 
BRANCH  23  26
HETATM   26  C   UNL     3     -10.433  10.213  70.165  1.00  0.00    -0.255 C  
HETATM   27  O   UNL     3     -10.726  11.577  69.820  1.00  0.00    -0.452 OA 
HETATM   28  H   UNL     3      -9.929  12.094  69.826  1.00  0.00     0.000 HD 
BRANCH  26  29
HETATM   29  C   UNL     3      -9.468   9.620  69.112  1.00  0.00    -0.171 C  
HETATM   30  C   UNL     3     -10.042   9.383  67.693  1.00  0.00    -0.211 C  
HETATM   31  O   UNL     3      -8.919   8.343  69.589  1.00  0.00    -0.143 OA 
HETATM   32  O   UNL     3     -10.708  10.276  67.142  1.00  0.00    -0.257 OA 
HETATM   33  O   UNL     3      -9.699   8.203  67.250  1.00  0.00    -0.154 OA 
HETATM   34  H   UNL     3      -8.326   7.979  68.942  1.00  0.00     0.000 HD 
ENDBRANCH  26  29
ENDBRANCH  23  26
ENDBRANCH   3  23
BRANCH   3  35
HETATM   35  C   UNL     3     -12.763   7.369  71.422  1.00  0.00    -0.369 C  
HETATM   36  O   UNL     3     -12.340   6.801  70.178  1.00  0.00    -0.614 OA 
HETATM   37  H   UNL     3     -12.666   5.910  70.145  1.00  0.00     0.000 HD 
ENDBRANCH   3  35
TORSDOF 8
ENDMDL
MODEL      226
REMARK 921   NORMALIZED FREE ENERGY PREDICTED BY IDOCK:   -3.65 KCAL/MOL
REMARK 922        TOTAL FREE ENERGY PREDICTED BY IDOCK:   -7.46 KCAL/MOL
REMARK 923 INTER-LIGAND FREE ENERGY PREDICTED BY IDOCK:   -5.90 KCAL/MOL
REMARK 924 INTRA-LIGAND FREE ENERGY PREDICTED BY IDOCK:   -1.55 KCAL/MOL
REMARK 927      BINDING AFFINITY PREDICTED BY RF-SCORE:    0.00 PKD
ROOT
HETATM    1 FE   UNL     1      -8.434   8.520  65.289  1.00  0.00    -0.113 Fe 
HETATM    2  C   UNL     2     -10.601  14.908  66.123  1.00  0.00    -0.318 C  
HETATM    3  C   UNL     3      -8.592   7.403  71.553  1.00  0.00    -0.117 C  
HETATM    4  H   UNL     3     -10.478   7.201  71.995  1.00  0.00     0.000 HD 
HETATM    5  H   UNL     2     -11.770  13.493  65.393  1.00  0.00     0.000 HD 
HETATM    6  O   UNL     2     -11.361  14.291  65.079  1.00  0.00    -0.333 OA 
HETATM    7  O   UNL     3      -9.811   7.849  72.188  1.00  0.00    -0.178 OA 
ENDROOT
BRANCH   2   8
HETATM    8  C   UNL     2      -9.940  16.194  65.618  1.00  0.00    -0.297 C  
HETATM    9  H   UNL     2     -10.295  17.591  64.258  1.00  0.00     0.000 HD 
HETATM   10  O   UNL     2     -10.705  16.793  64.571  1.00  0.00    -0.726 OA 
ENDBRANCH   2   8
BRANCH   2  11
HETATM   11  C   UNL     2      -9.576  13.903  66.684  1.00  0.00    -0.289 C  
HETATM   12  H   UNL     2      -8.089  13.906  68.000  1.00  0.00     0.000 HD 
HETATM   13  O   UNL     2      -8.721  14.525  67.654  1.00  0.00    -0.166 OA 
BRANCH  11  14
HETATM   14  C   UNL     2     -10.304  12.710  67.326  1.00  0.00    -0.224 C  
HETATM   15  H   UNL     2     -10.894  10.917  66.741  1.00  0.00     0.000 HD 
HETATM   16  O   UNL     2     -10.444  11.654  66.345  1.00  0.00    -0.229 OA 
BRANCH  14  17
HETATM   17  C   UNL     2     -11.695  13.027  67.866  1.00  0.00    -0.357 C  
HETATM   18  C   UNL     2     -11.650  13.473  69.339  1.00  0.00    -0.312 C  
HETATM   19  H   UNL     2     -13.369  12.017  68.106  1.00  0.00     0.000 HD 
HETATM   20  O   UNL     2     -12.503  11.820  67.770  1.00  0.00    -0.043 OA 
HETATM   21  O   UNL     2     -11.572  12.521  70.216  1.00  0.00    -0.173 OA 
HETATM   22  O   UNL     2     -12.004  14.598  69.680  1.00  0.00    -0.293 OA 
ENDBRANCH  14  17
ENDBRANCH  11  14
ENDBRANCH   2  11
BRANCH   3  23
HETATM   23  C   UNL     3      -8.922   7.212  70.077  1.00  0.00    -0.142 C  
HETATM   24  O   UNL     3      -8.774   5.820  69.770  1.00  0.00    -0.124 OA 
HETATM   25  H   UNL     3      -8.980   5.701  68.850  1.00  0.00     0.000 HD 
BRANCH  23  26
HETATM   26  C   UNL     3     -10.306   7.672  69.566  1.00  0.00    -0.217 C  
HETATM   27  O   UNL     3     -10.662   6.944  68.380  1.00  0.00    -0.221 OA 
HETATM   28  H   UNL     3     -11.513   7.226  68.066  1.00  0.00     0.000 HD 
BRANCH  26  29
HETATM   29  C   UNL     3     -10.218   9.178  69.228  1.00  0.00    -0.210 C  
HETATM   30  C   UNL     3      -8.899   9.673  68.583  1.00  0.00    -0.128 C  
HETATM   31  O   UNL     3     -10.452   9.983  70.435  1.00  0.00    -0.281 OA 
HETATM   32  O   UNL     3      -8.401   9.039  67.637  1.00  0.00    -0.115 OA 
HETATM   33  O   UNL     3      -8.490  10.772  69.160  1.00  0.00    -0.152 OA 
HETATM   34  H   UNL     3     -10.397  10.909  70.228  1.00  0.00     0.000 HD 
ENDBRANCH  26  29
ENDBRANCH  23  26
ENDBRANCH   3  23
BRANCH   3  35
HETATM   35  C   UNL     3      -7.518   8.447  71.863  1.00  0.00    -0.103 C  
HETATM   36  O   UNL     3      -6.304   7.744  72.146  1.00  0.00    -0.042 OA 
HETATM   37  H   UNL     3      -5.637   8.392  72.339  1.00  0.00     0.000 HD 
ENDBRANCH   3  35
TORSDOF 8
ENDMDL
MODEL      227
REMARK 921   NORMALIZED FREE ENERGY PREDICTED BY IDOCK:   -3.65 KCAL/MOL
REMARK 922        TOTAL FREE ENERGY PREDICTED BY IDOCK:   -7.45 KCAL/MOL
REMARK 923 INTER-LIGAND FREE ENERGY PREDICTED BY IDOCK:   -6.52 KCAL/MOL
REMARK 924 INTRA-LIGAND FREE ENERGY PREDICTED BY IDOCK:   -0.93 KCAL/MOL
REMARK 927      BINDING AFFINITY PREDICTED BY RF-SCORE:    0.00 PKD
ROOT
HETATM    1 FE   UNL     1      -9.960   8.019  65.697  1.00  0.00    -0.405 Fe 
HETATM    2  C   UNL     2     -11.942  14.371  67.079  1.00  0.00    -0.395 C  
HETATM    3  C   UNL     3     -11.171   6.099  71.643  1.00  0.00    -0.286 C  
HETATM    4  H   UNL     3     -13.112   5.966  71.758  1.00  0.00     0.000 HD 
HETATM    5  H   UNL     2     -13.041  13.146  65.987  1.00  0.00     0.000 HD 
HETATM    6  O   UNL     2     -12.551  13.949  65.855  1.00  0.00    -0.478 OA 
HETATM    7  O   UNL     3     -12.455   6.538  72.140  1.00  0.00    -0.285 OA 
ENDROOT
BRANCH   2   8
HETATM    8  C   UNL     2     -11.152  15.665  66.867  1.00  0.00    -0.181 C  
HETATM    9  H   UNL     2      -9.434  16.453  67.465  1.00  0.00     0.000 HD 
HETATM   10  O   UNL     2      -9.924  15.650  67.597  1.00  0.00    -0.233 OA 
ENDBRANCH   2   8
BRANCH   2  11
HETATM   11  C   UNL     2     -11.067  13.235  67.644  1.00  0.00    -0.269 C  
HETATM   12  H   UNL     2     -10.624  12.471  69.422  1.00  0.00     0.000 HD 
HETATM   13  O   UNL     2     -11.163  13.171  69.074  1.00  0.00    -0.248 OA 
BRANCH  11  14
HETATM   14  C   UNL     2     -11.494  11.888  67.035  1.00  0.00    -0.316 C  
HETATM   15  H   UNL     2     -12.303  10.214  67.704  1.00  0.00     0.000 HD 
HETATM   16  O   UNL     2     -12.039  11.046  68.080  1.00  0.00    -0.610 OA 
BRANCH  14  17
HETATM   17  C   UNL     2     -10.373  11.112  66.352  1.00  0.00    -0.252 C  
HETATM   18  C   UNL     2      -9.016  11.826  66.490  1.00  0.00    -0.196 C  
HETATM   19  H   UNL     2      -9.999  10.518  64.512  1.00  0.00     0.000 HD 
HETATM   20  O   UNL     2     -10.698  11.001  64.938  1.00  0.00    -0.286 OA 
HETATM   21  O   UNL     2      -8.798  12.794  65.656  1.00  0.00     0.438 OA 
HETATM   22  O   UNL     2      -8.079  11.313  67.097  1.00  0.00    -0.137 OA 
ENDBRANCH  14  17
ENDBRANCH  11  14
ENDBRANCH   2  11
BRANCH   3  23
HETATM   23  C   UNL     3     -11.268   6.127  70.122  1.00  0.00    -0.382 C  
HETATM   24  O   UNL     3     -11.511   7.482  69.721  1.00  0.00    -0.468 OA 
HETATM   25  H   UNL     3     -11.572   7.498  68.773  1.00  0.00     0.000 HD 
BRANCH  23  26
HETATM   26  C   UNL     3     -10.075   5.590  69.298  1.00  0.00    -0.223 C  
HETATM   27  O   UNL     3      -9.763   4.246  69.700  1.00  0.00    -0.200 OA 
HETATM   28  H   UNL     3      -9.030   3.915  69.194  1.00  0.00     0.000 HD 
BRANCH  26  29
HETATM   29  C   UNL     3      -8.854   6.497  69.574  1.00  0.00    -0.138 C  
HETATM   30  C   UNL     3      -8.444   7.480  68.449  1.00  0.00    -0.125 C  
HETATM   31  O   UNL     3      -7.678   5.678  69.899  1.00  0.00    -0.079 OA 
HETATM   32  O   UNL     3      -9.313   8.169  67.888  1.00  0.00    -0.134 OA 
HETATM   33  O   UNL     3      -7.152   7.447  68.259  1.00  0.00    -0.079 OA 
HETATM   34  H   UNL     3      -6.927   6.236  70.069  1.00  0.00     0.000 HD 
ENDBRANCH  26  29
ENDBRANCH  23  26
ENDBRANCH   3  23
BRANCH   3  35
HETATM   35  C   UNL     3     -10.116   7.019  72.257  1.00  0.00    -0.177 C  
HETATM   36  O   UNL     3     -10.754   7.778  73.289  1.00  0.00    -0.374 OA 
HETATM   37  H   UNL     3     -10.098   8.349  73.671  1.00  0.00     0.000 HD 
ENDBRANCH   3  35
TORSDOF 8
ENDMDL
MODEL      228
REMARK 921   NORMALIZED FREE ENERGY PREDICTED BY IDOCK:   -3.64 KCAL/MOL
REMARK 922        TOTAL FREE ENERGY PREDICTED BY IDOCK:   -7.44 KCAL/MOL
REMARK 923 INTER-LIGAND FREE ENERGY PREDICTED BY IDOCK:   -6.52 KCAL/MOL
REMARK 924 INTRA-LIGAND FREE ENERGY PREDICTED BY IDOCK:   -0.92 KCAL/MOL
REMARK 927      BINDING AFFINITY PREDICTED BY RF-SCORE:    0.00 PKD
ROOT
HETATM    1 FE   UNL     1     -11.231   6.331  66.192  1.00  0.00    -0.436 Fe 
HETATM    2  C   UNL     2     -12.425  12.871  64.780  1.00  0.00    -0.455 C  
HETATM    3  C   UNL     3      -8.225   7.808  71.604  1.00  0.00    -0.110 C  
HETATM    4  H   UNL     3      -9.631   8.305  72.858  1.00  0.00     0.000 HD 
HETATM    5  H   UNL     2     -13.857  11.653  65.388  1.00  0.00     0.000 HD 
HETATM    6  O   UNL     2     -13.633  12.127  64.596  1.00  0.00    -0.354 OA 
HETATM    7  O   UNL     3      -8.934   8.773  72.413  1.00  0.00    -0.379 OA 
ENDROOT
BRANCH   2   8
HETATM    8  C   UNL     2     -12.065  13.634  63.503  1.00  0.00    -0.284 C  
HETATM    9  H   UNL     2     -12.107  15.504  62.846  1.00  0.00     0.000 HD 
HETATM   10  O   UNL     2     -12.331  15.030  63.639  1.00  0.00    -0.568 OA 
ENDBRANCH   2   8
BRANCH   2  11
HETATM   11  C   UNL     2     -11.297  11.927  65.239  1.00  0.00    -0.275 C  
HETATM   12  H   UNL     2      -9.335  11.757  64.987  1.00  0.00     0.000 HD 
HETATM   13  O   UNL     2     -10.030  12.338  64.704  1.00  0.00    -0.256 OA 
BRANCH  11  14
HETATM   14  C   UNL     2     -11.225  11.897  66.775  1.00  0.00    -0.327 C  
HETATM   15  H   UNL     2     -10.332  12.959  68.182  1.00  0.00     0.000 HD 
HETATM   16  O   UNL     2     -10.376  12.978  67.233  1.00  0.00    -0.236 OA 
BRANCH  14  17
HETATM   17  C   UNL     2     -10.681  10.600  67.364  1.00  0.00    -0.276 C  
HETATM   18  C   UNL     2      -9.440  10.846  68.242  1.00  0.00    -0.168 C  
HETATM   19  H   UNL     2      -9.965   8.919  66.628  1.00  0.00     0.000 HD 
HETATM   20  O   UNL     2     -10.304   9.727  66.262  1.00  0.00    -0.235 OA 
HETATM   21  O   UNL     2      -8.317  10.982  67.610  1.00  0.00    -0.115 OA 
HETATM   22  O   UNL     2      -9.444  10.593  69.444  1.00  0.00    -0.176 OA 
ENDBRANCH  14  17
ENDBRANCH  11  14
ENDBRANCH   2  11
BRANCH   3  23
HETATM   23  C   UNL     3      -9.267   7.157  70.701  1.00  0.00    -0.158 C  
HETATM   24  O   UNL     3      -9.085   7.674  69.376  1.00  0.00    -0.143 OA 
HETATM   25  H   UNL     3      -9.734   7.269  68.814  1.00  0.00     0.000 HD 
BRANCH  23  26
HETATM   26  C   UNL     3      -9.304   5.615  70.613  1.00  0.00    -0.159 C  
HETATM   27  O   UNL     3     -10.128   5.203  69.509  1.00  0.00    -0.210 OA 
HETATM   28  H   UNL     3     -10.150   4.255  69.455  1.00  0.00     0.000 HD 
BRANCH  26  29
HETATM   29  C   UNL     3      -9.911   5.073  71.927  1.00  0.00    -0.181 C  
HETATM   30  C   UNL     3     -11.040   5.913  72.574  1.00  0.00    -0.283 C  
HETATM   31  O   UNL     3      -8.857   4.893  72.936  1.00  0.00    -0.117 OA 
HETATM   32  O   UNL     3     -11.972   6.338  71.870  1.00  0.00    -0.328 OA 
HETATM   33  O   UNL     3     -10.838   6.042  73.859  1.00  0.00    -0.194 OA 
HETATM   34  H   UNL     3      -9.230   4.560  73.744  1.00  0.00     0.000 HD 
ENDBRANCH  26  29
ENDBRANCH  23  26
ENDBRANCH   3  23
BRANCH   3  35
HETATM   35  C   UNL     3      -7.104   8.562  70.889  1.00  0.00    -0.063 C  
HETATM   36  O   UNL     3      -5.982   7.678  70.797  1.00  0.00    -0.034 OA 
HETATM   37  H   UNL     3      -5.285   8.146  70.352  1.00  0.00     0.000 HD 
ENDBRANCH   3  35
TORSDOF 8
ENDMDL
MODEL      229
REMARK 921   NORMALIZED FREE ENERGY PREDICTED BY IDOCK:   -3.63 KCAL/MOL
REMARK 922        TOTAL FREE ENERGY PREDICTED BY IDOCK:   -7.43 KCAL/MOL
REMARK 923 INTER-LIGAND FREE ENERGY PREDICTED BY IDOCK:   -5.81 KCAL/MOL
REMARK 924 INTRA-LIGAND FREE ENERGY PREDICTED BY IDOCK:   -1.62 KCAL/MOL
REMARK 927      BINDING AFFINITY PREDICTED BY RF-SCORE:    0.00 PKD
ROOT
HETATM    1 FE   UNL     1      -6.068  11.761  67.718  1.00  0.00    -0.046 Fe 
HETATM    2  C   UNL     2     -10.229  17.112  67.231  1.00  0.00    -0.316 C  
HETATM    3  C   UNL     3     -10.563   8.226  70.512  1.00  0.00    -0.219 C  
HETATM    4  H   UNL     3     -11.793   7.730  69.084  1.00  0.00     0.000 HD 
HETATM    5  H   UNL     2      -9.730  16.028  65.657  1.00  0.00     0.000 HD 
HETATM    6  O   UNL     2      -9.579  16.912  65.972  1.00  0.00    -0.406 OA 
HETATM    7  O   UNL     3     -11.845   8.293  69.848  1.00  0.00     0.278 OA 
ENDROOT
BRANCH   2   8
HETATM    8  C   UNL     2      -9.987  18.536  67.739  1.00  0.00    -0.343 C  
HETATM    9  H   UNL     2      -8.877  20.103  67.247  1.00  0.00     0.000 HD 
HETATM   10  O   UNL     2      -9.028  19.219  66.931  1.00  0.00    -0.283 OA 
ENDBRANCH   2   8
BRANCH   2  11
HETATM   11  C   UNL     2      -9.759  16.042  68.236  1.00  0.00    -0.214 C  
HETATM   12  H   UNL     2      -8.517  15.926  69.780  1.00  0.00     0.000 HD 
HETATM   13  O   UNL     2      -8.806  16.585  69.160  1.00  0.00    -0.239 OA 
BRANCH  11  14
HETATM   14  C   UNL     2     -10.965  15.478  69.007  1.00  0.00    -0.256 C  
HETATM   15  H   UNL     2     -11.477  15.280  70.906  1.00  0.00     0.000 HD 
HETATM   16  O   UNL     2     -10.732  15.628  70.429  1.00  0.00    -0.317 OA 
BRANCH  14  17
HETATM   17  C   UNL     2     -11.261  14.006  68.740  1.00  0.00    -0.271 C  
HETATM   18  C   UNL     2     -11.425  13.719  67.236  1.00  0.00    -0.341 C  
HETATM   19  H   UNL     2     -12.689  12.749  69.250  1.00  0.00     0.000 HD 
HETATM   20  O   UNL     2     -12.504  13.665  69.416  1.00  0.00    -0.233 OA 
HETATM   21  O   UNL     2     -12.585  14.002  66.729  1.00  0.00    -0.311 OA 
HETATM   22  O   UNL     2     -10.657  12.970  66.638  1.00  0.00    -0.263 OA 
ENDBRANCH  14  17
ENDBRANCH  11  14
ENDBRANCH   2  11
BRANCH   3  23
HETATM   23  C   UNL     3      -9.520   8.618  69.471  1.00  0.00    -0.162 C  
HETATM   24  O   UNL     3      -9.292   7.482  68.627  1.00  0.00    -0.144 OA 
HETATM   25  H   UNL     3      -8.642   7.726  67.979  1.00  0.00     0.000 HD 
BRANCH  23  26
HETATM   26  C   UNL     3      -9.806   9.838  68.566  1.00  0.00    -0.156 C  
HETATM   27  O   UNL     3     -10.837   9.518  67.617  1.00  0.00    -0.388 OA 
HETATM   28  H   UNL     3     -11.012  10.268  67.060  1.00  0.00     0.000 HD 
BRANCH  26  29
HETATM   29  C   UNL     3      -8.506  10.185  67.803  1.00  0.00    -0.114 C  
HETATM   30  C   UNL     3      -8.254   9.432  66.473  1.00  0.00    -0.115 C  
HETATM   31  O   UNL     3      -7.338   9.965  68.667  1.00  0.00    -0.072 OA 
HETATM   32  O   UNL     3      -9.170   9.330  65.640  1.00  0.00    -0.199 OA 
HETATM   33  O   UNL     3      -7.021   9.001  66.416  1.00  0.00    -0.078 OA 
HETATM   34  H   UNL     3      -6.539  10.179  68.198  1.00  0.00     0.000 HD 
ENDBRANCH  26  29
ENDBRANCH  23  26
ENDBRANCH   3  23
BRANCH   3  35
HETATM   35  C   UNL     3     -10.647   9.131  71.740  1.00  0.00    -0.313 C  
HETATM   36  O   UNL     3      -9.443   8.951  72.491  1.00  0.00    -0.287 OA 
HETATM   37  H   UNL     3      -9.495   9.514  73.255  1.00  0.00     0.000 HD 
ENDBRANCH   3  35
TORSDOF 8
ENDMDL
MODEL      230
REMARK 921   NORMALIZED FREE ENERGY PREDICTED BY IDOCK:   -3.63 KCAL/MOL
REMARK 922        TOTAL FREE ENERGY PREDICTED BY IDOCK:   -7.43 KCAL/MOL
REMARK 923 INTER-LIGAND FREE ENERGY PREDICTED BY IDOCK:   -6.10 KCAL/MOL
REMARK 924 INTRA-LIGAND FREE ENERGY PREDICTED BY IDOCK:   -1.32 KCAL/MOL
REMARK 927      BINDING AFFINITY PREDICTED BY RF-SCORE:    0.00 PKD
ROOT
HETATM    1 FE   UNL     1      -9.151   7.495  63.354  1.00  0.00    -0.353 Fe 
HETATM    2  C   UNL     2     -10.679  11.721  68.453  1.00  0.00    -0.219 C  
HETATM    3  C   UNL     3      -6.907   3.093  67.366  1.00  0.00    -0.046 C  
HETATM    4  H   UNL     3      -8.481   2.287  68.183  1.00  0.00     0.000 HD 
HETATM    5  H   UNL     2     -12.072  10.738  67.454  1.00  0.00     0.000 HD 
HETATM    6  O   UNL     2     -11.797  11.641  67.563  1.00  0.00    -0.591 OA 
HETATM    7  O   UNL     3      -7.776   2.843  68.493  1.00  0.00    -0.054 OA 
ENDROOT
BRANCH   2   8
HETATM    8  C   UNL     2     -10.236  13.175  68.628  1.00  0.00    -0.170 C  
HETATM    9  H   UNL     2     -10.512  14.915  67.720  1.00  0.00     0.000 HD 
HETATM   10  O   UNL     2     -10.787  14.013  67.611  1.00  0.00    -0.257 OA 
ENDBRANCH   2   8
BRANCH   2  11
HETATM   11  C   UNL     2      -9.541  10.817  67.941  1.00  0.00    -0.160 C  
HETATM   12  H   UNL     2      -8.677   9.108  68.465  1.00  0.00     0.000 HD 
HETATM   13  O   UNL     2      -9.378   9.665  68.781  1.00  0.00    -0.143 OA 
BRANCH  11  14
HETATM   14  C   UNL     2      -9.833  10.368  66.498  1.00  0.00    -0.206 C  
HETATM   15  H   UNL     2      -9.471   8.763  65.404  1.00  0.00     0.000 HD 
HETATM   16  O   UNL     2      -9.290   9.040  66.295  1.00  0.00    -0.188 OA 
BRANCH  14  17
HETATM   17  C   UNL     2      -9.254  11.275  65.418  1.00  0.00    -0.183 C  
HETATM   18  C   UNL     2     -10.160  11.333  64.173  1.00  0.00    -0.320 C  
HETATM   19  H   UNL     2      -7.598  11.306  64.352  1.00  0.00     0.000 HD 
HETATM   20  O   UNL     2      -7.959  10.741  65.025  1.00  0.00    -0.067 OA 
HETATM   21  O   UNL     2     -10.046  10.342  63.344  1.00  0.00    -0.200 OA 
HETATM   22  O   UNL     2     -10.689  12.381  63.813  1.00  0.00    -0.388 OA 
ENDBRANCH  14  17
ENDBRANCH  11  14
ENDBRANCH   2  11
BRANCH   3  23
HETATM   23  C   UNL     3      -7.785   3.687  66.270  1.00  0.00    -0.088 C  
HETATM   24  O   UNL     3      -7.394   3.095  65.025  1.00  0.00    -0.068 OA 
HETATM   25  H   UNL     3      -7.941   3.466  64.342  1.00  0.00     0.000 HD 
BRANCH  23  26
HETATM   26  C   UNL     3      -9.319   3.556  66.404  1.00  0.00    -0.171 C  
HETATM   27  O   UNL     3      -9.813   2.576  65.476  1.00  0.00    -0.344 OA 
HETATM   28  H   UNL     3     -10.756   2.495  65.558  1.00  0.00     0.000 HD 
BRANCH  26  29
HETATM   29  C   UNL     3      -9.949   4.929  66.075  1.00  0.00    -0.223 C  
HETATM   30  C   UNL     3     -10.058   5.945  67.239  1.00  0.00    -0.174 C  
HETATM   31  O   UNL     3     -11.296   4.747  65.516  1.00  0.00    -0.940 OA 
HETATM   32  O   UNL     3      -9.078   6.141  67.978  1.00  0.00    -0.117 OA 
HETATM   33  O   UNL     3     -11.242   6.495  67.259  1.00  0.00    -0.376 OA 
HETATM   34  H   UNL     3     -11.683   5.591  65.314  1.00  0.00     0.000 HD 
ENDBRANCH  26  29
ENDBRANCH  23  26
ENDBRANCH   3  23
BRANCH   3  35
HETATM   35  C   UNL     3      -5.773   3.989  67.866  1.00  0.00    -0.022 C  
HETATM   36  O   UNL     3      -6.241   5.340  67.823  1.00  0.00    -0.035 OA 
HETATM   37  H   UNL     3      -5.536   5.897  68.134  1.00  0.00     0.000 HD 
ENDBRANCH   3  35
TORSDOF 8
ENDMDL
MODEL      231
REMARK 921   NORMALIZED FREE ENERGY PREDICTED BY IDOCK:   -3.63 KCAL/MOL
REMARK 922        TOTAL FREE ENERGY PREDICTED BY IDOCK:   -7.43 KCAL/MOL
REMARK 923 INTER-LIGAND FREE ENERGY PREDICTED BY IDOCK:   -6.41 KCAL/MOL
REMARK 924 INTRA-LIGAND FREE ENERGY PREDICTED BY IDOCK:   -1.02 KCAL/MOL
REMARK 927      BINDING AFFINITY PREDICTED BY RF-SCORE:    0.00 PKD
ROOT
HETATM    1 FE   UNL     1      -8.661  11.656  69.917  1.00  0.00    -0.300 Fe 
HETATM    2  C   UNL     2     -10.538   5.314  68.352  1.00  0.00    -0.007 C  
HETATM    3  C   UNL     3     -11.927  14.079  65.021  1.00  0.00    -0.401 C  
HETATM    4  H   UNL     3     -13.798  14.001  65.559  1.00  0.00     0.000 HD 
HETATM    5  H   UNL     2     -11.291   6.276  69.904  1.00  0.00     0.000 HD 
HETATM    6  O   UNL     2     -10.730   5.524  69.754  1.00  0.00    -0.322 OA 
HETATM    7  O   UNL     3     -13.269  13.555  64.907  1.00  0.00    -0.661 OA 
ENDROOT
BRANCH   2   8
HETATM    8  C   UNL     2      -9.633   4.103  68.110  1.00  0.00    -0.134 C  
HETATM    9  H   UNL     2      -8.870   2.605  69.160  1.00  0.00     0.000 HD 
HETATM   10  O   UNL     2      -9.431   3.357  69.311  1.00  0.00    -0.167 OA 
ENDBRANCH   2   8
BRANCH   2  11
HETATM   11  C   UNL     2      -9.985   6.599  67.704  1.00  0.00    -0.131 C  
HETATM   12  H   UNL     2     -10.690   8.140  66.670  1.00  0.00     0.000 HD 
HETATM   13  O   UNL     2     -11.031   7.348  67.069  1.00  0.00    -0.332 OA 
BRANCH  11  14
HETATM   14  C   UNL     2      -9.296   7.471  68.768  1.00  0.00    -0.147 C  
HETATM   15  H   UNL     2      -9.184   9.402  69.174  1.00  0.00     0.000 HD 
HETATM   16  O   UNL     2      -9.609   8.863  68.517  1.00  0.00    -0.153 OA 
BRANCH  14  17
HETATM   17  C   UNL     2      -7.778   7.340  68.817  1.00  0.00    -0.119 C  
HETATM   18  C   UNL     2      -7.264   7.160  70.257  1.00  0.00    -0.071 C  
HETATM   19  H   UNL     2      -6.255   8.475  68.296  1.00  0.00     0.000 HD 
HETATM   20  O   UNL     2      -7.201   8.557  68.266  1.00  0.00    -0.083 OA 
HETATM   21  O   UNL     2      -7.151   8.245  70.957  1.00  0.00    -0.048 OA 
HETATM   22  O   UNL     2      -6.683   6.137  70.608  1.00  0.00    -0.050 OA 
ENDBRANCH  14  17
ENDBRANCH  11  14
ENDBRANCH   2  11
BRANCH   3  23
HETATM   23  C   UNL     3     -11.506  13.870  66.472  1.00  0.00    -0.348 C  
HETATM   24  O   UNL     3     -12.640  14.149  67.303  1.00  0.00    -0.516 OA 
HETATM   25  H   UNL     3     -12.378  14.019  68.207  1.00  0.00     0.000 HD 
BRANCH  23  26
HETATM   26  C   UNL     3     -10.938  12.492  66.882  1.00  0.00    -0.257 C  
HETATM   27  O   UNL     3     -11.663  11.975  68.010  1.00  0.00    -0.337 OA 
HETATM   28  H   UNL     3     -11.314  11.128  68.262  1.00  0.00     0.000 HD 
BRANCH  26  29
HETATM   29  C   UNL     3      -9.455  12.684  67.279  1.00  0.00    -0.199 C  
HETATM   30  C   UNL     3      -9.013  14.119  67.658  1.00  0.00    -0.192 C  
HETATM   31  O   UNL     3      -8.577  12.219  66.197  1.00  0.00    -0.399 OA 
HETATM   32  O   UNL     3      -9.708  14.792  68.439  1.00  0.00    -0.202 OA 
HETATM   33  O   UNL     3      -7.886  14.422  67.071  1.00  0.00    -0.135 OA 
HETATM   34  H   UNL     3      -7.666  12.336  66.440  1.00  0.00     0.000 HD 
ENDBRANCH  26  29
ENDBRANCH  23  26
ENDBRANCH   3  23
BRANCH   3  35
HETATM   35  C   UNL     3     -11.076  13.360  63.973  1.00  0.00    -0.253 C  
HETATM   36  O   UNL     3      -9.735  13.842  64.105  1.00  0.00    -0.443 OA 
HETATM   37  H   UNL     3      -9.206  13.395  63.454  1.00  0.00     0.000 HD 
ENDBRANCH   3  35
TORSDOF 8
ENDMDL
MODEL      232
REMARK 921   NORMALIZED FREE ENERGY PREDICTED BY IDOCK:   -3.62 KCAL/MOL
REMARK 922        TOTAL FREE ENERGY PREDICTED BY IDOCK:   -7.41 KCAL/MOL
REMARK 923 INTER-LIGAND FREE ENERGY PREDICTED BY IDOCK:   -4.95 KCAL/MOL
REMARK 924 INTRA-LIGAND FREE ENERGY PREDICTED BY IDOCK:   -2.46 KCAL/MOL
REMARK 927      BINDING AFFINITY PREDICTED BY RF-SCORE:    0.00 PKD
ROOT
HETATM    1 FE   UNL     1     -10.854   5.377  68.536  1.00  0.00    -0.194 Fe 
HETATM    2  C   UNL     2      -9.706  11.663  66.222  1.00  0.00    -0.218 C  
HETATM    3  C   UNL     3      -8.442   2.746  63.267  1.00  0.00    -0.086 C  
HETATM    4  H   UNL     3      -6.511   2.953  63.423  1.00  0.00     0.000 HD 
HETATM    5  H   UNL     2      -8.611  10.860  67.657  1.00  0.00     0.000 HD 
HETATM    6  O   UNL     2      -9.236  11.570  67.570  1.00  0.00    -0.162 OA 
HETATM    7  O   UNL     3      -7.181   3.323  62.860  1.00  0.00    -0.046 OA 
ENDROOT
BRANCH   2   8
HETATM    8  C   UNL     2     -10.713  12.807  66.082  1.00  0.00    -0.275 C  
HETATM    9  H   UNL     2     -12.681  13.038  66.057  1.00  0.00     0.000 HD 
HETATM   10  O   UNL     2     -12.057  12.327  66.143  1.00  0.00    -0.625 OA 
ENDBRANCH   2   8
BRANCH   2  11
HETATM   11  C   UNL     2     -10.292  10.308  65.780  1.00  0.00    -0.165 C  
HETATM   12  H   UNL     2     -10.457   9.258  64.103  1.00  0.00     0.000 HD 
HETATM   13  O   UNL     2     -10.096  10.093  64.375  1.00  0.00    -0.282 OA 
BRANCH  11  14
HETATM   14  C   UNL     2      -9.635   9.165  66.575  1.00  0.00    -0.227 C  
HETATM   15  H   UNL     2      -8.751   7.452  66.142  1.00  0.00     0.000 HD 
HETATM   16  O   UNL     2      -9.156   8.158  65.651  1.00  0.00    -0.142 OA 
BRANCH  14  17
HETATM   17  C   UNL     2     -10.554   8.475  67.577  1.00  0.00    -0.214 C  
HETATM   18  C   UNL     2      -9.843   8.210  68.917  1.00  0.00    -0.176 C  
HETATM   19  H   UNL     2     -11.537   6.769  67.634  1.00  0.00     0.000 HD 
HETATM   20  O   UNL     2     -10.965   7.199  67.009  1.00  0.00    -0.369 OA 
HETATM   21  O   UNL     2      -9.081   7.162  68.957  1.00  0.00    -0.134 OA 
HETATM   22  O   UNL     2     -10.224   8.734  69.960  1.00  0.00    -0.188 OA 
ENDBRANCH  14  17
ENDBRANCH  11  14
ENDBRANCH   2  11
BRANCH   3  23
HETATM   23  C   UNL     3      -8.589   3.044  64.755  1.00  0.00    -0.101 C  
HETATM   24  O   UNL     3      -7.736   2.142  65.471  1.00  0.00    -0.070 OA 
HETATM   25  H   UNL     3      -7.829   2.328  66.398  1.00  0.00     0.000 HD 
BRANCH  23  26
HETATM   26  C   UNL     3      -8.295   4.479  65.251  1.00  0.00    -0.121 C  
HETATM   27  O   UNL     3      -6.886   4.641  65.482  1.00  0.00    -0.058 OA 
HETATM   28  H   UNL     3      -6.704   5.523  65.787  1.00  0.00     0.000 HD 
BRANCH  26  29
HETATM   29  C   UNL     3      -9.054   4.692  66.580  1.00  0.00    -0.119 C  
HETATM   30  C   UNL     3      -8.512   3.944  67.823  1.00  0.00    -0.095 C  
HETATM   31  O   UNL     3     -10.468   4.325  66.422  1.00  0.00    -0.366 OA 
HETATM   32  O   UNL     3      -7.294   3.963  68.071  1.00  0.00    -0.061 OA 
HETATM   33  O   UNL     3      -9.489   3.378  68.481  1.00  0.00    -0.175 OA 
HETATM   34  H   UNL     3     -10.935   4.456  67.239  1.00  0.00     0.000 HD 
ENDBRANCH  26  29
ENDBRANCH  23  26
ENDBRANCH   3  23
BRANCH   3  35
HETATM   35  C   UNL     3      -9.520   3.340  62.361  1.00  0.00    -0.090 C  
HETATM   36  O   UNL     3     -10.774   3.204  63.037  1.00  0.00    -0.192 OA 
HETATM   37  H   UNL     3     -11.444   3.574  62.474  1.00  0.00     0.000 HD 
ENDBRANCH   3  35
TORSDOF 8
ENDMDL
MODEL      233
REMARK 921   NORMALIZED FREE ENERGY PREDICTED BY IDOCK:   -3.62 KCAL/MOL
REMARK 922        TOTAL FREE ENERGY PREDICTED BY IDOCK:   -7.41 KCAL/MOL
REMARK 923 INTER-LIGAND FREE ENERGY PREDICTED BY IDOCK:   -5.29 KCAL/MOL
REMARK 924 INTRA-LIGAND FREE ENERGY PREDICTED BY IDOCK:   -2.12 KCAL/MOL
REMARK 927      BINDING AFFINITY PREDICTED BY RF-SCORE:    0.00 PKD
ROOT
HETATM    1 FE   UNL     1     -12.567  12.078  67.214  1.00  0.00    -0.173 Fe 
HETATM    2  C   UNL     2      -7.294   7.882  66.329  1.00  0.00    -0.075 C  
HETATM    3  C   UNL     3      -8.822  17.217  66.939  1.00  0.00    -0.235 C  
HETATM    4  H   UNL     3      -8.371  17.428  65.055  1.00  0.00     0.000 HD 
HETATM    5  H   UNL     2      -8.614   8.221  64.899  1.00  0.00     0.000 HD 
HETATM    6  O   UNL     2      -8.353   7.492  65.449  1.00  0.00    -0.135 OA 
HETATM    7  O   UNL     3      -7.886  17.191  65.838  1.00  0.00    -0.477 OA 
ENDROOT
BRANCH   2   8
HETATM    8  C   UNL     2      -6.874   6.708  67.217  1.00  0.00    -0.072 C  
HETATM    9  H   UNL     2      -7.702   5.084  67.995  1.00  0.00     0.000 HD 
HETATM   10  O   UNL     2      -7.963   5.813  67.445  1.00  0.00    -0.101 OA 
ENDBRANCH   2   8
BRANCH   2  11
HETATM   11  C   UNL     2      -7.727   9.113  67.150  1.00  0.00    -0.098 C  
HETATM   12  H   UNL     2      -8.036   9.567  69.058  1.00  0.00     0.000 HD 
HETATM   13  O   UNL     2      -7.770   8.809  68.552  1.00  0.00    -0.096 OA 
BRANCH  11  14
HETATM   14  C   UNL     2      -6.755  10.280  66.903  1.00  0.00    -0.081 C  
HETATM   15  H   UNL     2      -5.309  11.169  67.914  1.00  0.00     0.000 HD 
HETATM   16  O   UNL     2      -5.909  10.448  68.067  1.00  0.00    -0.041 OA 
BRANCH  14  17
HETATM   17  C   UNL     2      -7.426  11.620  66.621  1.00  0.00    -0.037 C  
HETATM   18  C   UNL     2      -7.661  12.426  67.912  1.00  0.00    -0.135 C  
HETATM   19  H   UNL     2      -9.132  12.193  65.820  1.00  0.00     0.000 HD 
HETATM   20  O   UNL     2      -8.714  11.358  65.996  1.00  0.00    -0.184 OA 
HETATM   21  O   UNL     2      -8.707  12.094  68.603  1.00  0.00    -0.111 OA 
HETATM   22  O   UNL     2      -7.116  13.509  68.101  1.00  0.00    -0.090 OA 
ENDBRANCH  14  17
ENDBRANCH  11  14
ENDBRANCH   2  11
BRANCH   3  23
HETATM   23  C   UNL     3      -9.962  16.279  66.556  1.00  0.00    -0.277 C  
HETATM   24  O   UNL     3      -9.681  15.755  65.252  1.00  0.00    -0.358 OA 
HETATM   25  H   UNL     3     -10.392  15.171  65.013  1.00  0.00     0.000 HD 
BRANCH  23  26
HETATM   26  C   UNL     3     -10.283  15.091  67.491  1.00  0.00    -0.234 C  
HETATM   27  O   UNL     3     -10.507  13.901  66.718  1.00  0.00    -0.267 OA 
HETATM   28  H   UNL     3     -10.705  13.170  67.292  1.00  0.00     0.000 HD 
BRANCH  26  29
HETATM   29  C   UNL     3     -11.569  15.433  68.278  1.00  0.00    -0.348 C  
HETATM   30  C   UNL     3     -11.466  15.424  69.824  1.00  0.00    -0.324 C  
HETATM   31  O   UNL     3     -12.654  14.517  67.900  1.00  0.00    -0.489 OA 
HETATM   32  O   UNL     3     -10.513  15.997  70.381  1.00  0.00    -0.211 OA 
HETATM   33  O   UNL     3     -12.478  14.786  70.348  1.00  0.00    -0.322 OA 
HETATM   34  H   UNL     3     -13.444  14.728  68.383  1.00  0.00     0.000 HD 
ENDBRANCH  26  29
ENDBRANCH  23  26
ENDBRANCH   3  23
BRANCH   3  35
HETATM   35  C   UNL     3      -8.043  16.835  68.198  1.00  0.00    -0.197 C  
HETATM   36  O   UNL     3      -6.828  16.205  67.777  1.00  0.00    -0.123 OA 
HETATM   37  H   UNL     3      -6.344  15.968  68.560  1.00  0.00     0.000 HD 
ENDBRANCH   3  35
TORSDOF 8
ENDMDL
MODEL      234
REMARK 921   NORMALIZED FREE ENERGY PREDICTED BY IDOCK:   -3.61 KCAL/MOL
REMARK 922        TOTAL FREE ENERGY PREDICTED BY IDOCK:   -7.39 KCAL/MOL
REMARK 923 INTER-LIGAND FREE ENERGY PREDICTED BY IDOCK:   -5.74 KCAL/MOL
REMARK 924 INTRA-LIGAND FREE ENERGY PREDICTED BY IDOCK:   -1.65 KCAL/MOL
REMARK 927      BINDING AFFINITY PREDICTED BY RF-SCORE:    0.00 PKD
ROOT
HETATM    1 FE   UNL     1      -6.219  11.433  64.970  1.00  0.00    -0.352 Fe 
HETATM    2  C   UNL     2      -9.055   6.016  67.936  1.00  0.00    -0.117 C  
HETATM    3  C   UNL     3     -11.116  15.167  66.576  1.00  0.00    -0.305 C  
HETATM    4  H   UNL     3     -10.900  15.514  68.481  1.00  0.00     0.000 HD 
HETATM    5  H   UNL     2      -7.507   6.953  68.729  1.00  0.00     0.000 HD 
HETATM    6  O   UNL     2      -7.685   6.105  68.341  1.00  0.00    -0.099 OA 
HETATM    7  O   UNL     3     -11.522  15.024  67.955  1.00  0.00    -0.321 OA 
ENDROOT
BRANCH   2   8
HETATM    8  C   UNL     2      -9.342   4.649  67.310  1.00  0.00    -0.143 C  
HETATM    9  H   UNL     2      -9.298   2.744  67.855  1.00  0.00     0.000 HD 
HETATM   10  O   UNL     2      -9.119   3.592  68.244  1.00  0.00    -0.121 OA 
ENDBRANCH   2   8
BRANCH   2  11
HETATM   11  C   UNL     2      -9.393   7.181  66.985  1.00  0.00    -0.151 C  
HETATM   12  H   UNL     2     -10.988   8.256  66.494  1.00  0.00     0.000 HD 
HETATM   13  O   UNL     2     -10.779   7.539  67.080  1.00  0.00    -0.346 OA 
BRANCH  11  14
HETATM   14  C   UNL     2      -8.519   8.403  67.317  1.00  0.00    -0.124 C  
HETATM   15  H   UNL     2      -8.671   9.990  68.484  1.00  0.00     0.000 HD 
HETATM   16  O   UNL     2      -9.211   9.235  68.280  1.00  0.00    -0.132 OA 
BRANCH  14  17
HETATM   17  C   UNL     2      -8.165   9.278  66.119  1.00  0.00    -0.111 C  
HETATM   18  C   UNL     2      -8.963  10.596  66.117  1.00  0.00    -0.168 C  
HETATM   19  H   UNL     2      -8.267   9.083  64.161  1.00  0.00     0.000 HD 
HETATM   20  O   UNL     2      -8.488   8.538  64.908  1.00  0.00    -0.173 OA 
HETATM   21  O   UNL     2     -10.173  10.524  65.655  1.00  0.00    -0.262 OA 
HETATM   22  O   UNL     2      -8.404  11.684  66.215  1.00  0.00    -0.135 OA 
ENDBRANCH  14  17
ENDBRANCH  11  14
ENDBRANCH   2  11
BRANCH   3  23
HETATM   23  C   UNL     3      -9.670  14.690  66.503  1.00  0.00    -0.280 C  
HETATM   24  O   UNL     3      -9.503  13.979  65.270  1.00  0.00    -0.519 OA 
HETATM   25  H   UNL     3      -8.602  13.681  65.224  1.00  0.00     0.000 HD 
BRANCH  23  26
HETATM   26  C   UNL     3      -8.542  15.742  66.605  1.00  0.00    -0.287 C  
HETATM   27  O   UNL     3      -7.269  15.129  66.342  1.00  0.00     0.031 OA 
HETATM   28  H   UNL     3      -6.576  15.775  66.405  1.00  0.00     0.000 HD 
BRANCH  26  29
HETATM   29  C   UNL     3      -8.543  16.309  68.044  1.00  0.00    -0.176 C  
HETATM   30  C   UNL     3      -7.314  17.153  68.464  1.00  0.00    -0.231 C  
HETATM   31  O   UNL     3      -8.687  15.218  69.018  1.00  0.00    -0.195 OA 
HETATM   32  O   UNL     3      -6.888  18.040  67.704  1.00  0.00    -0.187 OA 
HETATM   33  O   UNL     3      -6.891  16.792  69.646  1.00  0.00    -0.202 OA 
HETATM   34  H   UNL     3      -8.688  15.567  69.902  1.00  0.00     0.000 HD 
ENDBRANCH  26  29
ENDBRANCH  23  26
ENDBRANCH   3  23
BRANCH   3  35
HETATM   35  C   UNL     3     -12.118  14.380  65.731  1.00  0.00    -0.355 C  
HETATM   36  O   UNL     3     -12.595  13.293  66.530  1.00  0.00    -0.279 OA 
HETATM   37  H   UNL     3     -13.218  12.804  66.005  1.00  0.00     0.000 HD 
ENDBRANCH   3  35
TORSDOF 8
ENDMDL
MODEL      235
REMARK 921   NORMALIZED FREE ENERGY PREDICTED BY IDOCK:   -3.61 KCAL/MOL
REMARK 922        TOTAL FREE ENERGY PREDICTED BY IDOCK:   -7.39 KCAL/MOL
REMARK 923 INTER-LIGAND FREE ENERGY PREDICTED BY IDOCK:   -5.82 KCAL/MOL
REMARK 924 INTRA-LIGAND FREE ENERGY PREDICTED BY IDOCK:   -1.57 KCAL/MOL
REMARK 927      BINDING AFFINITY PREDICTED BY RF-SCORE:    0.00 PKD
ROOT
HETATM    1 FE   UNL     1      -6.140  11.115  70.415  1.00  0.00    -0.070 Fe 
HETATM    2  C   UNL     2     -10.388  15.895  68.113  1.00  0.00    -0.256 C  
HETATM    3  C   UNL     3     -10.909   7.009  71.369  1.00  0.00    -0.229 C  
HETATM    4  H   UNL     3     -11.406   6.374  69.595  1.00  0.00     0.000 HD 
HETATM    5  H   UNL     2      -9.181  14.899  66.908  1.00  0.00     0.000 HD 
HETATM    6  O   UNL     2      -9.275  15.791  67.219  1.00  0.00    -0.202 OA 
HETATM    7  O   UNL     3     -11.823   6.918  70.253  1.00  0.00    -0.323 OA 
ENDROOT
BRANCH   2   8
HETATM    8  C   UNL     2     -10.539  17.333  68.616  1.00  0.00    -0.329 C  
HETATM    9  H   UNL     2      -9.498  19.020  68.582  1.00  0.00     0.000 HD 
HETATM   10  O   UNL     2      -9.403  18.127  68.270  1.00  0.00    -0.284 OA 
ENDBRANCH   2   8
BRANCH   2  11
HETATM   11  C   UNL     2     -10.226  14.885  69.266  1.00  0.00    -0.214 C  
HETATM   12  H   UNL     2      -9.397  14.838  71.069  1.00  0.00     0.000 HD 
HETATM   13  O   UNL     2      -9.496  15.461  70.359  1.00  0.00     0.187 OA 
BRANCH  11  14
HETATM   14  C   UNL     2     -11.608  14.417  69.755  1.00  0.00    -0.298 C  
HETATM   15  H   UNL     2     -13.295  13.828  68.911  1.00  0.00     0.000 HD 
HETATM   16  O   UNL     2     -12.441  14.117  68.609  1.00  0.00    -0.145 OA 
BRANCH  14  17
HETATM   17  C   UNL     2     -12.355  15.429  70.618  1.00  0.00    -0.403 C  
HETATM   18  C   UNL     2     -12.375  15.012  72.100  1.00  0.00    -0.355 C  
HETATM   19  H   UNL     2     -14.192  16.136  70.676  1.00  0.00     0.000 HD 
HETATM   20  O   UNL     2     -13.727  15.506  70.138  1.00  0.00     0.130 OA 
HETATM   21  O   UNL     2     -13.269  14.133  72.429  1.00  0.00    -0.399 OA 
HETATM   22  O   UNL     2     -11.834  15.695  72.966  1.00  0.00    -0.445 OA 
ENDBRANCH  14  17
ENDBRANCH  11  14
ENDBRANCH   2  11
BRANCH   3  23
HETATM   23  C   UNL     3      -9.596   7.540  70.805  1.00  0.00    -0.166 C  
HETATM   24  O   UNL     3      -8.781   6.415  70.451  1.00  0.00    -0.143 OA 
HETATM   25  H   UNL     3      -7.963   6.747  70.100  1.00  0.00     0.000 HD 
BRANCH  23  26
HETATM   26  C   UNL     3      -9.649   8.495  69.590  1.00  0.00    -0.170 C  
HETATM   27  O   UNL     3      -9.339   7.776  68.384  1.00  0.00    -0.144 OA 
HETATM   28  H   UNL     3      -9.372   8.362  67.637  1.00  0.00     0.000 HD 
BRANCH  26  29
HETATM   29  C   UNL     3      -8.594   9.604  69.803  1.00  0.00    -0.199 C  
HETATM   30  C   UNL     3      -8.634  10.805  68.826  1.00  0.00    -0.156 C  
HETATM   31  O   UNL     3      -7.240   9.033  69.750  1.00  0.00    -0.052 OA 
HETATM   32  O   UNL     3      -9.720  11.354  68.570  1.00  0.00    -0.190 OA 
HETATM   33  O   UNL     3      -7.433  11.092  68.401  1.00  0.00    -0.089 OA 
HETATM   34  H   UNL     3      -6.592   9.715  69.882  1.00  0.00     0.000 HD 
ENDBRANCH  26  29
ENDBRANCH  23  26
ENDBRANCH   3  23
BRANCH   3  35
HETATM   35  C   UNL     3     -11.579   7.884  72.427  1.00  0.00    -0.380 C  
HETATM   36  O   UNL     3     -12.994   7.728  72.282  1.00  0.00    -0.493 OA 
HETATM   37  H   UNL     3     -13.411   8.272  72.940  1.00  0.00     0.000 HD 
ENDBRANCH   3  35
TORSDOF 8
ENDMDL
MODEL      236
REMARK 921   NORMALIZED FREE ENERGY PREDICTED BY IDOCK:   -3.58 KCAL/MOL
REMARK 922        TOTAL FREE ENERGY PREDICTED BY IDOCK:   -7.36 KCAL/MOL
REMARK 923 INTER-LIGAND FREE ENERGY PREDICTED BY IDOCK:   -6.12 KCAL/MOL
REMARK 924 INTRA-LIGAND FREE ENERGY PREDICTED BY IDOCK:   -1.24 KCAL/MOL
REMARK 927      BINDING AFFINITY PREDICTED BY RF-SCORE:    0.00 PKD
ROOT
HETATM    1 FE   UNL     1      -6.221  10.379  71.601  1.00  0.00    -0.035 Fe 
HETATM    2  C   UNL     2      -8.621  15.106  67.348  1.00  0.00    -0.184 C  
HETATM    3  C   UNL     3     -11.465   6.826  70.980  1.00  0.00    -0.324 C  
HETATM    4  H   UNL     3     -11.319   5.991  69.226  1.00  0.00     0.000 HD 
HETATM    5  H   UNL     2      -7.179  13.861  66.824  1.00  0.00     0.000 HD 
HETATM    6  O   UNL     2      -7.273  14.793  66.984  1.00  0.00    -0.127 OA 
HETATM    7  O   UNL     3     -11.885   6.652  69.609  1.00  0.00    -0.255 OA 
ENDROOT
BRANCH   2   8
HETATM    8  C   UNL     2      -8.772  16.608  67.607  1.00  0.00    -0.202 C  
HETATM    9  H   UNL     2     -10.100  18.034  67.249  1.00  0.00     0.000 HD 
HETATM   10  O   UNL     2     -10.007  17.103  67.088  1.00  0.00    -0.267 OA 
ENDBRANCH   2   8
BRANCH   2  11
HETATM   11  C   UNL     2      -9.042  14.256  68.563  1.00  0.00    -0.191 C  
HETATM   12  H   UNL     2     -10.005  14.527  70.278  1.00  0.00     0.000 HD 
HETATM   13  O   UNL     2      -9.745  15.050  69.530  1.00  0.00    -0.185 OA 
BRANCH  11  14
HETATM   14  C   UNL     2      -9.934  13.089  68.106  1.00  0.00    -0.231 C  
HETATM   15  H   UNL     2      -9.896  11.119  68.260  1.00  0.00     0.000 HD 
HETATM   16  O   UNL     2      -9.345  11.840  68.543  1.00  0.00    -0.198 OA 
BRANCH  14  17
HETATM   17  C   UNL     2     -10.143  12.999  66.597  1.00  0.00    -0.251 C  
HETATM   18  C   UNL     2     -11.480  13.630  66.166  1.00  0.00    -0.325 C  
HETATM   19  H   UNL     2     -10.283  11.535  65.287  1.00  0.00     0.000 HD 
HETATM   20  O   UNL     2     -10.152  11.592  66.226  1.00  0.00    -0.213 OA 
HETATM   21  O   UNL     2     -12.531  12.886  66.315  1.00  0.00    -0.453 OA 
HETATM   22  O   UNL     2     -11.518  14.610  65.427  1.00  0.00    -0.340 OA 
ENDBRANCH  14  17
ENDBRANCH  11  14
ENDBRANCH   2  11
BRANCH   3  23
HETATM   23  C   UNL     3      -9.981   7.171  70.934  1.00  0.00    -0.189 C  
HETATM   24  O   UNL     3      -9.288   6.059  70.353  1.00  0.00    -0.157 OA 
HETATM   25  H   UNL     3      -8.363   6.274  70.325  1.00  0.00     0.000 HD 
BRANCH  23  26
HETATM   26  C   UNL     3      -9.545   8.452  70.186  1.00  0.00    -0.165 C  
HETATM   27  O   UNL     3     -10.428   9.538  70.512  1.00  0.00    -0.252 OA 
HETATM   28  H   UNL     3     -10.160  10.325  70.052  1.00  0.00     0.000 HD 
BRANCH  26  29
HETATM   29  C   UNL     3      -9.626   8.172  68.668  1.00  0.00    -0.149 C  
HETATM   30  C   UNL     3      -8.290   8.179  67.883  1.00  0.00    -0.129 C  
HETATM   31  O   UNL     3     -10.526   9.137  68.021  1.00  0.00    -0.218 OA 
HETATM   32  O   UNL     3      -7.309   7.563  68.334  1.00  0.00    -0.093 OA 
HETATM   33  O   UNL     3      -8.411   8.865  66.778  1.00  0.00    -0.110 OA 
HETATM   34  H   UNL     3     -10.576   8.964  67.088  1.00  0.00     0.000 HD 
ENDBRANCH  26  29
ENDBRANCH  23  26
ENDBRANCH   3  23
BRANCH   3  35
HETATM   35  C   UNL     3     -12.375   7.890  71.595  1.00  0.00    -0.315 C  
HETATM   36  O   UNL     3     -11.903   8.145  72.922  1.00  0.00    -0.559 OA 
HETATM   37  H   UNL     3     -12.468   8.806  73.304  1.00  0.00     0.000 HD 
ENDBRANCH   3  35
TORSDOF 8
ENDMDL
MODEL      237
REMARK 921   NORMALIZED FREE ENERGY PREDICTED BY IDOCK:   -3.58 KCAL/MOL
REMARK 922        TOTAL FREE ENERGY PREDICTED BY IDOCK:   -7.35 KCAL/MOL
REMARK 923 INTER-LIGAND FREE ENERGY PREDICTED BY IDOCK:   -6.64 KCAL/MOL
REMARK 924 INTRA-LIGAND FREE ENERGY PREDICTED BY IDOCK:   -0.71 KCAL/MOL
REMARK 927      BINDING AFFINITY PREDICTED BY RF-SCORE:    0.00 PKD
ROOT
HETATM    1 FE   UNL     1     -12.682  12.132  65.196  1.00  0.00    -0.422 Fe 
HETATM    2  C   UNL     2     -11.951  14.695  71.448  1.00  0.00    -0.343 C  
HETATM    3  C   UNL     3      -6.945   9.384  65.401  1.00  0.00    -0.090 C  
HETATM    4  H   UNL     3      -7.155   7.836  66.566  1.00  0.00     0.000 HD 
HETATM    5  H   UNL     2     -13.156  13.175  71.074  1.00  0.00     0.000 HD 
HETATM    6  O   UNL     2     -13.240  14.082  71.344  1.00  0.00    -0.333 OA 
HETATM    7  O   UNL     3      -6.694   8.664  66.629  1.00  0.00    -0.066 OA 
ENDROOT
BRANCH   2   8
HETATM    8  C   UNL     2     -12.086  16.157  71.882  1.00  0.00    -0.476 C  
HETATM    9  H   UNL     2     -12.331  17.174  73.566  1.00  0.00     0.000 HD 
HETATM   10  O   UNL     2     -12.247  16.266  73.297  1.00  0.00    -0.486 OA 
ENDBRANCH   2   8
BRANCH   2  11
HETATM   11  C   UNL     2     -11.195  14.546  70.114  1.00  0.00    -0.146 C  
HETATM   12  H   UNL     2     -10.988  13.178  68.691  1.00  0.00     0.000 HD 
HETATM   13  O   UNL     2     -11.453  13.269  69.513  1.00  0.00    -0.268 OA 
BRANCH  11  14
HETATM   14  C   UNL     2     -11.609  15.667  69.145  1.00  0.00    -0.383 C  
HETATM   15  H   UNL     2     -12.779  15.822  67.560  1.00  0.00     0.000 HD 
HETATM   16  O   UNL     2     -12.523  15.130  68.159  1.00  0.00     0.189 OA 
BRANCH  14  17
HETATM   17  C   UNL     2     -10.453  16.323  68.396  1.00  0.00    -0.282 C  
HETATM   18  C   UNL     2      -9.149  15.517  68.537  1.00  0.00    -0.196 C  
HETATM   19  H   UNL     2      -9.524  18.057  68.493  1.00  0.00     0.000 HD 
HETATM   20  O   UNL     2     -10.244  17.648  68.959  1.00  0.00    -0.364 OA 
HETATM   21  O   UNL     2      -8.486  15.700  69.636  1.00  0.00    -0.227 OA 
HETATM   22  O   UNL     2      -8.599  15.011  67.563  1.00  0.00    -0.162 OA 
ENDBRANCH  14  17
ENDBRANCH  11  14
ENDBRANCH   2  11
BRANCH   3  23
HETATM   23  C   UNL     3      -8.460   9.478  65.262  1.00  0.00    -0.148 C  
HETATM   24  O   UNL     3      -9.048   8.724  66.329  1.00  0.00    -0.166 OA 
HETATM   25  H   UNL     3      -9.992   8.782  66.242  1.00  0.00     0.000 HD 
BRANCH  23  26
HETATM   26  C   UNL     3      -9.113  10.880  65.249  1.00  0.00    -0.197 C  
HETATM   27  O   UNL     3     -10.227  10.914  66.157  1.00  0.00    -0.235 OA 
HETATM   28  H   UNL     3     -10.628  11.775  66.149  1.00  0.00     0.000 HD 
BRANCH  26  29
HETATM   29  C   UNL     3      -9.619  11.161  63.816  1.00  0.00    -0.271 C  
HETATM   30  C   UNL     3     -10.692  12.267  63.658  1.00  0.00    -0.467 C  
HETATM   31  O   UNL     3     -10.157   9.931  63.218  1.00  0.00    -0.386 OA 
HETATM   32  O   UNL     3     -10.538  13.360  64.230  1.00  0.00    -0.420 OA 
HETATM   33  O   UNL     3     -11.657  11.863  62.876  1.00  0.00    -0.035 OA 
HETATM   34  H   UNL     3     -10.468  10.104  62.337  1.00  0.00     0.000 HD 
ENDBRANCH  26  29
ENDBRANCH  23  26
ENDBRANCH   3  23
BRANCH   3  35
HETATM   35  C   UNL     3      -6.204  10.717  65.504  1.00  0.00    -0.093 C  
HETATM   36  O   UNL     3      -6.673  11.381  66.681  1.00  0.00    -0.170 OA 
HETATM   37  H   UNL     3      -6.212  12.209  66.745  1.00  0.00     0.000 HD 
ENDBRANCH   3  35
TORSDOF 8
ENDMDL
MODEL      238
REMARK 921   NORMALIZED FREE ENERGY PREDICTED BY IDOCK:   -3.55 KCAL/MOL
REMARK 922        TOTAL FREE ENERGY PREDICTED BY IDOCK:   -7.31 KCAL/MOL
REMARK 923 INTER-LIGAND FREE ENERGY PREDICTED BY IDOCK:   -6.66 KCAL/MOL
REMARK 924 INTRA-LIGAND FREE ENERGY PREDICTED BY IDOCK:   -0.65 KCAL/MOL
REMARK 927      BINDING AFFINITY PREDICTED BY RF-SCORE:    0.00 PKD
ROOT
HETATM    1 FE   UNL     1      -6.001  16.834  70.970  1.00  0.00    -0.151 Fe 
HETATM    2  C   UNL     2     -11.693  13.569  69.202  1.00  0.00    -0.327 C  
HETATM    3  C   UNL     3      -5.731  19.872  65.384  1.00  0.00    -0.175 C  
HETATM    4  H   UNL     3      -7.106  21.250  65.478  1.00  0.00     0.000 HD 
HETATM    5  H   UNL     2     -11.699  15.050  70.510  1.00  0.00     0.000 HD 
HETATM    6  O   UNL     2     -11.857  14.113  70.515  1.00  0.00    -0.301 OA 
HETATM    7  O   UNL     3      -6.993  20.448  64.980  1.00  0.00    -0.291 OA 
ENDROOT
BRANCH   2   8
HETATM    8  C   UNL     2     -11.948  12.060  69.210  1.00  0.00    -0.270 C  
HETATM    9  H   UNL     2     -12.206  10.621  70.549  1.00  0.00     0.000 HD 
HETATM   10  O   UNL     2     -12.048  11.557  70.544  1.00  0.00    -0.356 OA 
ENDBRANCH   2   8
BRANCH   2  11
HETATM   11  C   UNL     2     -10.294  13.926  68.662  1.00  0.00    -0.237 C  
HETATM   12  H   UNL     2      -8.623  12.970  68.178  1.00  0.00     0.000 HD 
HETATM   13  O   UNL     2      -9.484  12.751  68.511  1.00  0.00    -0.187 OA 
BRANCH  11  14
HETATM   14  C   UNL     2     -10.420  14.645  67.307  1.00  0.00    -0.266 C  
HETATM   15  H   UNL     2     -10.785  16.489  66.700  1.00  0.00     0.000 HD 
HETATM   16  O   UNL     2     -10.707  16.045  67.537  1.00  0.00    -0.312 OA 
BRANCH  14  17
HETATM   17  C   UNL     2     -11.507  14.093  66.390  1.00  0.00    -0.354 C  
HETATM   18  C   UNL     2     -11.068  12.787  65.703  1.00  0.00    -0.279 C  
HETATM   19  H   UNL     2     -12.458  14.746  64.794  1.00  0.00     0.000 HD 
HETATM   20  O   UNL     2     -11.781  15.089  65.365  1.00  0.00    -0.287 OA 
HETATM   21  O   UNL     2     -10.314  12.924  64.657  1.00  0.00    -0.333 OA 
HETATM   22  O   UNL     2     -11.653  11.727  65.907  1.00  0.00    -0.354 OA 
ENDBRANCH  14  17
ENDBRANCH  11  14
ENDBRANCH   2  11
BRANCH   3  23
HETATM   23  C   UNL     3      -5.801  19.705  66.898  1.00  0.00    -0.173 C  
HETATM   24  O   UNL     3      -6.002  21.002  67.474  1.00  0.00    -0.251 OA 
HETATM   25  H   UNL     3      -6.045  20.898  68.418  1.00  0.00     0.000 HD 
BRANCH  23  26
HETATM   26  C   UNL     3      -6.865  18.750  67.485  1.00  0.00    -0.201 C  
HETATM   27  O   UNL     3      -7.592  19.407  68.537  1.00  0.00    -0.308 OA 
HETATM   28  H   UNL     3      -8.246  18.820  68.898  1.00  0.00     0.000 HD 
BRANCH  26  29
HETATM   29  C   UNL     3      -6.135  17.518  68.068  1.00  0.00    -0.152 C  
HETATM   30  C   UNL     3      -6.906  16.174  68.048  1.00  0.00    -0.126 C  
HETATM   31  O   UNL     3      -5.730  17.778  69.456  1.00  0.00    -0.205 OA 
HETATM   32  O   UNL     3      -7.493  15.816  67.013  1.00  0.00    -0.209 OA 
HETATM   33  O   UNL     3      -6.800  15.568  69.201  1.00  0.00    -0.133 OA 
HETATM   34  H   UNL     3      -5.281  17.021  69.814  1.00  0.00     0.000 HD 
ENDBRANCH  26  29
ENDBRANCH  23  26
ENDBRANCH   3  23
BRANCH   3  35
HETATM   35  C   UNL     3      -5.551  18.583  64.582  1.00  0.00    -0.137 C  
HETATM   36  O   UNL     3      -5.646  18.921  63.195  1.00  0.00    -0.286 OA 
HETATM   37  H   UNL     3      -5.533  18.120  62.697  1.00  0.00     0.000 HD 
ENDBRANCH   3  35
TORSDOF 8
ENDMDL
MODEL      239
REMARK 921   NORMALIZED FREE ENERGY PREDICTED BY IDOCK:   -3.54 KCAL/MOL
REMARK 922        TOTAL FREE ENERGY PREDICTED BY IDOCK:   -7.30 KCAL/MOL
REMARK 923 INTER-LIGAND FREE ENERGY PREDICTED BY IDOCK:   -5.85 KCAL/MOL
REMARK 924 INTRA-LIGAND FREE ENERGY PREDICTED BY IDOCK:   -1.44 KCAL/MOL
REMARK 927      BINDING AFFINITY PREDICTED BY RF-SCORE:    0.00 PKD
ROOT
HETATM    1 FE   UNL     1     -13.318  10.406  69.081  1.00  0.00    -0.482 Fe 
HETATM    2  C   UNL     2     -10.131  16.394  68.662  1.00  0.00    -0.244 C  
HETATM    3  C   UNL     3      -8.111   7.244  67.237  1.00  0.00    -0.112 C  
HETATM    4  H   UNL     3      -6.927   7.250  68.785  1.00  0.00     0.000 HD 
HETATM    5  H   UNL     2     -10.564  15.558  70.399  1.00  0.00     0.000 HD 
HETATM    6  O   UNL     2     -10.832  16.326  69.908  1.00  0.00    -0.331 OA 
HETATM    7  O   UNL     3      -6.911   7.658  67.927  1.00  0.00    -0.064 OA 
ENDROOT
BRANCH   2   8
HETATM    8  C   UNL     2     -10.563  17.631  67.870  1.00  0.00    -0.387 C  
HETATM    9  H   UNL     2     -10.158  19.571  67.839  1.00  0.00     0.000 HD 
HETATM   10  O   UNL     2      -9.890  18.804  68.331  1.00  0.00    -0.340 OA 
ENDBRANCH   2   8
BRANCH   2  11
HETATM   11  C   UNL     2     -10.344  15.088  67.872  1.00  0.00    -0.241 C  
HETATM   12  H   UNL     2     -11.184  14.529  66.163  1.00  0.00     0.000 HD 
HETATM   13  O   UNL     2     -11.053  15.334  66.649  1.00  0.00    -0.324 OA 
BRANCH  11  14
HETATM   14  C   UNL     2      -8.987  14.433  67.561  1.00  0.00    -0.190 C  
HETATM   15  H   UNL     2      -8.219  12.616  67.683  1.00  0.00     0.000 HD 
HETATM   16  O   UNL     2      -9.057  13.021  67.875  1.00  0.00    -0.190 OA 
BRANCH  14  17
HETATM   17  C   UNL     2      -7.805  15.019  68.326  1.00  0.00    -0.119 C  
HETATM   18  C   UNL     2      -6.543  15.108  67.448  1.00  0.00    -0.056 C  
HETATM   19  H   UNL     2      -6.787  14.514  69.934  1.00  0.00     0.000 HD 
HETATM   20  O   UNL     2      -7.523  14.150  69.458  1.00  0.00     0.004 OA 
HETATM   21  O   UNL     2      -5.863  14.011  67.321  1.00  0.00    -0.309 OA 
HETATM   22  O   UNL     2      -6.027  16.188  67.174  1.00  0.00    -0.273 OA 
ENDBRANCH  14  17
ENDBRANCH  11  14
ENDBRANCH   2  11
BRANCH   3  23
HETATM   23  C   UNL     3      -9.279   7.638  68.135  1.00  0.00    -0.138 C  
HETATM   24  O   UNL     3     -10.483   7.145  67.532  1.00  0.00    -0.208 OA 
HETATM   25  H   UNL     3     -11.210   7.391  68.092  1.00  0.00     0.000 HD 
BRANCH  23  26
HETATM   26  C   UNL     3      -9.260   7.181  69.611  1.00  0.00    -0.146 C  
HETATM   27  O   UNL     3      -8.569   5.926  69.731  1.00  0.00    -0.125 OA 
HETATM   28  H   UNL     3      -8.557   5.645  70.638  1.00  0.00     0.000 HD 
BRANCH  26  29
HETATM   29  C   UNL     3     -10.723   7.000  70.077  1.00  0.00    -0.242 C  
HETATM   30  C   UNL     3     -11.382   8.203  70.796  1.00  0.00    -0.270 C  
HETATM   31  O   UNL     3     -10.831   5.836  70.968  1.00  0.00    -0.260 OA 
HETATM   32  O   UNL     3     -11.272   9.344  70.314  1.00  0.00    -0.245 OA 
HETATM   33  O   UNL     3     -12.013   7.808  71.869  1.00  0.00    -0.280 OA 
HETATM   34  H   UNL     3     -11.730   5.725  71.254  1.00  0.00     0.000 HD 
ENDBRANCH  26  29
ENDBRANCH  23  26
ENDBRANCH   3  23
BRANCH   3  35
HETATM   35  C   UNL     3      -8.084   7.900  65.857  1.00  0.00    -0.119 C  
HETATM   36  O   UNL     3      -9.024   8.979  65.875  1.00  0.00    -0.164 OA 
HETATM   37  H   UNL     3      -9.007   9.388  65.017  1.00  0.00     0.000 HD 
ENDBRANCH   3  35
TORSDOF 8
ENDMDL
MODEL      240
REMARK 921   NORMALIZED FREE ENERGY PREDICTED BY IDOCK:   -3.53 KCAL/MOL
REMARK 922        TOTAL FREE ENERGY PREDICTED BY IDOCK:   -7.28 KCAL/MOL
REMARK 923 INTER-LIGAND FREE ENERGY PREDICTED BY IDOCK:   -6.19 KCAL/MOL
REMARK 924 INTRA-LIGAND FREE ENERGY PREDICTED BY IDOCK:   -1.09 KCAL/MOL
REMARK 927      BINDING AFFINITY PREDICTED BY RF-SCORE:    0.00 PKD
ROOT
HETATM    1 FE   UNL     1      -5.346  13.870  67.786  1.00  0.00    -0.083 Fe 
HETATM    2  C   UNL     2     -10.199  18.505  66.709  1.00  0.00    -0.393 C  
HETATM    3  C   UNL     3      -9.541   9.088  67.571  1.00  0.00    -0.144 C  
HETATM    4  H   UNL     3      -9.981   8.871  65.685  1.00  0.00     0.000 HD 
HETATM    5  H   UNL     2      -8.894  18.011  65.310  1.00  0.00     0.000 HD 
HETATM    6  O   UNL     2      -9.096  18.774  65.838  1.00  0.00    -0.456 OA 
HETATM    7  O   UNL     3     -10.453   9.171  66.453  1.00  0.00    -0.213 OA 
ENDROOT
BRANCH   2   8
HETATM    8  C   UNL     2     -10.523  19.735  67.561  1.00  0.00    -0.431 C  
HETATM    9  H   UNL     2     -10.340  20.304  69.451  1.00  0.00     0.000 HD 
HETATM   10  O   UNL     2     -10.139  19.540  68.922  1.00  0.00    -0.442 OA 
ENDBRANCH   2   8
BRANCH   2  11
HETATM   11  C   UNL     2      -9.893  17.261  67.567  1.00  0.00    -0.275 C  
HETATM   12  H   UNL     2     -10.601  15.420  67.784  1.00  0.00     0.000 HD 
HETATM   13  O   UNL     2     -10.790  16.186  67.256  1.00  0.00    -0.309 OA 
BRANCH  11  14
HETATM   14  C   UNL     2      -8.441  16.806  67.337  1.00  0.00    -0.189 C  
HETATM   15  H   UNL     2      -7.531  15.108  66.898  1.00  0.00     0.000 HD 
HETATM   16  O   UNL     2      -8.428  15.389  67.040  1.00  0.00    -0.195 OA 
BRANCH  14  17
HETATM   17  C   UNL     2      -7.504  17.040  68.518  1.00  0.00    -0.221 C  
HETATM   18  C   UNL     2      -6.767  18.388  68.405  1.00  0.00    -0.230 C  
HETATM   19  H   UNL     2      -5.934  16.116  69.266  1.00  0.00     0.000 HD 
HETATM   20  O   UNL     2      -6.518  15.970  68.531  1.00  0.00    -0.111 OA 
HETATM   21  O   UNL     2      -5.727  18.401  67.631  1.00  0.00    -0.156 OA 
HETATM   22  O   UNL     2      -6.930  19.280  69.233  1.00  0.00    -0.329 OA 
ENDBRANCH  14  17
ENDBRANCH  11  14
ENDBRANCH   2  11
BRANCH   3  23
HETATM   23  C   UNL     3      -8.314   9.908  67.185  1.00  0.00    -0.121 C  
HETATM   24  O   UNL     3      -7.154   9.097  67.411  1.00  0.00    -0.078 OA 
HETATM   25  H   UNL     3      -6.390   9.608  67.171  1.00  0.00     0.000 HD 
BRANCH  23  26
HETATM   26  C   UNL     3      -8.230  10.476  65.750  1.00  0.00    -0.160 C  
HETATM   27  O   UNL     3      -9.305  11.403  65.522  1.00  0.00    -0.221 OA 
HETATM   28  H   UNL     3      -9.253  11.753  64.640  1.00  0.00     0.000 HD 
BRANCH  26  29
HETATM   29  C   UNL     3      -8.360   9.297  64.758  1.00  0.00    -0.162 C  
HETATM   30  C   UNL     3      -7.082   8.894  63.981  1.00  0.00    -0.094 C  
HETATM   31  O   UNL     3      -9.411   9.579  63.770  1.00  0.00    -0.416 OA 
HETATM   32  O   UNL     3      -6.006   8.764  64.590  1.00  0.00    -0.063 OA 
HETATM   33  O   UNL     3      -7.350   8.720  62.714  1.00  0.00    -0.097 OA 
HETATM   34  H   UNL     3      -9.490   8.855  63.161  1.00  0.00     0.000 HD 
ENDBRANCH  26  29
ENDBRANCH  23  26
ENDBRANCH   3  23
BRANCH   3  35
HETATM   35  C   UNL     3     -10.300   9.572  68.806  1.00  0.00    -0.208 C  
HETATM   36  O   UNL     3     -11.364  10.416  68.354  1.00  0.00    -0.393 OA 
HETATM   37  H   UNL     3     -11.836  10.716  69.122  1.00  0.00     0.000 HD 
ENDBRANCH   3  35
TORSDOF 8
ENDMDL
MODEL      241
REMARK 921   NORMALIZED FREE ENERGY PREDICTED BY IDOCK:   -3.52 KCAL/MOL
REMARK 922        TOTAL FREE ENERGY PREDICTED BY IDOCK:   -7.26 KCAL/MOL
REMARK 923 INTER-LIGAND FREE ENERGY PREDICTED BY IDOCK:   -7.61 KCAL/MOL
REMARK 924 INTRA-LIGAND FREE ENERGY PREDICTED BY IDOCK:    0.35 KCAL/MOL
REMARK 927      BINDING AFFINITY PREDICTED BY RF-SCORE:    0.00 PKD
ROOT
HETATM    1 FE   UNL     1     -12.112  10.031  68.649  1.00  0.00    -0.488 Fe 
HETATM    2  C   UNL     2      -8.942   4.660  71.350  1.00  0.00    -0.128 C  
HETATM    3  C   UNL     3      -8.276  10.034  63.571  1.00  0.00    -0.163 C  
HETATM    4  H   UNL     3      -8.873   8.540  62.471  1.00  0.00     0.000 HD 
HETATM    5  H   UNL     2     -10.740   4.519  70.545  1.00  0.00     0.000 HD 
HETATM    6  O   UNL     2     -10.355   4.446  71.411  1.00  0.00    -0.132 OA 
HETATM    7  O   UNL     3      -8.095   8.726  62.984  1.00  0.00    -0.158 OA 
ENDROOT
BRANCH   2   8
HETATM    8  C   UNL     2      -8.321   4.544  72.745  1.00  0.00    -0.107 C  
HETATM    9  H   UNL     2      -6.581   4.025  73.540  1.00  0.00     0.000 HD 
HETATM   10  O   UNL     2      -6.966   4.097  72.675  1.00  0.00    -0.052 OA 
ENDBRANCH   2   8
BRANCH   2  11
HETATM   11  C   UNL     2      -8.650   6.022  70.690  1.00  0.00    -0.134 C  
HETATM   12  H   UNL     2      -9.025   6.923  68.961  1.00  0.00     0.000 HD 
HETATM   13  O   UNL     2      -9.204   6.084  69.368  1.00  0.00    -0.131 OA 
BRANCH  11  14
HETATM   14  C   UNL     2      -9.230   7.159  71.548  1.00  0.00    -0.145 C  
HETATM   15  H   UNL     2      -8.788   8.009  73.276  1.00  0.00     0.000 HD 
HETATM   16  O   UNL     2      -8.429   7.307  72.746  1.00  0.00    -0.108 OA 
BRANCH  14  17
HETATM   17  C   UNL     2     -10.678   6.956  71.981  1.00  0.00    -0.216 C  
HETATM   18  C   UNL     2     -11.669   7.540  70.958  1.00  0.00    -0.292 C  
HETATM   19  H   UNL     2     -11.771   7.511  73.523  1.00  0.00     0.000 HD 
HETATM   20  O   UNL     2     -10.869   7.638  73.253  1.00  0.00    -0.394 OA 
HETATM   21  O   UNL     2     -11.870   8.820  71.030  1.00  0.00    -0.286 OA 
HETATM   22  O   UNL     2     -12.464   6.825  70.353  1.00  0.00    -0.215 OA 
ENDBRANCH  14  17
ENDBRANCH  11  14
ENDBRANCH   2  11
BRANCH   3  23
HETATM   23  C   UNL     3      -9.585   9.977  64.350  1.00  0.00    -0.258 C  
HETATM   24  O   UNL     3      -9.495   8.891  65.282  1.00  0.00    -0.447 OA 
HETATM   25  H   UNL     3     -10.311   8.856  65.767  1.00  0.00     0.000 HD 
BRANCH  23  26
HETATM   26  C   UNL     3     -10.036  11.237  65.124  1.00  0.00    -0.275 C  
HETATM   27  O   UNL     3     -10.660  10.858  66.362  1.00  0.00    -0.254 OA 
HETATM   28  H   UNL     3     -10.938  11.632  66.838  1.00  0.00     0.000 HD 
BRANCH  26  29
HETATM   29  C   UNL     3     -11.063  11.995  64.251  1.00  0.00    -0.351 C  
HETATM   30  C   UNL     3     -12.355  12.480  64.954  1.00  0.00    -0.470 C  
HETATM   31  O   UNL     3     -11.463  11.166  63.106  1.00  0.00    -0.795 OA 
HETATM   32  O   UNL     3     -12.279  13.064  66.048  1.00  0.00    -0.434 OA 
HETATM   33  O   UNL     3     -13.405  12.197  64.230  1.00  0.00    -0.761 OA 
HETATM   34  H   UNL     3     -12.094  11.632  62.569  1.00  0.00     0.000 HD 
ENDBRANCH  26  29
ENDBRANCH  23  26
ENDBRANCH   3  23
BRANCH   3  35
HETATM   35  C   UNL     3      -7.024  10.332  64.396  1.00  0.00    -0.060 C  
HETATM   36  O   UNL     3      -5.998  10.744  63.488  1.00  0.00    -0.359 OA 
HETATM   37  H   UNL     3      -5.220  10.930  64.001  1.00  0.00     0.000 HD 
ENDBRANCH   3  35
TORSDOF 8
ENDMDL
MODEL      242
REMARK 921   NORMALIZED FREE ENERGY PREDICTED BY IDOCK:   -3.52 KCAL/MOL
REMARK 922        TOTAL FREE ENERGY PREDICTED BY IDOCK:   -7.26 KCAL/MOL
REMARK 923 INTER-LIGAND FREE ENERGY PREDICTED BY IDOCK:   -6.40 KCAL/MOL
REMARK 924 INTRA-LIGAND FREE ENERGY PREDICTED BY IDOCK:   -0.86 KCAL/MOL
REMARK 927      BINDING AFFINITY PREDICTED BY RF-SCORE:    0.00 PKD
ROOT
HETATM    1 FE   UNL     1      -5.720  11.356  67.232  1.00  0.00    -0.043 Fe 
HETATM    2  C   UNL     2     -10.373  16.273  66.625  1.00  0.00    -0.302 C  
HETATM    3  C   UNL     3     -10.197   6.883  67.905  1.00  0.00    -0.174 C  
HETATM    4  H   UNL     3     -10.930   6.612  66.120  1.00  0.00     0.000 HD 
HETATM    5  H   UNL     2      -9.329  15.623  65.079  1.00  0.00     0.000 HD 
HETATM    6  O   UNL     2      -9.399  16.423  65.588  1.00  0.00    -0.476 OA 
HETATM    7  O   UNL     3     -11.261   6.980  66.931  1.00  0.00    -0.302 OA 
ENDROOT
BRANCH   2   8
HETATM    8  C   UNL     2     -10.486  17.561  67.445  1.00  0.00    -0.342 C  
HETATM    9  H   UNL     2     -10.729  19.499  67.110  1.00  0.00     0.000 HD 
HETATM   10  O   UNL     2     -10.659  18.700  66.601  1.00  0.00    -0.394 OA 
ENDBRANCH   2   8
BRANCH   2  11
HETATM   11  C   UNL     2     -10.022  15.051  67.497  1.00  0.00    -0.226 C  
HETATM   12  H   UNL     2     -10.381  14.415  69.343  1.00  0.00     0.000 HD 
HETATM   13  O   UNL     2     -10.597  15.168  68.806  1.00  0.00    -0.223 OA 
BRANCH  11  14
HETATM   14  C   UNL     2     -10.524  13.762  66.824  1.00  0.00    -0.270 C  
HETATM   15  H   UNL     2     -11.897  12.394  67.209  1.00  0.00     0.000 HD 
HETATM   16  O   UNL     2     -11.587  13.191  67.625  1.00  0.00    -0.306 OA 
BRANCH  14  17
HETATM   17  C   UNL     2      -9.460  12.686  66.633  1.00  0.00    -0.244 C  
HETATM   18  C   UNL     2     -10.043  11.269  66.791  1.00  0.00    -0.219 C  
HETATM   19  H   UNL     2      -7.770  12.211  67.526  1.00  0.00     0.000 HD 
HETATM   20  O   UNL     2      -8.432  12.881  67.645  1.00  0.00    -0.158 OA 
HETATM   21  O   UNL     2     -10.188  10.850  68.010  1.00  0.00    -0.170 OA 
HETATM   22  O   UNL     2     -10.048  10.469  65.860  1.00  0.00    -0.242 OA 
ENDBRANCH  14  17
ENDBRANCH  11  14
ENDBRANCH   2  11
BRANCH   3  23
HETATM   23  C   UNL     3      -8.993   7.594  67.298  1.00  0.00    -0.127 C  
HETATM   24  O   UNL     3      -7.937   7.575  68.266  1.00  0.00    -0.119 OA 
HETATM   25  H   UNL     3      -7.187   8.019  67.888  1.00  0.00     0.000 HD 
BRANCH  23  26
HETATM   26  C   UNL     3      -8.426   7.069  65.959  1.00  0.00    -0.139 C  
HETATM   27  O   UNL     3      -8.910   7.872  64.869  1.00  0.00    -0.386 OA 
HETATM   28  H   UNL     3      -8.562   7.549  64.046  1.00  0.00     0.000 HD 
BRANCH  26  29
HETATM   29  C   UNL     3      -8.911   5.613  65.770  1.00  0.00    -0.147 C  
HETATM   30  C   UNL     3      -7.910   4.490  66.136  1.00  0.00    -0.095 C  
HETATM   31  O   UNL     3      -9.334   5.396  64.379  1.00  0.00    -0.340 OA 
HETATM   32  O   UNL     3      -7.285   4.548  67.209  1.00  0.00    -0.067 OA 
HETATM   33  O   UNL     3      -7.885   3.575  65.204  1.00  0.00    -0.084 OA 
HETATM   34  H   UNL     3      -9.632   4.502  64.263  1.00  0.00     0.000 HD 
ENDBRANCH  26  29
ENDBRANCH  23  26
ENDBRANCH   3  23
BRANCH   3  35
HETATM   35  C   UNL     3     -10.730   7.475  69.210  1.00  0.00    -0.176 C  
HETATM   36  O   UNL     3     -11.902   6.738  69.571  1.00  0.00    -0.635 OA 
HETATM   37  H   UNL     3     -12.232   7.106  70.382  1.00  0.00     0.000 HD 
ENDBRANCH   3  35
TORSDOF 8
ENDMDL
MODEL      243
REMARK 921   NORMALIZED FREE ENERGY PREDICTED BY IDOCK:   -3.51 KCAL/MOL
REMARK 922        TOTAL FREE ENERGY PREDICTED BY IDOCK:   -7.24 KCAL/MOL
REMARK 923 INTER-LIGAND FREE ENERGY PREDICTED BY IDOCK:   -6.27 KCAL/MOL
REMARK 924 INTRA-LIGAND FREE ENERGY PREDICTED BY IDOCK:   -0.98 KCAL/MOL
REMARK 927      BINDING AFFINITY PREDICTED BY RF-SCORE:    0.00 PKD
ROOT
HETATM    1 FE   UNL     1     -12.020   9.270  69.588  1.00  0.00    -0.437 Fe 
HETATM    2  C   UNL     2     -11.057  14.364  65.193  1.00  0.00    -0.362 C  
HETATM    3  C   UNL     3      -8.011   5.472  66.423  1.00  0.00    -0.105 C  
HETATM    4  H   UNL     3      -6.228   6.128  66.855  1.00  0.00     0.000 HD 
HETATM    5  H   UNL     2     -10.292  14.394  67.014  1.00  0.00     0.000 HD 
HETATM    6  O   UNL     2     -10.952  14.873  66.526  1.00  0.00    -0.318 OA 
HETATM    7  O   UNL     3      -6.765   6.115  66.071  1.00  0.00    -0.049 OA 
ENDROOT
BRANCH   2   8
HETATM    8  C   UNL     2     -12.120  15.135  64.407  1.00  0.00    -0.300 C  
HETATM    9  H   UNL     2     -12.319  16.918  63.565  1.00  0.00     0.000 HD 
HETATM   10  O   UNL     2     -11.660  16.440  64.053  1.00  0.00    -1.071 OA 
ENDBRANCH   2   8
BRANCH   2  11
HETATM   11  C   UNL     2     -11.341  12.849  65.235  1.00  0.00    -0.300 C  
HETATM   12  H   UNL     2     -12.519  11.553  64.300  1.00  0.00     0.000 HD 
HETATM   13  O   UNL     2     -12.344  12.486  64.275  1.00  0.00    -0.422 OA 
BRANCH  11  14
HETATM   14  C   UNL     2     -10.049  12.062  64.957  1.00  0.00    -0.264 C  
HETATM   15  H   UNL     2      -9.319  11.003  63.457  1.00  0.00     0.000 HD 
HETATM   16  O   UNL     2     -10.117  11.489  63.629  1.00  0.00    -0.310 OA 
BRANCH  14  17
HETATM   17  C   UNL     2      -9.770  10.928  65.937  1.00  0.00    -0.224 C  
HETATM   18  C   UNL     2      -8.599  11.261  66.881  1.00  0.00    -0.150 C  
HETATM   19  H   UNL     2      -9.249   9.035  65.779  1.00  0.00     0.000 HD 
HETATM   20  O   UNL     2      -9.423   9.742  65.168  1.00  0.00    -0.243 OA 
HETATM   21  O   UNL     2      -7.411  11.079  66.395  1.00  0.00    -0.142 OA 
HETATM   22  O   UNL     2      -8.761  11.358  68.094  1.00  0.00    -0.141 OA 
ENDBRANCH  14  17
ENDBRANCH  11  14
ENDBRANCH   2  11
BRANCH   3  23
HETATM   23  C   UNL     3      -8.579   6.256  67.601  1.00  0.00    -0.114 C  
HETATM   24  O   UNL     3      -9.542   7.186  67.088  1.00  0.00    -0.137 OA 
HETATM   25  H   UNL     3      -9.895   7.674  67.822  1.00  0.00     0.000 HD 
BRANCH  23  26
HETATM   26  C   UNL     3      -9.241   5.470  68.757  1.00  0.00    -0.122 C  
HETATM   27  O   UNL     3     -10.575   5.953  68.982  1.00  0.00    -0.233 OA 
HETATM   28  H   UNL     3     -10.982   5.471  69.692  1.00  0.00     0.000 HD 
BRANCH  26  29
HETATM   29  C   UNL     3      -8.399   5.695  70.034  1.00  0.00    -0.121 C  
HETATM   30  C   UNL     3      -7.058   4.925  70.132  1.00  0.00    -0.050 C  
HETATM   31  O   UNL     3      -9.190   5.365  71.227  1.00  0.00    -0.143 OA 
HETATM   32  O   UNL     3      -6.283   4.913  69.160  1.00  0.00    -0.028 OA 
HETATM   33  O   UNL     3      -6.926   4.381  71.312  1.00  0.00    -0.034 OA 
HETATM   34  H   UNL     3      -8.672   5.503  72.012  1.00  0.00     0.000 HD 
ENDBRANCH  26  29
ENDBRANCH  23  26
ENDBRANCH   3  23
BRANCH   3  35
HETATM   35  C   UNL     3      -8.875   5.451  65.162  1.00  0.00    -0.108 C  
HETATM   36  O   UNL     3      -8.526   6.598  64.381  1.00  0.00    -0.338 OA 
HETATM   37  H   UNL     3      -9.063   6.584  63.597  1.00  0.00     0.000 HD 
ENDBRANCH   3  35
TORSDOF 8
ENDMDL
MODEL      244
REMARK 921   NORMALIZED FREE ENERGY PREDICTED BY IDOCK:   -3.49 KCAL/MOL
REMARK 922        TOTAL FREE ENERGY PREDICTED BY IDOCK:   -7.22 KCAL/MOL
REMARK 923 INTER-LIGAND FREE ENERGY PREDICTED BY IDOCK:   -6.23 KCAL/MOL
REMARK 924 INTRA-LIGAND FREE ENERGY PREDICTED BY IDOCK:   -0.99 KCAL/MOL
REMARK 927      BINDING AFFINITY PREDICTED BY RF-SCORE:    0.00 PKD
ROOT
HETATM    1 FE   UNL     1      -6.981  11.302  64.966  1.00  0.00    -0.340 Fe 
HETATM    2  C   UNL     2     -10.765  16.838  66.073  1.00  0.00    -0.138 C  
HETATM    3  C   UNL     3      -9.515   8.287  69.966  1.00  0.00    -0.167 C  
HETATM    4  H   UNL     3     -11.300   7.752  69.397  1.00  0.00     0.000 HD 
HETATM    5  H   UNL     2     -11.133  15.600  64.578  1.00  0.00     0.000 HD 
HETATM    6  O   UNL     2     -10.835  16.496  64.685  1.00  0.00    -0.741 OA 
HETATM    7  O   UNL     3     -10.957   8.377  70.024  1.00  0.00    -0.244 OA 
ENDROOT
BRANCH   2   8
HETATM    8  C   UNL     2     -10.284  18.281  66.246  1.00  0.00    -0.401 C  
HETATM    9  H   UNL     2     -10.667  20.062  65.463  1.00  0.00     0.000 HD 
HETATM   10  O   UNL     2     -10.966  19.166  65.356  1.00  0.00    -0.477 OA 
ENDBRANCH   2   8
BRANCH   2  11
HETATM   11  C   UNL     2      -9.868  15.827  66.813  1.00  0.00    -0.245 C  
HETATM   12  H   UNL     2      -9.067  14.045  66.461  1.00  0.00     0.000 HD 
HETATM   13  O   UNL     2      -9.620  14.667  66.005  1.00  0.00    -0.304 OA 
BRANCH  11  14
HETATM   14  C   UNL     2      -8.531  16.488  67.193  1.00  0.00    -0.181 C  
HETATM   15  H   UNL     2      -6.628  15.957  67.195  1.00  0.00     0.000 HD 
HETATM   16  O   UNL     2      -7.453  15.549  66.961  1.00  0.00    -0.215 OA 
BRANCH  14  17
HETATM   17  C   UNL     2      -8.438  16.951  68.643  1.00  0.00    -0.260 C  
HETATM   18  C   UNL     2      -7.622  18.250  68.778  1.00  0.00    -0.279 C  
HETATM   19  H   UNL     2      -7.718  16.193  70.313  1.00  0.00     0.000 HD 
HETATM   20  O   UNL     2      -7.776  15.905  69.409  1.00  0.00    -0.226 OA 
HETATM   21  O   UNL     2      -6.333  18.111  68.782  1.00  0.00    -0.201 OA 
HETATM   22  O   UNL     2      -8.131  19.288  69.193  1.00  0.00    -0.295 OA 
ENDBRANCH  14  17
ENDBRANCH  11  14
ENDBRANCH   2  11
BRANCH   3  23
HETATM   23  C   UNL     3      -9.129   8.528  68.511  1.00  0.00    -0.135 C  
HETATM   24  O   UNL     3      -9.351   7.310  67.789  1.00  0.00    -0.129 OA 
HETATM   25  H   UNL     3      -9.110   7.461  66.883  1.00  0.00     0.000 HD 
BRANCH  23  26
HETATM   26  C   UNL     3      -9.827   9.674  67.744  1.00  0.00    -0.159 C  
HETATM   27  O   UNL     3     -10.865   9.145  66.903  1.00  0.00    -0.178 OA 
HETATM   28  H   UNL     3     -11.294   9.850  66.431  1.00  0.00     0.000 HD 
BRANCH  26  29
HETATM   29  C   UNL     3      -8.769  10.377  66.862  1.00  0.00    -0.126 C  
HETATM   30  C   UNL     3      -7.625  11.117  67.599  1.00  0.00    -0.105 C  
HETATM   31  O   UNL     3      -9.417  11.342  65.964  1.00  0.00    -0.201 OA 
HETATM   32  O   UNL     3      -7.031  10.555  68.535  1.00  0.00    -0.063 OA 
HETATM   33  O   UNL     3      -7.431  12.299  67.076  1.00  0.00    -0.140 OA 
HETATM   34  H   UNL     3      -8.767  11.773  65.422  1.00  0.00     0.000 HD 
ENDBRANCH  26  29
ENDBRANCH  23  26
ENDBRANCH   3  23
BRANCH   3  35
HETATM   35  C   UNL     3      -8.963   9.293  70.975  1.00  0.00    -0.156 C  
HETATM   36  O   UNL     3      -7.540   9.145  70.995  1.00  0.00    -0.126 OA 
HETATM   37  H   UNL     3      -7.196   9.771  71.622  1.00  0.00     0.000 HD 
ENDBRANCH   3  35
TORSDOF 8
ENDMDL
MODEL      245
REMARK 921   NORMALIZED FREE ENERGY PREDICTED BY IDOCK:   -3.48 KCAL/MOL
REMARK 922        TOTAL FREE ENERGY PREDICTED BY IDOCK:   -7.21 KCAL/MOL
REMARK 923 INTER-LIGAND FREE ENERGY PREDICTED BY IDOCK:   -5.84 KCAL/MOL
REMARK 924 INTRA-LIGAND FREE ENERGY PREDICTED BY IDOCK:   -1.37 KCAL/MOL
REMARK 927      BINDING AFFINITY PREDICTED BY RF-SCORE:    0.00 PKD
ROOT
HETATM    1 FE   UNL     1      -5.810  12.307  66.684  1.00  0.00    -0.131 Fe 
HETATM    2  C   UNL     2     -10.717  17.009  66.626  1.00  0.00    -0.092 C  
HETATM    3  C   UNL     3      -9.955   7.662  68.005  1.00  0.00    -0.175 C  
HETATM    4  H   UNL     3     -10.903   7.325  66.337  1.00  0.00     0.000 HD 
HETATM    5  H   UNL     2      -9.856  16.373  64.965  1.00  0.00     0.000 HD 
HETATM    6  O   UNL     2      -9.895  17.179  65.467  1.00  0.00    -0.549 OA 
HETATM    7  O   UNL     3     -11.141   7.695  67.179  1.00  0.00    -0.173 OA 
ENDROOT
BRANCH   2   8
HETATM    8  C   UNL     2     -10.779  18.307  67.435  1.00  0.00    -0.350 C  
HETATM    9  H   UNL     2     -10.331  18.920  69.266  1.00  0.00     0.000 HD 
HETATM   10  O   UNL     2     -10.292  18.115  68.764  1.00  0.00    -0.362 OA 
ENDBRANCH   2   8
BRANCH   2  11
HETATM   11  C   UNL     2     -10.200  15.821  67.460  1.00  0.00    -0.265 C  
HETATM   12  H   UNL     2     -10.950  14.197  68.321  1.00  0.00     0.000 HD 
HETATM   13  O   UNL     2     -11.269  14.929  67.807  1.00  0.00    -0.297 OA 
BRANCH  11  14
HETATM   14  C   UNL     2      -9.121  15.055  66.675  1.00  0.00    -0.280 C  
HETATM   15  H   UNL     2      -8.800  13.175  66.155  1.00  0.00     0.000 HD 
HETATM   16  O   UNL     2      -9.467  13.649  66.640  1.00  0.00    -0.267 OA 
BRANCH  14  17
HETATM   17  C   UNL     2      -7.712  15.171  67.247  1.00  0.00    -0.210 C  
HETATM   18  C   UNL     2      -7.575  14.425  68.588  1.00  0.00    -0.132 C  
HETATM   19  H   UNL     2      -6.552  16.653  67.826  1.00  0.00     0.000 HD 
HETATM   20  O   UNL     2      -7.429  16.581  67.470  1.00  0.00    -0.133 OA 
HETATM   21  O   UNL     2      -8.007  15.057  69.634  1.00  0.00    -0.184 OA 
HETATM   22  O   UNL     2      -6.815  13.469  68.715  1.00  0.00    -0.097 OA 
ENDBRANCH  14  17
ENDBRANCH  11  14
ENDBRANCH   2  11
BRANCH   3  23
HETATM   23  C   UNL     3      -8.874   8.412  67.234  1.00  0.00    -0.130 C  
HETATM   24  O   UNL     3      -7.601   7.924  67.676  1.00  0.00    -0.104 OA 
HETATM   25  H   UNL     3      -6.927   8.391  67.196  1.00  0.00     0.000 HD 
BRANCH  23  26
HETATM   26  C   UNL     3      -8.899   8.357  65.690  1.00  0.00    -0.156 C  
HETATM   27  O   UNL     3      -7.849   7.502  65.209  1.00  0.00    -0.104 OA 
HETATM   28  H   UNL     3      -7.864   7.468  64.259  1.00  0.00     0.000 HD 
BRANCH  26  29
HETATM   29  C   UNL     3      -8.671   9.789  65.155  1.00  0.00    -0.168 C  
HETATM   30  C   UNL     3      -9.931  10.664  64.938  1.00  0.00    -0.318 C  
HETATM   31  O   UNL     3      -7.937   9.744  63.882  1.00  0.00    -0.131 OA 
HETATM   32  O   UNL     3     -10.801  10.721  65.825  1.00  0.00    -0.140 OA 
HETATM   33  O   UNL     3      -9.878  11.267  63.781  1.00  0.00    -0.263 OA 
HETATM   34  H   UNL     3      -7.797  10.625  63.553  1.00  0.00     0.000 HD 
ENDBRANCH  26  29
ENDBRANCH  23  26
ENDBRANCH   3  23
BRANCH   3  35
HETATM   35  C   UNL     3     -10.338   8.258  69.360  1.00  0.00    -0.222 C  
HETATM   36  O   UNL     3     -11.097   9.444  69.110  1.00  0.00    -0.409 OA 
HETATM   37  H   UNL     3     -11.335   9.815  69.952  1.00  0.00     0.000 HD 
ENDBRANCH   3  35
TORSDOF 8
ENDMDL
MODEL      246
REMARK 921   NORMALIZED FREE ENERGY PREDICTED BY IDOCK:   -3.46 KCAL/MOL
REMARK 922        TOTAL FREE ENERGY PREDICTED BY IDOCK:   -7.18 KCAL/MOL
REMARK 923 INTER-LIGAND FREE ENERGY PREDICTED BY IDOCK:   -7.20 KCAL/MOL
REMARK 924 INTRA-LIGAND FREE ENERGY PREDICTED BY IDOCK:    0.02 KCAL/MOL
REMARK 927      BINDING AFFINITY PREDICTED BY RF-SCORE:    0.00 PKD
ROOT
HETATM    1 FE   UNL     1     -14.271  14.767  70.073  1.00  0.00    -0.454 Fe 
HETATM    2  C   UNL     2      -9.325  18.872  67.865  1.00  0.00    -0.299 C  
HETATM    3  C   UNL     3     -10.715   9.578  69.102  1.00  0.00    -0.210 C  
HETATM    4  H   UNL     3      -9.416   9.563  70.553  1.00  0.00     0.000 HD 
HETATM    5  H   UNL     2      -9.794  18.734  69.779  1.00  0.00     0.000 HD 
HETATM    6  O   UNL     2      -9.846  19.389  69.093  1.00  0.00    -0.426 OA 
HETATM    7  O   UNL     3      -9.369   9.697  69.614  1.00  0.00    -0.181 OA 
ENDROOT
BRANCH   2   8
HETATM    8  C   UNL     2      -9.409  19.928  66.760  1.00  0.00    -0.384 C  
HETATM    9  H   UNL     2      -8.447  20.384  65.087  1.00  0.00     0.000 HD 
HETATM   10  O   UNL     2      -8.395  19.729  65.773  1.00  0.00    -0.388 OA 
ENDBRANCH   2   8
BRANCH   2  11
HETATM   11  C   UNL     2     -10.065  17.572  67.492  1.00  0.00    -0.326 C  
HETATM   12  H   UNL     2     -11.011  16.825  65.915  1.00  0.00     0.000 HD 
HETATM   13  O   UNL     2     -10.556  17.626  66.145  1.00  0.00    -0.322 OA 
BRANCH  11  14
HETATM   14  C   UNL     2      -9.123  16.366  67.653  1.00  0.00    -0.198 C  
HETATM   15  H   UNL     2      -9.302  14.399  67.583  1.00  0.00     0.000 HD 
HETATM   16  O   UNL     2      -9.883  15.144  67.484  1.00  0.00    -0.219 OA 
BRANCH  14  17
HETATM   17  C   UNL     2      -8.412  16.286  68.999  1.00  0.00    -0.244 C  
HETATM   18  C   UNL     2      -6.921  16.653  68.882  1.00  0.00    -0.200 C  
HETATM   19  H   UNL     2      -8.073  14.868  70.324  1.00  0.00     0.000 HD 
HETATM   20  O   UNL     2      -8.516  14.918  69.485  1.00  0.00    -0.124 OA 
HETATM   21  O   UNL     2      -6.137  15.711  68.459  1.00  0.00    -0.097 OA 
HETATM   22  O   UNL     2      -6.454  17.630  69.461  1.00  0.00    -0.248 OA 
ENDBRANCH  14  17
ENDBRANCH  11  14
ENDBRANCH   2  11
BRANCH   3  23
HETATM   23  C   UNL     3     -11.559  10.586  69.874  1.00  0.00    -0.307 C  
HETATM   24  O   UNL     3     -11.051  10.651  71.213  1.00  0.00     0.003 OA 
HETATM   25  H   UNL     3     -11.577  11.279  71.694  1.00  0.00     0.000 HD 
BRANCH  23  26
HETATM   26  C   UNL     3     -11.662  12.030  69.330  1.00  0.00    -0.330 C  
HETATM   27  O   UNL     3     -10.382  12.678  69.405  1.00  0.00    -0.378 OA 
HETATM   28  H   UNL     3     -10.445  13.566  69.071  1.00  0.00     0.000 HD 
BRANCH  26  29
HETATM   29  C   UNL     3     -12.674  12.802  70.207  1.00  0.00     0.144 C  
HETATM   30  C   UNL     3     -12.216  14.176  70.758  1.00  0.00    -0.365 C  
HETATM   31  O   UNL     3     -13.085  11.978  71.352  1.00  0.00    -0.344 OA 
HETATM   32  O   UNL     3     -11.667  14.992  69.998  1.00  0.00    -0.267 OA 
HETATM   33  O   UNL     3     -12.512  14.284  72.026  1.00  0.00    -0.320 OA 
HETATM   34  H   UNL     3     -13.707  12.453  71.891  1.00  0.00     0.000 HD 
ENDBRANCH  26  29
ENDBRANCH  23  26
ENDBRANCH   3  23
BRANCH   3  35
HETATM   35  C   UNL     3     -10.640   9.795  67.590  1.00  0.00    -0.276 C  
HETATM   36  O   UNL     3     -11.653  10.743  67.241  1.00  0.00    -0.439 OA 
HETATM   37  H   UNL     3     -11.606  10.878  66.302  1.00  0.00     0.000 HD 
ENDBRANCH   3  35
TORSDOF 8
ENDMDL
MODEL      247
REMARK 921   NORMALIZED FREE ENERGY PREDICTED BY IDOCK:   -3.44 KCAL/MOL
REMARK 922        TOTAL FREE ENERGY PREDICTED BY IDOCK:   -7.15 KCAL/MOL
REMARK 923 INTER-LIGAND FREE ENERGY PREDICTED BY IDOCK:   -5.14 KCAL/MOL
REMARK 924 INTRA-LIGAND FREE ENERGY PREDICTED BY IDOCK:   -2.01 KCAL/MOL
REMARK 927      BINDING AFFINITY PREDICTED BY RF-SCORE:    0.00 PKD
ROOT
HETATM    1 FE   UNL     1     -12.441  10.078  68.468  1.00  0.00    -0.486 Fe 
HETATM    2  C   UNL     2      -9.775   5.121  72.277  1.00  0.00    -0.163 C  
HETATM    3  C   UNL     3      -7.421  10.089  64.556  1.00  0.00    -0.142 C  
HETATM    4  H   UNL     3      -7.621   8.496  63.453  1.00  0.00     0.000 HD 
HETATM    5  H   UNL     2     -11.290   4.799  71.051  1.00  0.00     0.000 HD 
HETATM    6  O   UNL     2     -11.140   4.804  71.989  1.00  0.00     0.014 OA 
HETATM    7  O   UNL     3      -7.016   8.768  64.133  1.00  0.00    -0.087 OA 
ENDROOT
BRANCH   2   8
HETATM    8  C   UNL     2      -9.534   5.129  73.789  1.00  0.00    -0.132 C  
HETATM    9  H   UNL     2     -10.614   5.204  75.449  1.00  0.00     0.000 HD 
HETATM   10  O   UNL     2     -10.764   5.199  74.511  1.00  0.00    -0.343 OA 
ENDBRANCH   2   8
BRANCH   2  11
HETATM   11  C   UNL     2      -9.401   6.462  71.616  1.00  0.00    -0.143 C  
HETATM   12  H   UNL     2      -8.116   7.943  71.928  1.00  0.00     0.000 HD 
HETATM   13  O   UNL     2      -8.346   7.116  72.336  1.00  0.00    -0.108 OA 
BRANCH  11  14
HETATM   14  C   UNL     2      -8.967   6.228  70.159  1.00  0.00    -0.149 C  
HETATM   15  H   UNL     2      -7.472   5.313  69.246  1.00  0.00     0.000 HD 
HETATM   16  O   UNL     2      -7.740   5.457  70.147  1.00  0.00    -0.074 OA 
BRANCH  14  17
HETATM   17  C   UNL     2      -8.722   7.501  69.354  1.00  0.00    -0.137 C  
HETATM   18  C   UNL     2     -10.040   8.156  68.905  1.00  0.00    -0.202 C  
HETATM   19  H   UNL     2      -7.800   7.938  67.669  1.00  0.00     0.000 HD 
HETATM   20  O   UNL     2      -7.952   7.145  68.171  1.00  0.00    -0.116 OA 
HETATM   21  O   UNL     2     -10.596   7.646  67.850  1.00  0.00    -0.212 OA 
HETATM   22  O   UNL     2     -10.365   9.276  69.291  1.00  0.00    -0.202 OA 
ENDBRANCH  14  17
ENDBRANCH  11  14
ENDBRANCH   2  11
BRANCH   3  23
HETATM   23  C   UNL     3      -8.882   9.976  64.976  1.00  0.00    -0.186 C  
HETATM   24  O   UNL     3      -9.186   8.585  65.142  1.00  0.00    -0.428 OA 
HETATM   25  H   UNL     3     -10.097   8.515  65.403  1.00  0.00     0.000 HD 
BRANCH  23  26
HETATM   26  C   UNL     3      -9.342  10.723  66.250  1.00  0.00    -0.180 C  
HETATM   27  O   UNL     3     -10.703  10.380  66.559  1.00  0.00    -0.184 OA 
HETATM   28  H   UNL     3     -10.985  10.838  67.342  1.00  0.00     0.000 HD 
BRANCH  26  29
HETATM   29  C   UNL     3      -9.252  12.241  65.975  1.00  0.00    -0.085 C  
HETATM   30  C   UNL     3     -10.021  13.174  66.944  1.00  0.00    -0.245 C  
HETATM   31  O   UNL     3      -9.714  12.538  64.612  1.00  0.00    -0.488 OA 
HETATM   32  O   UNL     3      -9.924  13.001  68.172  1.00  0.00    -0.220 OA 
HETATM   33  O   UNL     3     -10.689  14.077  66.279  1.00  0.00    -0.285 OA 
HETATM   34  H   UNL     3      -9.659  13.472  64.444  1.00  0.00     0.000 HD 
ENDBRANCH  26  29
ENDBRANCH  23  26
ENDBRANCH   3  23
BRANCH   3  35
HETATM   35  C   UNL     3      -6.447  10.526  65.651  1.00  0.00    -0.119 C  
HETATM   36  O   UNL     3      -5.511   9.462  65.844  1.00  0.00    -0.039 OA 
HETATM   37  H   UNL     3      -4.905   9.734  66.524  1.00  0.00     0.000 HD 
ENDBRANCH   3  35
TORSDOF 8
ENDMDL
MODEL      248
REMARK 921   NORMALIZED FREE ENERGY PREDICTED BY IDOCK:   -3.44 KCAL/MOL
REMARK 922        TOTAL FREE ENERGY PREDICTED BY IDOCK:   -7.14 KCAL/MOL
REMARK 923 INTER-LIGAND FREE ENERGY PREDICTED BY IDOCK:   -7.85 KCAL/MOL
REMARK 924 INTRA-LIGAND FREE ENERGY PREDICTED BY IDOCK:    0.71 KCAL/MOL
REMARK 927      BINDING AFFINITY PREDICTED BY RF-SCORE:    0.00 PKD
ROOT
HETATM    1 FE   UNL     1      -6.296  12.232  65.956  1.00  0.00    -0.345 Fe 
HETATM    2  C   UNL     2      -8.588   8.622  71.238  1.00  0.00    -0.187 C  
HETATM    3  C   UNL     3     -12.205  13.543  63.989  1.00  0.00    -0.402 C  
HETATM    4  H   UNL     3     -12.873  14.896  65.223  1.00  0.00     0.000 HD 
HETATM    5  H   UNL     2      -7.790  10.415  71.463  1.00  0.00     0.000 HD 
HETATM    6  O   UNL     2      -7.571   9.520  71.694  1.00  0.00    -0.246 OA 
HETATM    7  O   UNL     3     -13.082  13.985  65.050  1.00  0.00    -0.742 OA 
ENDROOT
BRANCH   2   8
HETATM    8  C   UNL     2      -8.236   7.179  71.609  1.00  0.00    -0.103 C  
HETATM    9  H   UNL     2      -8.767   5.840  72.971  1.00  0.00     0.000 HD 
HETATM   10  O   UNL     2      -8.986   6.736  72.741  1.00  0.00    -0.128 OA 
ENDBRANCH   2   8
BRANCH   2  11
HETATM   11  C   UNL     2      -8.801   8.803  69.722  1.00  0.00    -0.142 C  
HETATM   12  H   UNL     2      -8.043   9.908  68.257  1.00  0.00     0.000 HD 
HETATM   13  O   UNL     2      -7.912   9.796  69.191  1.00  0.00    -0.091 OA 
BRANCH  11  14
HETATM   14  C   UNL     2      -8.577   7.466  68.995  1.00  0.00    -0.133 C  
HETATM   15  H   UNL     2      -7.610   6.866  67.379  1.00  0.00     0.000 HD 
HETATM   16  O   UNL     2      -7.748   7.692  67.829  1.00  0.00    -0.116 OA 
BRANCH  14  17
HETATM   17  C   UNL     2      -9.853   6.772  68.529  1.00  0.00    -0.141 C  
HETATM   18  C   UNL     2     -10.038   5.400  69.205  1.00  0.00    -0.223 C  
HETATM   19  H   UNL     2     -10.553   6.139  66.800  1.00  0.00     0.000 HD 
HETATM   20  O   UNL     2      -9.759   6.572  67.090  1.00  0.00    -0.132 OA 
HETATM   21  O   UNL     2      -9.365   4.419  68.689  1.00  0.00    -0.127 OA 
HETATM   22  O   UNL     2     -10.993   5.172  69.942  1.00  0.00    -0.035 OA 
ENDBRANCH  14  17
ENDBRANCH  11  14
ENDBRANCH   2  11
BRANCH   3  23
HETATM   23  C   UNL     3     -10.783  13.817  64.465  1.00  0.00    -0.390 C  
HETATM   24  O   UNL     3     -10.605  15.238  64.523  1.00  0.00    -0.572 OA 
HETATM   25  H   UNL     3      -9.718  15.409  64.819  1.00  0.00     0.000 HD 
BRANCH  23  26
HETATM   26  C   UNL     3     -10.332  13.222  65.819  1.00  0.00    -0.288 C  
HETATM   27  O   UNL     3      -9.174  12.392  65.631  1.00  0.00    -0.438 OA 
HETATM   28  H   UNL     3      -8.896  12.026  66.463  1.00  0.00     0.000 HD 
BRANCH  26  29
HETATM   29  C   UNL     3     -11.489  12.359  66.374  1.00  0.00    -0.373 C  
HETATM   30  C   UNL     3     -11.951  12.658  67.822  1.00  0.00    -0.243 C  
HETATM   31  O   UNL     3     -11.137  10.934  66.304  1.00  0.00    -0.128 OA 
HETATM   32  O   UNL     3     -12.147  13.834  68.175  1.00  0.00    -0.364 OA 
HETATM   33  O   UNL     3     -12.093  11.548  68.496  1.00  0.00    -0.522 OA 
HETATM   34  H   UNL     3     -11.848  10.404  66.645  1.00  0.00     0.000 HD 
ENDBRANCH  26  29
ENDBRANCH  23  26
ENDBRANCH   3  23
BRANCH   3  35
HETATM   35  C   UNL     3     -12.541  12.077  63.712  1.00  0.00    -0.454 C  
HETATM   36  O   UNL     3     -11.480  11.535  62.921  1.00  0.00    -0.788 OA 
HETATM   37  H   UNL     3     -11.688  10.624  62.749  1.00  0.00     0.000 HD 
ENDBRANCH   3  35
TORSDOF 8
ENDMDL
MODEL      249
REMARK 921   NORMALIZED FREE ENERGY PREDICTED BY IDOCK:   -3.42 KCAL/MOL
REMARK 922        TOTAL FREE ENERGY PREDICTED BY IDOCK:   -7.12 KCAL/MOL
REMARK 923 INTER-LIGAND FREE ENERGY PREDICTED BY IDOCK:   -5.31 KCAL/MOL
REMARK 924 INTRA-LIGAND FREE ENERGY PREDICTED BY IDOCK:   -1.80 KCAL/MOL
REMARK 927      BINDING AFFINITY PREDICTED BY RF-SCORE:    0.00 PKD
ROOT
HETATM    1 FE   UNL     1     -11.084  10.067  66.200  1.00  0.00    -0.129 Fe 
HETATM    2  C   UNL     2      -6.495   5.112  66.961  1.00  0.00    -0.045 C  
HETATM    3  C   UNL     3     -13.698   8.835  71.871  1.00  0.00    -0.433 C  
HETATM    4  H   UNL     3     -12.450   9.554  73.183  1.00  0.00     0.000 HD 
HETATM    5  H   UNL     2      -6.008   7.021  67.105  1.00  0.00     0.000 HD 
HETATM    6  O   UNL     2      -5.830   6.298  66.515  1.00  0.00    -0.022 OA 
HETATM    7  O   UNL     3     -12.728   8.681  72.932  1.00  0.00    -0.289 OA 
ENDROOT
BRANCH   2   8
HETATM    8  C   UNL     2      -6.209   3.947  66.010  1.00  0.00    -0.032 C  
HETATM    9  H   UNL     2      -5.916   1.990  66.130  1.00  0.00     0.000 HD 
HETATM   10  O   UNL     2      -6.093   2.713  66.720  1.00  0.00    -0.023 OA 
ENDBRANCH   2   8
BRANCH   2  11
HETATM   11  C   UNL     2      -8.003   5.388  67.115  1.00  0.00    -0.101 C  
HETATM   12  H   UNL     2      -9.699   4.768  66.289  1.00  0.00     0.000 HD 
HETATM   13  O   UNL     2      -8.769   4.599  66.194  1.00  0.00    -0.113 OA 
BRANCH  11  14
HETATM   14  C   UNL     2      -8.451   5.082  68.555  1.00  0.00    -0.091 C  
HETATM   15  H   UNL     2      -9.660   3.785  69.427  1.00  0.00     0.000 HD 
HETATM   16  O   UNL     2      -9.384   3.974  68.538  1.00  0.00    -0.139 OA 
BRANCH  14  17
HETATM   17  C   UNL     2      -9.127   6.245  69.274  1.00  0.00    -0.134 C  
HETATM   18  C   UNL     2     -10.630   5.989  69.489  1.00  0.00    -0.296 C  
HETATM   19  H   UNL     2      -9.391   8.160  68.901  1.00  0.00     0.000 HD 
HETATM   20  O   UNL     2      -8.971   7.436  68.453  1.00  0.00    -0.135 OA 
HETATM   21  O   UNL     2     -11.396   6.228  68.471  1.00  0.00    -0.324 OA 
HETATM   22  O   UNL     2     -11.111   5.902  70.616  1.00  0.00    -0.301 OA 
ENDBRANCH  14  17
ENDBRANCH  11  14
ENDBRANCH   2  11
BRANCH   3  23
HETATM   23  C   UNL     3     -13.014   9.651  70.780  1.00  0.00    -0.087 C  
HETATM   24  O   UNL     3     -14.034  10.196  69.933  1.00  0.00     0.177 OA 
HETATM   25  H   UNL     3     -13.608  10.704  69.253  1.00  0.00     0.000 HD 
BRANCH  23  26
HETATM   26  C   UNL     3     -12.074  10.804  71.202  1.00  0.00    -0.309 C  
HETATM   27  O   UNL     3     -12.840  11.987  71.483  1.00  0.00    -0.376 OA 
HETATM   28  H   UNL     3     -12.263  12.695  71.743  1.00  0.00     0.000 HD 
BRANCH  26  29
HETATM   29  C   UNL     3     -11.110  11.092  70.028  1.00  0.00    -0.161 C  
HETATM   30  C   UNL     3     -11.431  12.324  69.147  1.00  0.00    -0.296 C  
HETATM   31  O   UNL     3     -11.025   9.922  69.143  1.00  0.00    -0.224 OA 
HETATM   32  O   UNL     3     -11.714  13.409  69.684  1.00  0.00    -0.294 OA 
HETATM   33  O   UNL     3     -11.331  12.021  67.880  1.00  0.00    -0.261 OA 
HETATM   34  H   UNL     3     -10.432  10.099  68.422  1.00  0.00     0.000 HD 
ENDBRANCH  26  29
ENDBRANCH  23  26
ENDBRANCH   3  23
BRANCH   3  35
HETATM   35  C   UNL     3     -14.145   7.430  71.467  1.00  0.00    -0.409 C  
HETATM   36  O   UNL     3     -13.498   6.503  72.344  1.00  0.00    -0.466 OA 
HETATM   37  H   UNL     3     -13.777   5.630  72.093  1.00  0.00     0.000 HD 
ENDBRANCH   3  35
TORSDOF 8
ENDMDL
MODEL      250
REMARK 921   NORMALIZED FREE ENERGY PREDICTED BY IDOCK:   -3.41 KCAL/MOL
REMARK 922        TOTAL FREE ENERGY PREDICTED BY IDOCK:   -7.11 KCAL/MOL
REMARK 923 INTER-LIGAND FREE ENERGY PREDICTED BY IDOCK:   -5.84 KCAL/MOL
REMARK 924 INTRA-LIGAND FREE ENERGY PREDICTED BY IDOCK:   -1.27 KCAL/MOL
REMARK 927      BINDING AFFINITY PREDICTED BY RF-SCORE:    0.00 PKD
ROOT
HETATM    1 FE   UNL     1      -8.381   7.854  65.693  1.00  0.00    -0.093 Fe 
HETATM    2  C   UNL     2     -12.117  13.522  66.026  1.00  0.00    -0.445 C  
HETATM    3  C   UNL     3      -6.628   8.375  71.789  1.00  0.00    -0.070 C  
HETATM    4  H   UNL     3      -8.190   7.842  72.824  1.00  0.00     0.000 HD 
HETATM    5  H   UNL     2     -12.941  11.728  65.955  1.00  0.00     0.000 HD 
HETATM    6  O   UNL     2     -12.887  12.493  65.395  1.00  0.00    -0.554 OA 
HETATM    7  O   UNL     3      -7.727   8.660  72.683  1.00  0.00    -0.335 OA 
ENDROOT
BRANCH   2   8
HETATM    8  C   UNL     2     -12.029  14.755  65.123  1.00  0.00    -0.278 C  
HETATM    9  H   UNL     2     -12.918  15.451  63.494  1.00  0.00     0.000 HD 
HETATM   10  O   UNL     2     -12.973  14.686  64.054  1.00  0.00    -0.504 OA 
ENDBRANCH   2   8
BRANCH   2  11
HETATM   11  C   UNL     2     -10.729  12.973  66.408  1.00  0.00    -0.282 C  
HETATM   12  H   UNL     2      -8.838  13.570  66.307  1.00  0.00     0.000 HD 
HETATM   13  O   UNL     2      -9.694  13.908  66.071  1.00  0.00    -0.293 OA 
BRANCH  11  14
HETATM   14  C   UNL     2     -10.679  12.667  67.914  1.00  0.00    -0.218 C  
HETATM   15  H   UNL     2      -9.311  12.731  69.338  1.00  0.00     0.000 HD 
HETATM   16  O   UNL     2      -9.341  12.920  68.408  1.00  0.00    -0.204 OA 
BRANCH  14  17
HETATM   17  C   UNL     2     -11.046  11.233  68.286  1.00  0.00    -0.240 C  
HETATM   18  C   UNL     2     -12.027  11.183  69.472  1.00  0.00    -0.355 C  
HETATM   19  H   UNL     2     -10.052   9.646  68.896  1.00  0.00     0.000 HD 
HETATM   20  O   UNL     2      -9.824  10.538  68.664  1.00  0.00    -0.163 OA 
HETATM   21  O   UNL     2     -11.499  11.310  70.650  1.00  0.00    -0.174 OA 
HETATM   22  O   UNL     2     -13.157  10.719  69.350  1.00  0.00     0.049 OA 
ENDBRANCH  14  17
ENDBRANCH  11  14
ENDBRANCH   2  11
BRANCH   3  23
HETATM   23  C   UNL     3      -7.240   7.738  70.546  1.00  0.00    -0.057 C  
HETATM   24  O   UNL     3      -6.170   7.215  69.748  1.00  0.00    -0.029 OA 
HETATM   25  H   UNL     3      -6.552   6.819  68.973  1.00  0.00     0.000 HD 
BRANCH  23  26
HETATM   26  C   UNL     3      -8.290   6.620  70.733  1.00  0.00    -0.129 C  
HETATM   27  O   UNL     3      -7.738   5.353  70.337  1.00  0.00    -0.077 OA 
HETATM   28  H   UNL     3      -8.384   4.665  70.452  1.00  0.00     0.000 HD 
BRANCH  26  29
HETATM   29  C   UNL     3      -9.505   6.946  69.833  1.00  0.00    -0.156 C  
HETATM   30  C   UNL     3     -10.821   7.338  70.551  1.00  0.00    -0.243 C  
HETATM   31  O   UNL     3      -9.801   5.810  68.950  1.00  0.00    -0.132 OA 
HETATM   32  O   UNL     3     -10.794   8.169  71.474  1.00  0.00    -0.226 OA 
HETATM   33  O   UNL     3     -11.835   6.703  70.027  1.00  0.00    -0.372 OA 
HETATM   34  H   UNL     3     -10.547   6.011  68.397  1.00  0.00     0.000 HD 
ENDBRANCH  26  29
ENDBRANCH  23  26
ENDBRANCH   3  23
BRANCH   3  35
HETATM   35  C   UNL     3      -5.883   9.690  71.563  1.00  0.00    -0.024 C  
HETATM   36  O   UNL     3      -6.550  10.386  70.504  1.00  0.00    -0.231 OA 
HETATM   37  H   UNL     3      -6.087  11.204  70.364  1.00  0.00     0.000 HD 
ENDBRANCH   3  35
TORSDOF 8
ENDMDL
MODEL      251
REMARK 921   NORMALIZED FREE ENERGY PREDICTED BY IDOCK:   -3.40 KCAL/MOL
REMARK 922        TOTAL FREE ENERGY PREDICTED BY IDOCK:   -7.09 KCAL/MOL
REMARK 923 INTER-LIGAND FREE ENERGY PREDICTED BY IDOCK:   -5.12 KCAL/MOL
REMARK 924 INTRA-LIGAND FREE ENERGY PREDICTED BY IDOCK:   -1.97 KCAL/MOL
REMARK 927      BINDING AFFINITY PREDICTED BY RF-SCORE:    0.00 PKD
ROOT
HETATM    1 FE   UNL     1     -10.738   9.382  65.244  1.00  0.00    -0.236 Fe 
HETATM    2  C   UNL     2      -5.812   4.709  64.950  1.00  0.00    -0.014 C  
HETATM    3  C   UNL     3     -11.199   8.835  71.569  1.00  0.00    -0.307 C  
HETATM    4  H   UNL     3      -9.638   9.759  72.282  1.00  0.00     0.000 HD 
HETATM    5  H   UNL     2      -5.445   6.634  64.699  1.00  0.00     0.000 HD 
HETATM    6  O   UNL     2      -5.424   5.845  64.171  1.00  0.00    -0.016 OA 
HETATM    7  O   UNL     3      -9.921   8.852  72.244  1.00  0.00    -0.292 OA 
ENDROOT
BRANCH   2   8
HETATM    8  C   UNL     2      -5.778   3.437  64.099  1.00  0.00    -0.014 C  
HETATM    9  H   UNL     2      -5.691   1.478  64.387  1.00  0.00     0.000 HD 
HETATM   10  O   UNL     2      -5.712   2.267  64.916  1.00  0.00    -0.012 OA 
ENDBRANCH   2   8
BRANCH   2  11
HETATM   11  C   UNL     2      -7.197   4.958  65.579  1.00  0.00    -0.072 C  
HETATM   12  H   UNL     2      -8.185   6.474  66.397  1.00  0.00     0.000 HD 
HETATM   13  O   UNL     2      -7.331   6.320  66.010  1.00  0.00    -0.077 OA 
BRANCH  11  14
HETATM   14  C   UNL     2      -8.304   4.625  64.564  1.00  0.00    -0.123 C  
HETATM   15  H   UNL     2      -9.339   5.619  63.205  1.00  0.00     0.000 HD 
HETATM   16  O   UNL     2      -8.655   5.825  63.832  1.00  0.00    -0.021 OA 
BRANCH  14  17
HETATM   17  C   UNL     2      -9.584   4.066  65.176  1.00  0.00    -0.181 C  
HETATM   18  C   UNL     2      -9.320   3.385  66.532  1.00  0.00    -0.155 C  
HETATM   19  H   UNL     2     -10.928   2.730  64.639  1.00  0.00     0.000 HD 
HETATM   20  O   UNL     2     -10.130   3.078  64.258  1.00  0.00    -0.154 OA 
HETATM   21  O   UNL     2      -8.866   2.171  66.476  1.00  0.00    -0.117 OA 
HETATM   22  O   UNL     2      -9.816   3.810  67.571  1.00  0.00    -0.146 OA 
ENDBRANCH  14  17
ENDBRANCH  11  14
ENDBRANCH   2  11
BRANCH   3  23
HETATM   23  C   UNL     3     -10.982   9.519  70.223  1.00  0.00    -0.269 C  
HETATM   24  O   UNL     3     -11.230  10.921  70.398  1.00  0.00    -0.435 OA 
HETATM   25  H   UNL     3     -11.096  11.347  69.559  1.00  0.00     0.000 HD 
BRANCH  23  26
HETATM   26  C   UNL     3      -9.612   9.358  69.527  1.00  0.00    -0.180 C  
HETATM   27  O   UNL     3      -8.706  10.378  69.977  1.00  0.00    -0.365 OA 
HETATM   28  H   UNL     3      -7.863  10.278  69.549  1.00  0.00     0.000 HD 
BRANCH  26  29
HETATM   29  C   UNL     3      -9.827   9.508  68.003  1.00  0.00    -0.155 C  
HETATM   30  C   UNL     3      -9.038  10.637  67.294  1.00  0.00    -0.143 C  
HETATM   31  O   UNL     3     -11.252   9.710  67.710  1.00  0.00    -0.504 OA 
HETATM   32  O   UNL     3      -7.825  10.779  67.525  1.00  0.00    -0.107 OA 
HETATM   33  O   UNL     3      -9.819  11.307  66.489  1.00  0.00    -0.199 OA 
HETATM   34  H   UNL     3     -11.384   9.802  66.773  1.00  0.00     0.000 HD 
ENDBRANCH  26  29
ENDBRANCH  23  26
ENDBRANCH   3  23
BRANCH   3  35
HETATM   35  C   UNL     3     -11.652   7.377  71.506  1.00  0.00    -0.275 C  
HETATM   36  O   UNL     3     -13.015   7.369  71.069  1.00  0.00    -0.552 OA 
HETATM   37  H   UNL     3     -13.297   6.462  71.030  1.00  0.00     0.000 HD 
ENDBRANCH   3  35
TORSDOF 8
ENDMDL
MODEL      252
REMARK 921   NORMALIZED FREE ENERGY PREDICTED BY IDOCK:   -3.38 KCAL/MOL
REMARK 922        TOTAL FREE ENERGY PREDICTED BY IDOCK:   -7.05 KCAL/MOL
REMARK 923 INTER-LIGAND FREE ENERGY PREDICTED BY IDOCK:   -5.42 KCAL/MOL
REMARK 924 INTRA-LIGAND FREE ENERGY PREDICTED BY IDOCK:   -1.63 KCAL/MOL
REMARK 927      BINDING AFFINITY PREDICTED BY RF-SCORE:    0.00 PKD
ROOT
HETATM    1 FE   UNL     1      -6.345   9.554  66.204  1.00  0.00    -0.058 Fe 
HETATM    2  C   UNL     2     -12.194  12.884  65.260  1.00  0.00    -0.476 C  
HETATM    3  C   UNL     3      -9.128   5.270  70.000  1.00  0.00    -0.128 C  
HETATM    4  H   UNL     3     -10.139   4.104  68.810  1.00  0.00     0.000 HD 
HETATM    5  H   UNL     2     -11.387  11.764  63.847  1.00  0.00     0.000 HD 
HETATM    6  O   UNL     2     -11.561  12.686  63.992  1.00  0.00    -0.354 OA 
HETATM    7  O   UNL     3     -10.367   4.749  69.470  1.00  0.00    -0.196 OA 
ENDROOT
BRANCH   2   8
HETATM    8  C   UNL     2     -12.473  14.371  65.495  1.00  0.00    -0.347 C  
HETATM    9  H   UNL     2     -12.237  16.081  64.522  1.00  0.00     0.000 HD 
HETATM   10  O   UNL     2     -12.064  15.159  64.376  1.00  0.00    -0.441 OA 
ENDBRANCH   2   8
BRANCH   2  11
HETATM   11  C   UNL     2     -11.329  12.265  66.376  1.00  0.00    -0.354 C  
HETATM   12  H   UNL     2     -10.118  10.708  66.599  1.00  0.00     0.000 HD 
HETATM   13  O   UNL     2     -10.651  11.089  65.911  1.00  0.00    -0.252 OA 
BRANCH  11  14
HETATM   14  C   UNL     2     -10.298  13.293  66.874  1.00  0.00    -0.255 C  
HETATM   15  H   UNL     2      -8.361  13.600  66.637  1.00  0.00     0.000 HD 
HETATM   16  O   UNL     2      -8.997  12.965  66.329  1.00  0.00    -0.084 OA 
BRANCH  14  17
HETATM   17  C   UNL     2     -10.158  13.371  68.391  1.00  0.00    -0.244 C  
HETATM   18  C   UNL     2     -11.379  14.044  69.045  1.00  0.00    -0.281 C  
HETATM   19  H   UNL     2      -8.886  14.211  69.640  1.00  0.00     0.000 HD 
HETATM   20  O   UNL     2      -8.974  14.162  68.695  1.00  0.00    -0.187 OA 
HETATM   21  O   UNL     2     -11.392  15.340  69.021  1.00  0.00    -0.264 OA 
HETATM   22  O   UNL     2     -12.106  13.435  69.826  1.00  0.00    -0.322 OA 
ENDBRANCH  14  17
ENDBRANCH  11  14
ENDBRANCH   2  11
BRANCH   3  23
HETATM   23  C   UNL     3      -8.339   5.796  68.806  1.00  0.00    -0.104 C  
HETATM   24  O   UNL     3      -6.944   5.660  69.106  1.00  0.00    -0.059 OA 
HETATM   25  H   UNL     3      -6.452   5.988  68.362  1.00  0.00     0.000 HD 
BRANCH  23  26
HETATM   26  C   UNL     3      -8.595   5.164  67.418  1.00  0.00    -0.104 C  
HETATM   27  O   UNL     3      -7.567   4.206  67.115  1.00  0.00    -0.076 OA 
HETATM   28  H   UNL     3      -7.724   3.818  66.262  1.00  0.00     0.000 HD 
BRANCH  26  29
HETATM   29  C   UNL     3      -8.561   6.294  66.363  1.00  0.00    -0.133 C  
HETATM   30  C   UNL     3      -8.386   5.865  64.885  1.00  0.00    -0.115 C  
HETATM   31  O   UNL     3      -7.491   7.250  66.678  1.00  0.00    -0.085 OA 
HETATM   32  O   UNL     3      -9.073   4.935  64.428  1.00  0.00    -0.130 OA 
HETATM   33  O   UNL     3      -7.490   6.610  64.293  1.00  0.00    -0.081 OA 
HETATM   34  H   UNL     3      -7.470   7.945  66.030  1.00  0.00     0.000 HD 
ENDBRANCH  26  29
ENDBRANCH  23  26
ENDBRANCH   3  23
BRANCH   3  35
HETATM   35  C   UNL     3      -9.495   6.306  71.061  1.00  0.00    -0.175 C  
HETATM   36  O   UNL     3      -8.428   7.258  71.121  1.00  0.00    -0.115 OA 
HETATM   37  H   UNL     3      -8.656   7.903  71.780  1.00  0.00     0.000 HD 
ENDBRANCH   3  35
TORSDOF 8
ENDMDL
MODEL      253
REMARK 921   NORMALIZED FREE ENERGY PREDICTED BY IDOCK:   -3.37 KCAL/MOL
REMARK 922        TOTAL FREE ENERGY PREDICTED BY IDOCK:   -7.05 KCAL/MOL
REMARK 923 INTER-LIGAND FREE ENERGY PREDICTED BY IDOCK:   -5.89 KCAL/MOL
REMARK 924 INTRA-LIGAND FREE ENERGY PREDICTED BY IDOCK:   -1.16 KCAL/MOL
REMARK 927      BINDING AFFINITY PREDICTED BY RF-SCORE:    0.00 PKD
ROOT
HETATM    1 FE   UNL     1      -6.101  10.390  71.596  1.00  0.00    -0.061 Fe 
HETATM    2  C   UNL     2      -8.861  15.084  67.529  1.00  0.00    -0.185 C  
HETATM    3  C   UNL     3     -11.013   6.432  70.749  1.00  0.00    -0.290 C  
HETATM    4  H   UNL     3     -10.780   5.694  68.961  1.00  0.00     0.000 HD 
HETATM    5  H   UNL     2      -7.313  13.992  66.968  1.00  0.00     0.000 HD 
HETATM    6  O   UNL     2      -7.488  14.904  67.168  1.00  0.00    -0.195 OA 
HETATM    7  O   UNL     3     -11.403   6.286  69.365  1.00  0.00    -0.412 OA 
ENDROOT
BRANCH   2   8
HETATM    8  C   UNL     2      -9.143  16.553  67.852  1.00  0.00    -0.206 C  
HETATM    9  H   UNL     2     -10.520  17.914  67.425  1.00  0.00     0.000 HD 
HETATM   10  O   UNL     2     -10.345  17.002  67.224  1.00  0.00    -0.301 OA 
ENDBRANCH   2   8
BRANCH   2  11
HETATM   11  C   UNL     2      -9.219  14.146  68.698  1.00  0.00    -0.146 C  
HETATM   12  H   UNL     2     -10.245  14.244  70.395  1.00  0.00     0.000 HD 
HETATM   13  O   UNL     2     -10.025  14.822  69.674  1.00  0.00    -0.087 OA 
BRANCH  11  14
HETATM   14  C   UNL     2      -9.970  12.911  68.173  1.00  0.00    -0.234 C  
HETATM   15  H   UNL     2     -10.261  12.060  66.413  1.00  0.00     0.000 HD 
HETATM   16  O   UNL     2      -9.796  12.823  66.738  1.00  0.00    -0.230 OA 
BRANCH  14  17
HETATM   17  C   UNL     2     -11.469  12.906  68.458  1.00  0.00    -0.310 C  
HETATM   18  C   UNL     2     -11.820  12.007  69.658  1.00  0.00    -0.333 C  
HETATM   19  H   UNL     2     -13.085  12.393  67.457  1.00  0.00     0.000 HD 
HETATM   20  O   UNL     2     -12.152  12.396  67.279  1.00  0.00    -0.516 OA 
HETATM   21  O   UNL     2     -11.906  10.737  69.408  1.00  0.00    -0.294 OA 
HETATM   22  O   UNL     2     -12.317  12.468  70.682  1.00  0.00    -0.355 OA 
ENDBRANCH  14  17
ENDBRANCH  11  14
ENDBRANCH   2  11
BRANCH   3  23
HETATM   23  C   UNL     3      -9.563   6.905  70.738  1.00  0.00    -0.165 C  
HETATM   24  O   UNL     3      -9.159   7.117  72.096  1.00  0.00    -0.130 OA 
HETATM   25  H   UNL     3      -8.256   7.412  72.089  1.00  0.00     0.000 HD 
BRANCH  23  26
HETATM   26  C   UNL     3      -8.503   6.011  70.055  1.00  0.00    -0.131 C  
HETATM   27  O   UNL     3      -8.799   5.875  68.656  1.00  0.00    -0.112 OA 
HETATM   28  H   UNL     3      -8.147   5.325  68.236  1.00  0.00     0.000 HD 
BRANCH  26  29
HETATM   29  C   UNL     3      -8.550   4.617  70.721  1.00  0.00    -0.097 C  
HETATM   30  C   UNL     3      -7.338   4.221  71.601  1.00  0.00    -0.056 C  
HETATM   31  O   UNL     3      -8.717   3.573  69.701  1.00  0.00    -0.064 OA 
HETATM   32  O   UNL     3      -6.893   5.028  72.435  1.00  0.00    -0.064 OA 
HETATM   33  O   UNL     3      -6.949   3.004  71.327  1.00  0.00    -0.031 OA 
HETATM   34  H   UNL     3      -8.746   2.716  70.110  1.00  0.00     0.000 HD 
ENDBRANCH  26  29
ENDBRANCH  23  26
ENDBRANCH   3  23
BRANCH   3  35
HETATM   35  C   UNL     3     -12.016   7.385  71.399  1.00  0.00    -0.310 C  
HETATM   36  O   UNL     3     -13.227   7.318  70.639  1.00  0.00    -0.578 OA 
HETATM   37  H   UNL     3     -13.851   7.909  71.044  1.00  0.00     0.000 HD 
ENDBRANCH   3  35
TORSDOF 8
ENDMDL
MODEL      254
REMARK 921   NORMALIZED FREE ENERGY PREDICTED BY IDOCK:   -3.37 KCAL/MOL
REMARK 922        TOTAL FREE ENERGY PREDICTED BY IDOCK:   -7.04 KCAL/MOL
REMARK 923 INTER-LIGAND FREE ENERGY PREDICTED BY IDOCK:   -5.55 KCAL/MOL
REMARK 924 INTRA-LIGAND FREE ENERGY PREDICTED BY IDOCK:   -1.49 KCAL/MOL
REMARK 927      BINDING AFFINITY PREDICTED BY RF-SCORE:    0.00 PKD
ROOT
HETATM    1 FE   UNL     1      -5.947   6.058  68.783  1.00  0.00    -0.012 Fe 
HETATM    2  C   UNL     2      -9.333   9.773  64.209  1.00  0.00    -0.190 C  
HETATM    3  C   UNL     3     -10.812   6.248  72.882  1.00  0.00    -0.256 C  
HETATM    4  H   UNL     3     -12.139   5.012  72.169  1.00  0.00     0.000 HD 
HETATM    5  H   UNL     2      -9.034   7.836  63.969  1.00  0.00     0.000 HD 
HETATM    6  O   UNL     2      -8.753   8.642  63.552  1.00  0.00    -0.067 OA 
HETATM    7  O   UNL     3     -12.090   5.955  72.275  1.00  0.00    -0.275 OA 
ENDROOT
BRANCH   2   8
HETATM    8  C   UNL     2      -8.880  11.073  63.539  1.00  0.00    -0.044 C  
HETATM    9  H   UNL     2      -7.571  11.638  62.162  1.00  0.00     0.000 HD 
HETATM   10  O   UNL     2      -7.851  10.831  62.578  1.00  0.00    -0.158 OA 
ENDBRANCH   2   8
BRANCH   2  11
HETATM   11  C   UNL     2      -8.989   9.737  65.711  1.00  0.00    -0.160 C  
HETATM   12  H   UNL     2      -7.357   9.690  66.840  1.00  0.00     0.000 HD 
HETATM   13  O   UNL     2      -7.569   9.713  65.915  1.00  0.00    -0.099 OA 
BRANCH  11  14
HETATM   14  C   UNL     2      -9.594  10.961  66.420  1.00  0.00    -0.197 C  
HETATM   15  H   UNL     2      -9.485  11.761  68.223  1.00  0.00     0.000 HD 
HETATM   16  O   UNL     2      -9.112  11.005  67.785  1.00  0.00    -0.143 OA 
BRANCH  14  17
HETATM   17  C   UNL     2     -11.118  10.984  66.466  1.00  0.00    -0.106 C  
HETATM   18  C   UNL     2     -11.680  12.376  66.126  1.00  0.00    -0.400 C  
HETATM   19  H   UNL     2     -12.484  10.646  67.844  1.00  0.00     0.000 HD 
HETATM   20  O   UNL     2     -11.534  10.631  67.815  1.00  0.00    -0.460 OA 
HETATM   21  O   UNL     2     -11.679  13.239  67.094  1.00  0.00    -0.335 OA 
HETATM   22  O   UNL     2     -12.385  12.560  65.138  1.00  0.00    -0.492 OA 
ENDBRANCH  14  17
ENDBRANCH  11  14
ENDBRANCH   2  11
BRANCH   3  23
HETATM   23  C   UNL     3      -9.754   5.629  71.976  1.00  0.00    -0.155 C  
HETATM   24  O   UNL     3      -9.142   4.547  72.690  1.00  0.00    -0.121 OA 
HETATM   25  H   UNL     3      -8.482   4.162  72.125  1.00  0.00     0.000 HD 
BRANCH  23  26
HETATM   26  C   UNL     3     -10.189   5.103  70.589  1.00  0.00    -0.256 C  
HETATM   27  O   UNL     3      -9.760   3.742  70.420  1.00  0.00    -0.188 OA 
HETATM   28  H   UNL     3     -10.028   3.419  69.568  1.00  0.00     0.000 HD 
BRANCH  26  29
HETATM   29  C   UNL     3      -9.518   5.983  69.509  1.00  0.00    -0.139 C  
HETATM   30  C   UNL     3     -10.353   7.160  68.948  1.00  0.00    -0.196 C  
HETATM   31  O   UNL     3      -9.095   5.155  68.371  1.00  0.00    -0.108 OA 
HETATM   32  O   UNL     3     -10.962   7.912  69.729  1.00  0.00    -0.233 OA 
HETATM   33  O   UNL     3     -10.273   7.200  67.644  1.00  0.00    -0.168 OA 
HETATM   34  H   UNL     3      -8.682   5.696  67.708  1.00  0.00     0.000 HD 
ENDBRANCH  26  29
ENDBRANCH  23  26
ENDBRANCH   3  23
BRANCH   3  35
HETATM   35  C   UNL     3     -10.735   7.766  73.052  1.00  0.00    -0.384 C  
HETATM   36  O   UNL     3      -9.538   8.210  72.408  1.00  0.00    -0.210 OA 
HETATM   37  H   UNL     3      -9.490   9.154  72.513  1.00  0.00     0.000 HD 
ENDBRANCH   3  35
TORSDOF 8
ENDMDL
MODEL      255
REMARK 921   NORMALIZED FREE ENERGY PREDICTED BY IDOCK:   -3.35 KCAL/MOL
REMARK 922        TOTAL FREE ENERGY PREDICTED BY IDOCK:   -7.01 KCAL/MOL
REMARK 923 INTER-LIGAND FREE ENERGY PREDICTED BY IDOCK:   -5.51 KCAL/MOL
REMARK 924 INTRA-LIGAND FREE ENERGY PREDICTED BY IDOCK:   -1.50 KCAL/MOL
REMARK 927      BINDING AFFINITY PREDICTED BY RF-SCORE:    0.00 PKD
ROOT
HETATM    1 FE   UNL     1      -9.729  13.570  63.973  1.00  0.00    -0.551 Fe 
HETATM    2  C   UNL     2      -8.450   7.223  66.039  1.00  0.00    -0.145 C  
HETATM    3  C   UNL     3      -6.601  16.060  68.925  1.00  0.00    -0.130 C  
HETATM    4  H   UNL     3      -4.711  15.812  68.521  1.00  0.00     0.000 HD 
HETATM    5  H   UNL     2      -7.528   8.025  64.486  1.00  0.00     0.000 HD 
HETATM    6  O   UNL     2      -8.154   7.327  64.643  1.00  0.00    -0.127 OA 
HETATM    7  O   UNL     3      -5.313  15.449  69.160  1.00  0.00    -0.095 OA 
ENDROOT
BRANCH   2   8
HETATM    8  C   UNL     2      -9.459   6.100  66.291  1.00  0.00    -0.113 C  
HETATM    9  H   UNL     2      -9.430   4.193  66.832  1.00  0.00     0.000 HD 
HETATM   10  O   UNL     2      -8.804   4.890  66.676  1.00  0.00    -0.111 OA 
ENDBRANCH   2   8
BRANCH   2  11
HETATM   11  C   UNL     2      -8.941   8.584  66.569  1.00  0.00    -0.161 C  
HETATM   12  H   UNL     2      -9.021   9.537  68.309  1.00  0.00     0.000 HD 
HETATM   13  O   UNL     2      -8.718   8.699  67.982  1.00  0.00    -0.139 OA 
BRANCH  11  14
HETATM   14  C   UNL     2      -8.219   9.728  65.837  1.00  0.00    -0.117 C  
HETATM   15  H   UNL     2      -6.925  11.140  66.323  1.00  0.00     0.000 HD 
HETATM   16  O   UNL     2      -7.372  10.434  66.776  1.00  0.00    -0.102 OA 
BRANCH  14  17
HETATM   17  C   UNL     2      -9.142  10.753  65.185  1.00  0.00    -0.203 C  
HETATM   18  C   UNL     2      -9.778  11.693  66.225  1.00  0.00    -0.218 C  
HETATM   19  H   UNL     2     -10.779  10.670  64.093  1.00  0.00     0.000 HD 
HETATM   20  O   UNL     2     -10.204  10.032  64.499  1.00  0.00    -0.161 OA 
HETATM   21  O   UNL     2     -10.810  11.225  66.855  1.00  0.00    -0.257 OA 
HETATM   22  O   UNL     2      -9.554  12.901  66.221  1.00  0.00    -0.265 OA 
ENDBRANCH  14  17
ENDBRANCH  11  14
ENDBRANCH   2  11
BRANCH   3  23
HETATM   23  C   UNL     3      -6.944  15.789  67.464  1.00  0.00    -0.186 C  
HETATM   24  O   UNL     3      -8.093  14.933  67.434  1.00  0.00    -0.167 OA 
HETATM   25  H   UNL     3      -8.306  14.764  66.524  1.00  0.00     0.000 HD 
BRANCH  23  26
HETATM   26  C   UNL     3      -7.220  16.995  66.537  1.00  0.00    -0.276 C  
HETATM   27  O   UNL     3      -6.713  18.201  67.132  1.00  0.00    -0.182 OA 
HETATM   28  H   UNL     3      -6.882  18.942  66.562  1.00  0.00     0.000 HD 
BRANCH  26  29
HETATM   29  C   UNL     3      -8.750  17.123  66.358  1.00  0.00    -0.256 C  
HETATM   30  C   UNL     3      -9.576  17.461  67.624  1.00  0.00    -0.261 C  
HETATM   31  O   UNL     3      -9.299  15.886  65.786  1.00  0.00    -0.326 OA 
HETATM   32  O   UNL     3      -9.202  18.375  68.378  1.00  0.00    -0.305 OA 
HETATM   33  O   UNL     3     -10.628  16.689  67.706  1.00  0.00    -0.325 OA 
HETATM   34  H   UNL     3     -10.240  15.965  65.676  1.00  0.00     0.000 HD 
ENDBRANCH  26  29
ENDBRANCH  23  26
ENDBRANCH   3  23
BRANCH   3  35
HETATM   35  C   UNL     3      -7.569  15.476  69.954  1.00  0.00     0.044 C  
HETATM   36  O   UNL     3      -7.196  14.111  70.169  1.00  0.00    -0.374 OA 
HETATM   37  H   UNL     3      -7.797  13.748  70.808  1.00  0.00     0.000 HD 
ENDBRANCH   3  35
TORSDOF 8
ENDMDL
MODEL      256
REMARK 921   NORMALIZED FREE ENERGY PREDICTED BY IDOCK:   -3.35 KCAL/MOL
REMARK 922        TOTAL FREE ENERGY PREDICTED BY IDOCK:   -7.01 KCAL/MOL
REMARK 923 INTER-LIGAND FREE ENERGY PREDICTED BY IDOCK:   -5.10 KCAL/MOL
REMARK 924 INTRA-LIGAND FREE ENERGY PREDICTED BY IDOCK:   -1.91 KCAL/MOL
REMARK 927      BINDING AFFINITY PREDICTED BY RF-SCORE:    0.00 PKD
ROOT
HETATM    1 FE   UNL     1      -5.834  10.165  64.845  1.00  0.00    -0.065 Fe 
HETATM    2  C   UNL     2     -12.339  12.133  64.865  1.00  0.00    -0.179 C  
HETATM    3  C   UNL     3      -6.795   6.141  69.682  1.00  0.00    -0.065 C  
HETATM    4  H   UNL     3      -7.742   4.623  68.911  1.00  0.00     0.000 HD 
HETATM    5  H   UNL     2     -11.604  10.961  63.455  1.00  0.00     0.000 HD 
HETATM    6  O   UNL     2     -11.944  11.846  63.520  1.00  0.00    -0.489 OA 
HETATM    7  O   UNL     3      -7.970   5.316  69.520  1.00  0.00    -0.085 OA 
ENDROOT
BRANCH   2   8
HETATM    8  C   UNL     2     -12.885  13.559  64.971  1.00  0.00    -0.271 C  
HETATM    9  H   UNL     2     -12.968  15.188  63.845  1.00  0.00     0.000 HD 
HETATM   10  O   UNL     2     -12.629  14.303  63.779  1.00  0.00    -0.821 OA 
ENDBRANCH   2   8
BRANCH   2  11
HETATM   11  C   UNL     2     -11.155  11.885  65.820  1.00  0.00    -0.317 C  
HETATM   12  H   UNL     2      -9.204  11.548  65.679  1.00  0.00     0.000 HD 
HETATM   13  O   UNL     2      -9.933  11.700  65.090  1.00  0.00    -0.245 OA 
BRANCH  11  14
HETATM   14  C   UNL     2     -11.004  13.070  66.790  1.00  0.00    -0.276 C  
HETATM   15  H   UNL     2      -9.931  14.728  66.861  1.00  0.00     0.000 HD 
HETATM   16  O   UNL     2     -10.024  13.996  66.261  1.00  0.00    -0.288 OA 
BRANCH  14  17
HETATM   17  C   UNL     2     -10.565  12.688  68.200  1.00  0.00    -0.228 C  
HETATM   18  C   UNL     2     -11.122  11.315  68.621  1.00  0.00    -0.232 C  
HETATM   19  H   UNL     2     -10.799  13.458  69.998  1.00  0.00     0.000 HD 
HETATM   20  O   UNL     2     -11.072  13.695  69.120  1.00  0.00    -0.253 OA 
HETATM   21  O   UNL     2     -12.347  11.306  69.044  1.00  0.00    -0.446 OA 
HETATM   22  O   UNL     2     -10.378  10.369  68.866  1.00  0.00    -0.186 OA 
ENDBRANCH  14  17
ENDBRANCH  11  14
ENDBRANCH   2  11
BRANCH   3  23
HETATM   23  C   UNL     3      -6.395   6.596  68.283  1.00  0.00    -0.038 C  
HETATM   24  O   UNL     3      -5.290   5.788  67.857  1.00  0.00    -0.004 OA 
HETATM   25  H   UNL     3      -5.041   6.072  66.985  1.00  0.00     0.000 HD 
BRANCH  23  26
HETATM   26  C   UNL     3      -7.464   6.572  67.167  1.00  0.00    -0.088 C  
HETATM   27  O   UNL     3      -7.436   5.309  66.482  1.00  0.00    -0.085 OA 
HETATM   28  H   UNL     3      -8.094   5.294  65.796  1.00  0.00     0.000 HD 
BRANCH  26  29
HETATM   29  C   UNL     3      -7.134   7.700  66.162  1.00  0.00    -0.070 C  
HETATM   30  C   UNL     3      -7.059   7.303  64.666  1.00  0.00    -0.057 C  
HETATM   31  O   UNL     3      -5.860   8.339  66.517  1.00  0.00    -0.042 OA 
HETATM   32  O   UNL     3      -7.956   6.599  64.170  1.00  0.00    -0.118 OA 
HETATM   33  O   UNL     3      -5.998   7.821  64.106  1.00  0.00    -0.051 OA 
HETATM   34  H   UNL     3      -5.657   9.032  65.899  1.00  0.00     0.000 HD 
ENDBRANCH  26  29
ENDBRANCH  23  26
ENDBRANCH   3  23
BRANCH   3  35
HETATM   35  C   UNL     3      -7.162   7.255  70.662  1.00  0.00    -0.066 C  
HETATM   36  O   UNL     3      -6.193   7.238  71.715  1.00  0.00    -0.037 OA 
HETATM   37  H   UNL     3      -6.421   7.930  72.325  1.00  0.00     0.000 HD 
ENDBRANCH   3  35
TORSDOF 8
ENDMDL
MODEL      257
REMARK 921   NORMALIZED FREE ENERGY PREDICTED BY IDOCK:   -3.34 KCAL/MOL
REMARK 922        TOTAL FREE ENERGY PREDICTED BY IDOCK:   -7.00 KCAL/MOL
REMARK 923 INTER-LIGAND FREE ENERGY PREDICTED BY IDOCK:   -6.25 KCAL/MOL
REMARK 924 INTRA-LIGAND FREE ENERGY PREDICTED BY IDOCK:   -0.75 KCAL/MOL
REMARK 927      BINDING AFFINITY PREDICTED BY RF-SCORE:    0.00 PKD
ROOT
HETATM    1 FE   UNL     1     -11.659   8.102  69.024  1.00  0.00    -0.433 Fe 
HETATM    2  C   UNL     2     -10.935  13.730  65.283  1.00  0.00    -0.322 C  
HETATM    3  C   UNL     3      -7.601   4.857  65.347  1.00  0.00    -0.085 C  
HETATM    4  H   UNL     3      -5.830   5.512  65.829  1.00  0.00     0.000 HD 
HETATM    5  H   UNL     2     -10.135  13.558  67.082  1.00  0.00     0.000 HD 
HETATM    6  O   UNL     2     -10.818  14.073  66.668  1.00  0.00    -0.293 OA 
HETATM    7  O   UNL     3      -6.382   5.578  65.058  1.00  0.00    -0.035 OA 
ENDROOT
BRANCH   2   8
HETATM    8  C   UNL     2     -12.036  14.559  64.617  1.00  0.00    -0.473 C  
HETATM    9  H   UNL     2     -14.014  14.687  64.668  1.00  0.00     0.000 HD 
HETATM   10  O   UNL     2     -13.330  14.173  65.081  1.00  0.00    -0.684 OA 
ENDBRANCH   2   8
BRANCH   2  11
HETATM   11  C   UNL     2     -11.173  12.214  65.141  1.00  0.00    -0.329 C  
HETATM   12  H   UNL     2     -11.156  10.858  63.691  1.00  0.00     0.000 HD 
HETATM   13  O   UNL     2     -11.010  11.792  63.779  1.00  0.00    -0.361 OA 
BRANCH  11  14
HETATM   14  C   UNL     2     -10.197  11.440  66.044  1.00  0.00    -0.245 C  
HETATM   15  H   UNL     2      -8.611  10.292  65.775  1.00  0.00     0.000 HD 
HETATM   16  O   UNL     2      -9.214  10.770  65.217  1.00  0.00    -0.188 OA 
BRANCH  14  17
HETATM   17  C   UNL     2     -10.850  10.386  66.933  1.00  0.00    -0.161 C  
HETATM   18  C   UNL     2     -11.185  10.942  68.329  1.00  0.00    -0.286 C  
HETATM   19  H   UNL     2     -10.320   8.625  67.639  1.00  0.00     0.000 HD 
HETATM   20  O   UNL     2      -9.914   9.282  67.085  1.00  0.00    -0.186 OA 
HETATM   21  O   UNL     2     -10.201  10.985  69.172  1.00  0.00    -0.210 OA 
HETATM   22  O   UNL     2     -12.343  11.016  68.729  1.00  0.00    -0.533 OA 
ENDBRANCH  14  17
ENDBRANCH  11  14
ENDBRANCH   2  11
BRANCH   3  23
HETATM   23  C   UNL     3      -8.170   5.470  66.622  1.00  0.00    -0.105 C  
HETATM   24  O   UNL     3      -9.418   6.093  66.293  1.00  0.00    -0.185 OA 
HETATM   25  H   UNL     3      -9.771   6.475  67.088  1.00  0.00     0.000 HD 
BRANCH  23  26
HETATM   26  C   UNL     3      -8.401   4.548  67.842  1.00  0.00    -0.098 C  
HETATM   27  O   UNL     3      -7.141   4.173  68.423  1.00  0.00    -0.054 OA 
HETATM   28  H   UNL     3      -7.283   3.606  69.172  1.00  0.00     0.000 HD 
BRANCH  26  29
HETATM   29  C   UNL     3      -9.131   3.277  67.351  1.00  0.00    -0.173 C  
HETATM   30  C   UNL     3      -8.264   2.198  66.655  1.00  0.00    -0.087 C  
HETATM   31  O   UNL     3     -10.216   3.639  66.429  1.00  0.00    -0.333 OA 
HETATM   32  O   UNL     3      -7.188   1.847  67.169  1.00  0.00    -0.049 OA 
HETATM   33  O   UNL     3      -8.845   1.776  65.564  1.00  0.00    -0.118 OA 
HETATM   34  H   UNL     3     -10.664   2.857  66.128  1.00  0.00     0.000 HD 
ENDBRANCH  26  29
ENDBRANCH  23  26
ENDBRANCH   3  23
BRANCH   3  35
HETATM   35  C   UNL     3      -8.489   4.964  64.107  1.00  0.00    -0.137 C  
HETATM   36  O   UNL     3      -8.501   3.681  63.474  1.00  0.00    -0.089 OA 
HETATM   37  H   UNL     3      -9.053   3.748  62.703  1.00  0.00     0.000 HD 
ENDBRANCH   3  35
TORSDOF 8
ENDMDL
MODEL      258
REMARK 921   NORMALIZED FREE ENERGY PREDICTED BY IDOCK:   -3.34 KCAL/MOL
REMARK 922        TOTAL FREE ENERGY PREDICTED BY IDOCK:   -7.00 KCAL/MOL
REMARK 923 INTER-LIGAND FREE ENERGY PREDICTED BY IDOCK:   -6.63 KCAL/MOL
REMARK 924 INTRA-LIGAND FREE ENERGY PREDICTED BY IDOCK:   -0.37 KCAL/MOL
REMARK 927      BINDING AFFINITY PREDICTED BY RF-SCORE:    0.00 PKD
ROOT
HETATM    1 FE   UNL     1     -11.715   9.273  67.215  1.00  0.00    -0.392 Fe 
HETATM    2  C   UNL     2      -8.385   6.621  72.512  1.00  0.00    -0.113 C  
HETATM    3  C   UNL     3     -10.922  15.203  69.388  1.00  0.00    -0.264 C  
HETATM    4  H   UNL     3      -9.057  15.639  69.030  1.00  0.00     0.000 HD 
HETATM    5  H   UNL     2      -7.586   6.702  70.707  1.00  0.00     0.000 HD 
HETATM    6  O   UNL     2      -7.889   6.030  71.307  1.00  0.00    -0.107 OA 
HETATM    7  O   UNL     3      -9.570  15.484  69.815  1.00  0.00    -0.279 OA 
ENDROOT
BRANCH   2   8
HETATM    8  C   UNL     2      -8.873   5.539  73.479  1.00  0.00    -0.122 C  
HETATM    9  H   UNL     2      -8.865   3.560  73.595  1.00  0.00     0.000 HD 
HETATM   10  O   UNL     2      -8.562   4.232  72.995  1.00  0.00    -0.097 OA 
ENDBRANCH   2   8
BRANCH   2  11
HETATM   11  C   UNL     2      -9.484   7.647  72.175  1.00  0.00    -0.155 C  
HETATM   12  H   UNL     2      -9.675   9.622  72.107  1.00  0.00     0.000 HD 
HETATM   13  O   UNL     2      -8.998   8.990  72.315  1.00  0.00    -0.360 OA 
BRANCH  11  14
HETATM   14  C   UNL     2      -9.988   7.427  70.738  1.00  0.00    -0.182 C  
HETATM   15  H   UNL     2      -9.800   8.354  69.003  1.00  0.00     0.000 HD 
HETATM   16  O   UNL     2      -9.489   8.490  69.891  1.00  0.00    -0.161 OA 
BRANCH  14  17
HETATM   17  C   UNL     2     -11.505   7.392  70.592  1.00  0.00    -0.282 C  
HETATM   18  C   UNL     2     -12.211   7.336  71.959  1.00  0.00    -0.277 C  
HETATM   19  H   UNL     2     -12.805   6.176  69.747  1.00  0.00     0.000 HD 
HETATM   20  O   UNL     2     -11.859   6.198  69.838  1.00  0.00    -0.236 OA 
HETATM   21  O   UNL     2     -12.279   6.166  72.514  1.00  0.00    -0.178 OA 
HETATM   22  O   UNL     2     -12.949   8.241  72.338  1.00  0.00    -0.285 OA 
ENDBRANCH  14  17
ENDBRANCH  11  14
ENDBRANCH   2  11
BRANCH   3  23
HETATM   23  C   UNL     3     -10.829  14.032  68.416  1.00  0.00    -0.249 C  
HETATM   24  O   UNL     3     -12.163  13.595  68.125  1.00  0.00    -0.370 OA 
HETATM   25  H   UNL     3     -12.105  12.865  67.519  1.00  0.00     0.000 HD 
BRANCH  23  26
HETATM   26  C   UNL     3     -10.091  14.245  67.074  1.00  0.00    -0.260 C  
HETATM   27  O   UNL     3      -8.689  14.459  67.311  1.00  0.00    -0.191 OA 
HETATM   28  H   UNL     3      -8.235  14.590  66.486  1.00  0.00     0.000 HD 
BRANCH  26  29
HETATM   29  C   UNL     3     -10.686  15.498  66.392  1.00  0.00    -0.303 C  
HETATM   30  C   UNL     3      -9.739  16.710  66.208  1.00  0.00    -0.304 C  
HETATM   31  O   UNL     3     -11.867  15.965  67.132  1.00  0.00     0.287 OA 
HETATM   32  O   UNL     3      -8.596  16.535  65.754  1.00  0.00    -0.442 OA 
HETATM   33  O   UNL     3     -10.334  17.817  66.568  1.00  0.00    -0.347 OA 
HETATM   34  H   UNL     3     -12.233  16.735  66.713  1.00  0.00     0.000 HD 
ENDBRANCH  26  29
ENDBRANCH  23  26
ENDBRANCH   3  23
BRANCH   3  35
HETATM   35  C   UNL     3     -11.747  14.954  70.650  1.00  0.00    -0.303 C  
HETATM   36  O   UNL     3     -13.094  15.346  70.368  1.00  0.00    -0.657 OA 
HETATM   37  H   UNL     3     -13.607  15.191  71.152  1.00  0.00     0.000 HD 
ENDBRANCH   3  35
TORSDOF 8
ENDMDL
MODEL      259
REMARK 921   NORMALIZED FREE ENERGY PREDICTED BY IDOCK:   -3.30 KCAL/MOL
REMARK 922        TOTAL FREE ENERGY PREDICTED BY IDOCK:   -6.94 KCAL/MOL
REMARK 923 INTER-LIGAND FREE ENERGY PREDICTED BY IDOCK:   -5.28 KCAL/MOL
REMARK 924 INTRA-LIGAND FREE ENERGY PREDICTED BY IDOCK:   -1.66 KCAL/MOL
REMARK 927      BINDING AFFINITY PREDICTED BY RF-SCORE:    0.00 PKD
ROOT
HETATM    1 FE   UNL     1     -12.387   9.924  69.116  1.00  0.00    -0.478 Fe 
HETATM    2  C   UNL     2      -7.622   5.944  71.880  1.00  0.00    -0.097 C  
HETATM    3  C   UNL     3      -8.192  14.586  68.027  1.00  0.00    -0.145 C  
HETATM    4  H   UNL     3      -7.141  13.989  66.499  1.00  0.00     0.000 HD 
HETATM    5  H   UNL     2      -8.367   5.593  70.085  1.00  0.00     0.000 HD 
HETATM    6  O   UNL     2      -8.381   5.178  70.940  1.00  0.00    -0.109 OA 
HETATM    7  O   UNL     3      -6.963  14.126  67.423  1.00  0.00    -0.182 OA 
ENDROOT
BRANCH   2   8
HETATM    8  C   UNL     2      -7.644   5.277  73.258  1.00  0.00    -0.096 C  
HETATM    9  H   UNL     2      -8.021   3.485  74.016  1.00  0.00     0.000 HD 
HETATM   10  O   UNL     2      -8.008   3.899  73.161  1.00  0.00    -0.084 OA 
ENDBRANCH   2   8
BRANCH   2  11
HETATM   11  C   UNL     2      -8.152   7.391  71.921  1.00  0.00    -0.098 C  
HETATM   12  H   UNL     2      -7.505   9.203  71.431  1.00  0.00     0.000 HD 
HETATM   13  O   UNL     2      -7.179   8.312  71.407  1.00  0.00    -0.066 OA 
BRANCH  11  14
HETATM   14  C   UNL     2      -9.450   7.500  71.102  1.00  0.00    -0.158 C  
HETATM   15  H   UNL     2     -10.154   8.699  69.698  1.00  0.00     0.000 HD 
HETATM   16  O   UNL     2      -9.352   8.632  70.204  1.00  0.00    -0.156 OA 
BRANCH  14  17
HETATM   17  C   UNL     2     -10.716   7.678  71.934  1.00  0.00    -0.220 C  
HETATM   18  C   UNL     2     -11.752   6.576  71.643  1.00  0.00    -0.324 C  
HETATM   19  H   UNL     2     -12.090   9.077  72.115  1.00  0.00     0.000 HD 
HETATM   20  O   UNL     2     -11.302   8.966  71.597  1.00  0.00    -0.288 OA 
HETATM   21  O   UNL     2     -12.476   6.746  70.581  1.00  0.00    -0.320 OA 
HETATM   22  O   UNL     2     -12.108   5.784  72.512  1.00  0.00    -0.241 OA 
ENDBRANCH  14  17
ENDBRANCH  11  14
ENDBRANCH   2  11
BRANCH   3  23
HETATM   23  C   UNL     3      -9.248  13.534  67.706  1.00  0.00    -0.213 C  
HETATM   24  O   UNL     3     -10.471  14.217  67.401  1.00  0.00    -0.261 OA 
HETATM   25  H   UNL     3     -11.129  13.562  67.201  1.00  0.00     0.000 HD 
BRANCH  23  26
HETATM   26  C   UNL     3      -8.964  12.529  66.566  1.00  0.00    -0.132 C  
HETATM   27  O   UNL     3      -9.919  12.701  65.506  1.00  0.00    -0.275 OA 
HETATM   28  H   UNL     3      -9.743  12.083  64.806  1.00  0.00     0.000 HD 
BRANCH  26  29
HETATM   29  C   UNL     3      -9.098  11.100  67.142  1.00  0.00    -0.147 C  
HETATM   30  C   UNL     3     -10.155  10.178  66.485  1.00  0.00    -0.234 C  
HETATM   31  O   UNL     3      -9.391  11.158  68.580  1.00  0.00    -0.184 OA 
HETATM   32  O   UNL     3     -10.218  10.099  65.246  1.00  0.00    -0.304 OA 
HETATM   33  O   UNL     3     -10.861   9.565  67.398  1.00  0.00    -0.269 OA 
HETATM   34  H   UNL     3      -9.473  10.280  68.934  1.00  0.00     0.000 HD 
ENDBRANCH  26  29
ENDBRANCH  23  26
ENDBRANCH   3  23
BRANCH   3  35
HETATM   35  C   UNL     3      -7.906  14.805  69.513  1.00  0.00    -0.042 C  
HETATM   36  O   UNL     3      -7.475  16.161  69.672  1.00  0.00    -0.159 OA 
HETATM   37  H   UNL     3      -7.297  16.297  70.595  1.00  0.00     0.000 HD 
ENDBRANCH   3  35
TORSDOF 8
ENDMDL
MODEL      260
REMARK 921   NORMALIZED FREE ENERGY PREDICTED BY IDOCK:   -3.25 KCAL/MOL
REMARK 922        TOTAL FREE ENERGY PREDICTED BY IDOCK:   -6.87 KCAL/MOL
REMARK 923 INTER-LIGAND FREE ENERGY PREDICTED BY IDOCK:   -5.88 KCAL/MOL
REMARK 924 INTRA-LIGAND FREE ENERGY PREDICTED BY IDOCK:   -0.99 KCAL/MOL
REMARK 927      BINDING AFFINITY PREDICTED BY RF-SCORE:    0.00 PKD
ROOT
HETATM    1 FE   UNL     1     -10.874   8.231  65.955  1.00  0.00    -0.362 Fe 
HETATM    2  C   UNL     2      -5.588   7.031  70.055  1.00  0.00    -0.023 C  
HETATM    3  C   UNL     3     -10.921  14.419  67.442  1.00  0.00    -0.299 C  
HETATM    4  H   UNL     3      -9.408  15.192  66.488  1.00  0.00     0.000 HD 
HETATM    5  H   UNL     2      -5.404   7.051  68.088  1.00  0.00     0.000 HD 
HETATM    6  O   UNL     2      -5.345   6.412  68.788  1.00  0.00    -0.010 OA 
HETATM    7  O   UNL     3      -9.613  15.032  67.402  1.00  0.00    -0.203 OA 
ENDROOT
BRANCH   2   8
HETATM    8  C   UNL     2      -5.494   6.001  71.183  1.00  0.00    -0.018 C  
HETATM    9  H   UNL     2      -5.067   5.976  73.118  1.00  0.00     0.000 HD 
HETATM   10  O   UNL     2      -5.125   6.616  72.418  1.00  0.00    -0.030 OA 
ENDBRANCH   2   8
BRANCH   2  11
HETATM   11  C   UNL     2      -6.951   7.751  70.029  1.00  0.00    -0.050 C  
HETATM   12  H   UNL     2      -8.609   7.789  71.121  1.00  0.00     0.000 HD 
HETATM   13  O   UNL     2      -7.769   7.346  71.136  1.00  0.00    -0.088 OA 
BRANCH  11  14
HETATM   14  C   UNL     2      -6.744   9.275  70.069  1.00  0.00    -0.054 C  
HETATM   15  H   UNL     2      -6.809  10.687  71.450  1.00  0.00     0.000 HD 
HETATM   16  O   UNL     2      -6.937   9.745  71.425  1.00  0.00    -0.319 OA 
BRANCH  14  17
HETATM   17  C   UNL     2      -7.680  10.070  69.165  1.00  0.00    -0.104 C  
HETATM   18  C   UNL     2      -7.613   9.585  67.705  1.00  0.00    -0.094 C  
HETATM   19  H   UNL     2      -7.855  11.962  68.647  1.00  0.00     0.000 HD 
HETATM   20  O   UNL     2      -7.273  11.466  69.210  1.00  0.00    -0.118 OA 
HETATM   21  O   UNL     2      -6.620  10.036  67.003  1.00  0.00    -0.068 OA 
HETATM   22  O   UNL     2      -8.592   9.098  67.145  1.00  0.00    -0.119 OA 
ENDBRANCH  14  17
ENDBRANCH  11  14
ENDBRANCH   2  11
BRANCH   3  23
HETATM   23  C   UNL     3     -10.843  13.181  66.555  1.00  0.00    -0.280 C  
HETATM   24  O   UNL     3     -12.158  12.619  66.467  1.00  0.00    -0.525 OA 
HETATM   25  H   UNL     3     -12.109  11.847  65.915  1.00  0.00     0.000 HD 
BRANCH  23  26
HETATM   26  C   UNL     3     -10.291  13.338  65.120  1.00  0.00    -0.323 C  
HETATM   27  O   UNL     3     -10.649  14.626  64.591  1.00  0.00    -0.566 OA 
HETATM   28  H   UNL     3     -10.310  14.723  63.709  1.00  0.00     0.000 HD 
BRANCH  26  29
HETATM   29  C   UNL     3     -10.924  12.236  64.239  1.00  0.00    -0.343 C  
HETATM   30  C   UNL     3     -10.112  10.929  64.064  1.00  0.00    -0.358 C  
HETATM   31  O   UNL     3     -11.213  12.763  62.898  1.00  0.00    -0.611 OA 
HETATM   32  O   UNL     3      -9.606  10.380  65.058  1.00  0.00    -0.231 OA 
HETATM   33  O   UNL     3     -10.094  10.564  62.810  1.00  0.00    -0.163 OA 
HETATM   34  H   UNL     3     -11.602  12.085  62.357  1.00  0.00     0.000 HD 
ENDBRANCH  26  29
ENDBRANCH  23  26
ENDBRANCH   3  23
BRANCH   3  35
HETATM   35  C   UNL     3     -11.250  14.162  68.913  1.00  0.00    -0.267 C  
HETATM   36  O   UNL     3     -10.011  13.989  69.607  1.00  0.00    -0.252 OA 
HETATM   37  H   UNL     3     -10.216  13.829  70.521  1.00  0.00     0.000 HD 
ENDBRANCH   3  35
TORSDOF 8
ENDMDL
MODEL      261
REMARK 921   NORMALIZED FREE ENERGY PREDICTED BY IDOCK:   -3.19 KCAL/MOL
REMARK 922        TOTAL FREE ENERGY PREDICTED BY IDOCK:   -6.78 KCAL/MOL
REMARK 923 INTER-LIGAND FREE ENERGY PREDICTED BY IDOCK:   -5.84 KCAL/MOL
REMARK 924 INTRA-LIGAND FREE ENERGY PREDICTED BY IDOCK:   -0.94 KCAL/MOL
REMARK 927      BINDING AFFINITY PREDICTED BY RF-SCORE:    0.00 PKD
ROOT
HETATM    1 FE   UNL     1      -5.543  13.081  66.900  1.00  0.00    -0.110 Fe 
HETATM    2  C   UNL     2     -10.475  17.754  66.736  1.00  0.00    -0.300 C  
HETATM    3  C   UNL     3      -9.721   8.368  67.814  1.00  0.00    -0.162 C  
HETATM    4  H   UNL     3     -10.570   8.087  66.083  1.00  0.00     0.000 HD 
HETATM    5  H   UNL     2      -9.517  17.185  65.104  1.00  0.00     0.000 HD 
HETATM    6  O   UNL     2      -9.590  17.972  65.632  1.00  0.00    -0.437 OA 
HETATM    7  O   UNL     3     -10.858   8.424  66.923  1.00  0.00    -0.211 OA 
ENDROOT
BRANCH   2   8
HETATM    8  C   UNL     2     -10.592  19.021  67.587  1.00  0.00    -0.441 C  
HETATM    9  H   UNL     2     -10.282  19.562  69.468  1.00  0.00     0.000 HD 
HETATM   10  O   UNL     2     -10.209  18.775  68.941  1.00  0.00    -0.360 OA 
ENDBRANCH   2   8
BRANCH   2  11
HETATM   11  C   UNL     2      -9.996  16.539  67.554  1.00  0.00    -0.255 C  
HETATM   12  H   UNL     2     -10.734  14.799  68.162  1.00  0.00     0.000 HD 
HETATM   13  O   UNL     2     -11.029  15.548  67.658  1.00  0.00    -0.303 OA 
BRANCH  11  14
HETATM   14  C   UNL     2      -8.749  15.921  66.900  1.00  0.00    -0.241 C  
HETATM   15  H   UNL     2      -8.253  14.158  66.158  1.00  0.00     0.000 HD 
HETATM   16  O   UNL     2      -9.024  14.540  66.562  1.00  0.00    -0.246 OA 
BRANCH  14  17
HETATM   17  C   UNL     2      -7.495  15.944  67.769  1.00  0.00    -0.140 C  
HETATM   18  C   UNL     2      -7.035  17.382  68.073  1.00  0.00    -0.186 C  
HETATM   19  H   UNL     2      -5.652  15.273  67.589  1.00  0.00     0.000 HD 
HETATM   20  O   UNL     2      -6.433  15.259  67.048  1.00  0.00    -0.250 OA 
HETATM   21  O   UNL     2      -6.349  17.966  67.140  1.00  0.00    -0.154 OA 
HETATM   22  O   UNL     2      -7.014  17.820  69.220  1.00  0.00    -0.238 OA 
ENDBRANCH  14  17
ENDBRANCH  11  14
ENDBRANCH   2  11
BRANCH   3  23
HETATM   23  C   UNL     3      -8.604   9.151  67.133  1.00  0.00    -0.120 C  
HETATM   24  O   UNL     3      -7.661   9.538  68.141  1.00  0.00    -0.079 OA 
HETATM   25  H   UNL     3      -6.965  10.026  67.717  1.00  0.00     0.000 HD 
BRANCH  23  26
HETATM   26  C   UNL     3      -7.825   8.474  65.982  1.00  0.00    -0.098 C  
HETATM   27  O   UNL     3      -8.723   8.131  64.914  1.00  0.00    -0.373 OA 
HETATM   28  H   UNL     3      -8.244   7.714  64.206  1.00  0.00     0.000 HD 
BRANCH  26  29
HETATM   29  C   UNL     3      -7.178   7.183  66.535  1.00  0.00    -0.079 C  
HETATM   30  C   UNL     3      -8.126   5.989  66.811  1.00  0.00    -0.105 C  
HETATM   31  O   UNL     3      -6.452   7.471  67.779  1.00  0.00    -0.050 OA 
HETATM   32  O   UNL     3      -8.968   5.660  65.958  1.00  0.00    -0.147 OA 
HETATM   33  O   UNL     3      -7.868   5.458  67.977  1.00  0.00    -0.091 OA 
HETATM   34  H   UNL     3      -6.055   6.678  68.118  1.00  0.00     0.000 HD 
ENDBRANCH  26  29
ENDBRANCH  23  26
ENDBRANCH   3  23
BRANCH   3  35
HETATM   35  C   UNL     3     -10.184   8.910  69.166  1.00  0.00    -0.206 C  
HETATM   36  O   UNL     3     -11.405   9.624  68.948  1.00  0.00    -0.458 OA 
HETATM   37  H   UNL     3     -11.693   9.961  69.788  1.00  0.00     0.000 HD 
ENDBRANCH   3  35
TORSDOF 8
ENDMDL
MODEL      262
REMARK 921   NORMALIZED FREE ENERGY PREDICTED BY IDOCK:   -3.15 KCAL/MOL
REMARK 922        TOTAL FREE ENERGY PREDICTED BY IDOCK:   -6.72 KCAL/MOL
REMARK 923 INTER-LIGAND FREE ENERGY PREDICTED BY IDOCK:   -5.35 KCAL/MOL
REMARK 924 INTRA-LIGAND FREE ENERGY PREDICTED BY IDOCK:   -1.37 KCAL/MOL
REMARK 927      BINDING AFFINITY PREDICTED BY RF-SCORE:    0.00 PKD
ROOT
HETATM    1 FE   UNL     1      -5.998   5.219  69.082  1.00  0.00    -0.015 Fe 
HETATM    2  C   UNL     2      -7.176   9.419  63.871  1.00  0.00    -0.102 C  
HETATM    3  C   UNL     3     -11.049   7.400  72.283  1.00  0.00    -0.266 C  
HETATM    4  H   UNL     3     -12.599   6.619  71.397  1.00  0.00     0.000 HD 
HETATM    5  H   UNL     2      -7.531   7.479  63.753  1.00  0.00     0.000 HD 
HETATM    6  O   UNL     2      -6.931   8.104  63.363  1.00  0.00    -0.082 OA 
HETATM    7  O   UNL     3     -12.244   7.497  71.477  1.00  0.00    -0.303 OA 
ENDROOT
BRANCH   2   8
HETATM    8  C   UNL     2      -6.208  10.425  63.242  1.00  0.00    -0.107 C  
HETATM    9  H   UNL     2      -4.607  10.392  62.073  1.00  0.00     0.000 HD 
HETATM   10  O   UNL     2      -5.208   9.767  62.463  1.00  0.00    -0.084 OA 
ENDBRANCH   2   8
BRANCH   2  11
HETATM   11  C   UNL     2      -7.092   9.407  65.410  1.00  0.00    -0.091 C  
HETATM   12  H   UNL     2      -5.877  10.102  66.817  1.00  0.00     0.000 HD 
HETATM   13  O   UNL     2      -5.928  10.109  65.869  1.00  0.00    -0.070 OA 
BRANCH  11  14
HETATM   14  C   UNL     2      -8.355  10.048  66.011  1.00  0.00    -0.125 C  
HETATM   15  H   UNL     2      -9.271  10.023  67.762  1.00  0.00     0.000 HD 
HETATM   16  O   UNL     2      -8.491   9.627  67.390  1.00  0.00    -0.124 OA 
BRANCH  14  17
HETATM   17  C   UNL     2      -9.653   9.698  65.290  1.00  0.00    -0.277 C  
HETATM   18  C   UNL     2     -10.380  10.956  64.780  1.00  0.00    -0.323 C  
HETATM   19  H   UNL     2     -11.331   8.792  65.785  1.00  0.00     0.000 HD 
HETATM   20  O   UNL     2     -10.522   9.010  66.233  1.00  0.00    -0.179 OA 
HETATM   21  O   UNL     2     -11.088  11.596  65.657  1.00  0.00    -0.300 OA 
HETATM   22  O   UNL     2     -10.563  11.149  63.581  1.00  0.00    -0.371 OA 
ENDBRANCH  14  17
ENDBRANCH  11  14
ENDBRANCH   2  11
BRANCH   3  23
HETATM   23  C   UNL     3     -10.147   6.382  71.592  1.00  0.00    -0.186 C  
HETATM   24  O   UNL     3     -10.861   5.142  71.517  1.00  0.00    -0.156 OA 
HETATM   25  H   UNL     3     -10.299   4.508  71.087  1.00  0.00     0.000 HD 
BRANCH  23  26
HETATM   26  C   UNL     3      -9.610   6.713  70.181  1.00  0.00    -0.161 C  
HETATM   27  O   UNL     3      -9.728   8.122  69.925  1.00  0.00    -0.174 OA 
HETATM   28  H   UNL     3      -9.398   8.325  69.058  1.00  0.00     0.000 HD 
BRANCH  26  29
HETATM   29  C   UNL     3     -10.462   5.938  69.149  1.00  0.00    -0.270 C  
HETATM   30  C   UNL     3      -9.778   5.577  67.807  1.00  0.00    -0.130 C  
HETATM   31  O   UNL     3     -11.686   6.689  68.836  1.00  0.00    -0.575 OA 
HETATM   32  O   UNL     3      -8.638   5.080  67.812  1.00  0.00    -0.104 OA 
HETATM   33  O   UNL     3     -10.565   5.851  66.802  1.00  0.00    -0.259 OA 
HETATM   34  H   UNL     3     -12.209   6.213  68.202  1.00  0.00     0.000 HD 
ENDBRANCH  26  29
ENDBRANCH  23  26
ENDBRANCH   3  23
BRANCH   3  35
HETATM   35  C   UNL     3     -10.479   8.813  72.410  1.00  0.00    -0.150 C  
HETATM   36  O   UNL     3     -11.417   9.711  71.810  1.00  0.00    -0.365 OA 
HETATM   37  H   UNL     3     -11.063  10.589  71.889  1.00  0.00     0.000 HD 
ENDBRANCH   3  35
TORSDOF 8
ENDMDL
MODEL      263
REMARK 921   NORMALIZED FREE ENERGY PREDICTED BY IDOCK:   -3.14 KCAL/MOL
REMARK 922        TOTAL FREE ENERGY PREDICTED BY IDOCK:   -6.70 KCAL/MOL
REMARK 923 INTER-LIGAND FREE ENERGY PREDICTED BY IDOCK:   -7.33 KCAL/MOL
REMARK 924 INTRA-LIGAND FREE ENERGY PREDICTED BY IDOCK:    0.63 KCAL/MOL
REMARK 927      BINDING AFFINITY PREDICTED BY RF-SCORE:    0.00 PKD
ROOT
HETATM    1 FE   UNL     1     -12.672  15.843  69.334  1.00  0.00    -0.464 Fe 
HETATM    2  C   UNL     2      -7.136  19.551  67.995  1.00  0.00    -0.263 C  
HETATM    3  C   UNL     3     -10.786  11.191  65.421  1.00  0.00    -0.192 C  
HETATM    4  H   UNL     3      -9.362  10.261  66.372  1.00  0.00     0.000 HD 
HETATM    5  H   UNL     2      -7.375  18.611  69.716  1.00  0.00     0.000 HD 
HETATM    6  O   UNL     2      -7.337  19.510  69.411  1.00  0.00    -0.332 OA 
HETATM    7  O   UNL     3      -9.402  10.813  65.599  1.00  0.00    -0.189 OA 
ENDROOT
BRANCH   2   8
HETATM    8  C   UNL     2      -7.076  21.000  67.504  1.00  0.00    -0.301 C  
HETATM    9  H   UNL     2      -5.938  22.102  66.312  1.00  0.00     0.000 HD 
HETATM   10  O   UNL     2      -5.975  21.203  66.617  1.00  0.00    -0.239 OA 
ENDBRANCH   2   8
BRANCH   2  11
HETATM   11  C   UNL     2      -8.237  18.737  67.289  1.00  0.00    -0.263 C  
HETATM   12  H   UNL     2      -9.886  19.099  66.244  1.00  0.00     0.000 HD 
HETATM   13  O   UNL     2      -9.208  19.601  66.680  1.00  0.00    -0.325 OA 
BRANCH  11  14
HETATM   14  C   UNL     2      -7.613  17.824  66.219  1.00  0.00    -0.287 C  
HETATM   15  H   UNL     2      -8.285  16.631  64.795  1.00  0.00     0.000 HD 
HETATM   16  O   UNL     2      -8.671  17.195  65.455  1.00  0.00    -0.272 OA 
BRANCH  14  17
HETATM   17  C   UNL     2      -6.718  16.718  66.768  1.00  0.00    -0.221 C  
HETATM   18  C   UNL     2      -7.491  15.763  67.695  1.00  0.00    -0.158 C  
HETATM   19  H   UNL     2      -5.089  16.652  67.873  1.00  0.00     0.000 HD 
HETATM   20  O   UNL     2      -5.646  17.341  67.531  1.00  0.00    -0.118 OA 
HETATM   21  O   UNL     2      -7.662  16.172  68.914  1.00  0.00    -0.181 OA 
HETATM   22  O   UNL     2      -7.634  14.575  67.418  1.00  0.00    -0.183 OA 
ENDBRANCH  14  17
ENDBRANCH  11  14
ENDBRANCH   2  11
BRANCH   3  23
HETATM   23  C   UNL     3     -11.223  11.847  66.726  1.00  0.00    -0.327 C  
HETATM   24  O   UNL     3     -11.897  10.856  67.512  1.00  0.00    -0.565 OA 
HETATM   25  H   UNL     3     -12.170  11.265  68.325  1.00  0.00     0.000 HD 
BRANCH  23  26
HETATM   26  C   UNL     3     -10.145  12.511  67.614  1.00  0.00    -0.217 C  
HETATM   27  O   UNL     3      -8.846  11.993  67.283  1.00  0.00    -0.169 OA 
HETATM   28  H   UNL     3      -8.183  12.401  67.828  1.00  0.00     0.000 HD 
BRANCH  26  29
HETATM   29  C   UNL     3     -10.464  12.174  69.089  1.00  0.00     0.057 C  
HETATM   30  C   UNL     3     -10.463  10.675  69.479  1.00  0.00    -0.204 C  
HETATM   31  O   UNL     3     -11.770  12.730  69.465  1.00  0.00    -0.300 OA 
HETATM   32  O   UNL     3      -9.526   9.944  69.114  1.00  0.00    -0.174 OA 
HETATM   33  O   UNL     3     -11.513  10.387  70.201  1.00  0.00    -0.271 OA 
HETATM   34  H   UNL     3     -11.966  12.523  70.372  1.00  0.00     0.000 HD 
ENDBRANCH  26  29
ENDBRANCH  23  26
ENDBRANCH   3  23
BRANCH   3  35
HETATM   35  C   UNL     3     -10.851  12.079  64.178  1.00  0.00    -0.352 C  
HETATM   36  O   UNL     3     -11.151  11.236  63.062  1.00  0.00    -0.826 OA 
HETATM   37  H   UNL     3     -11.192  11.788  62.290  1.00  0.00     0.000 HD 
ENDBRANCH   3  35
TORSDOF 8
ENDMDL
MODEL      264
REMARK 921   NORMALIZED FREE ENERGY PREDICTED BY IDOCK:   -3.10 KCAL/MOL
REMARK 922        TOTAL FREE ENERGY PREDICTED BY IDOCK:   -6.65 KCAL/MOL
REMARK 923 INTER-LIGAND FREE ENERGY PREDICTED BY IDOCK:   -5.22 KCAL/MOL
REMARK 924 INTRA-LIGAND FREE ENERGY PREDICTED BY IDOCK:   -1.42 KCAL/MOL
REMARK 927      BINDING AFFINITY PREDICTED BY RF-SCORE:    0.00 PKD
ROOT
HETATM    1 FE   UNL     1     -10.526   9.540  69.535  1.00  0.00    -0.172 Fe 
HETATM    2  C   UNL     2     -11.995  15.715  71.964  1.00  0.00    -0.457 C  
HETATM    3  C   UNL     3     -10.811  11.586  63.515  1.00  0.00    -0.398 C  
HETATM    4  H   UNL     3      -9.170  12.598  63.234  1.00  0.00     0.000 HD 
HETATM    5  H   UNL     2     -10.178  14.947  72.084  1.00  0.00     0.000 HD 
HETATM    6  O   UNL     2     -10.876  15.185  72.683  1.00  0.00     0.231 OA 
HETATM    7  O   UNL     3     -10.092  12.820  63.290  1.00  0.00    -0.178 OA 
ENDROOT
BRANCH   2   8
HETATM    8  C   UNL     2     -13.120  16.098  72.929  1.00  0.00    -0.348 C  
HETATM    9  H   UNL     2     -13.841  15.475  74.667  1.00  0.00     0.000 HD 
HETATM   10  O   UNL     2     -13.143  15.237  74.068  1.00  0.00    -0.354 OA 
ENDBRANCH   2   8
BRANCH   2  11
HETATM   11  C   UNL     2     -12.455  14.702  70.898  1.00  0.00    -0.336 C  
HETATM   12  H   UNL     2     -14.138  14.224  69.960  1.00  0.00     0.000 HD 
HETATM   13  O   UNL     2     -13.854  14.848  70.617  1.00  0.00    -0.126 OA 
BRANCH  11  14
HETATM   14  C   UNL     2     -11.645  14.894  69.604  1.00  0.00    -0.303 C  
HETATM   15  H   UNL     2     -11.940  14.576  67.676  1.00  0.00     0.000 HD 
HETATM   16  O   UNL     2     -12.441  14.458  68.475  1.00  0.00    -0.101 OA 
BRANCH  14  17
HETATM   17  C   UNL     2     -10.323  14.133  69.560  1.00  0.00     0.185 C  
HETATM   18  C   UNL     2      -9.259  14.881  68.736  1.00  0.00    -0.193 C  
HETATM   19  H   UNL     2      -9.744  12.366  68.910  1.00  0.00     0.000 HD 
HETATM   20  O   UNL     2     -10.567  12.840  68.938  1.00  0.00    -0.212 OA 
HETATM   21  O   UNL     2      -9.336  14.740  67.449  1.00  0.00    -0.190 OA 
HETATM   22  O   UNL     2      -8.223  15.293  69.250  1.00  0.00    -0.216 OA 
ENDBRANCH  14  17
ENDBRANCH  11  14
ENDBRANCH   2  11
BRANCH   3  23
HETATM   23  C   UNL     3     -10.204  10.957  64.764  1.00  0.00    -0.333 C  
HETATM   24  O   UNL     3     -10.911   9.739  65.031  1.00  0.00     0.525 OA 
HETATM   25  H   UNL     3     -10.533   9.348  65.810  1.00  0.00     0.000 HD 
BRANCH  23  26
HETATM   26  C   UNL     3      -8.690  10.645  64.770  1.00  0.00    -0.160 C  
HETATM   27  O   UNL     3      -8.154  10.774  63.443  1.00  0.00    -0.341 OA 
HETATM   28  H   UNL     3      -7.223  10.582  63.447  1.00  0.00     0.000 HD 
BRANCH  26  29
HETATM   29  C   UNL     3      -8.503   9.188  65.253  1.00  0.00    -0.154 C  
HETATM   30  C   UNL     3      -7.144   8.839  65.910  1.00  0.00    -0.084 C  
HETATM   31  O   UNL     3      -8.710   8.254  64.137  1.00  0.00    -0.397 OA 
HETATM   32  O   UNL     3      -6.667   9.592  66.776  1.00  0.00    -0.073 OA 
HETATM   33  O   UNL     3      -6.679   7.714  65.434  1.00  0.00    -0.044 OA 
HETATM   34  H   UNL     3      -8.594   7.359  64.433  1.00  0.00     0.000 HD 
ENDBRANCH  26  29
ENDBRANCH  23  26
ENDBRANCH   3  23
BRANCH   3  35
HETATM   35  C   UNL     3     -12.294  11.942  63.605  1.00  0.00    -0.481 C  
HETATM   36  O   UNL     3     -12.595  12.188  64.982  1.00  0.00    -0.514 OA 
HETATM   37  H   UNL     3     -13.518  12.410  65.038  1.00  0.00     0.000 HD 
ENDBRANCH   3  35
TORSDOF 8
ENDMDL
MODEL      265
REMARK 921   NORMALIZED FREE ENERGY PREDICTED BY IDOCK:   -3.07 KCAL/MOL
REMARK 922        TOTAL FREE ENERGY PREDICTED BY IDOCK:   -6.60 KCAL/MOL
REMARK 923 INTER-LIGAND FREE ENERGY PREDICTED BY IDOCK:   -5.61 KCAL/MOL
REMARK 924 INTRA-LIGAND FREE ENERGY PREDICTED BY IDOCK:   -0.99 KCAL/MOL
REMARK 927      BINDING AFFINITY PREDICTED BY RF-SCORE:    0.00 PKD
ROOT
HETATM    1 FE   UNL     1      -6.843   9.409  65.948  1.00  0.00    -0.074 Fe 
HETATM    2  C   UNL     2     -12.693  12.732  64.990  1.00  0.00    -0.380 C  
HETATM    3  C   UNL     3      -8.748   7.215  71.611  1.00  0.00    -0.118 C  
HETATM    4  H   UNL     3     -10.027   5.800  71.214  1.00  0.00     0.000 HD 
HETATM    5  H   UNL     2     -12.254  11.079  64.001  1.00  0.00     0.000 HD 
HETATM    6  O   UNL     2     -12.373  12.000  63.802  1.00  0.00    -0.484 OA 
HETATM    7  O   UNL     3     -10.085   6.668  71.597  1.00  0.00    -0.185 OA 
ENDROOT
BRANCH   2   8
HETATM    8  C   UNL     2     -12.885  14.217  64.670  1.00  0.00     0.032 C  
HETATM    9  H   UNL     2     -12.549  15.449  63.153  1.00  0.00     0.000 HD 
HETATM   10  O   UNL     2     -12.430  14.527  63.351  1.00  0.00    -0.649 OA 
ENDBRANCH   2   8
BRANCH   2  11
HETATM   11  C   UNL     2     -11.605  12.497  66.055  1.00  0.00    -0.406 C  
HETATM   12  H   UNL     2      -9.708  13.004  66.350  1.00  0.00     0.000 HD 
HETATM   13  O   UNL     2     -10.379  13.149  65.694  1.00  0.00    -0.276 OA 
BRANCH  11  14
HETATM   14  C   UNL     2     -12.084  13.016  67.422  1.00  0.00    -0.233 C  
HETATM   15  H   UNL     2     -12.428  14.784  68.234  1.00  0.00     0.000 HD 
HETATM   16  O   UNL     2     -12.132  14.463  67.390  1.00  0.00    -0.397 OA 
BRANCH  14  17
HETATM   17  C   UNL     2     -11.209  12.608  68.602  1.00  0.00    -0.282 C  
HETATM   18  C   UNL     2     -11.586  11.215  69.140  1.00  0.00    -0.324 C  
HETATM   19  H   UNL     2     -10.854  13.330  70.400  1.00  0.00     0.000 HD 
HETATM   20  O   UNL     2     -11.399  13.584  69.665  1.00  0.00    -0.234 OA 
HETATM   21  O   UNL     2     -12.609  11.175  69.937  1.00  0.00    -0.224 OA 
HETATM   22  O   UNL     2     -10.795  10.277  69.105  1.00  0.00    -0.209 OA 
ENDBRANCH  14  17
ENDBRANCH  11  14
ENDBRANCH   2  11
BRANCH   3  23
HETATM   23  C   UNL     3      -8.247   7.160  70.172  1.00  0.00    -0.135 C  
HETATM   24  O   UNL     3      -9.340   7.508  69.312  1.00  0.00    -0.151 OA 
HETATM   25  H   UNL     3      -9.027   7.473  68.415  1.00  0.00     0.000 HD 
BRANCH  23  26
HETATM   26  C   UNL     3      -7.032   8.033  69.781  1.00  0.00    -0.052 C  
HETATM   27  O   UNL     3      -7.480   9.265  69.191  1.00  0.00    -0.070 OA 
HETATM   28  H   UNL     3      -6.733   9.802  68.951  1.00  0.00     0.000 HD 
BRANCH  26  29
HETATM   29  C   UNL     3      -6.192   7.251  68.745  1.00  0.00    -0.031 C  
HETATM   30  C   UNL     3      -5.695   8.041  67.509  1.00  0.00    -0.038 C  
HETATM   31  O   UNL     3      -6.946   6.088  68.256  1.00  0.00    -0.071 OA 
HETATM   32  O   UNL     3      -5.170   9.158  67.663  1.00  0.00    -0.034 OA 
HETATM   33  O   UNL     3      -5.900   7.359  66.414  1.00  0.00    -0.034 OA 
HETATM   34  H   UNL     3      -6.429   5.608  67.619  1.00  0.00     0.000 HD 
ENDBRANCH  26  29
ENDBRANCH  23  26
ENDBRANCH   3  23
BRANCH   3  35
HETATM   35  C   UNL     3      -8.842   8.611  72.228  1.00  0.00    -0.148 C  
HETATM   36  O   UNL     3      -7.991   8.631  73.378  1.00  0.00    -0.405 OA 
HETATM   37  H   UNL     3      -8.050   9.499  73.761  1.00  0.00     0.000 HD 
ENDBRANCH   3  35
TORSDOF 8
ENDMDL
MODEL      266
REMARK 921   NORMALIZED FREE ENERGY PREDICTED BY IDOCK:   -3.07 KCAL/MOL
REMARK 922        TOTAL FREE ENERGY PREDICTED BY IDOCK:   -6.60 KCAL/MOL
REMARK 923 INTER-LIGAND FREE ENERGY PREDICTED BY IDOCK:   -5.69 KCAL/MOL
REMARK 924 INTRA-LIGAND FREE ENERGY PREDICTED BY IDOCK:   -0.91 KCAL/MOL
REMARK 927      BINDING AFFINITY PREDICTED BY RF-SCORE:    0.00 PKD
ROOT
HETATM    1 FE   UNL     1     -11.934  19.603  67.571  1.00  0.00    -0.289 Fe 
HETATM    2  C   UNL     2     -12.199  13.731  64.159  1.00  0.00    -0.396 C  
HETATM    3  C   UNL     3      -6.041  18.397  69.649  1.00  0.00    -0.249 C  
HETATM    4  H   UNL     3      -4.879  18.698  68.114  1.00  0.00     0.000 HD 
HETATM    5  H   UNL     2     -11.997  15.468  63.239  1.00  0.00     0.000 HD 
HETATM    6  O   UNL     2     -12.655  14.786  63.306  1.00  0.00    -0.253 OA 
HETATM    7  O   UNL     3      -5.147  17.934  68.612  1.00  0.00    -0.147 OA 
ENDROOT
BRANCH   2   8
HETATM    8  C   UNL     2     -13.260  12.633  64.267  1.00  0.00     0.274 C  
HETATM    9  H   UNL     2     -13.591  10.830  63.513  1.00  0.00     0.000 HD 
HETATM   10  O   UNL     2     -12.933  11.511  63.446  1.00  0.00    -0.283 OA 
ENDBRANCH   2   8
BRANCH   2  11
HETATM   11  C   UNL     2     -11.807  14.306  65.534  1.00  0.00    -0.363 C  
HETATM   12  H   UNL     2     -12.273  13.997  67.439  1.00  0.00     0.000 HD 
HETATM   13  O   UNL     2     -12.515  13.643  66.592  1.00  0.00    -0.361 OA 
BRANCH  11  14
HETATM   14  C   UNL     2     -10.291  14.159  65.754  1.00  0.00    -0.325 C  
HETATM   15  H   UNL     2      -9.082  12.768  66.466  1.00  0.00     0.000 HD 
HETATM   16  O   UNL     2     -10.019  12.858  66.330  1.00  0.00    -0.255 OA 
BRANCH  14  17
HETATM   17  C   UNL     2      -9.675  15.210  66.671  1.00  0.00    -0.258 C  
HETATM   18  C   UNL     2      -9.180  14.597  67.994  1.00  0.00    -0.197 C  
HETATM   19  H   UNL     2     -10.312  16.857  67.543  1.00  0.00     0.000 HD 
HETATM   20  O   UNL     2     -10.696  16.202  66.972  1.00  0.00    -0.313 OA 
HETATM   21  O   UNL     2     -10.086  14.398  68.900  1.00  0.00    -0.230 OA 
HETATM   22  O   UNL     2      -7.992  14.613  68.304  1.00  0.00    -0.120 OA 
ENDBRANCH  14  17
ENDBRANCH  11  14
ENDBRANCH   2  11
BRANCH   3  23
HETATM   23  C   UNL     3      -7.161  19.153  68.944  1.00  0.00    -0.341 C  
HETATM   24  O   UNL     3      -6.610  20.368  68.419  1.00  0.00    -0.291 OA 
HETATM   25  H   UNL     3      -7.308  20.839  67.980  1.00  0.00     0.000 HD 
BRANCH  23  26
HETATM   26  C   UNL     3      -7.926  18.442  67.804  1.00  0.00    -0.249 C  
HETATM   27  O   UNL     3      -7.117  17.392  67.247  1.00  0.00    -0.157 OA 
HETATM   28  H   UNL     3      -7.587  16.955  66.547  1.00  0.00     0.000 HD 
BRANCH  26  29
HETATM   29  C   UNL     3      -8.228  19.485  66.704  1.00  0.00    -0.311 C  
HETATM   30  C   UNL     3      -9.614  20.175  66.757  1.00  0.00    -0.427 C  
HETATM   31  O   UNL     3      -8.085  18.877  65.375  1.00  0.00    -0.126 OA 
HETATM   32  O   UNL     3     -10.038  20.623  67.836  1.00  0.00    -0.298 OA 
HETATM   33  O   UNL     3     -10.161  20.199  65.571  1.00  0.00    -0.339 OA 
HETATM   34  H   UNL     3      -8.271  19.518  64.699  1.00  0.00     0.000 HD 
ENDBRANCH  26  29
ENDBRANCH  23  26
ENDBRANCH   3  23
BRANCH   3  35
HETATM   35  C   UNL     3      -6.471  17.168  70.450  1.00  0.00     0.793 C  
HETATM   36  O   UNL     3      -6.561  16.069  69.537  1.00  0.00    -0.184 OA 
HETATM   37  H   UNL     3      -6.828  15.305  70.035  1.00  0.00     0.000 HD 
ENDBRANCH   3  35
TORSDOF 8
ENDMDL
MODEL      267
REMARK 921   NORMALIZED FREE ENERGY PREDICTED BY IDOCK:   -3.00 KCAL/MOL
REMARK 922        TOTAL FREE ENERGY PREDICTED BY IDOCK:   -6.50 KCAL/MOL
REMARK 923 INTER-LIGAND FREE ENERGY PREDICTED BY IDOCK:   -5.52 KCAL/MOL
REMARK 924 INTRA-LIGAND FREE ENERGY PREDICTED BY IDOCK:   -0.99 KCAL/MOL
REMARK 927      BINDING AFFINITY PREDICTED BY RF-SCORE:    0.00 PKD
ROOT
HETATM    1 FE   UNL     1      -8.834   7.394  63.615  1.00  0.00    -0.354 Fe 
HETATM    2  C   UNL     2     -11.167  11.928  68.109  1.00  0.00    -0.258 C  
HETATM    3  C   UNL     3      -7.214   3.314  68.224  1.00  0.00    -0.050 C  
HETATM    4  H   UNL     3      -8.892   2.537  68.840  1.00  0.00     0.000 HD 
HETATM    5  H   UNL     2     -12.381  10.857  66.976  1.00  0.00     0.000 HD 
HETATM    6  O   UNL     2     -12.132  11.769  67.064  1.00  0.00    -0.575 OA 
HETATM    7  O   UNL     3      -8.248   3.126  69.216  1.00  0.00    -0.058 OA 
ENDROOT
BRANCH   2   8
HETATM    8  C   UNL     2     -10.766  13.399  68.249  1.00  0.00    -0.258 C  
HETATM    9  H   UNL     2     -11.311  15.149  67.495  1.00  0.00     0.000 HD 
HETATM   10  O   UNL     2     -11.560  14.237  67.408  1.00  0.00    -0.330 OA 
ENDBRANCH   2   8
BRANCH   2  11
HETATM   11  C   UNL     2      -9.957  11.012  67.843  1.00  0.00    -0.174 C  
HETATM   12  H   UNL     2      -9.628   9.092  67.461  1.00  0.00     0.000 HD 
HETATM   13  O   UNL     2     -10.374   9.656  67.625  1.00  0.00    -0.205 OA 
BRANCH  11  14
HETATM   14  C   UNL     2      -9.172  11.516  66.619  1.00  0.00    -0.186 C  
HETATM   15  H   UNL     2      -8.773  10.842  64.805  1.00  0.00     0.000 HD 
HETATM   16  O   UNL     2      -9.258  10.530  65.561  1.00  0.00    -0.169 OA 
BRANCH  14  17
HETATM   17  C   UNL     2      -7.695  11.791  66.878  1.00  0.00    -0.129 C  
HETATM   18  C   UNL     2      -7.153  10.955  68.052  1.00  0.00    -0.077 C  
HETATM   19  H   UNL     2      -6.628  13.373  67.366  1.00  0.00     0.000 HD 
HETATM   20  O   UNL     2      -7.548  13.201  67.205  1.00  0.00    -0.152 OA 
HETATM   21  O   UNL     2      -7.404  11.415  69.238  1.00  0.00    -0.109 OA 
HETATM   22  O   UNL     2      -6.269  10.118  67.890  1.00  0.00    -0.056 OA 
ENDBRANCH  14  17
ENDBRANCH  11  14
ENDBRANCH   2  11
BRANCH   3  23
HETATM   23  C   UNL     3      -7.915   3.817  66.966  1.00  0.00    -0.091 C  
HETATM   24  O   UNL     3      -7.363   3.115  65.845  1.00  0.00    -0.069 OA 
HETATM   25  H   UNL     3      -7.800   3.428  65.061  1.00  0.00     0.000 HD 
BRANCH  23  26
HETATM   26  C   UNL     3      -9.455   3.711  66.888  1.00  0.00    -0.187 C  
HETATM   27  O   UNL     3      -9.832   2.659  65.985  1.00  0.00    -0.312 OA 
HETATM   28  H   UNL     3     -10.779   2.593  65.938  1.00  0.00     0.000 HD 
BRANCH  26  29
HETATM   29  C   UNL     3     -10.003   5.055  66.356  1.00  0.00    -0.226 C  
HETATM   30  C   UNL     3     -10.275   6.163  67.405  1.00  0.00    -0.184 C  
HETATM   31  O   UNL     3     -11.248   4.835  65.608  1.00  0.00    -0.888 OA 
HETATM   32  O   UNL     3      -9.421   6.414  68.271  1.00  0.00    -0.123 OA 
HETATM   33  O   UNL     3     -11.439   6.718  67.194  1.00  0.00    -0.210 OA 
HETATM   34  H   UNL     3     -11.584   5.661  65.281  1.00  0.00     0.000 HD 
ENDBRANCH  26  29
ENDBRANCH  23  26
ENDBRANCH   3  23
BRANCH   3  35
HETATM   35  C   UNL     3      -6.178   4.261  68.830  1.00  0.00    -0.032 C  
HETATM   36  O   UNL     3      -6.677   5.594  68.686  1.00  0.00    -0.053 OA 
HETATM   37  H   UNL     3      -6.033   6.182  69.064  1.00  0.00     0.000 HD 
ENDBRANCH   3  35
TORSDOF 8
ENDMDL
MODEL      268
REMARK 921   NORMALIZED FREE ENERGY PREDICTED BY IDOCK:   -2.96 KCAL/MOL
REMARK 922        TOTAL FREE ENERGY PREDICTED BY IDOCK:   -6.45 KCAL/MOL
REMARK 923 INTER-LIGAND FREE ENERGY PREDICTED BY IDOCK:   -4.98 KCAL/MOL
REMARK 924 INTRA-LIGAND FREE ENERGY PREDICTED BY IDOCK:   -1.46 KCAL/MOL
REMARK 927      BINDING AFFINITY PREDICTED BY RF-SCORE:    0.00 PKD
ROOT
HETATM    1 FE   UNL     1      -9.159   7.429  63.729  1.00  0.00    -0.342 Fe 
HETATM    2  C   UNL     2     -11.246  13.265  66.517  1.00  0.00    -0.304 C  
HETATM    3  C   UNL     3      -6.230   5.645  69.090  1.00  0.00    -0.029 C  
HETATM    4  H   UNL     3      -7.655   5.098  70.301  1.00  0.00     0.000 HD 
HETATM    5  H   UNL     2     -12.487  11.767  66.172  1.00  0.00     0.000 HD 
HETATM    6  O   UNL     2     -12.349  12.648  65.846  1.00  0.00    -0.593 OA 
HETATM    7  O   UNL     3      -7.039   5.821  70.275  1.00  0.00    -0.065 OA 
ENDROOT
BRANCH   2   8
HETATM    8  C   UNL     2     -11.024  14.685  65.991  1.00  0.00    -0.325 C  
HETATM    9  H   UNL     2     -11.149  16.542  66.675  1.00  0.00     0.000 HD 
HETATM   10  O   UNL     2     -11.287  15.660  67.001  1.00  0.00    -0.209 OA 
ENDBRANCH   2   8
BRANCH   2  11
HETATM   11  C   UNL     2      -9.990  12.383  66.373  1.00  0.00    -0.242 C  
HETATM   12  H   UNL     2      -8.210  12.214  67.235  1.00  0.00     0.000 HD 
HETATM   13  O   UNL     2      -8.983  12.758  67.323  1.00  0.00    -0.183 OA 
BRANCH  11  14
HETATM   14  C   UNL     2     -10.361  10.902  66.569  1.00  0.00    -0.247 C  
HETATM   15  H   UNL     2     -10.029   9.519  67.941  1.00  0.00     0.000 HD 
HETATM   16  O   UNL     2      -9.800  10.434  67.820  1.00  0.00    -0.164 OA 
BRANCH  14  17
HETATM   17  C   UNL     2      -9.872   9.970  65.465  1.00  0.00    -0.303 C  
HETATM   18  C   UNL     2      -8.467   9.416  65.764  1.00  0.00    -0.132 C  
HETATM   19  H   UNL     2      -9.514  10.148  63.537  1.00  0.00     0.000 HD 
HETATM   20  O   UNL     2      -9.818  10.729  64.224  1.00  0.00    -0.269 OA 
HETATM   21  O   UNL     2      -7.476  10.204  65.481  1.00  0.00    -0.133 OA 
HETATM   22  O   UNL     2      -8.272   8.215  65.928  1.00  0.00    -0.108 OA 
ENDBRANCH  14  17
ENDBRANCH  11  14
ENDBRANCH   2  11
BRANCH   3  23
HETATM   23  C   UNL     3      -7.200   5.561  67.917  1.00  0.00    -0.072 C  
HETATM   24  O   UNL     3      -6.570   4.800  66.879  1.00  0.00    -0.047 OA 
HETATM   25  H   UNL     3      -7.175   4.749  66.148  1.00  0.00     0.000 HD 
BRANCH  23  26
HETATM   26  C   UNL     3      -8.604   4.963  68.165  1.00  0.00    -0.102 C  
HETATM   27  O   UNL     3      -9.128   4.413  66.945  1.00  0.00    -0.118 OA 
HETATM   28  H   UNL     3      -9.991   4.045  67.097  1.00  0.00     0.000 HD 
BRANCH  26  29
HETATM   29  C   UNL     3      -9.533   6.102  68.646  1.00  0.00    -0.124 C  
HETATM   30  C   UNL     3     -10.654   5.715  69.643  1.00  0.00    -0.331 C  
HETATM   31  O   UNL     3     -10.169   6.758  67.496  1.00  0.00    -0.156 OA 
HETATM   32  O   UNL     3     -10.386   5.000  70.624  1.00  0.00    -0.247 OA 
HETATM   33  O   UNL     3     -11.790   6.253  69.288  1.00  0.00    -0.102 OA 
HETATM   34  H   UNL     3     -10.739   7.458  67.792  1.00  0.00     0.000 HD 
ENDBRANCH  26  29
ENDBRANCH  23  26
ENDBRANCH   3  23
BRANCH   3  35
HETATM   35  C   UNL     3      -5.238   6.807  69.049  1.00  0.00    -0.013 C  
HETATM   36  O   UNL     3      -5.855   7.923  69.698  1.00  0.00    -0.023 OA 
HETATM   37  H   UNL     3      -5.238   8.645  69.673  1.00  0.00     0.000 HD 
ENDBRANCH   3  35
TORSDOF 8
ENDMDL
MODEL      269
REMARK 921   NORMALIZED FREE ENERGY PREDICTED BY IDOCK:   -2.93 KCAL/MOL
REMARK 922        TOTAL FREE ENERGY PREDICTED BY IDOCK:   -6.40 KCAL/MOL
REMARK 923 INTER-LIGAND FREE ENERGY PREDICTED BY IDOCK:   -4.96 KCAL/MOL
REMARK 924 INTRA-LIGAND FREE ENERGY PREDICTED BY IDOCK:   -1.44 KCAL/MOL
REMARK 927      BINDING AFFINITY PREDICTED BY RF-SCORE:    0.00 PKD
ROOT
HETATM    1 FE   UNL     1      -5.457   7.285  68.960  1.00  0.00    -0.014 Fe 
HETATM    2  C   UNL     2     -11.148  10.631  67.345  1.00  0.00    -0.272 C  
HETATM    3  C   UNL     3      -8.663   3.065  72.485  1.00  0.00    -0.083 C  
HETATM    4  H   UNL     3      -9.547   1.890  71.208  1.00  0.00     0.000 HD 
HETATM    5  H   UNL     2     -10.200   9.489  66.042  1.00  0.00     0.000 HD 
HETATM    6  O   UNL     2     -10.382  10.414  66.156  1.00  0.00    -0.242 OA 
HETATM    7  O   UNL     3      -9.841   2.544  71.831  1.00  0.00    -0.145 OA 
ENDROOT
BRANCH   2   8
HETATM    8  C   UNL     2     -11.441  12.123  67.530  1.00  0.00    -0.340 C  
HETATM    9  H   UNL     2     -12.491  13.537  66.621  1.00  0.00     0.000 HD 
HETATM   10  O   UNL     2     -12.310  12.612  66.507  1.00  0.00    -0.500 OA 
ENDBRANCH   2   8
BRANCH   2  11
HETATM   11  C   UNL     2     -10.413  10.024  68.556  1.00  0.00    -0.202 C  
HETATM   12  H   UNL     2      -8.852  10.470  69.699  1.00  0.00     0.000 HD 
HETATM   13  O   UNL     2      -9.305  10.844  68.952  1.00  0.00    -0.182 OA 
BRANCH  11  14
HETATM   14  C   UNL     2     -11.386   9.863  69.737  1.00  0.00    -0.193 C  
HETATM   15  H   UNL     2     -11.971  10.972  71.264  1.00  0.00     0.000 HD 
HETATM   16  O   UNL     2     -11.370  11.072  70.534  1.00  0.00    -0.253 OA 
BRANCH  14  17
HETATM   17  C   UNL     2     -11.076   8.692  70.664  1.00  0.00    -0.249 C  
HETATM   18  C   UNL     2     -12.347   8.141  71.336  1.00  0.00    -0.298 C  
HETATM   19  H   UNL     2      -9.977   8.436  72.279  1.00  0.00     0.000 HD 
HETATM   20  O   UNL     2     -10.170   9.165  71.701  1.00  0.00    -0.336 OA 
HETATM   21  O   UNL     2     -12.770   8.797  72.372  1.00  0.00    -0.386 OA 
HETATM   22  O   UNL     2     -12.735   6.994  71.132  1.00  0.00    -0.381 OA 
ENDBRANCH  14  17
ENDBRANCH  11  14
ENDBRANCH   2  11
BRANCH   3  23
HETATM   23  C   UNL     3      -7.746   3.572  71.378  1.00  0.00    -0.056 C  
HETATM   24  O   UNL     3      -6.722   2.590  71.171  1.00  0.00    -0.029 OA 
HETATM   25  H   UNL     3      -6.150   2.906  70.481  1.00  0.00     0.000 HD 
BRANCH  23  26
HETATM   26  C   UNL     3      -8.368   3.911  70.004  1.00  0.00    -0.056 C  
HETATM   27  O   UNL     3      -8.371   2.747  69.162  1.00  0.00    -0.057 OA 
HETATM   28  H   UNL     3      -8.753   2.955  68.317  1.00  0.00     0.000 HD 
BRANCH  26  29
HETATM   29  C   UNL     3      -7.505   5.011  69.345  1.00  0.00    -0.057 C  
HETATM   30  C   UNL     3      -7.880   6.480  69.665  1.00  0.00    -0.111 C  
HETATM   31  O   UNL     3      -7.518   4.858  67.883  1.00  0.00    -0.076 OA 
HETATM   32  O   UNL     3      -8.097   6.818  70.841  1.00  0.00    -0.114 OA 
HETATM   33  O   UNL     3      -7.897   7.198  68.573  1.00  0.00    -0.117 OA 
HETATM   34  H   UNL     3      -6.987   5.534  67.478  1.00  0.00     0.000 HD 
ENDBRANCH  26  29
ENDBRANCH  23  26
ENDBRANCH   3  23
BRANCH   3  35
HETATM   35  C   UNL     3      -9.136   4.118  73.488  1.00  0.00    -0.102 C  
HETATM   36  O   UNL     3      -8.300   5.268  73.331  1.00  0.00    -0.113 OA 
HETATM   37  H   UNL     3      -8.595   5.923  73.954  1.00  0.00     0.000 HD 
ENDBRANCH   3  35
TORSDOF 8
ENDMDL
MODEL      270
REMARK 921   NORMALIZED FREE ENERGY PREDICTED BY IDOCK:   -2.92 KCAL/MOL
REMARK 922        TOTAL FREE ENERGY PREDICTED BY IDOCK:   -6.38 KCAL/MOL
REMARK 923 INTER-LIGAND FREE ENERGY PREDICTED BY IDOCK:   -5.66 KCAL/MOL
REMARK 924 INTRA-LIGAND FREE ENERGY PREDICTED BY IDOCK:   -0.72 KCAL/MOL
REMARK 927      BINDING AFFINITY PREDICTED BY RF-SCORE:    0.00 PKD
ROOT
HETATM    1 FE   UNL     1     -13.025  10.439  68.478  1.00  0.00    -0.290 Fe 
HETATM    2  C   UNL     2      -8.737   5.218  67.745  1.00  0.00    -0.103 C  
HETATM    3  C   UNL     3      -8.285  14.675  68.176  1.00  0.00    -0.142 C  
HETATM    4  H   UNL     3      -7.777  14.751  66.296  1.00  0.00     0.000 HD 
HETATM    5  H   UNL     2      -9.940   5.796  66.289  1.00  0.00     0.000 HD 
HETATM    6  O   UNL     2      -9.843   5.040  66.855  1.00  0.00    -0.154 OA 
HETATM    7  O   UNL     3      -7.363  14.433  67.090  1.00  0.00    -0.115 OA 
ENDROOT
BRANCH   2   8
HETATM    8  C   UNL     2      -8.581   3.999  68.658  1.00  0.00    -0.093 C  
HETATM    9  H   UNL     2      -7.155   2.725  69.179  1.00  0.00     0.000 HD 
HETATM   10  O   UNL     2      -7.251   3.481  68.612  1.00  0.00    -0.050 OA 
ENDBRANCH   2   8
BRANCH   2  11
HETATM   11  C   UNL     2      -8.912   6.527  68.538  1.00  0.00    -0.126 C  
HETATM   12  H   UNL     2      -9.640   8.347  68.221  1.00  0.00     0.000 HD 
HETATM   13  O   UNL     2      -9.531   7.540  67.732  1.00  0.00    -0.140 OA 
BRANCH  11  14
HETATM   14  C   UNL     2      -9.764   6.272  69.794  1.00  0.00    -0.160 C  
HETATM   15  H   UNL     2     -11.652   6.534  70.313  1.00  0.00     0.000 HD 
HETATM   16  O   UNL     2     -11.126   6.692  69.538  1.00  0.00    -0.286 OA 
BRANCH  14  17
HETATM   17  C   UNL     2      -9.285   6.997  71.048  1.00  0.00    -0.155 C  
HETATM   18  C   UNL     2     -10.122   6.619  72.283  1.00  0.00    -0.174 C  
HETATM   19  H   UNL     2      -9.116   8.880  71.600  1.00  0.00     0.000 HD 
HETATM   20  O   UNL     2      -9.414   8.429  70.819  1.00  0.00    -0.159 OA 
HETATM   21  O   UNL     2     -11.256   7.236  72.409  1.00  0.00    -0.255 OA 
HETATM   22  O   UNL     2      -9.622   6.046  73.247  1.00  0.00    -0.143 OA 
ENDBRANCH  14  17
ENDBRANCH  11  14
ENDBRANCH   2  11
BRANCH   3  23
HETATM   23  C   UNL     3      -9.591  13.989  67.791  1.00  0.00    -0.216 C  
HETATM   24  O   UNL     3     -10.168  14.721  66.701  1.00  0.00    -0.260 OA 
HETATM   25  H   UNL     3     -10.982  14.293  66.462  1.00  0.00     0.000 HD 
BRANCH  23  26
HETATM   26  C   UNL     3      -9.549  12.495  67.397  1.00  0.00    -0.192 C  
HETATM   27  O   UNL     3      -8.741  12.317  66.222  1.00  0.00    -0.391 OA 
HETATM   28  H   UNL     3      -8.715  11.398  65.979  1.00  0.00     0.000 HD 
BRANCH  26  29
HETATM   29  C   UNL     3     -10.995  12.039  67.091  1.00  0.00    -0.270 C  
HETATM   30  C   UNL     3     -11.417  12.005  65.601  1.00  0.00    -0.316 C  
HETATM   31  O   UNL     3     -11.957  12.889  67.807  1.00  0.00    -0.347 OA 
HETATM   32  O   UNL     3     -10.665  11.482  64.760  1.00  0.00    -0.290 OA 
HETATM   33  O   UNL     3     -12.592  12.553  65.444  1.00  0.00    -0.656 OA 
HETATM   34  H   UNL     3     -12.845  12.608  67.619  1.00  0.00     0.000 HD 
ENDBRANCH  26  29
ENDBRANCH  23  26
ENDBRANCH   3  23
BRANCH   3  35
HETATM   35  C   UNL     3      -7.618  14.164  69.452  1.00  0.00     0.137 C  
HETATM   36  O   UNL     3      -7.303  12.783  69.250  1.00  0.00    -0.313 OA 
HETATM   37  H   UNL     3      -6.888  12.465  70.043  1.00  0.00     0.000 HD 
ENDBRANCH   3  35
TORSDOF 8
ENDMDL
MODEL      271
REMARK 921   NORMALIZED FREE ENERGY PREDICTED BY IDOCK:   -2.88 KCAL/MOL
REMARK 922        TOTAL FREE ENERGY PREDICTED BY IDOCK:   -6.33 KCAL/MOL
REMARK 923 INTER-LIGAND FREE ENERGY PREDICTED BY IDOCK:   -5.10 KCAL/MOL
REMARK 924 INTRA-LIGAND FREE ENERGY PREDICTED BY IDOCK:   -1.23 KCAL/MOL
REMARK 927      BINDING AFFINITY PREDICTED BY RF-SCORE:    0.00 PKD
ROOT
HETATM    1 FE   UNL     1     -12.833  10.800  68.602  1.00  0.00    -0.372 Fe 
HETATM    2  C   UNL     2      -9.019   5.397  70.164  1.00  0.00    -0.134 C  
HETATM    3  C   UNL     3      -7.700  14.445  67.667  1.00  0.00    -0.184 C  
HETATM    4  H   UNL     3      -6.969  13.879  65.952  1.00  0.00     0.000 HD 
HETATM    5  H   UNL     2      -9.980   5.538  68.444  1.00  0.00     0.000 HD 
HETATM    6  O   UNL     2     -10.025   5.001  69.227  1.00  0.00    -0.183 OA 
HETATM    7  O   UNL     3      -6.684  13.814  66.856  1.00  0.00     0.177 OA 
ENDROOT
BRANCH   2   8
HETATM    8  C   UNL     2      -9.092   4.533  71.426  1.00  0.00    -0.131 C  
HETATM    9  H   UNL     2      -7.915   3.292  72.428  1.00  0.00     0.000 HD 
HETATM   10  O   UNL     2      -7.869   3.828  71.645  1.00  0.00    -0.059 OA 
ENDBRANCH   2   8
BRANCH   2  11
HETATM   11  C   UNL     2      -9.158   6.900  70.474  1.00  0.00    -0.156 C  
HETATM   12  H   UNL     2     -10.566   8.139  71.126  1.00  0.00     0.000 HD 
HETATM   13  O   UNL     2     -10.480   7.213  70.935  1.00  0.00    -0.209 OA 
BRANCH  11  14
HETATM   14  C   UNL     2      -8.127   7.318  71.537  1.00  0.00    -0.101 C  
HETATM   15  H   UNL     2      -8.137   8.419  73.178  1.00  0.00     0.000 HD 
HETATM   16  O   UNL     2      -8.774   8.161  72.521  1.00  0.00    -0.164 OA 
BRANCH  14  17
HETATM   17  C   UNL     2      -6.923   8.080  70.994  1.00  0.00    -0.049 C  
HETATM   18  C   UNL     2      -7.025   9.590  71.278  1.00  0.00     0.117 C  
HETATM   19  H   UNL     2      -6.125   8.356  69.214  1.00  0.00     0.000 HD 
HETATM   20  O   UNL     2      -6.875   7.881  69.553  1.00  0.00    -0.045 OA 
HETATM   21  O   UNL     2      -7.771  10.270  70.464  1.00  0.00    -0.163 OA 
HETATM   22  O   UNL     2      -6.208  10.165  71.993  1.00  0.00    -0.108 OA 
ENDBRANCH  14  17
ENDBRANCH  11  14
ENDBRANCH   2  11
BRANCH   3  23
HETATM   23  C   UNL     3      -9.012  13.744  67.334  1.00  0.00    -0.224 C  
HETATM   24  O   UNL     3      -9.461  14.231  66.063  1.00  0.00    -0.448 OA 
HETATM   25  H   UNL     3     -10.279  13.794  65.856  1.00  0.00     0.000 HD 
BRANCH  23  26
HETATM   26  C   UNL     3      -9.031  12.199  67.289  1.00  0.00    -0.184 C  
HETATM   27  O   UNL     3      -8.261  11.728  66.170  1.00  0.00    -0.375 OA 
HETATM   28  H   UNL     3      -8.272  10.778  66.143  1.00  0.00     0.000 HD 
BRANCH  26  29
HETATM   29  C   UNL     3     -10.498  11.740  67.124  1.00  0.00    -0.220 C  
HETATM   30  C   UNL     3     -11.143  11.952  65.731  1.00  0.00    -0.317 C  
HETATM   31  O   UNL     3     -11.352  12.407  68.116  1.00  0.00    -0.247 OA 
HETATM   32  O   UNL     3     -10.521  11.621  64.708  1.00  0.00    -0.265 OA 
HETATM   33  O   UNL     3     -12.337  12.468  65.852  1.00  0.00    -0.626 OA 
HETATM   34  H   UNL     3     -12.254  12.125  68.014  1.00  0.00     0.000 HD 
ENDBRANCH  26  29
ENDBRANCH  23  26
ENDBRANCH   3  23
BRANCH   3  35
HETATM   35  C   UNL     3      -7.241  14.339  69.121  1.00  0.00    -0.104 C  
HETATM   36  O   UNL     3      -7.208  12.949  69.462  1.00  0.00    -0.320 OA 
HETATM   37  H   UNL     3      -6.923  12.883  70.366  1.00  0.00     0.000 HD 
ENDBRANCH   3  35
TORSDOF 8
ENDMDL
MODEL      272
REMARK 921   NORMALIZED FREE ENERGY PREDICTED BY IDOCK:   -2.87 KCAL/MOL
REMARK 922        TOTAL FREE ENERGY PREDICTED BY IDOCK:   -6.31 KCAL/MOL
REMARK 923 INTER-LIGAND FREE ENERGY PREDICTED BY IDOCK:   -4.99 KCAL/MOL
REMARK 924 INTRA-LIGAND FREE ENERGY PREDICTED BY IDOCK:   -1.32 KCAL/MOL
REMARK 927      BINDING AFFINITY PREDICTED BY RF-SCORE:    0.00 PKD
ROOT
HETATM    1 FE   UNL     1      -9.285   6.432  70.489  1.00  0.00    -0.142 Fe 
HETATM    2  C   UNL     2     -10.117  12.523  67.592  1.00  0.00    -0.217 C  
HETATM    3  C   UNL     3      -9.295   3.488  64.846  1.00  0.00    -0.153 C  
HETATM    4  H   UNL     3      -7.554   3.871  64.060  1.00  0.00     0.000 HD 
HETATM    5  H   UNL     2      -8.393  11.965  68.378  1.00  0.00     0.000 HD 
HETATM    6  O   UNL     2      -9.068  12.608  68.561  1.00  0.00    -0.156 OA 
HETATM    7  O   UNL     3      -8.449   4.124  63.862  1.00  0.00    -0.093 OA 
ENDROOT
BRANCH   2   8
HETATM    8  C   UNL     2     -11.205  13.559  67.887  1.00  0.00    -0.274 C  
HETATM    9  H   UNL     2     -11.526  15.487  67.557  1.00  0.00     0.000 HD 
HETATM   10  O   UNL     2     -10.851  14.844  67.374  1.00  0.00    -0.289 OA 
ENDBRANCH   2   8
BRANCH   2  11
HETATM   11  C   UNL     2     -10.671  11.086  67.549  1.00  0.00    -0.244 C  
HETATM   12  H   UNL     2     -12.409  10.175  67.853  1.00  0.00     0.000 HD 
HETATM   13  O   UNL     2     -12.068  11.061  67.880  1.00  0.00    -0.600 OA 
BRANCH  11  14
HETATM   14  C   UNL     2     -10.460  10.480  66.151  1.00  0.00    -0.168 C  
HETATM   15  H   UNL     2      -9.929   8.721  65.424  1.00  0.00     0.000 HD 
HETATM   16  O   UNL     2     -10.060   9.095  66.288  1.00  0.00    -0.286 OA 
BRANCH  14  17
HETATM   17  C   UNL     2      -9.406  11.185  65.303  1.00  0.00    -0.219 C  
HETATM   18  C   UNL     2      -9.792  11.210  63.813  1.00  0.00    -0.331 C  
HETATM   19  H   UNL     2      -7.496  10.898  64.918  1.00  0.00     0.000 HD 
HETATM   20  O   UNL     2      -8.153  10.459  65.446  1.00  0.00    -0.148 OA 
HETATM   21  O   UNL     2      -9.545  10.126  63.145  1.00  0.00    -0.300 OA 
HETATM   22  O   UNL     2      -9.994  12.267  63.220  1.00  0.00    -0.403 OA 
ENDBRANCH  14  17
ENDBRANCH  11  14
ENDBRANCH   2  11
BRANCH   3  23
HETATM   23  C   UNL     3      -8.770   3.924  66.210  1.00  0.00    -0.115 C  
HETATM   24  O   UNL     3      -8.954   2.832  67.121  1.00  0.00    -0.135 OA 
HETATM   25  H   UNL     3      -8.627   3.104  67.970  1.00  0.00     0.000 HD 
BRANCH  23  26
HETATM   26  C   UNL     3      -7.302   4.396  66.317  1.00  0.00    -0.081 C  
HETATM   27  O   UNL     3      -6.413   3.338  65.920  1.00  0.00    -0.031 OA 
HETATM   28  H   UNL     3      -5.511   3.628  65.986  1.00  0.00     0.000 HD 
BRANCH  26  29
HETATM   29  C   UNL     3      -7.023   4.765  67.792  1.00  0.00    -0.061 C  
HETATM   30  C   UNL     3      -6.851   3.590  68.786  1.00  0.00    -0.046 C  
HETATM   31  O   UNL     3      -8.091   5.632  68.308  1.00  0.00    -0.102 OA 
HETATM   32  O   UNL     3      -6.117   2.632  68.487  1.00  0.00    -0.024 OA 
HETATM   33  O   UNL     3      -7.538   3.807  69.876  1.00  0.00    -0.048 OA 
HETATM   34  H   UNL     3      -7.919   5.859  69.215  1.00  0.00     0.000 HD 
ENDBRANCH  26  29
ENDBRANCH  23  26
ENDBRANCH   3  23
BRANCH   3  35
HETATM   35  C   UNL     3     -10.734   3.895  64.528  1.00  0.00    -0.153 C  
HETATM   36  O   UNL     3     -11.055   3.368  63.237  1.00  0.00    -0.176 OA 
HETATM   37  H   UNL     3     -11.950   3.621  63.040  1.00  0.00     0.000 HD 
ENDBRANCH   3  35
TORSDOF 8
ENDMDL
MODEL      273
REMARK 921   NORMALIZED FREE ENERGY PREDICTED BY IDOCK:   -2.76 KCAL/MOL
REMARK 922        TOTAL FREE ENERGY PREDICTED BY IDOCK:   -6.15 KCAL/MOL
REMARK 923 INTER-LIGAND FREE ENERGY PREDICTED BY IDOCK:   -4.33 KCAL/MOL
REMARK 924 INTRA-LIGAND FREE ENERGY PREDICTED BY IDOCK:   -1.82 KCAL/MOL
REMARK 927      BINDING AFFINITY PREDICTED BY RF-SCORE:    0.00 PKD
ROOT
HETATM    1 FE   UNL     1      -6.750   9.547  72.429  1.00  0.00    -0.012 Fe 
HETATM    2  C   UNL     2      -7.504  14.036  67.382  1.00  0.00    -0.127 C  
HETATM    3  C   UNL     3     -10.476   5.291  69.512  1.00  0.00    -0.234 C  
HETATM    4  H   UNL     3      -9.392   4.556  68.070  1.00  0.00     0.000 HD 
HETATM    5  H   UNL     2      -5.821  13.037  67.652  1.00  0.00     0.000 HD 
HETATM    6  O   UNL     2      -6.116  13.938  67.715  1.00  0.00    -0.153 OA 
HETATM    7  O   UNL     3     -10.162   5.112  68.113  1.00  0.00    -0.163 OA 
ENDROOT
BRANCH   2   8
HETATM    8  C   UNL     2      -7.980  15.487  67.484  1.00  0.00    -0.168 C  
HETATM    9  H   UNL     2      -7.304  17.291  67.016  1.00  0.00     0.000 HD 
HETATM   10  O   UNL     2      -7.008  16.391  66.953  1.00  0.00    -0.204 OA 
ENDBRANCH   2   8
BRANCH   2  11
HETATM   11  C   UNL     2      -8.322  13.086  68.278  1.00  0.00    -0.158 C  
HETATM   12  H   UNL     2      -9.886  13.203  69.495  1.00  0.00     0.000 HD 
HETATM   13  O   UNL     2      -9.382  13.789  68.943  1.00  0.00    -0.056 OA 
BRANCH  11  14
HETATM   14  C   UNL     2      -8.910  11.941  67.435  1.00  0.00    -0.171 C  
HETATM   15  H   UNL     2      -8.330  10.877  65.874  1.00  0.00     0.000 HD 
HETATM   16  O   UNL     2      -7.967  11.584  66.395  1.00  0.00    -0.139 OA 
BRANCH  14  17
HETATM   17  C   UNL     2     -10.241  12.262  66.763  1.00  0.00    -0.211 C  
HETATM   18  C   UNL     2     -11.438  11.786  67.607  1.00  0.00    -0.300 C  
HETATM   19  H   UNL     2     -11.105  11.776  65.061  1.00  0.00     0.000 HD 
HETATM   20  O   UNL     2     -10.276  11.576  65.479  1.00  0.00    -0.237 OA 
HETATM   21  O   UNL     2     -11.737  10.528  67.506  1.00  0.00    -0.356 OA 
HETATM   22  O   UNL     2     -12.255  12.579  68.066  1.00  0.00    -0.310 OA 
ENDBRANCH  14  17
ENDBRANCH  11  14
ENDBRANCH   2  11
BRANCH   3  23
HETATM   23  C   UNL     3      -9.219   5.852  70.167  1.00  0.00    -0.153 C  
HETATM   24  O   UNL     3      -8.373   4.747  70.512  1.00  0.00    -0.091 OA 
HETATM   25  H   UNL     3      -7.589   5.096  70.920  1.00  0.00     0.000 HD 
BRANCH  23  26
HETATM   26  C   UNL     3      -8.372   6.876  69.377  1.00  0.00    -0.132 C  
HETATM   27  O   UNL     3      -7.199   6.239  68.842  1.00  0.00    -0.079 OA 
HETATM   28  H   UNL     3      -6.679   6.869  68.357  1.00  0.00     0.000 HD 
BRANCH  26  29
HETATM   29  C   UNL     3      -7.940   7.995  70.352  1.00  0.00    -0.103 C  
HETATM   30  C   UNL     3      -8.666   9.357  70.220  1.00  0.00    -0.230 C  
HETATM   31  O   UNL     3      -6.497   8.247  70.228  1.00  0.00    -0.035 OA 
HETATM   32  O   UNL     3      -9.906   9.387  70.128  1.00  0.00    -0.200 OA 
HETATM   33  O   UNL     3      -7.807  10.340  70.244  1.00  0.00    -0.156 OA 
HETATM   34  H   UNL     3      -6.232   8.935  70.827  1.00  0.00     0.000 HD 
ENDBRANCH  26  29
ENDBRANCH  23  26
ENDBRANCH   3  23
BRANCH   3  35
HETATM   35  C   UNL     3     -11.715   6.185  69.581  1.00  0.00     0.154 C  
HETATM   36  O   UNL     3     -11.645   6.923  70.805  1.00  0.00    -0.310 OA 
HETATM   37  H   UNL     3     -12.415   7.479  70.848  1.00  0.00     0.000 HD 
ENDBRANCH   3  35
TORSDOF 8
ENDMDL
MODEL      274
REMARK 921   NORMALIZED FREE ENERGY PREDICTED BY IDOCK:   -2.70 KCAL/MOL
REMARK 922        TOTAL FREE ENERGY PREDICTED BY IDOCK:   -6.06 KCAL/MOL
REMARK 923 INTER-LIGAND FREE ENERGY PREDICTED BY IDOCK:   -5.74 KCAL/MOL
REMARK 924 INTRA-LIGAND FREE ENERGY PREDICTED BY IDOCK:   -0.32 KCAL/MOL
REMARK 927      BINDING AFFINITY PREDICTED BY RF-SCORE:    0.00 PKD
ROOT
HETATM    1 FE   UNL     1     -10.017   9.352  65.204  1.00  0.00    -0.256 Fe 
HETATM    2  C   UNL     2      -8.146   6.706  71.178  1.00  0.00    -0.112 C  
HETATM    3  C   UNL     3     -10.870  15.117  67.762  1.00  0.00    -0.292 C  
HETATM    4  H   UNL     3      -9.078  15.828  68.045  1.00  0.00     0.000 HD 
HETATM    5  H   UNL     2      -6.844   7.052  69.733  1.00  0.00     0.000 HD 
HETATM    6  O   UNL     2      -7.212   6.295  70.174  1.00  0.00    -0.075 OA 
HETATM    7  O   UNL     3      -9.781  15.537  68.615  1.00  0.00    -0.196 OA 
ENDROOT
BRANCH   2   8
HETATM    8  C   UNL     2      -8.740   5.486  71.888  1.00  0.00    -0.135 C  
HETATM    9  H   UNL     2      -9.232   3.619  71.440  1.00  0.00     0.000 HD 
HETATM   10  O   UNL     2      -8.864   4.376  70.999  1.00  0.00    -0.101 OA 
ENDBRANCH   2   8
BRANCH   2  11
HETATM   11  C   UNL     2      -9.229   7.602  70.546  1.00  0.00    -0.159 C  
HETATM   12  H   UNL     2     -10.061   9.368  70.904  1.00  0.00     0.000 HD 
HETATM   13  O   UNL     2      -9.395   8.816  71.293  1.00  0.00    -0.202 OA 
BRANCH  11  14
HETATM   14  C   UNL     2      -8.854   7.936  69.092  1.00  0.00    -0.142 C  
HETATM   15  H   UNL     2      -8.740   9.572  67.989  1.00  0.00     0.000 HD 
HETATM   16  O   UNL     2      -8.971   9.366  68.887  1.00  0.00    -0.132 OA 
BRANCH  14  17
HETATM   17  C   UNL     2      -9.712   7.246  68.037  1.00  0.00    -0.141 C  
HETATM   18  C   UNL     2      -8.887   6.845  66.800  1.00  0.00    -0.125 C  
HETATM   19  H   UNL     2     -11.286   7.746  66.963  1.00  0.00     0.000 HD 
HETATM   20  O   UNL     2     -10.751   8.176  67.620  1.00  0.00    -0.221 OA 
HETATM   21  O   UNL     2      -8.661   7.788  65.940  1.00  0.00    -0.150 OA 
HETATM   22  O   UNL     2      -8.747   5.669  66.476  1.00  0.00    -0.117 OA 
ENDBRANCH  14  17
ENDBRANCH  11  14
ENDBRANCH   2  11
BRANCH   3  23
HETATM   23  C   UNL     3     -10.298  14.060  66.824  1.00  0.00    -0.271 C  
HETATM   24  O   UNL     3      -8.909  14.353  66.626  1.00  0.00    -0.366 OA 
HETATM   25  H   UNL     3      -8.553  13.695  66.041  1.00  0.00     0.000 HD 
BRANCH  23  26
HETATM   26  C   UNL     3     -10.421  12.573  67.228  1.00  0.00    -0.220 C  
HETATM   27  O   UNL     3      -9.543  12.286  68.329  1.00  0.00    -0.211 OA 
HETATM   28  H   UNL     3      -9.619  11.372  68.577  1.00  0.00     0.000 HD 
BRANCH  26  29
HETATM   29  C   UNL     3     -10.009  11.710  66.013  1.00  0.00    -0.228 C  
HETATM   30  C   UNL     3     -10.443  12.218  64.615  1.00  0.00    -0.303 C  
HETATM   31  O   UNL     3     -10.520  10.341  66.167  1.00  0.00    -0.210 OA 
HETATM   32  O   UNL     3     -10.270  13.411  64.313  1.00  0.00    -0.387 OA 
HETATM   33  O   UNL     3     -10.945  11.241  63.907  1.00  0.00    -0.386 OA 
HETATM   34  H   UNL     3     -10.267   9.811  65.420  1.00  0.00     0.000 HD 
ENDBRANCH  26  29
ENDBRANCH  23  26
ENDBRANCH   3  23
BRANCH   3  35
HETATM   35  C   UNL     3     -12.001  14.649  68.678  1.00  0.00    -0.270 C  
HETATM   36  O   UNL     3     -11.411  14.244  69.918  1.00  0.00    -0.330 OA 
HETATM   37  H   UNL     3     -12.113  13.953  70.487  1.00  0.00     0.000 HD 
ENDBRANCH   3  35
TORSDOF 8
ENDMDL
MODEL      275
REMARK 921   NORMALIZED FREE ENERGY PREDICTED BY IDOCK:   -2.66 KCAL/MOL
REMARK 922        TOTAL FREE ENERGY PREDICTED BY IDOCK:   -6.00 KCAL/MOL
REMARK 923 INTER-LIGAND FREE ENERGY PREDICTED BY IDOCK:   -4.77 KCAL/MOL
REMARK 924 INTRA-LIGAND FREE ENERGY PREDICTED BY IDOCK:   -1.23 KCAL/MOL
REMARK 927      BINDING AFFINITY PREDICTED BY RF-SCORE:    0.00 PKD
ROOT
HETATM    1 FE   UNL     1      -5.723  10.486  67.507  1.00  0.00    -0.042 Fe 
HETATM    2  C   UNL     2      -9.438   5.999  71.007  1.00  0.00    -0.168 C  
HETATM    3  C   UNL     3     -10.083  15.056  68.288  1.00  0.00    -0.222 C  
HETATM    4  H   UNL     3      -9.895  15.639  70.138  1.00  0.00     0.000 HD 
HETATM    5  H   UNL     2      -7.803   6.815  71.757  1.00  0.00     0.000 HD 
HETATM    6  O   UNL     2      -8.088   5.953  71.478  1.00  0.00    -0.112 OA 
HETATM    7  O   UNL     3     -10.561  15.171  69.647  1.00  0.00    -0.248 OA 
ENDROOT
BRANCH   2   8
HETATM    8  C   UNL     2      -9.897   4.609  70.556  1.00  0.00    -0.231 C  
HETATM    9  H   UNL     2     -10.012   2.782  71.315  1.00  0.00     0.000 HD 
HETATM   10  O   UNL     2      -9.727   3.644  71.595  1.00  0.00    -0.149 OA 
ENDBRANCH   2   8
BRANCH   2  11
HETATM   11  C   UNL     2      -9.564   7.050  69.887  1.00  0.00    -0.159 C  
HETATM   12  H   UNL     2     -11.000   7.820  68.753  1.00  0.00     0.000 HD 
HETATM   13  O   UNL     2     -10.923   7.172  69.443  1.00  0.00    -0.225 OA 
BRANCH  11  14
HETATM   14  C   UNL     2      -9.058   8.415  70.386  1.00  0.00    -0.149 C  
HETATM   15  H   UNL     2      -9.876  10.060  71.114  1.00  0.00     0.000 HD 
HETATM   16  O   UNL     2     -10.189   9.217  70.806  1.00  0.00    -0.218 OA 
BRANCH  14  17
HETATM   17  C   UNL     2      -8.276   9.222  69.354  1.00  0.00    -0.114 C  
HETATM   18  C   UNL     2      -9.171  10.245  68.631  1.00  0.00    -0.159 C  
HETATM   19  H   UNL     2      -7.253   8.798  67.726  1.00  0.00     0.000 HD 
HETATM   20  O   UNL     2      -7.739   8.295  68.368  1.00  0.00    -0.102 OA 
HETATM   21  O   UNL     2      -9.892   9.780  67.659  1.00  0.00    -0.155 OA 
HETATM   22  O   UNL     2      -8.970  11.453  68.725  1.00  0.00    -0.159 OA 
ENDBRANCH  14  17
ENDBRANCH  11  14
ENDBRANCH   2  11
BRANCH   3  23
HETATM   23  C   UNL     3      -8.720  14.377  68.368  1.00  0.00    -0.180 C  
HETATM   24  O   UNL     3      -8.287  14.099  67.031  1.00  0.00    -0.307 OA 
HETATM   25  H   UNL     3      -7.438  13.676  67.081  1.00  0.00     0.000 HD 
BRANCH  23  26
HETATM   26  C   UNL     3      -7.573  15.112  69.100  1.00  0.00    -0.188 C  
HETATM   27  O   UNL     3      -7.016  16.128  68.249  1.00  0.00    -0.119 OA 
HETATM   28  H   UNL     3      -6.311  16.580  68.699  1.00  0.00     0.000 HD 
BRANCH  26  29
HETATM   29  C   UNL     3      -6.477  14.076  69.437  1.00  0.00    -0.118 C  
HETATM   30  C   UNL     3      -5.653  13.519  68.250  1.00  0.00    -0.101 C  
HETATM   31  O   UNL     3      -7.062  12.931  70.148  1.00  0.00     0.053 OA 
HETATM   32  O   UNL     3      -5.192  14.300  67.399  1.00  0.00    -0.328 OA 
HETATM   33  O   UNL     3      -5.543  12.220  68.336  1.00  0.00    -0.053 OA 
HETATM   34  H   UNL     3      -6.388  12.294  70.355  1.00  0.00     0.000 HD 
ENDBRANCH  26  29
ENDBRANCH  23  26
ENDBRANCH   3  23
BRANCH   3  35
HETATM   35  C   UNL     3     -11.154  14.303  67.499  1.00  0.00    -0.298 C  
HETATM   36  O   UNL     3     -12.409  14.934  67.767  1.00  0.00    -0.524 OA 
HETATM   37  H   UNL     3     -13.075  14.466  67.276  1.00  0.00     0.000 HD 
ENDBRANCH   3  35
TORSDOF 8
ENDMDL
MODEL      276
REMARK 921   NORMALIZED FREE ENERGY PREDICTED BY IDOCK:   -2.62 KCAL/MOL
REMARK 922        TOTAL FREE ENERGY PREDICTED BY IDOCK:   -5.95 KCAL/MOL
REMARK 923 INTER-LIGAND FREE ENERGY PREDICTED BY IDOCK:   -6.36 KCAL/MOL
REMARK 924 INTRA-LIGAND FREE ENERGY PREDICTED BY IDOCK:    0.41 KCAL/MOL
REMARK 927      BINDING AFFINITY PREDICTED BY RF-SCORE:    0.00 PKD
ROOT
HETATM    1 FE   UNL     1     -11.190   8.480  66.537  1.00  0.00    -0.178 Fe 
HETATM    2  C   UNL     2      -9.368   5.550  72.392  1.00  0.00    -0.143 C  
HETATM    3  C   UNL     3     -11.692  14.198  69.286  1.00  0.00    -0.323 C  
HETATM    4  H   UNL     3      -9.860  14.804  69.559  1.00  0.00     0.000 HD 
HETATM    5  H   UNL     2      -8.073   5.873  70.935  1.00  0.00     0.000 HD 
HETATM    6  O   UNL     2      -8.474   5.123  71.359  1.00  0.00    -0.119 OA 
HETATM    7  O   UNL     3     -10.568  14.533  70.132  1.00  0.00     0.035 OA 
ENDROOT
BRANCH   2   8
HETATM    8  C   UNL     2     -10.014   4.342  73.075  1.00  0.00    -0.149 C  
HETATM    9  H   UNL     2      -9.627   3.133  74.598  1.00  0.00     0.000 HD 
HETATM   10  O   UNL     2      -9.225   3.883  74.174  1.00  0.00    -0.092 OA 
ENDBRANCH   2   8
BRANCH   2  11
HETATM   11  C   UNL     2     -10.411   6.522  71.808  1.00  0.00    -0.211 C  
HETATM   12  H   UNL     2     -11.505   8.053  72.442  1.00  0.00     0.000 HD 
HETATM   13  O   UNL     2     -10.862   7.454  72.802  1.00  0.00    -0.268 OA 
BRANCH  11  14
HETATM   14  C   UNL     2      -9.810   7.288  70.616  1.00  0.00    -0.179 C  
HETATM   15  H   UNL     2      -9.691   7.019  68.662  1.00  0.00     0.000 HD 
HETATM   16  O   UNL     2     -10.063   6.546  69.398  1.00  0.00    -0.164 OA 
BRANCH  14  17
HETATM   17  C   UNL     2      -8.306   7.530  70.707  1.00  0.00    -0.118 C  
HETATM   18  C   UNL     2      -7.984   8.916  71.294  1.00  0.00    -0.129 C  
HETATM   19  H   UNL     2      -6.819   7.606  69.418  1.00  0.00     0.000 HD 
HETATM   20  O   UNL     2      -7.755   7.455  69.362  1.00  0.00    -0.101 OA 
HETATM   21  O   UNL     2      -8.053   9.912  70.466  1.00  0.00    -0.230 OA 
HETATM   22  O   UNL     2      -7.380   9.039  72.356  1.00  0.00    -0.337 OA 
ENDBRANCH  14  17
ENDBRANCH  11  14
ENDBRANCH   2  11
BRANCH   3  23
HETATM   23  C   UNL     3     -11.193  13.143  68.306  1.00  0.00    -0.274 C  
HETATM   24  O   UNL     3     -12.104  12.037  68.348  1.00  0.00    -0.412 OA 
HETATM   25  H   UNL     3     -11.792  11.379  67.738  1.00  0.00     0.000 HD 
BRANCH  23  26
HETATM   26  C   UNL     3     -10.996  13.546  66.827  1.00  0.00    -0.292 C  
HETATM   27  O   UNL     3      -9.866  12.853  66.272  1.00  0.00    -0.264 OA 
HETATM   28  H   UNL     3      -9.745  13.101  65.363  1.00  0.00     0.000 HD 
BRANCH  26  29
HETATM   29  C   UNL     3     -10.732  15.069  66.775  1.00  0.00    -0.308 C  
HETATM   30  C   UNL     3     -10.720  15.729  65.374  1.00  0.00    -0.404 C  
HETATM   31  O   UNL     3      -9.453  15.383  67.426  1.00  0.00    -0.203 OA 
HETATM   32  O   UNL     3     -11.627  15.470  64.564  1.00  0.00    -0.399 OA 
HETATM   33  O   UNL     3      -9.694  16.529  65.252  1.00  0.00    -0.440 OA 
HETATM   34  H   UNL     3      -9.290  16.319  67.394  1.00  0.00     0.000 HD 
ENDBRANCH  26  29
ENDBRANCH  23  26
ENDBRANCH   3  23
BRANCH   3  35
HETATM   35  C   UNL     3     -12.831  13.762  70.208  1.00  0.00    -0.032 C  
HETATM   36  O   UNL     3     -13.530  14.942  70.616  1.00  0.00    -0.621 OA 
HETATM   37  H   UNL     3     -14.239  14.671  71.189  1.00  0.00     0.000 HD 
ENDBRANCH   3  35
TORSDOF 8
ENDMDL
MODEL      277
REMARK 921   NORMALIZED FREE ENERGY PREDICTED BY IDOCK:   -2.60 KCAL/MOL
REMARK 922        TOTAL FREE ENERGY PREDICTED BY IDOCK:   -5.92 KCAL/MOL
REMARK 923 INTER-LIGAND FREE ENERGY PREDICTED BY IDOCK:   -5.27 KCAL/MOL
REMARK 924 INTRA-LIGAND FREE ENERGY PREDICTED BY IDOCK:   -0.65 KCAL/MOL
REMARK 927      BINDING AFFINITY PREDICTED BY RF-SCORE:    0.00 PKD
ROOT
HETATM    1 FE   UNL     1      -5.670   5.040  69.579  1.00  0.00    -0.008 Fe 
HETATM    2  C   UNL     2      -8.513   8.859  64.729  1.00  0.00    -0.176 C  
HETATM    3  C   UNL     3     -10.733   5.688  73.381  1.00  0.00    -0.278 C  
HETATM    4  H   UNL     3     -12.103   4.530  72.620  1.00  0.00     0.000 HD 
HETATM    5  H   UNL     2      -8.341   6.898  64.552  1.00  0.00     0.000 HD 
HETATM    6  O   UNL     2      -7.980   7.671  64.134  1.00  0.00    -0.134 OA 
HETATM    7  O   UNL     3     -11.992   5.470  72.707  1.00  0.00    -0.237 OA 
ENDROOT
BRANCH   2   8
HETATM    8  C   UNL     2      -7.929  10.104  64.056  1.00  0.00    -0.154 C  
HETATM    9  H   UNL     2      -8.571  11.598  62.923  1.00  0.00     0.000 HD 
HETATM   10  O   UNL     2      -8.933  10.825  63.340  1.00  0.00    -0.193 OA 
ENDBRANCH   2   8
BRANCH   2  11
HETATM   11  C   UNL     2      -8.258   8.839  66.249  1.00  0.00    -0.115 C  
HETATM   12  H   UNL     2      -6.916   9.563  67.520  1.00  0.00     0.000 HD 
HETATM   13  O   UNL     2      -7.072   9.575  66.584  1.00  0.00    -0.084 OA 
BRANCH  11  14
HETATM   14  C   UNL     2      -9.465   9.436  66.993  1.00  0.00    -0.155 C  
HETATM   15  H   UNL     2     -11.423   9.166  66.984  1.00  0.00     0.000 HD 
HETATM   16  O   UNL     2     -10.677   8.797  66.524  1.00  0.00    -0.112 OA 
BRANCH  14  17
HETATM   17  C   UNL     2      -9.639  10.941  66.822  1.00  0.00    -0.183 C  
HETATM   18  C   UNL     2      -9.481  11.691  68.158  1.00  0.00    -0.191 C  
HETATM   19  H   UNL     2     -11.087  12.123  66.201  1.00  0.00     0.000 HD 
HETATM   20  O   UNL     2     -10.978  11.186  66.308  1.00  0.00    -0.251 OA 
HETATM   21  O   UNL     2     -10.524  11.700  68.929  1.00  0.00    -0.212 OA 
HETATM   22  O   UNL     2      -8.577  12.503  68.335  1.00  0.00    -0.172 OA 
ENDBRANCH  14  17
ENDBRANCH  11  14
ENDBRANCH   2  11
BRANCH   3  23
HETATM   23  C   UNL     3      -9.673   4.971  72.553  1.00  0.00    -0.155 C  
HETATM   24  O   UNL     3     -10.156   3.652  72.267  1.00  0.00    -0.163 OA 
HETATM   25  H   UNL     3      -9.495   3.205  71.751  1.00  0.00     0.000 HD 
BRANCH  23  26
HETATM   26  C   UNL     3      -9.218   5.613  71.223  1.00  0.00    -0.146 C  
HETATM   27  O   UNL     3      -8.914   7.003  71.425  1.00  0.00    -0.139 OA 
HETATM   28  H   UNL     3      -8.634   7.399  70.607  1.00  0.00     0.000 HD 
BRANCH  26  29
HETATM   29  C   UNL     3     -10.379   5.492  70.209  1.00  0.00    -0.279 C  
HETATM   30  C   UNL     3     -10.013   5.020  68.780  1.00  0.00    -0.155 C  
HETATM   31  O   UNL     3     -11.082   6.777  70.086  1.00  0.00    -0.271 OA 
HETATM   32  O   UNL     3      -9.269   4.035  68.629  1.00  0.00    -0.127 OA 
HETATM   33  O   UNL     3     -10.598   5.770  67.884  1.00  0.00    -0.230 OA 
HETATM   34  H   UNL     3     -11.795   6.702  69.463  1.00  0.00     0.000 HD 
ENDBRANCH  26  29
ENDBRANCH  23  26
ENDBRANCH   3  23
BRANCH   3  35
HETATM   35  C   UNL     3     -10.556   7.200  73.520  1.00  0.00    -0.374 C  
HETATM   36  O   UNL     3     -11.666   7.825  72.869  1.00  0.00    -0.580 OA 
HETATM   37  H   UNL     3     -11.556   8.765  72.955  1.00  0.00     0.000 HD 
ENDBRANCH   3  35
TORSDOF 8
ENDMDL
MODEL      278
REMARK 921   NORMALIZED FREE ENERGY PREDICTED BY IDOCK:   -2.60 KCAL/MOL
REMARK 922        TOTAL FREE ENERGY PREDICTED BY IDOCK:   -5.91 KCAL/MOL
REMARK 923 INTER-LIGAND FREE ENERGY PREDICTED BY IDOCK:   -5.11 KCAL/MOL
REMARK 924 INTRA-LIGAND FREE ENERGY PREDICTED BY IDOCK:   -0.80 KCAL/MOL
REMARK 927      BINDING AFFINITY PREDICTED BY RF-SCORE:    0.00 PKD
ROOT
HETATM    1 FE   UNL     1     -11.838  10.862  66.401  1.00  0.00    -0.159 Fe 
HETATM    2  C   UNL     2     -13.016  14.283  72.154  1.00  0.00    -0.373 C  
HETATM    3  C   UNL     3      -5.552  10.899  67.393  1.00  0.00    -0.045 C  
HETATM    4  H   UNL     3      -5.241   9.579  68.792  1.00  0.00     0.000 HD 
HETATM    5  H   UNL     2     -13.424  12.358  71.979  1.00  0.00     0.000 HD 
HETATM    6  O   UNL     2     -13.910  13.168  72.084  1.00  0.00    -0.486 OA 
HETATM    7  O   UNL     3      -5.178  10.525  68.738  1.00  0.00    -0.042 OA 
ENDROOT
BRANCH   2   8
HETATM    8  C   UNL     2     -13.799  15.588  72.324  1.00  0.00    -0.543 C  
HETATM    9  H   UNL     2     -13.988  17.023  73.678  1.00  0.00     0.000 HD 
HETATM   10  O   UNL     2     -13.502  16.213  73.573  1.00  0.00    -0.638 OA 
ENDBRANCH   2   8
BRANCH   2  11
HETATM   11  C   UNL     2     -12.108  14.301  70.909  1.00  0.00    -0.347 C  
HETATM   12  H   UNL     2     -11.975  13.339  69.178  1.00  0.00     0.000 HD 
HETATM   13  O   UNL     2     -12.535  13.327  69.945  1.00  0.00    -0.192 OA 
BRANCH  11  14
HETATM   14  C   UNL     2     -12.117  15.700  70.271  1.00  0.00    -0.385 C  
HETATM   15  H   UNL     2     -13.186  16.634  68.896  1.00  0.00     0.000 HD 
HETATM   16  O   UNL     2     -13.181  15.769  69.290  1.00  0.00     0.713 OA 
BRANCH  14  17
HETATM   17  C   UNL     2     -10.818  16.091  69.572  1.00  0.00    -0.317 C  
HETATM   18  C   UNL     2     -10.956  16.045  68.039  1.00  0.00    -0.341 C  
HETATM   19  H   UNL     2      -8.978  15.389  69.539  1.00  0.00     0.000 HD 
HETATM   20  O   UNL     2      -9.787  15.146  69.974  1.00  0.00    -0.146 OA 
HETATM   21  O   UNL     2     -10.848  14.873  67.496  1.00  0.00    -0.278 OA 
HETATM   22  O   UNL     2     -10.834  17.056  67.353  1.00  0.00    -0.281 OA 
ENDBRANCH  14  17
ENDBRANCH  11  14
ENDBRANCH   2  11
BRANCH   3  23
HETATM   23  C   UNL     3      -6.939  10.314  67.155  1.00  0.00    -0.088 C  
HETATM   24  O   UNL     3      -7.505   9.990  68.432  1.00  0.00    -0.080 OA 
HETATM   25  H   UNL     3      -8.369   9.625  68.283  1.00  0.00     0.000 HD 
BRANCH  23  26
HETATM   26  C   UNL     3      -7.971  11.160  66.374  1.00  0.00    -0.147 C  
HETATM   27  O   UNL     3      -9.226  11.177  67.074  1.00  0.00    -0.160 OA 
HETATM   28  H   UNL     3      -9.860  11.697  66.594  1.00  0.00     0.000 HD 
BRANCH  26  29
HETATM   29  C   UNL     3      -8.173  10.508  64.987  1.00  0.00    -0.120 C  
HETATM   30  C   UNL     3      -9.308  11.084  64.103  1.00  0.00    -0.210 C  
HETATM   31  O   UNL     3      -8.413   9.066  65.134  1.00  0.00    -0.147 OA 
HETATM   32  O   UNL     3      -9.419  12.315  63.968  1.00  0.00     0.024 OA 
HETATM   33  O   UNL     3     -10.019  10.119  63.582  1.00  0.00    -0.152 OA 
HETATM   34  H   UNL     3      -8.537   8.666  64.281  1.00  0.00     0.000 HD 
ENDBRANCH  26  29
ENDBRANCH  23  26
ENDBRANCH   3  23
BRANCH   3  35
HETATM   35  C   UNL     3      -5.450  12.422  67.308  1.00  0.00    -0.087 C  
HETATM   36  O   UNL     3      -6.549  12.969  68.043  1.00  0.00    -0.086 OA 
HETATM   37  H   UNL     3      -6.486  13.916  67.990  1.00  0.00     0.000 HD 
ENDBRANCH   3  35
TORSDOF 8
ENDMDL
MODEL      279
REMARK 921   NORMALIZED FREE ENERGY PREDICTED BY IDOCK:   -2.50 KCAL/MOL
REMARK 922        TOTAL FREE ENERGY PREDICTED BY IDOCK:   -5.77 KCAL/MOL
REMARK 923 INTER-LIGAND FREE ENERGY PREDICTED BY IDOCK:   -5.60 KCAL/MOL
REMARK 924 INTRA-LIGAND FREE ENERGY PREDICTED BY IDOCK:   -0.17 KCAL/MOL
REMARK 927      BINDING AFFINITY PREDICTED BY RF-SCORE:    0.00 PKD
ROOT
HETATM    1 FE   UNL     1      -6.188  11.195  64.714  1.00  0.00    -0.308 Fe 
HETATM    2  C   UNL     2      -8.380   5.679  68.023  1.00  0.00    -0.100 C  
HETATM    3  C   UNL     3     -10.603  14.875  67.448  1.00  0.00    -0.263 C  
HETATM    4  H   UNL     3      -9.985  15.153  69.275  1.00  0.00     0.000 HD 
HETATM    5  H   UNL     2      -6.692   6.585  68.502  1.00  0.00     0.000 HD 
HETATM    6  O   UNL     2      -6.955   5.751  68.131  1.00  0.00    -0.065 OA 
HETATM    7  O   UNL     3     -10.709  14.683  68.877  1.00  0.00    -0.234 OA 
ENDROOT
BRANCH   2   8
HETATM    8  C   UNL     2      -8.805   4.335  67.424  1.00  0.00    -0.110 C  
HETATM    9  H   UNL     2     -10.129   2.909  67.806  1.00  0.00     0.000 HD 
HETATM   10  O   UNL     2      -9.865   3.743  68.178  1.00  0.00    -0.093 OA 
ENDBRANCH   2   8
BRANCH   2  11
HETATM   11  C   UNL     2      -8.902   6.877  67.206  1.00  0.00    -0.118 C  
HETATM   12  H   UNL     2      -9.513   7.231  65.351  1.00  0.00     0.000 HD 
HETATM   13  O   UNL     2      -9.191   6.493  65.854  1.00  0.00    -0.108 OA 
BRANCH  11  14
HETATM   14  C   UNL     2     -10.169   7.452  67.863  1.00  0.00    -0.194 C  
HETATM   15  H   UNL     2     -11.690   8.573  67.288  1.00  0.00     0.000 HD 
HETATM   16  O   UNL     2     -10.908   8.218  66.881  1.00  0.00    -0.228 OA 
BRANCH  14  17
HETATM   17  C   UNL     2      -9.910   8.361  69.061  1.00  0.00    -0.183 C  
HETATM   18  C   UNL     2      -9.350   9.729  68.630  1.00  0.00    -0.147 C  
HETATM   19  H   UNL     2      -8.772   8.274  70.666  1.00  0.00     0.000 HD 
HETATM   20  O   UNL     2      -8.934   7.708  69.920  1.00  0.00    -0.143 OA 
HETATM   21  O   UNL     2      -8.078   9.766  68.380  1.00  0.00    -0.102 OA 
HETATM   22  O   UNL     2      -9.968  10.770  68.837  1.00  0.00    -0.188 OA 
ENDBRANCH  14  17
ENDBRANCH  11  14
ENDBRANCH   2  11
BRANCH   3  23
HETATM   23  C   UNL     3      -9.209  14.399  67.054  1.00  0.00    -0.234 C  
HETATM   24  O   UNL     3      -9.245  14.030  65.670  1.00  0.00    -0.479 OA 
HETATM   25  H   UNL     3      -8.377  13.733  65.425  1.00  0.00     0.000 HD 
BRANCH  23  26
HETATM   26  C   UNL     3      -8.017  15.361  67.263  1.00  0.00    -0.202 C  
HETATM   27  O   UNL     3      -8.074  15.941  68.577  1.00  0.00    -0.143 OA 
HETATM   28  H   UNL     3      -7.341  16.531  68.706  1.00  0.00     0.000 HD 
BRANCH  26  29
HETATM   29  C   UNL     3      -8.117  16.487  66.208  1.00  0.00    -0.306 C  
HETATM   30  C   UNL     3      -7.432  17.832  66.554  1.00  0.00    -0.249 C  
HETATM   31  O   UNL     3      -9.526  16.771  65.903  1.00  0.00    -0.466 OA 
HETATM   32  O   UNL     3      -6.274  17.835  67.007  1.00  0.00    -0.145 OA 
HETATM   33  O   UNL     3      -8.224  18.835  66.282  1.00  0.00    -0.311 OA 
HETATM   34  H   UNL     3      -9.588  17.463  65.255  1.00  0.00     0.000 HD 
ENDBRANCH  26  29
ENDBRANCH  23  26
ENDBRANCH   3  23
BRANCH   3  35
HETATM   35  C   UNL     3     -11.768  14.120  66.808  1.00  0.00    -0.410 C  
HETATM   36  O   UNL     3     -12.884  14.215  67.697  1.00  0.00    -0.072 OA 
HETATM   37  H   UNL     3     -13.608  13.746  67.299  1.00  0.00     0.000 HD 
ENDBRANCH   3  35
TORSDOF 8
ENDMDL
MODEL      280
REMARK 921   NORMALIZED FREE ENERGY PREDICTED BY IDOCK:   -2.50 KCAL/MOL
REMARK 922        TOTAL FREE ENERGY PREDICTED BY IDOCK:   -5.77 KCAL/MOL
REMARK 923 INTER-LIGAND FREE ENERGY PREDICTED BY IDOCK:   -3.81 KCAL/MOL
REMARK 924 INTRA-LIGAND FREE ENERGY PREDICTED BY IDOCK:   -1.96 KCAL/MOL
REMARK 927      BINDING AFFINITY PREDICTED BY RF-SCORE:    0.00 PKD
ROOT
HETATM    1 FE   UNL     1      -6.038   3.968  69.389  1.00  0.00    -0.019 Fe 
HETATM    2  C   UNL     2      -8.208   8.541  64.854  1.00  0.00    -0.165 C  
HETATM    3  C   UNL     3      -9.302   6.743  74.096  1.00  0.00    -0.223 C  
HETATM    4  H   UNL     3     -11.163   6.252  73.794  1.00  0.00     0.000 HD 
HETATM    5  H   UNL     2      -8.888   6.687  64.878  1.00  0.00     0.000 HD 
HETATM    6  O   UNL     2      -8.362   7.230  64.303  1.00  0.00    -0.023 OA 
HETATM    7  O   UNL     3     -10.667   7.060  73.742  1.00  0.00    -0.360 OA 
ENDROOT
BRANCH   2   8
HETATM    8  C   UNL     2      -7.359   9.416  63.927  1.00  0.00    -0.105 C  
HETATM    9  H   UNL     2      -7.485  11.197  63.066  1.00  0.00     0.000 HD 
HETATM   10  O   UNL     2      -8.011  10.654  63.641  1.00  0.00    -0.076 OA 
ENDBRANCH   2   8
BRANCH   2  11
HETATM   11  C   UNL     2      -7.616   8.443  66.274  1.00  0.00    -0.086 C  
HETATM   12  H   UNL     2      -6.116   9.248  67.295  1.00  0.00     0.000 HD 
HETATM   13  O   UNL     2      -6.480   9.308  66.420  1.00  0.00    -0.065 OA 
BRANCH  11  14
HETATM   14  C   UNL     2      -8.685   8.811  67.317  1.00  0.00    -0.129 C  
HETATM   15  H   UNL     2     -10.368   9.846  67.330  1.00  0.00     0.000 HD 
HETATM   16  O   UNL     2      -9.708   9.619  66.685  1.00  0.00    -0.182 OA 
BRANCH  14  17
HETATM   17  C   UNL     2      -8.161   9.588  68.521  1.00  0.00    -0.101 C  
HETATM   18  C   UNL     2      -7.557   8.653  69.586  1.00  0.00    -0.080 C  
HETATM   19  H   UNL     2      -8.951  10.792  69.864  1.00  0.00     0.000 HD 
HETATM   20  O   UNL     2      -9.277  10.309  69.114  1.00  0.00    -0.174 OA 
HETATM   21  O   UNL     2      -8.406   8.076  70.379  1.00  0.00    -0.116 OA 
HETATM   22  O   UNL     2      -6.369   8.710  69.891  1.00  0.00    -0.037 OA 
ENDBRANCH  14  17
ENDBRANCH  11  14
ENDBRANCH   2  11
BRANCH   3  23
HETATM   23  C   UNL     3      -8.860   5.633  73.148  1.00  0.00    -0.122 C  
HETATM   24  O   UNL     3      -8.567   4.472  73.936  1.00  0.00    -0.102 OA 
HETATM   25  H   UNL     3      -8.292   3.781  73.346  1.00  0.00     0.000 HD 
BRANCH  23  26
HETATM   26  C   UNL     3      -9.819   5.211  72.011  1.00  0.00    -0.171 C  
HETATM   27  O   UNL     3     -10.743   4.219  72.487  1.00  0.00    -0.151 OA 
HETATM   28  H   UNL     3     -11.332   3.959  71.788  1.00  0.00     0.000 HD 
BRANCH  26  29
HETATM   29  C   UNL     3      -8.971   4.607  70.868  1.00  0.00    -0.120 C  
HETATM   30  C   UNL     3      -9.656   4.473  69.485  1.00  0.00    -0.195 C  
HETATM   31  O   UNL     3      -8.478   3.277  71.250  1.00  0.00    -0.065 OA 
HETATM   32  O   UNL     3     -10.297   5.431  69.020  1.00  0.00    -0.217 OA 
HETATM   33  O   UNL     3      -9.425   3.295  68.970  1.00  0.00    -0.163 OA 
HETATM   34  H   UNL     3      -7.957   2.906  70.548  1.00  0.00     0.000 HD 
ENDBRANCH  26  29
ENDBRANCH  23  26
ENDBRANCH   3  23
BRANCH   3  35
HETATM   35  C   UNL     3      -8.504   8.044  74.012  1.00  0.00    -0.252 C  
HETATM   36  O   UNL     3      -9.065   8.826  72.953  1.00  0.00    -0.311 OA 
HETATM   37  H   UNL     3      -8.569   9.634  72.901  1.00  0.00     0.000 HD 
ENDBRANCH   3  35
TORSDOF 8
ENDMDL
MODEL      281
REMARK 921   NORMALIZED FREE ENERGY PREDICTED BY IDOCK:   -2.49 KCAL/MOL
REMARK 922        TOTAL FREE ENERGY PREDICTED BY IDOCK:   -5.75 KCAL/MOL
REMARK 923 INTER-LIGAND FREE ENERGY PREDICTED BY IDOCK:   -3.56 KCAL/MOL
REMARK 924 INTRA-LIGAND FREE ENERGY PREDICTED BY IDOCK:   -2.19 KCAL/MOL
REMARK 927      BINDING AFFINITY PREDICTED BY RF-SCORE:    0.00 PKD
ROOT
HETATM    1 FE   UNL     1      -5.542   3.785  70.057  1.00  0.00    -0.010 Fe 
HETATM    2  C   UNL     2      -7.743   7.192  64.603  1.00  0.00    -0.112 C  
HETATM    3  C   UNL     3      -9.674   6.765  73.873  1.00  0.00    -0.258 C  
HETATM    4  H   UNL     3     -11.406   5.959  73.489  1.00  0.00     0.000 HD 
HETATM    5  H   UNL     2      -8.172   5.285  64.890  1.00  0.00     0.000 HD 
HETATM    6  O   UNL     2      -7.658   5.800  64.280  1.00  0.00    -0.070 OA 
HETATM    7  O   UNL     3     -11.017   6.814  73.343  1.00  0.00    -0.266 OA 
ENDROOT
BRANCH   2   8
HETATM    8  C   UNL     2      -6.913   8.022  63.621  1.00  0.00    -0.076 C  
HETATM    9  H   UNL     2      -7.104   9.707  62.594  1.00  0.00     0.000 HD 
HETATM   10  O   UNL     2      -7.619   9.191  63.203  1.00  0.00    -0.100 OA 
ENDBRANCH   2   8
BRANCH   2  11
HETATM   11  C   UNL     2      -7.314   7.413  66.067  1.00  0.00    -0.075 C  
HETATM   12  H   UNL     2      -6.394   8.816  67.129  1.00  0.00     0.000 HD 
HETATM   13  O   UNL     2      -6.658   8.679  66.227  1.00  0.00    -0.060 OA 
BRANCH  11  14
HETATM   14  C   UNL     2      -8.543   7.347  66.992  1.00  0.00    -0.119 C  
HETATM   15  H   UNL     2      -9.588   5.921  67.874  1.00  0.00     0.000 HD 
HETATM   16  O   UNL     2      -8.829   5.962  67.303  1.00  0.00    -0.109 OA 
BRANCH  14  17
HETATM   17  C   UNL     2      -9.812   7.963  66.412  1.00  0.00    -0.147 C  
HETATM   18  C   UNL     2      -9.909   9.469  66.719  1.00  0.00    -0.216 C  
HETATM   19  H   UNL     2     -11.745   7.676  66.651  1.00  0.00     0.000 HD 
HETATM   20  O   UNL     2     -10.955   7.292  67.012  1.00  0.00    -0.358 OA 
HETATM   21  O   UNL     2     -10.347   9.779  67.899  1.00  0.00    -0.185 OA 
HETATM   22  O   UNL     2      -9.906  10.308  65.822  1.00  0.00    -0.224 OA 
ENDBRANCH  14  17
ENDBRANCH  11  14
ENDBRANCH   2  11
BRANCH   3  23
HETATM   23  C   UNL     3      -8.982   5.595  73.182  1.00  0.00    -0.121 C  
HETATM   24  O   UNL     3      -8.852   4.534  74.137  1.00  0.00    -0.106 OA 
HETATM   25  H   UNL     3      -8.420   3.806  73.706  1.00  0.00     0.000 HD 
BRANCH  23  26
HETATM   26  C   UNL     3      -9.624   5.012  71.902  1.00  0.00    -0.152 C  
HETATM   27  O   UNL     3     -10.281   3.770  72.202  1.00  0.00    -0.169 OA 
HETATM   28  H   UNL     3     -10.676   3.411  71.415  1.00  0.00     0.000 HD 
BRANCH  26  29
HETATM   29  C   UNL     3      -8.497   4.754  70.875  1.00  0.00    -0.106 C  
HETATM   30  C   UNL     3      -8.723   3.601  69.865  1.00  0.00    -0.078 C  
HETATM   31  O   UNL     3      -7.228   4.495  71.569  1.00  0.00    -0.054 OA 
HETATM   32  O   UNL     3      -9.811   3.507  69.272  1.00  0.00    -0.060 OA 
HETATM   33  O   UNL     3      -7.652   2.858  69.770  1.00  0.00    -0.044 OA 
HETATM   34  H   UNL     3      -6.536   4.337  70.937  1.00  0.00     0.000 HD 
ENDBRANCH  26  29
ENDBRANCH  23  26
ENDBRANCH   3  23
BRANCH   3  35
HETATM   35  C   UNL     3      -9.049   8.139  73.637  1.00  0.00    -0.165 C  
HETATM   36  O   UNL     3      -7.672   7.935  73.303  1.00  0.00    -0.121 OA 
HETATM   37  H   UNL     3      -7.283   8.789  73.156  1.00  0.00     0.000 HD 
ENDBRANCH   3  35
TORSDOF 8
ENDMDL
MODEL      282
REMARK 921   NORMALIZED FREE ENERGY PREDICTED BY IDOCK:   -2.38 KCAL/MOL
REMARK 922        TOTAL FREE ENERGY PREDICTED BY IDOCK:   -5.59 KCAL/MOL
REMARK 923 INTER-LIGAND FREE ENERGY PREDICTED BY IDOCK:   -4.41 KCAL/MOL
REMARK 924 INTRA-LIGAND FREE ENERGY PREDICTED BY IDOCK:   -1.17 KCAL/MOL
REMARK 927      BINDING AFFINITY PREDICTED BY RF-SCORE:    0.00 PKD
ROOT
HETATM    1 FE   UNL     1      -5.460   5.243  69.681  1.00  0.00    -0.004 Fe 
HETATM    2  C   UNL     2      -8.422   8.914  64.788  1.00  0.00    -0.176 C  
HETATM    3  C   UNL     3     -10.580   5.689  73.436  1.00  0.00    -0.258 C  
HETATM    4  H   UNL     3     -11.892   4.470  72.669  1.00  0.00     0.000 HD 
HETATM    5  H   UNL     2      -8.165   6.962  64.622  1.00  0.00     0.000 HD 
HETATM    6  O   UNL     2      -7.833   7.748  64.203  1.00  0.00    -0.126 OA 
HETATM    7  O   UNL     3     -11.823   5.414  72.751  1.00  0.00    -0.268 OA 
ENDROOT
BRANCH   2   8
HETATM    8  C   UNL     2      -7.887  10.180  64.114  1.00  0.00    -0.145 C  
HETATM    9  H   UNL     2      -8.557  11.590  62.893  1.00  0.00     0.000 HD 
HETATM   10  O   UNL     2      -8.889  10.804  63.310  1.00  0.00    -0.188 OA 
ENDBRANCH   2   8
BRANCH   2  11
HETATM   11  C   UNL     2      -8.180   8.912  66.310  1.00  0.00    -0.111 C  
HETATM   12  H   UNL     2      -7.105   9.940  67.625  1.00  0.00     0.000 HD 
HETATM   13  O   UNL     2      -7.254   9.941  66.687  1.00  0.00    -0.088 OA 
BRANCH  11  14
HETATM   14  C   UNL     2      -9.511   9.114  67.055  1.00  0.00    -0.154 C  
HETATM   15  H   UNL     2     -11.343   8.386  66.925  1.00  0.00     0.000 HD 
HETATM   16  O   UNL     2     -10.521   8.261  66.465  1.00  0.00    -0.255 OA 
BRANCH  14  17
HETATM   17  C   UNL     2     -10.042  10.544  67.034  1.00  0.00    -0.213 C  
HETATM   18  C   UNL     2     -10.072  11.164  68.443  1.00  0.00    -0.184 C  
HETATM   19  H   UNL     2     -11.732  11.404  66.499  1.00  0.00     0.000 HD 
HETATM   20  O   UNL     2     -11.400  10.513  66.512  1.00  0.00    -0.021 OA 
HETATM   21  O   UNL     2     -11.087  10.841  69.183  1.00  0.00    -0.212 OA 
HETATM   22  O   UNL     2      -9.390  12.145  68.727  1.00  0.00    -0.072 OA 
ENDBRANCH  14  17
ENDBRANCH  11  14
ENDBRANCH   2  11
BRANCH   3  23
HETATM   23  C   UNL     3      -9.482   5.015  72.620  1.00  0.00    -0.140 C  
HETATM   24  O   UNL     3      -9.909   3.677  72.331  1.00  0.00    -0.143 OA 
HETATM   25  H   UNL     3      -9.224   3.257  71.823  1.00  0.00     0.000 HD 
BRANCH  23  26
HETATM   26  C   UNL     3      -9.040   5.674  71.294  1.00  0.00    -0.143 C  
HETATM   27  O   UNL     3      -8.470   4.687  70.418  1.00  0.00    -0.077 OA 
HETATM   28  H   UNL     3      -8.198   5.092  69.603  1.00  0.00     0.000 HD 
BRANCH  26  29
HETATM   29  C   UNL     3      -7.968   6.739  71.622  1.00  0.00    -0.102 C  
HETATM   30  C   UNL     3      -7.870   7.951  70.662  1.00  0.00    -0.095 C  
HETATM   31  O   UNL     3      -6.638   6.117  71.688  1.00  0.00    -0.052 OA 
HETATM   32  O   UNL     3      -8.905   8.545  70.313  1.00  0.00    -0.138 OA 
HETATM   33  O   UNL     3      -6.624   8.195  70.355  1.00  0.00    -0.036 OA 
HETATM   34  H   UNL     3      -5.980   6.771  71.889  1.00  0.00     0.000 HD 
ENDBRANCH  26  29
ENDBRANCH  23  26
ENDBRANCH   3  23
BRANCH   3  35
HETATM   35  C   UNL     3     -10.469   7.208  73.568  1.00  0.00    -0.380 C  
HETATM   36  O   UNL     3     -11.710   7.770  73.129  1.00  0.00    -0.631 OA 
HETATM   37  H   UNL     3     -11.641   8.714  73.212  1.00  0.00     0.000 HD 
ENDBRANCH   3  35
TORSDOF 8
ENDMDL
MODEL      283
REMARK 921   NORMALIZED FREE ENERGY PREDICTED BY IDOCK:   -2.36 KCAL/MOL
REMARK 922        TOTAL FREE ENERGY PREDICTED BY IDOCK:   -5.56 KCAL/MOL
REMARK 923 INTER-LIGAND FREE ENERGY PREDICTED BY IDOCK:   -4.64 KCAL/MOL
REMARK 924 INTRA-LIGAND FREE ENERGY PREDICTED BY IDOCK:   -0.92 KCAL/MOL
REMARK 927      BINDING AFFINITY PREDICTED BY RF-SCORE:    0.00 PKD
ROOT
HETATM    1 FE   UNL     1      -6.319   6.460  68.185  1.00  0.00    -0.026 Fe 
HETATM    2  C   UNL     2     -10.615  11.240  65.975  1.00  0.00    -0.258 C  
HETATM    3  C   UNL     3      -8.606   6.818  74.114  1.00  0.00    -0.147 C  
HETATM    4  H   UNL     3     -10.327   5.907  74.060  1.00  0.00     0.000 HD 
HETATM    5  H   UNL     2     -10.852   9.331  65.525  1.00  0.00     0.000 HD 
HETATM    6  O   UNL     2     -10.640  10.136  65.066  1.00  0.00    -0.044 OA 
HETATM    7  O   UNL     3     -10.049   6.808  74.177  1.00  0.00    -0.317 OA 
ENDROOT
BRANCH   2   8
HETATM    8  C   UNL     2     -10.273  12.536  65.235  1.00  0.00    -0.282 C  
HETATM    9  H   UNL     2     -11.240  14.060  64.416  1.00  0.00     0.000 HD 
HETATM   10  O   UNL     2     -11.453  13.256  64.875  1.00  0.00    -0.304 OA 
ENDBRANCH   2   8
BRANCH   2  11
HETATM   11  C   UNL     2      -9.634  10.945  67.126  1.00  0.00    -0.165 C  
HETATM   12  H   UNL     2      -8.433  11.972  68.328  1.00  0.00     0.000 HD 
HETATM   13  O   UNL     2      -9.037  12.153  67.619  1.00  0.00    -0.169 OA 
BRANCH  11  14
HETATM   14  C   UNL     2     -10.366  10.225  68.271  1.00  0.00    -0.181 C  
HETATM   15  H   UNL     2     -10.993   8.385  68.630  1.00  0.00     0.000 HD 
HETATM   16  O   UNL     2     -10.540   8.830  67.922  1.00  0.00    -0.229 OA 
BRANCH  14  17
HETATM   17  C   UNL     2     -11.742  10.793  68.606  1.00  0.00    -0.219 C  
HETATM   18  C   UNL     2     -11.685  12.308  68.877  1.00  0.00    -0.328 C  
HETATM   19  H   UNL     2     -13.084  10.478  70.012  1.00  0.00     0.000 HD 
HETATM   20  O   UNL     2     -12.228  10.124  69.804  1.00  0.00    -0.081 OA 
HETATM   21  O   UNL     2     -11.298  12.656  70.065  1.00  0.00    -0.077 OA 
HETATM   22  O   UNL     2     -12.279  13.111  68.162  1.00  0.00    -0.247 OA 
ENDBRANCH  14  17
ENDBRANCH  11  14
ENDBRANCH   2  11
BRANCH   3  23
HETATM   23  C   UNL     3      -8.230   6.177  72.783  1.00  0.00    -0.117 C  
HETATM   24  O   UNL     3      -8.372   4.757  72.922  1.00  0.00    -0.100 OA 
HETATM   25  H   UNL     3      -8.137   4.358  72.093  1.00  0.00     0.000 HD 
BRANCH  23  26
HETATM   26  C   UNL     3      -8.997   6.612  71.513  1.00  0.00    -0.139 C  
HETATM   27  O   UNL     3     -10.349   6.129  71.563  1.00  0.00    -0.200 OA 
HETATM   28  H   UNL     3     -10.821   6.397  70.783  1.00  0.00     0.000 HD 
BRANCH  26  29
HETATM   29  C   UNL     3      -8.284   5.997  70.287  1.00  0.00    -0.119 C  
HETATM   30  C   UNL     3      -8.889   4.693  69.709  1.00  0.00    -0.089 C  
HETATM   31  O   UNL     3      -6.873   5.732  70.600  1.00  0.00    -0.050 OA 
HETATM   32  O   UNL     3     -10.114   4.614  69.518  1.00  0.00    -0.222 OA 
HETATM   33  O   UNL     3      -7.949   3.816  69.475  1.00  0.00    -0.055 OA 
HETATM   34  H   UNL     3      -6.436   5.354  69.846  1.00  0.00     0.000 HD 
ENDBRANCH  26  29
ENDBRANCH  23  26
ENDBRANCH   3  23
BRANCH   3  35
HETATM   35  C   UNL     3      -8.159   8.268  74.302  1.00  0.00    -0.217 C  
HETATM   36  O   UNL     3      -7.097   8.514  73.375  1.00  0.00    -0.260 OA 
HETATM   37  H   UNL     3      -6.819   9.415  73.491  1.00  0.00     0.000 HD 
ENDBRANCH   3  35
TORSDOF 8
ENDMDL
MODEL      284
REMARK 921   NORMALIZED FREE ENERGY PREDICTED BY IDOCK:   -2.35 KCAL/MOL
REMARK 922        TOTAL FREE ENERGY PREDICTED BY IDOCK:   -5.55 KCAL/MOL
REMARK 923 INTER-LIGAND FREE ENERGY PREDICTED BY IDOCK:   -5.54 KCAL/MOL
REMARK 924 INTRA-LIGAND FREE ENERGY PREDICTED BY IDOCK:   -0.01 KCAL/MOL
REMARK 927      BINDING AFFINITY PREDICTED BY RF-SCORE:    0.00 PKD
ROOT
HETATM    1 FE   UNL     1      -6.911  11.613  65.209  1.00  0.00    -0.333 Fe 
HETATM    2  C   UNL     2      -8.345   6.200  69.060  1.00  0.00    -0.112 C  
HETATM    3  C   UNL     3     -10.580  15.407  68.767  1.00  0.00    -0.235 C  
HETATM    4  H   UNL     3      -9.568  15.718  70.403  1.00  0.00     0.000 HD 
HETATM    5  H   UNL     2      -6.586   7.096  69.128  1.00  0.00     0.000 HD 
HETATM    6  O   UNL     2      -6.932   6.258  68.845  1.00  0.00    -0.070 OA 
HETATM    7  O   UNL     3     -10.366  15.249  70.187  1.00  0.00    -0.266 OA 
ENDROOT
BRANCH   2   8
HETATM    8  C   UNL     2      -8.902   4.849  68.604  1.00  0.00    -0.098 C  
HETATM    9  H   UNL     2      -8.297   3.297  67.530  1.00  0.00     0.000 HD 
HETATM   10  O   UNL     2      -7.952   4.135  67.812  1.00  0.00    -0.089 OA 
ENDBRANCH   2   8
BRANCH   2  11
HETATM   11  C   UNL     2      -9.028   7.386  68.350  1.00  0.00    -0.134 C  
HETATM   12  H   UNL     2     -10.024   7.708  66.663  1.00  0.00     0.000 HD 
HETATM   13  O   UNL     2      -9.603   6.977  67.100  1.00  0.00    -0.136 OA 
BRANCH  11  14
HETATM   14  C   UNL     2     -10.122   7.981  69.253  1.00  0.00    -0.198 C  
HETATM   15  H   UNL     2     -11.887   8.829  68.985  1.00  0.00     0.000 HD 
HETATM   16  O   UNL     2     -11.211   8.461  68.427  1.00  0.00     0.278 OA 
BRANCH  14  17
HETATM   17  C   UNL     2      -9.663   9.139  70.133  1.00  0.00    -0.204 C  
HETATM   18  C   UNL     2     -10.422   9.176  71.472  1.00  0.00    -0.352 C  
HETATM   19  H   UNL     2      -9.638  11.102  69.966  1.00  0.00     0.000 HD 
HETATM   20  O   UNL     2      -9.923  10.380  69.418  1.00  0.00    -0.216 OA 
HETATM   21  O   UNL     2     -11.599   9.719  71.442  1.00  0.00    -0.364 OA 
HETATM   22  O   UNL     2      -9.840   9.024  72.543  1.00  0.00    -0.108 OA 
ENDBRANCH  14  17
ENDBRANCH  11  14
ENDBRANCH   2  11
BRANCH   3  23
HETATM   23  C   UNL     3      -9.312  14.906  68.084  1.00  0.00    -0.193 C  
HETATM   24  O   UNL     3      -9.661  14.494  66.756  1.00  0.00    -0.241 OA 
HETATM   25  H   UNL     3      -8.871  14.182  66.331  1.00  0.00     0.000 HD 
BRANCH  23  26
HETATM   26  C   UNL     3      -8.101  15.861  67.987  1.00  0.00    -0.141 C  
HETATM   27  O   UNL     3      -7.443  15.956  69.262  1.00  0.00    -0.200 OA 
HETATM   28  H   UNL     3      -6.699  16.543  69.202  1.00  0.00     0.000 HD 
BRANCH  26  29
HETATM   29  C   UNL     3      -8.623  17.259  67.582  1.00  0.00    -0.217 C  
HETATM   30  C   UNL     3      -8.290  18.434  68.535  1.00  0.00    -0.323 C  
HETATM   31  O   UNL     3     -10.082  17.225  67.412  1.00  0.00    -0.288 OA 
HETATM   32  O   UNL     3      -7.131  18.568  68.964  1.00  0.00    -0.288 OA 
HETATM   33  O   UNL     3      -9.349  19.169  68.746  1.00  0.00    -0.361 OA 
HETATM   34  H   UNL     3     -10.403  18.084  67.163  1.00  0.00     0.000 HD 
ENDBRANCH  26  29
ENDBRANCH  23  26
ENDBRANCH   3  23
BRANCH   3  35
HETATM   35  C   UNL     3     -11.863  14.651  68.421  1.00  0.00    -0.295 C  
HETATM   36  O   UNL     3     -12.160  14.915  67.046  1.00  0.00    -0.357 OA 
HETATM   37  H   UNL     3     -12.958  14.445  66.831  1.00  0.00     0.000 HD 
ENDBRANCH   3  35
TORSDOF 8
ENDMDL
MODEL      285
REMARK 921   NORMALIZED FREE ENERGY PREDICTED BY IDOCK:   -2.34 KCAL/MOL
REMARK 922        TOTAL FREE ENERGY PREDICTED BY IDOCK:   -5.53 KCAL/MOL
REMARK 923 INTER-LIGAND FREE ENERGY PREDICTED BY IDOCK:   -4.38 KCAL/MOL
REMARK 924 INTRA-LIGAND FREE ENERGY PREDICTED BY IDOCK:   -1.14 KCAL/MOL
REMARK 927      BINDING AFFINITY PREDICTED BY RF-SCORE:    0.00 PKD
ROOT
HETATM    1 FE   UNL     1      -9.931  17.271  65.339  1.00  0.00    -0.240 Fe 
HETATM    2  C   UNL     2      -6.390  19.168  70.822  1.00  0.00     0.348 C  
HETATM    3  C   UNL     3      -9.154  11.099  66.688  1.00  0.00    -0.170 C  
HETATM    4  H   UNL     3     -10.364  10.737  68.171  1.00  0.00     0.000 HD 
HETATM    5  H   UNL     2      -8.355  19.356  70.728  1.00  0.00     0.000 HD 
HETATM    6  O   UNL     2      -7.599  19.931  70.761  1.00  0.00     0.690 OA 
HETATM    7  O   UNL     3      -9.420  10.773  68.070  1.00  0.00    -0.154 OA 
ENDROOT
BRANCH   2   8
HETATM    8  C   UNL     2      -5.173  20.095  70.875  1.00  0.00    -0.257 C  
HETATM    9  H   UNL     2      -4.596  21.811  70.067  1.00  0.00     0.000 HD 
HETATM   10  O   UNL     2      -5.351  21.236  70.033  1.00  0.00    -0.526 OA 
ENDBRANCH   2   8
BRANCH   2  11
HETATM   11  C   UNL     2      -6.332  18.190  69.632  1.00  0.00    -0.179 C  
HETATM   12  H   UNL     2      -6.024  16.251  69.343  1.00  0.00     0.000 HD 
HETATM   13  O   UNL     2      -6.059  16.853  70.076  1.00  0.00    -0.228 OA 
BRANCH  11  14
HETATM   14  C   UNL     2      -7.663  18.219  68.860  1.00  0.00    -0.205 C  
HETATM   15  H   UNL     2      -9.098  16.926  68.445  1.00  0.00     0.000 HD 
HETATM   16  O   UNL     2      -8.276  16.908  68.922  1.00  0.00    -0.254 OA 
BRANCH  14  17
HETATM   17  C   UNL     2      -7.539  18.603  67.389  1.00  0.00    -0.227 C  
HETATM   18  C   UNL     2      -6.076  18.859  66.985  1.00  0.00    -0.166 C  
HETATM   19  H   UNL     2      -8.224  20.065  66.261  1.00  0.00     0.000 HD 
HETATM   20  O   UNL     2      -8.301  19.825  67.177  1.00  0.00    -0.291 OA 
HETATM   21  O   UNL     2      -5.601  20.028  67.288  1.00  0.00    -0.165 OA 
HETATM   22  O   UNL     2      -5.510  18.162  66.148  1.00  0.00    -0.144 OA 
ENDBRANCH  14  17
ENDBRANCH  11  14
ENDBRANCH   2  11
BRANCH   3  23
HETATM   23  C   UNL     3      -9.899  12.398  66.402  1.00  0.00    -0.240 C  
HETATM   24  O   UNL     3      -9.742  12.698  65.009  1.00  0.00    -0.471 OA 
HETATM   25  H   UNL     3     -10.206  13.508  64.832  1.00  0.00     0.000 HD 
BRANCH  23  26
HETATM   26  C   UNL     3     -11.405  12.473  66.743  1.00  0.00    -0.334 C  
HETATM   27  O   UNL     3     -12.188  12.364  65.543  1.00  0.00    -0.568 OA 
HETATM   28  H   UNL     3     -13.114  12.410  65.752  1.00  0.00     0.000 HD 
BRANCH  26  29
HETATM   29  C   UNL     3     -11.680  13.843  67.404  1.00  0.00    -0.389 C  
HETATM   30  C   UNL     3     -12.129  14.993  66.468  1.00  0.00     0.146 C  
HETATM   31  O   UNL     3     -10.490  14.302  68.134  1.00  0.00    -0.237 OA 
HETATM   32  O   UNL     3     -13.020  14.790  65.626  1.00  0.00    -0.019 OA 
HETATM   33  O   UNL     3     -11.468  16.088  66.737  1.00  0.00     0.113 OA 
HETATM   34  H   UNL     3     -10.660  15.144  68.540  1.00  0.00     0.000 HD 
ENDBRANCH  26  29
ENDBRANCH  23  26
ENDBRANCH   3  23
BRANCH   3  35
HETATM   35  C   UNL     3      -7.635  11.156  66.526  1.00  0.00    -0.135 C  
HETATM   36  O   UNL     3      -7.057  11.010  67.827  1.00  0.00    -0.082 OA 
HETATM   37  H   UNL     3      -6.113  11.045  67.726  1.00  0.00     0.000 HD 
ENDBRANCH   3  35
TORSDOF 8
ENDMDL
MODEL      286
REMARK 921   NORMALIZED FREE ENERGY PREDICTED BY IDOCK:   -2.33 KCAL/MOL
REMARK 922        TOTAL FREE ENERGY PREDICTED BY IDOCK:   -5.52 KCAL/MOL
REMARK 923 INTER-LIGAND FREE ENERGY PREDICTED BY IDOCK:   -4.26 KCAL/MOL
REMARK 924 INTRA-LIGAND FREE ENERGY PREDICTED BY IDOCK:   -1.25 KCAL/MOL
REMARK 927      BINDING AFFINITY PREDICTED BY RF-SCORE:    0.00 PKD
ROOT
HETATM    1 FE   UNL     1     -10.663   9.367  69.314  1.00  0.00    -0.193 Fe 
HETATM    2  C   UNL     2     -11.642  15.513  72.045  1.00  0.00    -0.456 C  
HETATM    3  C   UNL     3     -10.549  11.751  63.414  1.00  0.00    -0.420 C  
HETATM    4  H   UNL     3      -8.814  12.620  63.240  1.00  0.00     0.000 HD 
HETATM    5  H   UNL     2      -9.909  14.574  72.175  1.00  0.00     0.000 HD 
HETATM    6  O   UNL     2     -10.603  14.844  72.766  1.00  0.00     1.270 OA 
HETATM    7  O   UNL     3      -9.713  12.923  63.281  1.00  0.00     0.325 OA 
ENDROOT
BRANCH   2   8
HETATM    8  C   UNL     2     -12.761  15.948  72.996  1.00  0.00    -0.507 C  
HETATM    9  H   UNL     2     -13.877  15.136  74.419  1.00  0.00     0.000 HD 
HETATM   10  O   UNL     2     -13.184  14.866  73.828  1.00  0.00    -0.395 OA 
ENDBRANCH   2   8
BRANCH   2  11
HETATM   11  C   UNL     2     -12.156  14.606  70.910  1.00  0.00    -0.328 C  
HETATM   12  H   UNL     2     -13.822  14.381  69.854  1.00  0.00     0.000 HD 
HETATM   13  O   UNL     2     -13.506  14.939  70.554  1.00  0.00    -0.218 OA 
BRANCH  11  14
HETATM   14  C   UNL     2     -11.247  14.741  69.676  1.00  0.00    -0.275 C  
HETATM   15  H   UNL     2      -9.754  15.912  69.125  1.00  0.00     0.000 HD 
HETATM   16  O   UNL     2     -10.315  15.829  69.887  1.00  0.00    -0.294 OA 
BRANCH  14  17
HETATM   17  C   UNL     2     -11.984  15.010  68.367  1.00  0.00    -0.200 C  
HETATM   18  C   UNL     2     -11.274  14.359  67.166  1.00  0.00    -0.328 C  
HETATM   19  H   UNL     2     -12.482  16.618  67.344  1.00  0.00     0.000 HD 
HETATM   20  O   UNL     2     -12.023  16.450  68.159  1.00  0.00     0.115 OA 
HETATM   21  O   UNL     2     -10.263  15.012  66.684  1.00  0.00    -0.258 OA 
HETATM   22  O   UNL     2     -11.815  13.481  66.500  1.00  0.00    -0.357 OA 
ENDBRANCH  14  17
ENDBRANCH  11  14
ENDBRANCH   2  11
BRANCH   3  23
HETATM   23  C   UNL     3     -10.047  11.003  64.643  1.00  0.00    -0.311 C  
HETATM   24  O   UNL     3     -10.393   9.621  64.489  1.00  0.00    -0.141 OA 
HETATM   25  H   UNL     3     -10.080   9.154  65.255  1.00  0.00     0.000 HD 
BRANCH  23  26
HETATM   26  C   UNL     3      -8.542  11.084  64.991  1.00  0.00     0.022 C  
HETATM   27  O   UNL     3      -7.755  10.596  63.892  1.00  0.00    -0.346 OA 
HETATM   28  H   UNL     3      -6.830  10.645  64.106  1.00  0.00     0.000 HD 
BRANCH  26  29
HETATM   29  C   UNL     3      -8.287  10.196  66.231  1.00  0.00    -0.130 C  
HETATM   30  C   UNL     3      -8.813  10.725  67.589  1.00  0.00    -0.132 C  
HETATM   31  O   UNL     3      -6.849   9.936  66.381  1.00  0.00    -0.084 OA 
HETATM   32  O   UNL     3      -9.970  11.171  67.670  1.00  0.00    -0.171 OA 
HETATM   33  O   UNL     3      -7.901  10.596  68.516  1.00  0.00    -0.102 OA 
HETATM   34  H   UNL     3      -6.692   9.391  67.143  1.00  0.00     0.000 HD 
ENDBRANCH  26  29
ENDBRANCH  23  26
ENDBRANCH   3  23
BRANCH   3  35
HETATM   35  C   UNL     3     -11.996  12.240  63.480  1.00  0.00    -0.533 C  
HETATM   36  O   UNL     3     -12.815  11.114  63.813  1.00  0.00     0.183 OA 
HETATM   37  H   UNL     3     -13.715  11.418  63.854  1.00  0.00     0.000 HD 
ENDBRANCH   3  35
TORSDOF 8
ENDMDL
MODEL      287
REMARK 921   NORMALIZED FREE ENERGY PREDICTED BY IDOCK:   -2.30 KCAL/MOL
REMARK 922        TOTAL FREE ENERGY PREDICTED BY IDOCK:   -5.47 KCAL/MOL
REMARK 923 INTER-LIGAND FREE ENERGY PREDICTED BY IDOCK:   -4.21 KCAL/MOL
REMARK 924 INTRA-LIGAND FREE ENERGY PREDICTED BY IDOCK:   -1.26 KCAL/MOL
REMARK 927      BINDING AFFINITY PREDICTED BY RF-SCORE:    0.00 PKD
ROOT
HETATM    1 FE   UNL     1      -5.706   4.097  69.558  1.00  0.00    -0.011 Fe 
HETATM    2  C   UNL     2      -8.241   8.596  65.140  1.00  0.00    -0.151 C  
HETATM    3  C   UNL     3      -8.920   6.692  74.400  1.00  0.00    -0.181 C  
HETATM    4  H   UNL     3     -10.767   6.119  74.161  1.00  0.00     0.000 HD 
HETATM    5  H   UNL     2      -8.836   6.712  65.174  1.00  0.00     0.000 HD 
HETATM    6  O   UNL     2      -8.356   7.282  64.584  1.00  0.00    -0.070 OA 
HETATM    7  O   UNL     3     -10.310   6.949  74.098  1.00  0.00    -0.373 OA 
ENDROOT
BRANCH   2   8
HETATM    8  C   UNL     2      -7.467   9.514  64.191  1.00  0.00    -0.122 C  
HETATM    9  H   UNL     2      -7.811  11.142  63.115  1.00  0.00     0.000 HD 
HETATM   10  O   UNL     2      -8.292  10.573  63.703  1.00  0.00    -0.166 OA 
ENDBRANCH   2   8
BRANCH   2  11
HETATM   11  C   UNL     2      -7.595   8.516  66.537  1.00  0.00    -0.088 C  
HETATM   12  H   UNL     2      -6.140   9.428  67.533  1.00  0.00     0.000 HD 
HETATM   13  O   UNL     2      -6.538   9.477  66.672  1.00  0.00    -0.066 OA 
BRANCH  11  14
HETATM   14  C   UNL     2      -8.656   8.756  67.624  1.00  0.00    -0.128 C  
HETATM   15  H   UNL     2     -10.324   9.805  67.781  1.00  0.00     0.000 HD 
HETATM   16  O   UNL     2      -9.668   9.656  67.109  1.00  0.00    -0.160 OA 
BRANCH  14  17
HETATM   17  C   UNL     2      -8.119   9.356  68.919  1.00  0.00    -0.103 C  
HETATM   18  C   UNL     2      -7.710   8.267  69.928  1.00  0.00    -0.097 C  
HETATM   19  H   UNL     2      -8.838  10.541  70.319  1.00  0.00     0.000 HD 
HETATM   20  O   UNL     2      -9.172  10.167  69.512  1.00  0.00    -0.206 OA 
HETATM   21  O   UNL     2      -8.674   7.744  70.619  1.00  0.00    -0.136 OA 
HETATM   22  O   UNL     2      -6.546   8.143  70.301  1.00  0.00    -0.036 OA 
ENDBRANCH  14  17
ENDBRANCH  11  14
ENDBRANCH   2  11
BRANCH   3  23
HETATM   23  C   UNL     3      -8.463   5.609  73.429  1.00  0.00    -0.116 C  
HETATM   24  O   UNL     3      -7.685   4.657  74.165  1.00  0.00    -0.087 OA 
HETATM   25  H   UNL     3      -7.400   3.983  73.560  1.00  0.00     0.000 HD 
BRANCH  23  26
HETATM   26  C   UNL     3      -9.538   4.835  72.631  1.00  0.00    -0.135 C  
HETATM   27  O   UNL     3     -10.340   5.751  71.867  1.00  0.00    -0.201 OA 
HETATM   28  H   UNL     3     -11.000   5.275  71.376  1.00  0.00     0.000 HD 
BRANCH  26  29
HETATM   29  C   UNL     3     -10.441   4.090  73.639  1.00  0.00    -0.186 C  
HETATM   30  C   UNL     3     -10.620   2.566  73.425  1.00  0.00    -0.155 C  
HETATM   31  O   UNL     3     -11.780   4.695  73.664  1.00  0.00    -0.329 OA 
HETATM   32  O   UNL     3      -9.625   1.855  73.205  1.00  0.00    -0.072 OA 
HETATM   33  O   UNL     3     -11.878   2.231  73.533  1.00  0.00    -0.193 OA 
HETATM   34  H   UNL     3     -12.336   4.237  74.284  1.00  0.00     0.000 HD 
ENDBRANCH  26  29
ENDBRANCH  23  26
ENDBRANCH   3  23
BRANCH   3  35
HETATM   35  C   UNL     3      -8.185   8.028  74.298  1.00  0.00    -0.253 C  
HETATM   36  O   UNL     3      -8.659   8.692  73.123  1.00  0.00    -0.393 OA 
HETATM   37  H   UNL     3      -8.202   9.523  73.060  1.00  0.00     0.000 HD 
ENDBRANCH   3  35
TORSDOF 8
ENDMDL
MODEL      288
REMARK 921   NORMALIZED FREE ENERGY PREDICTED BY IDOCK:   -2.26 KCAL/MOL
REMARK 922        TOTAL FREE ENERGY PREDICTED BY IDOCK:   -5.42 KCAL/MOL
REMARK 923 INTER-LIGAND FREE ENERGY PREDICTED BY IDOCK:   -4.94 KCAL/MOL
REMARK 924 INTRA-LIGAND FREE ENERGY PREDICTED BY IDOCK:   -0.48 KCAL/MOL
REMARK 927      BINDING AFFINITY PREDICTED BY RF-SCORE:    0.00 PKD
ROOT
HETATM    1 FE   UNL     1      -6.184  11.222  64.748  1.00  0.00    -0.349 Fe 
HETATM    2  C   UNL     2      -8.028   5.540  67.989  1.00  0.00    -0.096 C  
HETATM    3  C   UNL     3     -10.480  14.695  67.910  1.00  0.00    -0.242 C  
HETATM    4  H   UNL     3      -9.745  14.922  69.700  1.00  0.00     0.000 HD 
HETATM    5  H   UNL     2      -6.330   6.468  68.387  1.00  0.00     0.000 HD 
HETATM    6  O   UNL     2      -6.600   5.642  68.004  1.00  0.00    -0.049 OA 
HETATM    7  O   UNL     3     -10.484  14.450  69.334  1.00  0.00    -0.190 OA 
ENDROOT
BRANCH   2   8
HETATM    8  C   UNL     2      -8.464   4.209  67.370  1.00  0.00    -0.099 C  
HETATM    9  H   UNL     2      -8.103   2.278  67.634  1.00  0.00     0.000 HD 
HETATM   10  O   UNL     2      -7.832   3.103  68.017  1.00  0.00    -0.066 OA 
ENDBRANCH   2   8
BRANCH   2  11
HETATM   11  C   UNL     2      -8.629   6.754  67.254  1.00  0.00    -0.120 C  
HETATM   12  H   UNL     2      -9.353   7.165  65.452  1.00  0.00     0.000 HD 
HETATM   13  O   UNL     2      -8.982   6.417  65.905  1.00  0.00    -0.154 OA 
BRANCH  11  14
HETATM   14  C   UNL     2      -9.873   7.260  68.004  1.00  0.00    -0.145 C  
HETATM   15  H   UNL     2     -11.478   8.321  67.551  1.00  0.00     0.000 HD 
HETATM   16  O   UNL     2     -10.709   8.008  67.087  1.00  0.00    -0.322 OA 
BRANCH  14  17
HETATM   17  C   UNL     2      -9.576   8.160  69.199  1.00  0.00    -0.157 C  
HETATM   18  C   UNL     2      -9.111   9.561  68.759  1.00  0.00    -0.133 C  
HETATM   19  H   UNL     2      -8.329   8.101  70.722  1.00  0.00     0.000 HD 
HETATM   20  O   UNL     2      -8.514   7.541  69.978  1.00  0.00    -0.134 OA 
HETATM   21  O   UNL     2      -7.862   9.663  68.424  1.00  0.00    -0.085 OA 
HETATM   22  O   UNL     2      -9.761  10.567  69.028  1.00  0.00    -0.192 OA 
ENDBRANCH  14  17
ENDBRANCH  11  14
ENDBRANCH   2  11
BRANCH   3  23
HETATM   23  C   UNL     3      -9.106  14.267  67.405  1.00  0.00    -0.196 C  
HETATM   24  O   UNL     3      -9.227  13.954  66.012  1.00  0.00    -0.494 OA 
HETATM   25  H   UNL     3      -8.371  13.687  65.698  1.00  0.00     0.000 HD 
BRANCH  23  26
HETATM   26  C   UNL     3      -7.922  15.246  67.575  1.00  0.00    -0.176 C  
HETATM   27  O   UNL     3      -6.810  14.820  66.769  1.00  0.00    -0.181 OA 
HETATM   28  H   UNL     3      -6.082  15.422  66.874  1.00  0.00     0.000 HD 
BRANCH  26  29
HETATM   29  C   UNL     3      -7.501  15.238  69.063  1.00  0.00    -0.163 C  
HETATM   30  C   UNL     3      -6.051  15.677  69.382  1.00  0.00    -0.131 C  
HETATM   31  O   UNL     3      -7.697  13.899  69.637  1.00  0.00    -0.279 OA 
HETATM   32  O   UNL     3      -5.591  16.708  68.861  1.00  0.00    -0.130 OA 
HETATM   33  O   UNL     3      -5.495  14.849  70.225  1.00  0.00    -0.111 OA 
HETATM   34  H   UNL     3      -7.438  13.894  70.552  1.00  0.00     0.000 HD 
ENDBRANCH  26  29
ENDBRANCH  23  26
ENDBRANCH   3  23
BRANCH   3  35
HETATM   35  C   UNL     3     -11.669  13.936  67.321  1.00  0.00    -0.386 C  
HETATM   36  O   UNL     3     -12.715  13.951  68.297  1.00  0.00    -0.160 OA 
HETATM   37  H   UNL     3     -13.454  13.480  67.931  1.00  0.00     0.000 HD 
ENDBRANCH   3  35
TORSDOF 8
ENDMDL
MODEL      289
REMARK 921   NORMALIZED FREE ENERGY PREDICTED BY IDOCK:   -2.22 KCAL/MOL
REMARK 922        TOTAL FREE ENERGY PREDICTED BY IDOCK:   -5.35 KCAL/MOL
REMARK 923 INTER-LIGAND FREE ENERGY PREDICTED BY IDOCK:   -5.02 KCAL/MOL
REMARK 924 INTRA-LIGAND FREE ENERGY PREDICTED BY IDOCK:   -0.33 KCAL/MOL
REMARK 927      BINDING AFFINITY PREDICTED BY RF-SCORE:    0.00 PKD
ROOT
HETATM    1 FE   UNL     1     -13.101  10.558  68.285  1.00  0.00     0.064 Fe 
HETATM    2  C   UNL     2      -9.721  16.433  67.778  1.00  0.00    -0.235 C  
HETATM    3  C   UNL     3      -8.403   7.878  71.640  1.00  0.00    -0.116 C  
HETATM    4  H   UNL     3      -8.538   8.647  73.425  1.00  0.00     0.000 HD 
HETATM    5  H   UNL     2     -11.286  16.225  68.966  1.00  0.00     0.000 HD 
HETATM    6  O   UNL     2     -11.069  16.704  68.175  1.00  0.00    -0.361 OA 
HETATM    7  O   UNL     3      -7.912   8.712  72.713  1.00  0.00    -0.370 OA 
ENDROOT
BRANCH   2   8
HETATM    8  C   UNL     2      -9.372  17.204  66.503  1.00  0.00    -0.265 C  
HETATM    9  H   UNL     2      -8.978  19.075  65.978  1.00  0.00     0.000 HD 
HETATM   10  O   UNL     2      -9.195  18.596  66.770  1.00  0.00    -0.288 OA 
ENDBRANCH   2   8
BRANCH   2  11
HETATM   11  C   UNL     2      -9.521  14.913  67.618  1.00  0.00    -0.199 C  
HETATM   12  H   UNL     2      -8.017  13.658  67.299  1.00  0.00     0.000 HD 
HETATM   13  O   UNL     2      -8.140  14.594  67.397  1.00  0.00    -0.170 OA 
BRANCH  11  14
HETATM   14  C   UNL     2     -10.027  14.180  68.873  1.00  0.00    -0.127 C  
HETATM   15  H   UNL     2      -9.251  12.964  70.224  1.00  0.00     0.000 HD 
HETATM   16  O   UNL     2      -8.939  13.417  69.449  1.00  0.00     0.676 OA 
BRANCH  14  17
HETATM   17  C   UNL     2     -11.186  13.219  68.627  1.00  0.00    -0.274 C  
HETATM   18  C   UNL     2     -10.712  11.903  67.984  1.00  0.00    -0.209 C  
HETATM   19  H   UNL     2     -12.847  13.268  67.570  1.00  0.00     0.000 HD 
HETATM   20  O   UNL     2     -12.125  13.866  67.723  1.00  0.00    -0.371 OA 
HETATM   21  O   UNL     2     -10.522  11.936  66.702  1.00  0.00    -0.207 OA 
HETATM   22  O   UNL     2     -10.834  10.826  68.562  1.00  0.00    -0.196 OA 
ENDBRANCH  14  17
ENDBRANCH  11  14
ENDBRANCH   2  11
BRANCH   3  23
HETATM   23  C   UNL     3      -9.813   8.366  71.328  1.00  0.00    -0.198 C  
HETATM   24  O   UNL     3      -9.770   9.795  71.218  1.00  0.00    -0.264 OA 
HETATM   25  H   UNL     3     -10.649  10.099  71.024  1.00  0.00     0.000 HD 
BRANCH  23  26
HETATM   26  C   UNL     3     -10.525   7.810  70.073  1.00  0.00    -0.230 C  
HETATM   27  O   UNL     3     -11.858   8.339  69.986  1.00  0.00    -0.412 OA 
HETATM   28  H   UNL     3     -12.295   7.998  69.214  1.00  0.00     0.000 HD 
BRANCH  26  29
HETATM   29  C   UNL     3     -10.598   6.272  70.205  1.00  0.00    -0.248 C  
HETATM   30  C   UNL     3     -10.936   5.705  71.606  1.00  0.00    -0.211 C  
HETATM   31  O   UNL     3      -9.331   5.665  69.774  1.00  0.00    -0.137 OA 
HETATM   32  O   UNL     3     -11.879   6.190  72.255  1.00  0.00    -0.319 OA 
HETATM   33  O   UNL     3     -10.132   4.721  71.910  1.00  0.00    -0.186 OA 
HETATM   34  H   UNL     3      -9.376   4.719  69.855  1.00  0.00     0.000 HD 
ENDBRANCH  26  29
ENDBRANCH  23  26
ENDBRANCH   3  23
BRANCH   3  35
HETATM   35  C   UNL     3      -7.396   7.982  70.495  1.00  0.00    -0.060 C  
HETATM   36  O   UNL     3      -8.131   8.263  69.299  1.00  0.00    -0.112 OA 
HETATM   37  H   UNL     3      -7.505   8.328  68.587  1.00  0.00     0.000 HD 
ENDBRANCH   3  35
TORSDOF 8
ENDMDL
MODEL      290
REMARK 921   NORMALIZED FREE ENERGY PREDICTED BY IDOCK:   -2.19 KCAL/MOL
REMARK 922        TOTAL FREE ENERGY PREDICTED BY IDOCK:   -5.32 KCAL/MOL
REMARK 923 INTER-LIGAND FREE ENERGY PREDICTED BY IDOCK:   -4.23 KCAL/MOL
REMARK 924 INTRA-LIGAND FREE ENERGY PREDICTED BY IDOCK:   -1.09 KCAL/MOL
REMARK 927      BINDING AFFINITY PREDICTED BY RF-SCORE:    0.00 PKD
ROOT
HETATM    1 FE   UNL     1      -5.545   7.359  68.907  1.00  0.00    -0.016 Fe 
HETATM    2  C   UNL     2     -11.323  10.826  68.024  1.00  0.00    -0.307 C  
HETATM    3  C   UNL     3      -8.689   1.909  69.864  1.00  0.00    -0.058 C  
HETATM    4  H   UNL     3      -9.303   1.350  68.102  1.00  0.00     0.000 HD 
HETATM    5  H   UNL     2     -10.125  10.386  66.515  1.00  0.00     0.000 HD 
HETATM    6  O   UNL     2     -10.410  11.167  66.975  1.00  0.00    -0.206 OA 
HETATM    7  O   UNL     3      -9.729   1.664  68.891  1.00  0.00    -0.111 OA 
ENDROOT
BRANCH   2   8
HETATM    8  C   UNL     2     -11.782  12.085  68.765  1.00  0.00    -0.321 C  
HETATM    9  H   UNL     2     -12.225  13.967  68.330  1.00  0.00     0.000 HD 
HETATM   10  O   UNL     2     -11.939  13.187  67.870  1.00  0.00    -0.349 OA 
ENDBRANCH   2   8
BRANCH   2  11
HETATM   11  C   UNL     2     -10.672   9.795  68.966  1.00  0.00    -0.217 C  
HETATM   12  H   UNL     2      -8.995   9.620  70.014  1.00  0.00     0.000 HD 
HETATM   13  O   UNL     2      -9.396  10.256  69.433  1.00  0.00    -0.204 OA 
BRANCH  11  14
HETATM   14  C   UNL     2     -11.595   9.520  70.166  1.00  0.00    -0.111 C  
HETATM   15  H   UNL     2     -11.702  10.115  72.047  1.00  0.00     0.000 HD 
HETATM   16  O   UNL     2     -11.132  10.285  71.306  1.00  0.00    -0.149 OA 
BRANCH  14  17
HETATM   17  C   UNL     2     -11.672   8.057  70.590  1.00  0.00    -0.150 C  
HETATM   18  C   UNL     2     -12.677   7.846  71.737  1.00  0.00    -0.329 C  
HETATM   19  H   UNL     2     -10.400   6.738  71.311  1.00  0.00     0.000 HD 
HETATM   20  O   UNL     2     -10.352   7.649  71.047  1.00  0.00    -0.202 OA 
HETATM   21  O   UNL     2     -12.244   8.125  72.927  1.00  0.00    -0.234 OA 
HETATM   22  O   UNL     2     -13.679   7.151  71.593  1.00  0.00    -0.376 OA 
ENDBRANCH  14  17
ENDBRANCH  11  14
ENDBRANCH   2  11
BRANCH   3  23
HETATM   23  C   UNL     3      -7.709   2.876  69.211  1.00  0.00    -0.046 C  
HETATM   24  O   UNL     3      -6.455   2.198  69.062  1.00  0.00    -0.028 OA 
HETATM   25  H   UNL     3      -5.844   2.801  68.655  1.00  0.00     0.000 HD 
BRANCH  23  26
HETATM   26  C   UNL     3      -8.084   3.495  67.845  1.00  0.00    -0.079 C  
HETATM   27  O   UNL     3      -6.990   3.359  66.923  1.00  0.00    -0.052 OA 
HETATM   28  H   UNL     3      -7.221   3.739  66.084  1.00  0.00     0.000 HD 
BRANCH  26  29
HETATM   29  C   UNL     3      -8.378   4.997  68.063  1.00  0.00    -0.100 C  
HETATM   30  C   UNL     3      -7.883   5.973  66.966  1.00  0.00    -0.102 C  
HETATM   31  O   UNL     3      -7.813   5.444  69.344  1.00  0.00    -0.086 OA 
HETATM   32  O   UNL     3      -8.093   5.712  65.769  1.00  0.00    -0.105 OA 
HETATM   33  O   UNL     3      -7.291   7.006  67.504  1.00  0.00    -0.087 OA 
HETATM   34  H   UNL     3      -7.994   6.367  69.478  1.00  0.00     0.000 HD 
ENDBRANCH  26  29
ENDBRANCH  23  26
ENDBRANCH   3  23
BRANCH   3  35
HETATM   35  C   UNL     3      -9.375   2.416  71.133  1.00  0.00    -0.140 C  
HETATM   36  O   UNL     3      -8.846   1.671  72.235  1.00  0.00    -0.065 OA 
HETATM   37  H   UNL     3      -9.272   1.986  73.024  1.00  0.00     0.000 HD 
ENDBRANCH   3  35
TORSDOF 8
ENDMDL
MODEL      291
REMARK 921   NORMALIZED FREE ENERGY PREDICTED BY IDOCK:   -2.17 KCAL/MOL
REMARK 922        TOTAL FREE ENERGY PREDICTED BY IDOCK:   -5.29 KCAL/MOL
REMARK 923 INTER-LIGAND FREE ENERGY PREDICTED BY IDOCK:   -5.89 KCAL/MOL
REMARK 924 INTRA-LIGAND FREE ENERGY PREDICTED BY IDOCK:    0.61 KCAL/MOL
REMARK 927      BINDING AFFINITY PREDICTED BY RF-SCORE:    0.00 PKD
ROOT
HETATM    1 FE   UNL     1      -9.944  17.280  65.257  1.00  0.00    -0.197 Fe 
HETATM    2  C   UNL     2      -6.400  19.141  70.749  1.00  0.00     0.348 C  
HETATM    3  C   UNL     3      -9.228  11.100  66.602  1.00  0.00    -0.175 C  
HETATM    4  H   UNL     3     -10.445  10.749  68.083  1.00  0.00     0.000 HD 
HETATM    5  H   UNL     2      -8.362  19.347  70.650  1.00  0.00     0.000 HD 
HETATM    6  O   UNL     2      -7.601  19.915  70.686  1.00  0.00     0.595 OA 
HETATM    7  O   UNL     3      -9.500  10.775  67.984  1.00  0.00    -0.154 OA 
ENDROOT
BRANCH   2   8
HETATM    8  C   UNL     2      -5.174  20.056  70.805  1.00  0.00    -0.241 C  
HETATM    9  H   UNL     2      -4.663  21.777  71.646  1.00  0.00     0.000 HD 
HETATM   10  O   UNL     2      -5.424  21.209  71.611  1.00  0.00    -0.461 OA 
ENDBRANCH   2   8
BRANCH   2  11
HETATM   11  C   UNL     2      -6.347  18.163  69.558  1.00  0.00    -0.220 C  
HETATM   12  H   UNL     2      -7.579  16.907  68.638  1.00  0.00     0.000 HD 
HETATM   13  O   UNL     2      -7.611  17.509  69.372  1.00  0.00    -0.043 OA 
BRANCH  11  14
HETATM   14  C   UNL     2      -5.960  18.917  68.274  1.00  0.00    -0.210 C  
HETATM   15  H   UNL     2      -5.263  20.711  67.829  1.00  0.00     0.000 HD 
HETATM   16  O   UNL     2      -5.502  20.246  68.622  1.00  0.00    -0.221 OA 
BRANCH  14  17
HETATM   17  C   UNL     2      -7.087  19.067  67.258  1.00  0.00    -0.207 C  
HETATM   18  C   UNL     2      -6.550  19.163  65.817  1.00  0.00    -0.249 C  
HETATM   19  H   UNL     2      -8.515  20.384  66.932  1.00  0.00     0.000 HD 
HETATM   20  O   UNL     2      -7.813  20.290  67.565  1.00  0.00    -0.295 OA 
HETATM   21  O   UNL     2      -6.120  20.329  65.450  1.00  0.00    -0.192 OA 
HETATM   22  O   UNL     2      -6.820  18.312  64.974  1.00  0.00    -0.397 OA 
ENDBRANCH  14  17
ENDBRANCH  11  14
ENDBRANCH   2  11
BRANCH   3  23
HETATM   23  C   UNL     3      -9.960  12.406  66.316  1.00  0.00    -0.246 C  
HETATM   24  O   UNL     3      -9.553  13.364  67.301  1.00  0.00    -0.221 OA 
HETATM   25  H   UNL     3     -10.009  14.178  67.123  1.00  0.00     0.000 HD 
BRANCH  23  26
HETATM   26  C   UNL     3      -9.795  13.053  64.922  1.00  0.00    -0.025 C  
HETATM   27  O   UNL     3      -9.587  14.469  65.056  1.00  0.00    -0.438 OA 
HETATM   28  H   UNL     3      -9.486  14.866  64.198  1.00  0.00     0.000 HD 
BRANCH  26  29
HETATM   29  C   UNL     3     -11.094  12.805  64.121  1.00  0.00    -0.389 C  
HETATM   30  C   UNL     3     -12.417  13.288  64.767  1.00  0.00    -0.383 C  
HETATM   31  O   UNL     3     -11.242  11.374  63.824  1.00  0.00    -0.477 OA 
HETATM   32  O   UNL     3     -12.481  14.429  65.258  1.00  0.00    -0.412 OA 
HETATM   33  O   UNL     3     -13.336  12.365  64.677  1.00  0.00    -0.778 OA 
HETATM   34  H   UNL     3     -12.040  11.222  63.331  1.00  0.00     0.000 HD 
ENDBRANCH  26  29
ENDBRANCH  23  26
ENDBRANCH   3  23
BRANCH   3  35
HETATM   35  C   UNL     3      -7.708  11.143  66.444  1.00  0.00    -0.124 C  
HETATM   36  O   UNL     3      -7.140  11.215  67.755  1.00  0.00    -0.082 OA 
HETATM   37  H   UNL     3      -6.196  11.241  67.657  1.00  0.00     0.000 HD 
ENDBRANCH   3  35
TORSDOF 8
ENDMDL
MODEL      292
REMARK 921   NORMALIZED FREE ENERGY PREDICTED BY IDOCK:   -2.09 KCAL/MOL
REMARK 922        TOTAL FREE ENERGY PREDICTED BY IDOCK:   -5.17 KCAL/MOL
REMARK 923 INTER-LIGAND FREE ENERGY PREDICTED BY IDOCK:   -5.24 KCAL/MOL
REMARK 924 INTRA-LIGAND FREE ENERGY PREDICTED BY IDOCK:    0.07 KCAL/MOL
REMARK 927      BINDING AFFINITY PREDICTED BY RF-SCORE:    0.00 PKD
ROOT
HETATM    1 FE   UNL     1      -7.179   8.799  67.082  1.00  0.00    -0.069 Fe 
HETATM    2  C   UNL     2      -9.888   5.626  72.447  1.00  0.00    -0.164 C  
HETATM    3  C   UNL     3     -10.441  14.128  68.294  1.00  0.00    -0.249 C  
HETATM    4  H   UNL     3      -9.546  14.947  69.819  1.00  0.00     0.000 HD 
HETATM    5  H   UNL     2      -8.013   6.248  72.436  1.00  0.00     0.000 HD 
HETATM    6  O   UNL     2      -8.472   5.417  72.449  1.00  0.00    -0.118 OA 
HETATM    7  O   UNL     3     -10.391  14.533  69.681  1.00  0.00    -0.090 OA 
ENDROOT
BRANCH   2   8
HETATM    8  C   UNL     2     -10.628   4.286  72.467  1.00  0.00    -0.110 C  
HETATM    9  H   UNL     2     -12.343   3.564  73.150  1.00  0.00     0.000 HD 
HETATM   10  O   UNL     2     -11.884   4.395  73.139  1.00  0.00    -0.133 OA 
ENDBRANCH   2   8
BRANCH   2  11
HETATM   11  C   UNL     2     -10.284   6.498  71.240  1.00  0.00    -0.198 C  
HETATM   12  H   UNL     2      -9.619   8.133  70.331  1.00  0.00     0.000 HD 
HETATM   13  O   UNL     2      -9.375   7.596  71.075  1.00  0.00    -0.152 OA 
BRANCH  11  14
HETATM   14  C   UNL     2     -10.305   5.646  69.959  1.00  0.00    -0.275 C  
HETATM   15  H   UNL     2      -9.347   4.053  69.290  1.00  0.00     0.000 HD 
HETATM   16  O   UNL     2      -9.334   4.579  70.082  1.00  0.00    -0.118 OA 
BRANCH  14  17
HETATM   17  C   UNL     2      -9.990   6.413  68.678  1.00  0.00    -0.146 C  
HETATM   18  C   UNL     2     -10.767   5.854  67.471  1.00  0.00    -0.276 C  
HETATM   19  H   UNL     2      -8.369   6.762  67.615  1.00  0.00     0.000 HD 
HETATM   20  O   UNL     2      -8.565   6.284  68.413  1.00  0.00    -0.114 OA 
HETATM   21  O   UNL     2     -10.263   4.797  66.914  1.00  0.00    -0.216 OA 
HETATM   22  O   UNL     2     -11.593   6.535  66.869  1.00  0.00    -0.019 OA 
ENDBRANCH  14  17
ENDBRANCH  11  14
ENDBRANCH   2  11
BRANCH   3  23
HETATM   23  C   UNL     3      -9.223  13.241  68.061  1.00  0.00    -0.217 C  
HETATM   24  O   UNL     3      -9.458  11.989  68.718  1.00  0.00    -0.375 OA 
HETATM   25  H   UNL     3      -8.699  11.437  68.573  1.00  0.00     0.000 HD 
BRANCH  23  26
HETATM   26  C   UNL     3      -8.795  12.946  66.606  1.00  0.00    -0.091 C  
HETATM   27  O   UNL     3      -9.497  13.812  65.699  1.00  0.00    -0.504 OA 
HETATM   28  H   UNL     3      -9.234  13.631  64.804  1.00  0.00     0.000 HD 
BRANCH  26  29
HETATM   29  C   UNL     3      -9.158  11.478  66.286  1.00  0.00    -0.208 C  
HETATM   30  C   UNL     3      -8.162  10.688  65.401  1.00  0.00    -0.125 C  
HETATM   31  O   UNL     3     -10.476  11.410  65.641  1.00  0.00    -0.249 OA 
HETATM   32  O   UNL     3      -6.945  10.736  65.650  1.00  0.00    -0.113 OA 
HETATM   33  O   UNL     3      -8.798  10.029  64.469  1.00  0.00    -0.171 OA 
HETATM   34  H   UNL     3     -10.699  10.507  65.445  1.00  0.00     0.000 HD 
ENDBRANCH  26  29
ENDBRANCH  23  26
ENDBRANCH   3  23
BRANCH   3  35
HETATM   35  C   UNL     3     -11.799  13.462  68.072  1.00  0.00    -0.357 C  
HETATM   36  O   UNL     3     -12.657  13.864  69.144  1.00  0.00    -0.380 OA 
HETATM   37  H   UNL     3     -13.501  13.451  69.006  1.00  0.00     0.000 HD 
ENDBRANCH   3  35
TORSDOF 8
ENDMDL
MODEL      293
REMARK 921   NORMALIZED FREE ENERGY PREDICTED BY IDOCK:   -1.85 KCAL/MOL
REMARK 922        TOTAL FREE ENERGY PREDICTED BY IDOCK:   -4.81 KCAL/MOL
REMARK 923 INTER-LIGAND FREE ENERGY PREDICTED BY IDOCK:   -5.09 KCAL/MOL
REMARK 924 INTRA-LIGAND FREE ENERGY PREDICTED BY IDOCK:    0.28 KCAL/MOL
REMARK 927      BINDING AFFINITY PREDICTED BY RF-SCORE:    0.00 PKD
ROOT
HETATM    1 FE   UNL     1      -5.508  11.456  64.982  1.00  0.00    -0.209 Fe 
HETATM    2  C   UNL     2     -12.120  13.028  65.040  1.00  0.00    -0.427 C  
HETATM    3  C   UNL     3      -6.078   7.868  70.208  1.00  0.00    -0.032 C  
HETATM    4  H   UNL     3      -6.951   6.229  69.617  1.00  0.00     0.000 HD 
HETATM    5  H   UNL     2     -11.354  11.771  63.722  1.00  0.00     0.000 HD 
HETATM    6  O   UNL     2     -11.746  12.637  63.716  1.00  0.00    -0.409 OA 
HETATM    7  O   UNL     3      -7.204   6.963  70.166  1.00  0.00    -0.072 OA 
ENDROOT
BRANCH   2   8
HETATM    8  C   UNL     2     -12.750  14.423  65.029  1.00  0.00    -0.220 C  
HETATM    9  H   UNL     2     -13.042  15.894  63.733  1.00  0.00     0.000 HD 
HETATM   10  O   UNL     2     -12.651  15.028  63.739  1.00  0.00    -0.776 OA 
ENDBRANCH   2   8
BRANCH   2  11
HETATM   11  C   UNL     2     -10.896  12.945  65.973  1.00  0.00    -0.279 C  
HETATM   12  H   UNL     2      -8.920  12.869  65.795  1.00  0.00     0.000 HD 
HETATM   13  O   UNL     2      -9.674  12.920  65.220  1.00  0.00    -0.136 OA 
BRANCH  11  14
HETATM   14  C   UNL     2     -10.886  14.143  66.938  1.00  0.00    -0.296 C  
HETATM   15  H   UNL     2      -9.527  15.104  68.003  1.00  0.00     0.000 HD 
HETATM   16  O   UNL     2      -9.533  14.364  67.407  1.00  0.00    -0.198 OA 
BRANCH  14  17
HETATM   17  C   UNL     2     -11.780  13.983  68.163  1.00  0.00    -0.352 C  
HETATM   18  C   UNL     2     -11.628  15.163  69.141  1.00  0.00    -0.323 C  
HETATM   19  H   UNL     2     -11.950  12.659  69.611  1.00  0.00     0.000 HD 
HETATM   20  O   UNL     2     -11.393  12.759  68.848  1.00  0.00    -0.260 OA 
HETATM   21  O   UNL     2     -10.603  15.112  69.934  1.00  0.00    -0.255 OA 
HETATM   22  O   UNL     2     -12.568  15.911  69.396  1.00  0.00    -0.001 OA 
ENDBRANCH  14  17
ENDBRANCH  11  14
ENDBRANCH   2  11
BRANCH   3  23
HETATM   23  C   UNL     3      -5.747   8.209  68.759  1.00  0.00    -0.036 C  
HETATM   24  O   UNL     3      -6.387   7.237  67.922  1.00  0.00    -0.044 OA 
HETATM   25  H   UNL     3      -6.180   7.449  67.019  1.00  0.00     0.000 HD 
BRANCH  23  26
HETATM   26  C   UNL     3      -6.115   9.614  68.230  1.00  0.00    -0.051 C  
HETATM   27  O   UNL     3      -7.361  10.045  68.802  1.00  0.00    -0.074 OA 
HETATM   28  H   UNL     3      -7.588  10.909  68.477  1.00  0.00     0.000 HD 
BRANCH  26  29
HETATM   29  C   UNL     3      -6.267   9.524  66.694  1.00  0.00    -0.065 C  
HETATM   30  C   UNL     3      -7.593   8.932  66.156  1.00  0.00    -0.091 C  
HETATM   31  O   UNL     3      -5.164   8.740  66.121  1.00  0.00    -0.030 OA 
HETATM   32  O   UNL     3      -8.676   9.321  66.625  1.00  0.00    -0.125 OA 
HETATM   33  O   UNL     3      -7.357   8.063  65.209  1.00  0.00    -0.066 OA 
HETATM   34  H   UNL     3      -5.257   8.686  65.177  1.00  0.00     0.000 HD 
ENDBRANCH  26  29
ENDBRANCH  23  26
ENDBRANCH   3  23
BRANCH   3  35
HETATM   35  C   UNL     3      -6.485   9.048  71.091  1.00  0.00    -0.079 C  
HETATM   36  O   UNL     3      -7.885   8.921  71.360  1.00  0.00    -0.186 OA 
HETATM   37  H   UNL     3      -8.138   9.654  71.909  1.00  0.00     0.000 HD 
ENDBRANCH   3  35
TORSDOF 8
ENDMDL
MODEL      294
REMARK 921   NORMALIZED FREE ENERGY PREDICTED BY IDOCK:   -1.68 KCAL/MOL
REMARK 922        TOTAL FREE ENERGY PREDICTED BY IDOCK:   -4.57 KCAL/MOL
REMARK 923 INTER-LIGAND FREE ENERGY PREDICTED BY IDOCK:   -4.06 KCAL/MOL
REMARK 924 INTRA-LIGAND FREE ENERGY PREDICTED BY IDOCK:   -0.51 KCAL/MOL
REMARK 927      BINDING AFFINITY PREDICTED BY RF-SCORE:    0.00 PKD
ROOT
HETATM    1 FE   UNL     1      -5.422   8.764  68.018  1.00  0.00    -0.030 Fe 
HETATM    2  C   UNL     2      -8.957   5.357  72.717  1.00  0.00    -0.121 C  
HETATM    3  C   UNL     3     -10.389  12.504  66.658  1.00  0.00    -0.227 C  
HETATM    4  H   UNL     3     -10.515  13.757  68.144  1.00  0.00     0.000 HD 
HETATM    5  H   UNL     2      -7.548   6.654  73.203  1.00  0.00     0.000 HD 
HETATM    6  O   UNL     2      -7.683   5.715  73.262  1.00  0.00    -0.098 OA 
HETATM    7  O   UNL     3     -11.048  13.037  67.829  1.00  0.00    -0.245 OA 
ENDROOT
BRANCH   2   8
HETATM    8  C   UNL     2      -9.175   3.845  72.811  1.00  0.00    -0.111 C  
HETATM    9  H   UNL     2      -9.080   2.270  71.611  1.00  0.00     0.000 HD 
HETATM   10  O   UNL     2      -8.946   3.208  71.553  1.00  0.00    -0.084 OA 
ENDBRANCH   2   8
BRANCH   2  11
HETATM   11  C   UNL     2      -9.070   5.878  71.271  1.00  0.00    -0.140 C  
HETATM   12  H   UNL     2     -10.173   5.509  69.662  1.00  0.00     0.000 HD 
HETATM   13  O   UNL     2     -10.103   5.188  70.553  1.00  0.00    -0.220 OA 
BRANCH  11  14
HETATM   14  C   UNL     2      -9.365   7.388  71.277  1.00  0.00    -0.153 C  
HETATM   15  H   UNL     2      -9.100   8.889  72.535  1.00  0.00     0.000 HD 
HETATM   16  O   UNL     2      -8.917   7.956  72.532  1.00  0.00    -0.140 OA 
BRANCH  14  17
HETATM   17  C   UNL     2     -10.836   7.752  71.103  1.00  0.00    -0.235 C  
HETATM   18  C   UNL     2     -11.011   9.132  70.442  1.00  0.00    -0.248 C  
HETATM   19  H   UNL     2     -12.368   8.013  72.314  1.00  0.00     0.000 HD 
HETATM   20  O   UNL     2     -11.451   7.787  72.421  1.00  0.00    -0.314 OA 
HETATM   21  O   UNL     2     -10.894  10.155  71.229  1.00  0.00    -0.097 OA 
HETATM   22  O   UNL     2     -11.554   9.255  69.348  1.00  0.00     0.166 OA 
ENDBRANCH  14  17
ENDBRANCH  11  14
ENDBRANCH   2  11
BRANCH   3  23
HETATM   23  C   UNL     3      -8.973  12.141  67.090  1.00  0.00    -0.189 C  
HETATM   24  O   UNL     3      -8.230  11.790  65.915  1.00  0.00    -0.369 OA 
HETATM   25  H   UNL     3      -7.348  11.563  66.185  1.00  0.00     0.000 HD 
BRANCH  23  26
HETATM   26  C   UNL     3      -8.153  13.186  67.881  1.00  0.00    -0.159 C  
HETATM   27  O   UNL     3      -7.082  13.691  67.067  1.00  0.00    -0.381 OA 
HETATM   28  H   UNL     3      -6.578  14.334  67.553  1.00  0.00     0.000 HD 
BRANCH  26  29
HETATM   29  C   UNL     3      -7.558  12.488  69.125  1.00  0.00     0.243 C  
HETATM   30  C   UNL     3      -6.013  12.445  69.231  1.00  0.00    -0.092 C  
HETATM   31  O   UNL     3      -8.049  11.106  69.215  1.00  0.00    -0.344 OA 
HETATM   32  O   UNL     3      -5.352  13.476  69.018  1.00  0.00    -0.069 OA 
HETATM   33  O   UNL     3      -5.609  11.249  69.569  1.00  0.00    -0.051 OA 
HETATM   34  H   UNL     3      -7.683  10.677  69.980  1.00  0.00     0.000 HD 
ENDBRANCH  26  29
ENDBRANCH  23  26
ENDBRANCH   3  23
BRANCH   3  35
HETATM   35  C   UNL     3     -11.246  11.344  66.151  1.00  0.00    -0.137 C  
HETATM   36  O   UNL     3     -10.624  10.129  66.580  1.00  0.00    -0.212 OA 
HETATM   37  H   UNL     3     -11.157   9.408  66.265  1.00  0.00     0.000 HD 
ENDBRANCH   3  35
TORSDOF 8
ENDMDL
MODEL      295
REMARK 921   NORMALIZED FREE ENERGY PREDICTED BY IDOCK:   -1.61 KCAL/MOL
REMARK 922        TOTAL FREE ENERGY PREDICTED BY IDOCK:   -4.46 KCAL/MOL
REMARK 923 INTER-LIGAND FREE ENERGY PREDICTED BY IDOCK:   -3.81 KCAL/MOL
REMARK 924 INTRA-LIGAND FREE ENERGY PREDICTED BY IDOCK:   -0.65 KCAL/MOL
REMARK 927      BINDING AFFINITY PREDICTED BY RF-SCORE:    0.00 PKD
ROOT
HETATM    1 FE   UNL     1      -7.975  17.142  71.080  1.00  0.00     2.515 Fe 
HETATM    2  C   UNL     2     -11.296  11.956  68.206  1.00  0.00    -0.277 C  
HETATM    3  C   UNL     3      -6.732  19.783  65.424  1.00  0.00    -0.293 C  
HETATM    4  H   UNL     3      -8.414  20.574  64.841  1.00  0.00     0.000 HD 
HETATM    5  H   UNL     2     -12.241  13.399  69.169  1.00  0.00     0.000 HD 
HETATM    6  O   UNL     2     -12.081  12.470  69.286  1.00  0.00    -0.256 OA 
HETATM    7  O   UNL     3      -7.881  19.843  64.550  1.00  0.00     0.720 OA 
ENDROOT
BRANCH   2   8
HETATM    8  C   UNL     2     -11.038  10.459  68.395  1.00  0.00    -0.268 C  
HETATM    9  H   UNL     2      -9.960   9.292  69.581  1.00  0.00     0.000 HD 
HETATM   10  O   UNL     2     -10.120  10.221  69.463  1.00  0.00    -0.221 OA 
ENDBRANCH   2   8
BRANCH   2  11
HETATM   11  C   UNL     2      -9.991  12.765  68.079  1.00  0.00    -0.225 C  
HETATM   12  H   UNL     2      -8.200  12.539  67.253  1.00  0.00     0.000 HD 
HETATM   13  O   UNL     2      -9.004  12.040  67.332  1.00  0.00    -0.165 OA 
BRANCH  11  14
HETATM   14  C   UNL     2     -10.272  14.114  67.393  1.00  0.00    -0.244 C  
HETATM   15  H   UNL     2     -11.860  15.047  66.678  1.00  0.00     0.000 HD 
HETATM   16  O   UNL     2     -11.687  14.214  67.102  1.00  0.00    -0.361 OA 
BRANCH  14  17
HETATM   17  C   UNL     2      -9.514  14.336  66.088  1.00  0.00    -0.222 C  
HETATM   18  C   UNL     2      -9.550  15.811  65.649  1.00  0.00    -0.264 C  
HETATM   19  H   UNL     2      -9.673  13.666  64.243  1.00  0.00     0.000 HD 
HETATM   20  O   UNL     2     -10.145  13.528  65.056  1.00  0.00    -0.316 OA 
HETATM   21  O   UNL     2     -10.629  16.194  65.040  1.00  0.00    -0.588 OA 
HETATM   22  O   UNL     2      -8.525  16.482  65.567  1.00  0.00    -0.118 OA 
ENDBRANCH  14  17
ENDBRANCH  11  14
ENDBRANCH   2  11
BRANCH   3  23
HETATM   23  C   UNL     3      -7.277  19.680  66.844  1.00  0.00    -0.216 C  
HETATM   24  O   UNL     3      -6.603  20.658  67.646  1.00  0.00    -0.267 OA 
HETATM   25  H   UNL     3      -6.943  20.594  68.531  1.00  0.00     0.000 HD 
BRANCH  23  26
HETATM   26  C   UNL     3      -8.798  19.846  67.062  1.00  0.00    -0.335 C  
HETATM   27  O   UNL     3      -9.124  21.237  67.224  1.00  0.00    -0.522 OA 
HETATM   28  H   UNL     3     -10.060  21.339  67.358  1.00  0.00     0.000 HD 
BRANCH  26  29
HETATM   29  C   UNL     3      -9.185  19.082  68.349  1.00  0.00    -0.352 C  
HETATM   30  C   UNL     3      -8.493  17.717  68.586  1.00  0.00    -0.266 C  
HETATM   31  O   UNL     3     -10.637  18.858  68.389  1.00  0.00    -0.371 OA 
HETATM   32  O   UNL     3      -7.263  17.615  68.436  1.00  0.00    -0.217 OA 
HETATM   33  O   UNL     3      -9.367  16.817  68.952  1.00  0.00    -0.245 OA 
HETATM   34  H   UNL     3     -10.874  18.389  69.180  1.00  0.00     0.000 HD 
ENDBRANCH  26  29
ENDBRANCH  23  26
ENDBRANCH   3  23
BRANCH   3  35
HETATM   35  C   UNL     3      -5.874  18.607  64.955  1.00  0.00    -0.245 C  
HETATM   36  O   UNL     3      -5.823  17.659  66.026  1.00  0.00    -0.195 OA 
HETATM   37  H   UNL     3      -5.290  16.928  65.735  1.00  0.00     0.000 HD 
ENDBRANCH   3  35
TORSDOF 8
ENDMDL
MODEL      296
REMARK 921   NORMALIZED FREE ENERGY PREDICTED BY IDOCK:   -1.26 KCAL/MOL
REMARK 922        TOTAL FREE ENERGY PREDICTED BY IDOCK:   -3.94 KCAL/MOL
REMARK 923 INTER-LIGAND FREE ENERGY PREDICTED BY IDOCK:   -4.88 KCAL/MOL
REMARK 924 INTRA-LIGAND FREE ENERGY PREDICTED BY IDOCK:    0.94 KCAL/MOL
REMARK 927      BINDING AFFINITY PREDICTED BY RF-SCORE:    0.00 PKD
ROOT
HETATM    1 FE   UNL     1      -5.556  13.781  70.508  1.00  0.00    -0.090 Fe 
HETATM    2  C   UNL     2      -9.203  17.081  65.818  1.00  0.00     0.109 C  
HETATM    3  C   UNL     3      -7.516   8.112  68.378  1.00  0.00    -0.100 C  
HETATM    4  H   UNL     3      -6.529   7.811  66.725  1.00  0.00     0.000 HD 
HETATM    5  H   UNL     2      -7.235  16.939  65.705  1.00  0.00     0.000 HD 
HETATM    6  O   UNL     2      -7.879  17.624  65.845  1.00  0.00    -0.523 OA 
HETATM    7  O   UNL     3      -7.439   7.978  66.941  1.00  0.00    -0.088 OA 
ENDROOT
BRANCH   2   8
HETATM    8  C   UNL     2     -10.240  18.184  66.044  1.00  0.00    -0.320 C  
HETATM    9  H   UNL     2     -11.370  19.386  64.946  1.00  0.00     0.000 HD 
HETATM   10  O   UNL     2     -10.726  18.702  64.805  1.00  0.00    -0.022 OA 
ENDBRANCH   2   8
BRANCH   2  11
HETATM   11  C   UNL     2      -9.320  15.943  66.851  1.00  0.00    -0.225 C  
HETATM   12  H   UNL     2      -9.323  15.753  68.827  1.00  0.00     0.000 HD 
HETATM   13  O   UNL     2      -9.250  16.454  68.190  1.00  0.00    -0.196 OA 
BRANCH  11  14
HETATM   14  C   UNL     2     -10.646  15.188  66.654  1.00  0.00    -0.304 C  
HETATM   15  H   UNL     2     -11.452  13.519  67.342  1.00  0.00     0.000 HD 
HETATM   16  O   UNL     2     -10.633  13.986  67.463  1.00  0.00    -0.257 OA 
BRANCH  14  17
HETATM   17  C   UNL     2     -10.937  14.773  65.215  1.00  0.00    -0.374 C  
HETATM   18  C   UNL     2     -12.312  15.278  64.741  1.00  0.00     0.024 C  
HETATM   19  H   UNL     2     -11.110  13.061  64.257  1.00  0.00     0.000 HD 
HETATM   20  O   UNL     2     -10.928  13.319  65.153  1.00  0.00    -0.285 OA 
HETATM   21  O   UNL     2     -13.333  14.567  65.108  1.00  0.00    -0.430 OA 
HETATM   22  O   UNL     2     -12.418  16.076  63.814  1.00  0.00    -0.784 OA 
ENDBRANCH  14  17
ENDBRANCH  11  14
ENDBRANCH   2  11
BRANCH   3  23
HETATM   23  C   UNL     3      -6.533   9.213  68.759  1.00  0.00    -0.049 C  
HETATM   24  O   UNL     3      -5.206   8.691  68.607  1.00  0.00    -0.032 OA 
HETATM   25  H   UNL     3      -4.594   9.378  68.845  1.00  0.00     0.000 HD 
BRANCH  23  26
HETATM   26  C   UNL     3      -6.607  10.560  68.004  1.00  0.00    -0.060 C  
HETATM   27  O   UNL     3      -6.426  11.651  68.922  1.00  0.00    -0.059 OA 
HETATM   28  H   UNL     3      -6.472  12.479  68.458  1.00  0.00     0.000 HD 
BRANCH  26  29
HETATM   29  C   UNL     3      -8.007  10.671  67.356  1.00  0.00    -0.111 C  
HETATM   30  C   UNL     3      -8.056  10.764  65.810  1.00  0.00    -0.135 C  
HETATM   31  O   UNL     3      -8.724  11.835  67.894  1.00  0.00    -0.150 OA 
HETATM   32  O   UNL     3      -7.378   9.979  65.125  1.00  0.00    -0.127 OA 
HETATM   33  O   UNL     3      -8.875  11.709  65.433  1.00  0.00    -0.011 OA 
HETATM   34  H   UNL     3      -9.584  11.902  67.496  1.00  0.00     0.000 HD 
ENDBRANCH  26  29
ENDBRANCH  23  26
ENDBRANCH   3  23
BRANCH   3  35
HETATM   35  C   UNL     3      -8.980   8.380  68.725  1.00  0.00    -0.140 C  
HETATM   36  O   UNL     3      -9.629   7.112  68.862  1.00  0.00    -0.142 OA 
HETATM   37  H   UNL     3     -10.539   7.279  69.078  1.00  0.00     0.000 HD 
ENDBRANCH   3  35
TORSDOF 8
ENDMDL
MODEL      297
REMARK 921   NORMALIZED FREE ENERGY PREDICTED BY IDOCK:   -1.20 KCAL/MOL
REMARK 922        TOTAL FREE ENERGY PREDICTED BY IDOCK:   -3.86 KCAL/MOL
REMARK 923 INTER-LIGAND FREE ENERGY PREDICTED BY IDOCK:   -3.78 KCAL/MOL
REMARK 924 INTRA-LIGAND FREE ENERGY PREDICTED BY IDOCK:   -0.09 KCAL/MOL
REMARK 927      BINDING AFFINITY PREDICTED BY RF-SCORE:    0.00 PKD
ROOT
HETATM    1 FE   UNL     1     -11.897  10.524  66.092  1.00  0.00     0.156 Fe 
HETATM    2  C   UNL     2     -12.375  14.615  71.497  1.00  0.00    -0.351 C  
HETATM    3  C   UNL     3      -5.583  10.036  66.728  1.00  0.00    -0.046 C  
HETATM    4  H   UNL     3      -5.307   8.841  68.242  1.00  0.00     0.000 HD 
HETATM    5  H   UNL     2     -12.971  12.733  71.554  1.00  0.00     0.000 HD 
HETATM    6  O   UNL     2     -13.371  13.593  71.597  1.00  0.00    -0.355 OA 
HETATM    7  O   UNL     3      -5.159   9.766  68.083  1.00  0.00    -0.037 OA 
ENDROOT
BRANCH   2   8
HETATM    8  C   UNL     2     -13.020  16.002  71.567  1.00  0.00    -0.032 C  
HETATM    9  H   UNL     2     -13.057  17.544  72.812  1.00  0.00     0.000 HD 
HETATM   10  O   UNL     2     -12.656  16.684  72.769  1.00  0.00    -0.121 OA 
ENDBRANCH   2   8
BRANCH   2  11
HETATM   11  C   UNL     2     -11.552  14.415  70.210  1.00  0.00    -0.248 C  
HETATM   12  H   UNL     2     -11.621  13.272  68.588  1.00  0.00     0.000 HD 
HETATM   13  O   UNL     2     -12.128  13.395  69.382  1.00  0.00    -0.309 OA 
BRANCH  11  14
HETATM   14  C   UNL     2     -11.472  15.736  69.424  1.00  0.00    -0.355 C  
HETATM   15  H   UNL     2     -12.650  16.734  68.191  1.00  0.00     0.000 HD 
HETATM   16  O   UNL     2     -12.699  15.918  68.676  1.00  0.00     0.643 OA 
BRANCH  14  17
HETATM   17  C   UNL     2     -10.311  15.823  68.439  1.00  0.00    -0.233 C  
HETATM   18  C   UNL     2     -10.799  15.815  66.978  1.00  0.00    -0.273 C  
HETATM   19  H   UNL     2      -8.729  14.722  68.035  1.00  0.00     0.000 HD 
HETATM   20  O   UNL     2      -9.452  14.667  68.649  1.00  0.00    -0.204 OA 
HETATM   21  O   UNL     2     -11.078  14.650  66.481  1.00  0.00    -0.317 OA 
HETATM   22  O   UNL     2     -10.612  16.773  66.234  1.00  0.00    -0.279 OA 
ENDBRANCH  14  17
ENDBRANCH  11  14
ENDBRANCH   2  11
BRANCH   3  23
HETATM   23  C   UNL     3      -7.032   9.571  66.631  1.00  0.00    -0.085 C  
HETATM   24  O   UNL     3      -7.713  10.440  65.717  1.00  0.00    -0.137 OA 
HETATM   25  H   UNL     3      -8.616  10.150  65.657  1.00  0.00     0.000 HD 
BRANCH  23  26
HETATM   26  C   UNL     3      -7.309   8.112  66.202  1.00  0.00    -0.070 C  
HETATM   27  O   UNL     3      -8.119   8.092  65.014  1.00  0.00    -0.132 OA 
HETATM   28  H   UNL     3      -8.290   7.195  64.750  1.00  0.00     0.000 HD 
BRANCH  26  29
HETATM   29  C   UNL     3      -8.075   7.411  67.348  1.00  0.00    -0.113 C  
HETATM   30  C   UNL     3      -8.421   5.915  67.145  1.00  0.00    -0.107 C  
HETATM   31  O   UNL     3      -9.329   8.123  67.630  1.00  0.00    -0.138 OA 
HETATM   32  O   UNL     3      -7.549   5.131  66.734  1.00  0.00    -0.086 OA 
HETATM   33  O   UNL     3      -9.663   5.682  67.479  1.00  0.00    -0.114 OA 
HETATM   34  H   UNL     3      -9.799   7.693  68.334  1.00  0.00     0.000 HD 
ENDBRANCH  26  29
ENDBRANCH  23  26
ENDBRANCH   3  23
BRANCH   3  35
HETATM   35  C   UNL     3      -5.346  11.524  66.473  1.00  0.00    -0.111 C  
HETATM   36  O   UNL     3      -6.520  12.226  66.895  1.00  0.00    -0.324 OA 
HETATM   37  H   UNL     3      -6.372  13.151  66.737  1.00  0.00     0.000 HD 
ENDBRANCH   3  35
TORSDOF 8
ENDMDL
MODEL      298
REMARK 921   NORMALIZED FREE ENERGY PREDICTED BY IDOCK:   -1.18 KCAL/MOL
REMARK 922        TOTAL FREE ENERGY PREDICTED BY IDOCK:   -3.83 KCAL/MOL
REMARK 923 INTER-LIGAND FREE ENERGY PREDICTED BY IDOCK:   -3.74 KCAL/MOL
REMARK 924 INTRA-LIGAND FREE ENERGY PREDICTED BY IDOCK:   -0.09 KCAL/MOL
REMARK 927      BINDING AFFINITY PREDICTED BY RF-SCORE:    0.00 PKD
ROOT
HETATM    1 FE   UNL     1      -5.594   7.946  69.059  1.00  0.00    -0.023 Fe 
HETATM    2  C   UNL     2     -11.265  11.321  67.436  1.00  0.00    -0.303 C  
HETATM    3  C   UNL     3      -8.785   2.495  69.842  1.00  0.00    -0.067 C  
HETATM    4  H   UNL     3      -9.197   1.874  68.042  1.00  0.00     0.000 HD 
HETATM    5  H   UNL     2      -9.906  10.847  66.083  1.00  0.00     0.000 HD 
HETATM    6  O   UNL     2     -10.246  11.638  66.484  1.00  0.00    -0.206 OA 
HETATM    7  O   UNL     3      -9.710   2.208  68.769  1.00  0.00    -0.098 OA 
ENDROOT
BRANCH   2   8
HETATM    8  C   UNL     2     -11.812  12.597  68.082  1.00  0.00    -0.315 C  
HETATM    9  H   UNL     2     -12.165  14.475  67.556  1.00  0.00     0.000 HD 
HETATM   10  O   UNL     2     -11.825  13.684  67.155  1.00  0.00    -0.357 OA 
ENDBRANCH   2   8
BRANCH   2  11
HETATM   11  C   UNL     2     -10.714  10.327  68.477  1.00  0.00    -0.227 C  
HETATM   12  H   UNL     2      -9.125  10.170  69.656  1.00  0.00     0.000 HD 
HETATM   13  O   UNL     2      -9.464  10.783  69.015  1.00  0.00    -0.191 OA 
BRANCH  11  14
HETATM   14  C   UNL     2     -11.730  10.138  69.616  1.00  0.00    -0.098 C  
HETATM   15  H   UNL     2     -12.049  10.947  71.391  1.00  0.00     0.000 HD 
HETATM   16  O   UNL     2     -11.421  11.064  70.687  1.00  0.00    -0.267 OA 
BRANCH  14  17
HETATM   17  C   UNL     2     -11.767   8.735  70.213  1.00  0.00     0.069 C  
HETATM   18  C   UNL     2     -12.734   8.647  71.408  1.00  0.00    -0.276 C  
HETATM   19  H   UNL     2     -10.449   7.532  71.047  1.00  0.00     0.000 HD 
HETATM   20  O   UNL     2     -10.427   8.405  70.675  1.00  0.00    -0.194 OA 
HETATM   21  O   UNL     2     -12.272   9.073  72.543  1.00  0.00    -0.304 OA 
HETATM   22  O   UNL     2     -13.726   7.923  71.379  1.00  0.00    -0.323 OA 
ENDBRANCH  14  17
ENDBRANCH  11  14
ENDBRANCH   2  11
BRANCH   3  23
HETATM   23  C   UNL     3      -7.745   3.452  69.269  1.00  0.00    -0.051 C  
HETATM   24  O   UNL     3      -8.162   3.812  67.946  1.00  0.00    -0.087 OA 
HETATM   25  H   UNL     3      -7.513   4.408  67.589  1.00  0.00     0.000 HD 
BRANCH  23  26
HETATM   26  C   UNL     3      -7.434   4.752  70.045  1.00  0.00    -0.055 C  
HETATM   27  O   UNL     3      -7.456   5.877  69.151  1.00  0.00    -0.081 OA 
HETATM   28  H   UNL     3      -7.265   6.677  69.628  1.00  0.00     0.000 HD 
BRANCH  26  29
HETATM   29  C   UNL     3      -6.021   4.619  70.658  1.00  0.00    -0.017 C  
HETATM   30  C   UNL     3      -5.859   3.621  71.831  1.00  0.00    -0.009 C  
HETATM   31  O   UNL     3      -5.544   5.930  71.121  1.00  0.00    -0.016 OA 
HETATM   32  O   UNL     3      -6.345   2.480  71.741  1.00  0.00    -0.014 OA 
HETATM   33  O   UNL     3      -5.171   4.160  72.802  1.00  0.00     0.000 OA 
HETATM   34  H   UNL     3      -4.676   5.848  71.498  1.00  0.00     0.000 HD 
ENDBRANCH  26  29
ENDBRANCH  23  26
ENDBRANCH   3  23
BRANCH   3  35
HETATM   35  C   UNL     3      -9.609   3.034  71.012  1.00  0.00    -0.153 C  
HETATM   36  O   UNL     3      -9.195   2.334  72.189  1.00  0.00    -0.077 OA 
HETATM   37  H   UNL     3      -9.707   2.669  72.916  1.00  0.00     0.000 HD 
ENDBRANCH   3  35
TORSDOF 8
ENDMDL
MODEL      299
REMARK 921   NORMALIZED FREE ENERGY PREDICTED BY IDOCK:   -1.18 KCAL/MOL
REMARK 922        TOTAL FREE ENERGY PREDICTED BY IDOCK:   -3.83 KCAL/MOL
REMARK 923 INTER-LIGAND FREE ENERGY PREDICTED BY IDOCK:   -2.51 KCAL/MOL
REMARK 924 INTRA-LIGAND FREE ENERGY PREDICTED BY IDOCK:   -1.32 KCAL/MOL
REMARK 927      BINDING AFFINITY PREDICTED BY RF-SCORE:    0.00 PKD
ROOT
HETATM    1 FE   UNL     1      -5.376   7.104  68.876  1.00  0.00    -0.013 Fe 
HETATM    2  C   UNL     2     -10.854  10.930  67.633  1.00  0.00    -0.266 C  
HETATM    3  C   UNL     3      -8.934   1.923  69.875  1.00  0.00    -0.082 C  
HETATM    4  H   UNL     3      -9.514   1.345  68.107  1.00  0.00     0.000 HD 
HETATM    5  H   UNL     2      -9.630  10.355  66.193  1.00  0.00     0.000 HD 
HETATM    6  O   UNL     2      -9.878  11.169  66.614  1.00  0.00    -0.191 OA 
HETATM    7  O   UNL     3      -9.948   1.716  68.866  1.00  0.00     0.047 OA 
ENDROOT
BRANCH   2   8
HETATM    8  C   UNL     2     -11.252  12.243  68.313  1.00  0.00    -0.267 C  
HETATM    9  H   UNL     2     -10.688  14.143  68.285  1.00  0.00     0.000 HD 
HETATM   10  O   UNL     2     -10.440  13.328  67.863  1.00  0.00    -0.230 OA 
ENDBRANCH   2   8
BRANCH   2  11
HETATM   11  C   UNL     2     -10.316   9.890  68.635  1.00  0.00    -0.195 C  
HETATM   12  H   UNL     2     -11.059   8.574  69.922  1.00  0.00     0.000 HD 
HETATM   13  O   UNL     2     -11.390   9.215  69.305  1.00  0.00     0.046 OA 
BRANCH  11  14
HETATM   14  C   UNL     2      -9.434   8.862  67.906  1.00  0.00    -0.142 C  
HETATM   15  H   UNL     2      -9.677   7.047  67.163  1.00  0.00     0.000 HD 
HETATM   16  O   UNL     2     -10.222   7.682  67.613  1.00  0.00    -0.183 OA 
BRANCH  14  17
HETATM   17  C   UNL     2      -8.200   8.414  68.682  1.00  0.00    -0.123 C  
HETATM   18  C   UNL     2      -7.346   9.611  69.139  1.00  0.00    -0.077 C  
HETATM   19  H   UNL     2      -6.626   7.297  68.290  1.00  0.00     0.000 HD 
HETATM   20  O   UNL     2      -7.395   7.576  67.807  1.00  0.00    -0.096 OA 
HETATM   21  O   UNL     2      -6.551  10.113  68.246  1.00  0.00    -0.054 OA 
HETATM   22  O   UNL     2      -7.169   9.855  70.330  1.00  0.00    -0.133 OA 
ENDBRANCH  14  17
ENDBRANCH  11  14
ENDBRANCH   2  11
BRANCH   3  23
HETATM   23  C   UNL     3      -7.862   2.796  69.233  1.00  0.00    -0.045 C  
HETATM   24  O   UNL     3      -8.321   3.167  67.927  1.00  0.00    -0.078 OA 
HETATM   25  H   UNL     3      -7.652   3.711  67.527  1.00  0.00     0.000 HD 
BRANCH  23  26
HETATM   26  C   UNL     3      -7.420   4.081  69.970  1.00  0.00    -0.045 C  
HETATM   27  O   UNL     3      -7.317   5.172  69.040  1.00  0.00    -0.060 OA 
HETATM   28  H   UNL     3      -7.046   5.963  69.493  1.00  0.00     0.000 HD 
BRANCH  26  29
HETATM   29  C   UNL     3      -6.033   3.821  70.601  1.00  0.00    -0.018 C  
HETATM   30  C   UNL     3      -6.014   3.112  71.978  1.00  0.00    -0.013 C  
HETATM   31  O   UNL     3      -5.294   5.083  70.739  1.00  0.00    -0.004 OA 
HETATM   32  O   UNL     3      -6.712   2.101  72.160  1.00  0.00    -0.015 OA 
HETATM   33  O   UNL     3      -5.193   3.718  72.795  1.00  0.00     0.000 OA 
HETATM   34  H   UNL     3      -4.442   4.923  71.127  1.00  0.00     0.000 HD 
ENDBRANCH  26  29
ENDBRANCH  23  26
ENDBRANCH   3  23
BRANCH   3  35
HETATM   35  C   UNL     3      -9.633   2.520  71.096  1.00  0.00    -0.147 C  
HETATM   36  O   UNL     3     -10.407   1.480  71.701  1.00  0.00    -0.125 OA 
HETATM   37  H   UNL     3     -10.842   1.851  72.460  1.00  0.00     0.000 HD 
ENDBRANCH   3  35
TORSDOF 8
ENDMDL
MODEL      300
REMARK 921   NORMALIZED FREE ENERGY PREDICTED BY IDOCK:   -0.75 KCAL/MOL
REMARK 922        TOTAL FREE ENERGY PREDICTED BY IDOCK:   -3.19 KCAL/MOL
REMARK 923 INTER-LIGAND FREE ENERGY PREDICTED BY IDOCK:   -3.04 KCAL/MOL
REMARK 924 INTRA-LIGAND FREE ENERGY PREDICTED BY IDOCK:   -0.15 KCAL/MOL
REMARK 927      BINDING AFFINITY PREDICTED BY RF-SCORE:    0.00 PKD
ROOT
HETATM    1 FE   UNL     1      -9.149   9.511  65.739  1.00  0.00    -0.134 Fe 
HETATM    2  C   UNL     2      -8.664   5.928  71.494  1.00  0.00    -0.132 C  
HETATM    3  C   UNL     3     -11.459  14.581  68.817  1.00  0.00    -0.294 C  
HETATM    4  H   UNL     3      -9.931  15.372  69.731  1.00  0.00     0.000 HD 
HETATM    5  H   UNL     2      -7.073   6.656  70.577  1.00  0.00     0.000 HD 
HETATM    6  O   UNL     2      -7.442   5.800  70.761  1.00  0.00    -0.085 OA 
HETATM    7  O   UNL     3     -10.718  14.918  70.011  1.00  0.00    -0.220 OA 
ENDROOT
BRANCH   2   8
HETATM    8  C   UNL     2      -9.259   4.549  71.791  1.00  0.00    -0.134 C  
HETATM    9  H   UNL     2      -9.264   2.744  70.972  1.00  0.00     0.000 HD 
HETATM   10  O   UNL     2      -8.895   3.600  70.788  1.00  0.00    -0.071 OA 
ENDBRANCH   2   8
BRANCH   2  11
HETATM   11  C   UNL     2      -9.642   6.835  70.721  1.00  0.00    -0.168 C  
HETATM   12  H   UNL     2     -10.180   8.746  70.721  1.00  0.00     0.000 HD 
HETATM   13  O   UNL     2      -9.578   8.187  71.198  1.00  0.00    -0.153 OA 
BRANCH  11  14
HETATM   14  C   UNL     2      -9.316   6.801  69.218  1.00  0.00    -0.144 C  
HETATM   15  H   UNL     2      -8.781   8.117  67.844  1.00  0.00     0.000 HD 
HETATM   16  O   UNL     2      -8.982   8.138  68.773  1.00  0.00    -0.143 OA 
BRANCH  14  17
HETATM   17  C   UNL     2     -10.446   6.287  68.332  1.00  0.00    -0.227 C  
HETATM   18  C   UNL     2      -9.928   5.808  66.963  1.00  0.00    -0.165 C  
HETATM   19  H   UNL     2     -12.088   7.059  67.565  1.00  0.00     0.000 HD 
HETATM   20  O   UNL     2     -11.384   7.379  68.117  1.00  0.00     0.235 OA 
HETATM   21  O   UNL     2      -9.715   6.735  66.082  1.00  0.00    -0.053 OA 
HETATM   22  O   UNL     2     -10.034   4.636  66.611  1.00  0.00    -0.200 OA 
ENDBRANCH  14  17
ENDBRANCH  11  14
ENDBRANCH   2  11
BRANCH   3  23
HETATM   23  C   UNL     3     -10.510  13.777  67.935  1.00  0.00    -0.246 C  
HETATM   24  O   UNL     3      -9.179  14.249  68.177  1.00  0.00    -0.188 OA 
HETATM   25  H   UNL     3      -8.588  13.749  67.627  1.00  0.00     0.000 HD 
BRANCH  23  26
HETATM   26  C   UNL     3     -10.505  12.237  68.071  1.00  0.00    -0.218 C  
HETATM   27  O   UNL     3     -11.845  11.754  68.265  1.00  0.00    -0.413 OA 
HETATM   28  H   UNL     3     -11.842  10.808  68.348  1.00  0.00     0.000 HD 
BRANCH  26  29
HETATM   29  C   UNL     3      -9.650  11.867  69.305  1.00  0.00     0.556 C  
HETATM   30  C   UNL     3      -8.166  11.508  69.045  1.00  0.00     0.067 C  
HETATM   31  O   UNL     3     -10.261  10.741  70.025  1.00  0.00    -0.422 OA 
HETATM   32  O   UNL     3      -7.477  12.233  68.307  1.00  0.00    -0.102 OA 
HETATM   33  O   UNL     3      -7.833  10.429  69.703  1.00  0.00    -0.156 OA 
HETATM   34  H   UNL     3      -9.735  10.513  70.784  1.00  0.00     0.000 HD 
ENDBRANCH  26  29
ENDBRANCH  23  26
ENDBRANCH   3  23
BRANCH   3  35
HETATM   35  C   UNL     3     -12.725  13.851  69.268  1.00  0.00     0.497 C  
HETATM   36  O   UNL     3     -12.601  13.602  70.672  1.00  0.00    -0.327 OA 
HETATM   37  H   UNL     3     -13.388  13.149  70.952  1.00  0.00     0.000 HD 
ENDBRANCH   3  35
TORSDOF 8
ENDMDL
MODEL      301
REMARK 921   NORMALIZED FREE ENERGY PREDICTED BY IDOCK:   -0.19 KCAL/MOL
REMARK 922        TOTAL FREE ENERGY PREDICTED BY IDOCK:   -2.38 KCAL/MOL
REMARK 923 INTER-LIGAND FREE ENERGY PREDICTED BY IDOCK:   -4.37 KCAL/MOL
REMARK 924 INTRA-LIGAND FREE ENERGY PREDICTED BY IDOCK:    1.99 KCAL/MOL
REMARK 927      BINDING AFFINITY PREDICTED BY RF-SCORE:    0.00 PKD
ROOT
HETATM    1 FE   UNL     1      -5.941  14.692  69.754  1.00  0.00    -0.092 Fe 
HETATM    2  C   UNL     2      -8.315  19.252  65.308  1.00  0.00     1.272 C  
HETATM    3  C   UNL     3     -10.170  10.320  67.881  1.00  0.00    -0.183 C  
HETATM    4  H   UNL     3      -9.520   9.675  66.162  1.00  0.00     0.000 HD 
HETATM    5  H   UNL     2      -6.585  18.335  65.044  1.00  0.00     0.000 HD 
HETATM    6  O   UNL     2      -6.887  19.218  65.223  1.00  0.00    -0.400 OA 
HETATM    7  O   UNL     3     -10.267  10.189  66.445  1.00  0.00    -0.230 OA 
ENDROOT
BRANCH   2   8
HETATM    8  C   UNL     2      -8.801  20.675  65.596  1.00  0.00     0.748 C  
HETATM    9  H   UNL     2     -10.306  21.550  66.545  1.00  0.00     0.000 HD 
HETATM   10  O   UNL     2     -10.005  20.667  66.366  1.00  0.00    -0.257 OA 
ENDBRANCH   2   8
BRANCH   2  11
HETATM   11  C   UNL     2      -8.797  18.241  66.367  1.00  0.00    -0.240 C  
HETATM   12  H   UNL     2      -9.239  16.307  66.454  1.00  0.00     0.000 HD 
HETATM   13  O   UNL     2      -8.942  16.930  65.801  1.00  0.00    -0.524 OA 
BRANCH  11  14
HETATM   14  C   UNL     2      -7.803  18.192  67.540  1.00  0.00    -0.222 C  
HETATM   15  H   UNL     2      -7.695  17.261  69.280  1.00  0.00     0.000 HD 
HETATM   16  O   UNL     2      -8.310  17.292  68.555  1.00  0.00    -0.252 OA 
BRANCH  14  17
HETATM   17  C   UNL     2      -7.535  19.537  68.206  1.00  0.00    -0.315 C  
HETATM   18  C   UNL     2      -6.082  20.002  67.994  1.00  0.00    -0.234 C  
HETATM   19  H   UNL     2      -7.604  20.227  70.050  1.00  0.00     0.000 HD 
HETATM   20  O   UNL     2      -7.771  19.389  69.635  1.00  0.00    -0.080 OA 
HETATM   21  O   UNL     2      -5.199  19.480  68.787  1.00  0.00    -0.187 OA 
HETATM   22  O   UNL     2      -5.821  21.027  67.370  1.00  0.00    -0.229 OA 
ENDBRANCH  14  17
ENDBRANCH  11  14
ENDBRANCH   2  11
BRANCH   3  23
HETATM   23  C   UNL     3      -8.801  10.929  68.165  1.00  0.00    -0.137 C  
HETATM   24  O   UNL     3      -7.833  10.217  67.384  1.00  0.00    -0.102 OA 
HETATM   25  H   UNL     3      -6.980  10.596  67.562  1.00  0.00     0.000 HD 
BRANCH  23  26
HETATM   26  C   UNL     3      -8.602  12.441  67.915  1.00  0.00    -0.171 C  
HETATM   27  O   UNL     3      -7.898  13.035  69.018  1.00  0.00    -0.325 OA 
HETATM   28  H   UNL     3      -7.775  13.965  68.865  1.00  0.00     0.000 HD 
BRANCH  26  29
HETATM   29  C   UNL     3      -9.997  13.096  67.793  1.00  0.00    -0.227 C  
HETATM   30  C   UNL     3     -10.286  13.890  66.495  1.00  0.00    -0.280 C  
HETATM   31  O   UNL     3     -10.234  13.998  68.928  1.00  0.00    -0.307 OA 
HETATM   32  O   UNL     3      -9.999  13.392  65.392  1.00  0.00    -0.269 OA 
HETATM   33  O   UNL     3     -10.843  15.038  66.773  1.00  0.00    -0.307 OA 
HETATM   34  H   UNL     3     -11.092  14.401  68.853  1.00  0.00     0.000 HD 
ENDBRANCH  26  29
ENDBRANCH  23  26
ENDBRANCH   3  23
BRANCH   3  35
HETATM   35  C   UNL     3     -11.372  11.148  68.338  1.00  0.00    -0.288 C  
HETATM   36  O   UNL     3     -12.362  10.236  68.823  1.00  0.00    -0.529 OA 
HETATM   37  H   UNL     3     -13.109  10.750  69.107  1.00  0.00     0.000 HD 
ENDBRANCH   3  35
TORSDOF 8
ENDMDL
MODEL      302
REMARK 921   NORMALIZED FREE ENERGY PREDICTED BY IDOCK:    0.07 KCAL/MOL
REMARK 922        TOTAL FREE ENERGY PREDICTED BY IDOCK:   -1.99 KCAL/MOL
REMARK 923 INTER-LIGAND FREE ENERGY PREDICTED BY IDOCK:   -0.83 KCAL/MOL
REMARK 924 INTRA-LIGAND FREE ENERGY PREDICTED BY IDOCK:   -1.17 KCAL/MOL
REMARK 927      BINDING AFFINITY PREDICTED BY RF-SCORE:    0.00 PKD
ROOT
HETATM    1 FE   UNL     1      -8.259  17.061  71.053  1.00  0.00     2.606 Fe 
HETATM    2  C   UNL     2     -11.905  12.008  68.340  1.00  0.00    -0.300 C  
HETATM    3  C   UNL     3      -5.848  18.674  65.388  1.00  0.00    -0.231 C  
HETATM    4  H   UNL     3      -7.291  19.591  64.454  1.00  0.00     0.000 HD 
HETATM    5  H   UNL     2     -12.741  13.687  68.958  1.00  0.00     0.000 HD 
HETATM    6  O   UNL     2     -12.744  12.771  69.212  1.00  0.00     0.401 OA 
HETATM    7  O   UNL     3      -6.842  18.762  64.342  1.00  0.00     0.285 OA 
ENDROOT
BRANCH   2   8
HETATM    8  C   UNL     2     -11.908  10.532  68.749  1.00  0.00    -0.022 C  
HETATM    9  H   UNL     2     -11.885   9.471  70.423  1.00  0.00     0.000 HD 
HETATM   10  O   UNL     2     -11.882  10.387  70.169  1.00  0.00    -0.269 OA 
ENDBRANCH   2   8
BRANCH   2  11
HETATM   11  C   UNL     2     -10.486  12.609  68.325  1.00  0.00    -0.239 C  
HETATM   12  H   UNL     2      -8.690  12.146  69.033  1.00  0.00     0.000 HD 
HETATM   13  O   UNL     2      -9.564  11.775  69.042  1.00  0.00    -0.020 OA 
BRANCH  11  14
HETATM   14  C   UNL     2     -10.003  12.785  66.875  1.00  0.00    -0.232 C  
HETATM   15  H   UNL     2      -8.321  12.480  65.884  1.00  0.00     0.000 HD 
HETATM   16  O   UNL     2      -8.619  12.370  66.780  1.00  0.00    -0.190 OA 
BRANCH  14  17
HETATM   17  C   UNL     2     -10.097  14.210  66.340  1.00  0.00    -0.293 C  
HETATM   18  C   UNL     2     -11.552  14.713  66.303  1.00  0.00    -0.342 C  
HETATM   19  H   UNL     2      -9.626  15.108  64.651  1.00  0.00     0.000 HD 
HETATM   20  O   UNL     2      -9.568  14.220  64.984  1.00  0.00     0.004 OA 
HETATM   21  O   UNL     2     -12.258  14.329  65.285  1.00  0.00    -0.395 OA 
HETATM   22  O   UNL     2     -11.918  15.669  66.981  1.00  0.00     0.259 OA 
ENDBRANCH  14  17
ENDBRANCH  11  14
ENDBRANCH   2  11
BRANCH   3  23
HETATM   23  C   UNL     3      -6.595  18.850  66.705  1.00  0.00    -0.190 C  
HETATM   24  O   UNL     3      -5.898  19.835  67.479  1.00  0.00    -0.181 OA 
HETATM   25  H   UNL     3      -6.364  19.943  68.300  1.00  0.00     0.000 HD 
BRANCH  23  26
HETATM   26  C   UNL     3      -8.089  19.247  66.658  1.00  0.00    -0.289 C  
HETATM   27  O   UNL     3      -8.217  20.663  66.448  1.00  0.00    -0.525 OA 
HETATM   28  H   UNL     3      -9.134  20.907  66.418  1.00  0.00     0.000 HD 
BRANCH  26  29
HETATM   29  C   UNL     3      -8.728  18.877  68.016  1.00  0.00    -0.299 C  
HETATM   30  C   UNL     3     -10.150  19.425  68.292  1.00  0.00    -0.433 C  
HETATM   31  O   UNL     3      -7.861  19.312  69.119  1.00  0.00    -0.321 OA 
HETATM   32  O   UNL     3     -11.028  19.328  67.417  1.00  0.00    -0.484 OA 
HETATM   33  O   UNL     3     -10.223  19.928  69.496  1.00  0.00    -0.292 OA 
HETATM   34  H   UNL     3      -8.254  19.085  69.954  1.00  0.00     0.000 HD 
ENDBRANCH  26  29
ENDBRANCH  23  26
ENDBRANCH   3  23
BRANCH   3  35
HETATM   35  C   UNL     3      -5.125  17.340  65.208  1.00  0.00     0.949 C  
HETATM   36  O   UNL     3      -5.745  16.393  66.084  1.00  0.00     0.217 OA 
HETATM   37  H   UNL     3      -5.295  15.563  65.972  1.00  0.00     0.000 HD 
ENDBRANCH   3  35
TORSDOF 8
ENDMDL
MODEL      303
REMARK 921   NORMALIZED FREE ENERGY PREDICTED BY IDOCK:    0.29 KCAL/MOL
REMARK 922        TOTAL FREE ENERGY PREDICTED BY IDOCK:   -1.67 KCAL/MOL
REMARK 923 INTER-LIGAND FREE ENERGY PREDICTED BY IDOCK:   -0.55 KCAL/MOL
REMARK 924 INTRA-LIGAND FREE ENERGY PREDICTED BY IDOCK:   -1.12 KCAL/MOL
REMARK 927      BINDING AFFINITY PREDICTED BY RF-SCORE:    0.00 PKD
ROOT
HETATM    1 FE   UNL     1      -9.456  15.756  64.935  1.00  0.00    -0.197 Fe 
HETATM    2  C   UNL     2      -7.441   9.404  63.599  1.00  0.00    -0.111 C  
HETATM    3  C   UNL     3      -6.587  15.717  70.617  1.00  0.00     0.652 C  
HETATM    4  H   UNL     3      -4.685  15.903  70.237  1.00  0.00     0.000 HD 
HETATM    5  H   UNL     2      -6.631  10.969  62.705  1.00  0.00     0.000 HD 
HETATM    6  O   UNL     2      -7.172  10.227  62.460  1.00  0.00    -0.133 OA 
HETATM    7  O   UNL     3      -5.235  15.207  70.577  1.00  0.00    -0.118 OA 
ENDROOT
BRANCH   2   8
HETATM    8  C   UNL     2      -8.313   8.209  63.203  1.00  0.00    -0.018 C  
HETATM    9  H   UNL     2      -8.141   6.238  63.092  1.00  0.00     0.000 HD 
HETATM   10  O   UNL     2      -7.599   6.979  63.337  1.00  0.00    -0.091 OA 
ENDBRANCH   2   8
BRANCH   2  11
HETATM   11  C   UNL     2      -8.080  10.253  64.715  1.00  0.00    -0.151 C  
HETATM   12  H   UNL     2      -8.374  12.176  65.108  1.00  0.00     0.000 HD 
HETATM   13  O   UNL     2      -7.980  11.654  64.420  1.00  0.00     1.200 OA 
BRANCH  11  14
HETATM   14  C   UNL     2      -9.558   9.865  64.891  1.00  0.00    -0.288 C  
HETATM   15  H   UNL     2     -11.291  10.489  64.175  1.00  0.00     0.000 HD 
HETATM   16  O   UNL     2     -10.378  10.729  64.066  1.00  0.00    -0.354 OA 
BRANCH  14  17
HETATM   17  C   UNL     2     -10.078   9.962  66.322  1.00  0.00    -0.241 C  
HETATM   18  C   UNL     2     -10.400  11.416  66.716  1.00  0.00    -0.234 C  
HETATM   19  H   UNL     2      -9.367   9.518  68.104  1.00  0.00     0.000 HD 
HETATM   20  O   UNL     2      -9.044   9.458  67.213  1.00  0.00    -0.132 OA 
HETATM   21  O   UNL     2      -9.388  12.142  67.078  1.00  0.00    -0.190 OA 
HETATM   22  O   UNL     2     -11.542  11.765  67.000  1.00  0.00    -0.480 OA 
ENDBRANCH  14  17
ENDBRANCH  11  14
ENDBRANCH   2  11
BRANCH   3  23
HETATM   23  C   UNL     3      -6.910  16.186  69.202  1.00  0.00    -0.196 C  
HETATM   24  O   UNL     3      -6.176  15.362  68.287  1.00  0.00    -0.102 OA 
HETATM   25  H   UNL     3      -6.378  15.655  67.406  1.00  0.00     0.000 HD 
BRANCH  23  26
HETATM   26  C   UNL     3      -8.389  16.202  68.752  1.00  0.00    -0.231 C  
HETATM   27  O   UNL     3      -8.525  15.549  67.479  1.00  0.00    -0.159 OA 
HETATM   28  H   UNL     3      -9.434  15.559  67.202  1.00  0.00     0.000 HD 
BRANCH  26  29
HETATM   29  C   UNL     3      -8.833  17.677  68.615  1.00  0.00    -0.259 C  
HETATM   30  C   UNL     3      -8.922  18.249  67.178  1.00  0.00    -0.264 C  
HETATM   31  O   UNL     3      -7.938  18.550  69.387  1.00  0.00     0.050 OA 
HETATM   32  O   UNL     3      -9.491  17.594  66.288  1.00  0.00    -0.359 OA 
HETATM   33  O   UNL     3      -8.360  19.427  67.118  1.00  0.00    -0.275 OA 
HETATM   34  H   UNL     3      -8.211  19.456  69.302  1.00  0.00     0.000 HD 
ENDBRANCH  26  29
ENDBRANCH  23  26
ENDBRANCH   3  23
BRANCH   3  35
HETATM   35  C   UNL     3      -7.472  14.598  71.163  1.00  0.00     2.128 C  
HETATM   36  O   UNL     3      -6.618  13.503  71.507  1.00  0.00     0.003 OA 
HETATM   37  H   UNL     3      -7.168  12.807  71.847  1.00  0.00     0.000 HD 
ENDBRANCH   3  35
TORSDOF 8
ENDMDL
MODEL      304
REMARK 921   NORMALIZED FREE ENERGY PREDICTED BY IDOCK:    1.53 KCAL/MOL
REMARK 922        TOTAL FREE ENERGY PREDICTED BY IDOCK:    0.14 KCAL/MOL
REMARK 923 INTER-LIGAND FREE ENERGY PREDICTED BY IDOCK:   -2.26 KCAL/MOL
REMARK 924 INTRA-LIGAND FREE ENERGY PREDICTED BY IDOCK:    2.40 KCAL/MOL
REMARK 927      BINDING AFFINITY PREDICTED BY RF-SCORE:    0.00 PKD
ROOT
HETATM    1 FE   UNL     1     -12.597   9.393  69.674  1.00  0.00    -0.432 Fe 
HETATM    2  C   UNL     2      -9.697  15.539  69.736  1.00  0.00    -0.241 C  
HETATM    3  C   UNL     3      -7.673   6.847  66.545  1.00  0.00    -0.101 C  
HETATM    4  H   UNL     3      -6.252   6.677  67.867  1.00  0.00     0.000 HD 
HETATM    5  H   UNL     2      -9.814  14.421  71.361  1.00  0.00     0.000 HD 
HETATM    6  O   UNL     2     -10.182  15.240  71.049  1.00  0.00     0.184 OA 
HETATM    7  O   UNL     3      -6.388   7.214  67.095  1.00  0.00    -0.048 OA 
ENDROOT
BRANCH   2   8
HETATM    8  C   UNL     2     -10.289  16.859  69.234  1.00  0.00    -0.298 C  
HETATM    9  H   UNL     2      -9.631  18.597  68.545  1.00  0.00     0.000 HD 
HETATM   10  O   UNL     2      -9.264  17.779  68.857  1.00  0.00    -0.242 OA 
ENDBRANCH   2   8
BRANCH   2  11
HETATM   11  C   UNL     2      -9.999  14.362  68.789  1.00  0.00    -0.223 C  
HETATM   12  H   UNL     2     -11.510  13.737  67.663  1.00  0.00     0.000 HD 
HETATM   13  O   UNL     2     -11.324  14.462  68.247  1.00  0.00    -0.261 OA 
BRANCH  11  14
HETATM   14  C   UNL     2      -8.973  14.331  67.643  1.00  0.00    -0.194 C  
HETATM   15  H   UNL     2      -7.490  15.483  67.025  1.00  0.00     0.000 HD 
HETATM   16  O   UNL     2      -8.124  15.502  67.733  1.00  0.00    -0.131 OA 
BRANCH  14  17
HETATM   17  C   UNL     2      -9.579  14.306  66.244  1.00  0.00    -0.288 C  
HETATM   18  C   UNL     2     -10.158  12.922  65.896  1.00  0.00    -0.289 C  
HETATM   19  H   UNL     2      -8.905  14.607  64.418  1.00  0.00     0.000 HD 
HETATM   20  O   UNL     2      -8.527  14.623  65.289  1.00  0.00     2.405 OA 
HETATM   21  O   UNL     2      -9.302  12.035  65.496  1.00  0.00    -0.162 OA 
HETATM   22  O   UNL     2     -11.357  12.764  65.679  1.00  0.00    -0.299 OA 
ENDBRANCH  14  17
ENDBRANCH  11  14
ENDBRANCH   2  11
BRANCH   3  23
HETATM   23  C   UNL     3      -8.689   7.032  67.667  1.00  0.00    -0.121 C  
HETATM   24  O   UNL     3      -7.966   7.151  68.899  1.00  0.00    -0.116 OA 
HETATM   25  H   UNL     3      -8.600   7.266  69.598  1.00  0.00     0.000 HD 
BRANCH  23  26
HETATM   26  C   UNL     3      -9.679   8.216  67.576  1.00  0.00    -0.161 C  
HETATM   27  O   UNL     3      -9.673   8.763  66.247  1.00  0.00    -0.247 OA 
HETATM   28  H   UNL     3     -10.282   9.491  66.191  1.00  0.00     0.000 HD 
BRANCH  26  29
HETATM   29  C   UNL     3      -9.221   9.303  68.574  1.00  0.00    -0.135 C  
HETATM   30  C   UNL     3     -10.183  10.497  68.798  1.00  0.00    -0.190 C  
HETATM   31  O   UNL     3      -7.920   9.851  68.165  1.00  0.00    -0.099 OA 
HETATM   32  O   UNL     3     -11.392  10.285  68.993  1.00  0.00    -0.231 OA 
HETATM   33  O   UNL     3      -9.528  11.627  68.765  1.00  0.00    -0.159 OA 
HETATM   34  H   UNL     3      -7.639  10.520  68.779  1.00  0.00     0.000 HD 
ENDBRANCH  26  29
ENDBRANCH  23  26
ENDBRANCH   3  23
BRANCH   3  35
HETATM   35  C   UNL     3      -7.892   7.711  65.303  1.00  0.00    -0.122 C  
HETATM   36  O   UNL     3      -6.608   8.160  64.860  1.00  0.00    -0.054 OA 
HETATM   37  H   UNL     3      -6.744   8.697  64.088  1.00  0.00     0.000 HD 
ENDBRANCH   3  35
TORSDOF 8
ENDMDL
MODEL      305
REMARK 921   NORMALIZED FREE ENERGY PREDICTED BY IDOCK:    1.66 KCAL/MOL
REMARK 922        TOTAL FREE ENERGY PREDICTED BY IDOCK:    0.34 KCAL/MOL
REMARK 923 INTER-LIGAND FREE ENERGY PREDICTED BY IDOCK:    0.41 KCAL/MOL
REMARK 924 INTRA-LIGAND FREE ENERGY PREDICTED BY IDOCK:   -0.07 KCAL/MOL
REMARK 927      BINDING AFFINITY PREDICTED BY RF-SCORE:    0.00 PKD
ROOT
HETATM    1 FE   UNL     1     -12.581   9.472  69.734  1.00  0.00    -0.468 Fe 
HETATM    2  C   UNL     2     -11.079  15.870  71.463  1.00  0.00    -0.022 C  
HETATM    3  C   UNL     3      -6.719   8.461  67.472  1.00  0.00    -0.063 C  
HETATM    4  H   UNL     3      -5.585   8.263  69.044  1.00  0.00     0.000 HD 
HETATM    5  H   UNL     2     -11.284  14.442  72.813  1.00  0.00     0.000 HD 
HETATM    6  O   UNL     2     -11.742  15.235  72.561  1.00  0.00    -0.426 OA 
HETATM    7  O   UNL     3      -5.672   8.916  68.358  1.00  0.00    -0.038 OA 
ENDROOT
BRANCH   2   8
HETATM    8  C   UNL     2     -11.818  17.148  71.057  1.00  0.00     2.104 C  
HETATM    9  H   UNL     2     -11.407  19.073  70.829  1.00  0.00     0.000 HD 
HETATM   10  O   UNL     2     -10.948  18.281  71.081  1.00  0.00     1.898 OA 
ENDBRANCH   2   8
BRANCH   2  11
HETATM   11  C   UNL     2     -10.938  14.876  70.294  1.00  0.00    -0.153 C  
HETATM   12  H   UNL     2     -12.005  14.301  68.722  1.00  0.00     0.000 HD 
HETATM   13  O   UNL     2     -12.092  14.913  69.443  1.00  0.00    -0.298 OA 
BRANCH  11  14
HETATM   14  C   UNL     2      -9.678  15.203  69.473  1.00  0.00    -0.165 C  
HETATM   15  H   UNL     2      -8.360  16.674  69.409  1.00  0.00     0.000 HD 
HETATM   16  O   UNL     2      -9.138  16.472  69.916  1.00  0.00     0.411 OA 
BRANCH  14  17
HETATM   17  C   UNL     2      -9.904  15.296  67.968  1.00  0.00    -0.216 C  
HETATM   18  C   UNL     2     -10.138  13.911  67.337  1.00  0.00    -0.244 C  
HETATM   19  H   UNL     2      -8.857  15.944  66.430  1.00  0.00     0.000 HD 
HETATM   20  O   UNL     2      -8.716  15.885  67.368  1.00  0.00    -0.174 OA 
HETATM   21  O   UNL     2      -9.073  13.214  67.092  1.00  0.00    -0.213 OA 
HETATM   22  O   UNL     2     -11.201  13.625  66.792  1.00  0.00    -0.302 OA 
ENDBRANCH  14  17
ENDBRANCH  11  14
ENDBRANCH   2  11
BRANCH   3  23
HETATM   23  C   UNL     3      -7.953   8.244  68.341  1.00  0.00    -0.119 C  
HETATM   24  O   UNL     3      -8.971   9.147  67.891  1.00  0.00    -0.128 OA 
HETATM   25  H   UNL     3      -9.740   9.012  68.433  1.00  0.00     0.000 HD 
BRANCH  23  26
HETATM   26  C   UNL     3      -8.565   6.827  68.410  1.00  0.00    -0.125 C  
HETATM   27  O   UNL     3      -7.596   5.849  67.997  1.00  0.00    -0.086 OA 
HETATM   28  H   UNL     3      -7.972   4.978  68.040  1.00  0.00     0.000 HD 
BRANCH  26  29
HETATM   29  C   UNL     3      -9.774   6.778  67.447  1.00  0.00    -0.133 C  
HETATM   30  C   UNL     3     -10.649   5.500  67.487  1.00  0.00    -0.177 C  
HETATM   31  O   UNL     3      -9.325   6.966  66.060  1.00  0.00    -0.354 OA 
HETATM   32  O   UNL     3     -11.013   5.038  68.581  1.00  0.00     0.323 OA 
HETATM   33  O   UNL     3     -10.905   5.081  66.276  1.00  0.00    -0.285 OA 
HETATM   34  H   UNL     3     -10.068   6.937  65.469  1.00  0.00     0.000 HD 
ENDBRANCH  26  29
ENDBRANCH  23  26
ENDBRANCH   3  23
BRANCH   3  35
HETATM   35  C   UNL     3      -6.859   9.510  66.369  1.00  0.00    -0.083 C  
HETATM   36  O   UNL     3      -5.632  10.244  66.315  1.00  0.00    -0.049 OA 
HETATM   37  H   UNL     3      -5.719  10.896  65.629  1.00  0.00     0.000 HD 
ENDBRANCH   3  35
TORSDOF 8
ENDMDL
MODEL      306
REMARK 921   NORMALIZED FREE ENERGY PREDICTED BY IDOCK:    2.70 KCAL/MOL
REMARK 922        TOTAL FREE ENERGY PREDICTED BY IDOCK:    1.86 KCAL/MOL
REMARK 923 INTER-LIGAND FREE ENERGY PREDICTED BY IDOCK:    0.95 KCAL/MOL
REMARK 924 INTRA-LIGAND FREE ENERGY PREDICTED BY IDOCK:    0.91 KCAL/MOL
REMARK 927      BINDING AFFINITY PREDICTED BY RF-SCORE:    0.00 PKD
ROOT
HETATM    1 FE   UNL     1      -9.352   8.525  67.045  1.00  0.00    -0.130 Fe 
HETATM    2  C   UNL     2      -6.135  13.756  69.956  1.00  0.00    -0.142 C  
HETATM    3  C   UNL     3     -12.787  12.398  63.342  1.00  0.00    -0.138 C  
HETATM    4  H   UNL     3     -11.559  13.015  61.961  1.00  0.00     0.000 HD 
HETATM    5  H   UNL     2      -5.241  12.573  68.650  1.00  0.00     0.000 HD 
HETATM    6  O   UNL     2      -5.170  12.769  69.577  1.00  0.00    -0.074 OA 
HETATM    7  O   UNL     3     -12.001  13.424  62.696  1.00  0.00     0.250 OA 
ENDROOT
BRANCH   2   8
HETATM    8  C   UNL     2      -6.021  14.071  71.450  1.00  0.00    -0.106 C  
HETATM    9  H   UNL     2      -5.553  13.114  73.122  1.00  0.00     0.000 HD 
HETATM   10  O   UNL     2      -5.623  12.919  72.195  1.00  0.00    -0.370 OA 
ENDBRANCH   2   8
BRANCH   2  11
HETATM   11  C   UNL     2      -7.547  13.282  69.562  1.00  0.00     0.644 C  
HETATM   12  H   UNL     2      -8.683  13.254  67.934  1.00  0.00     0.000 HD 
HETATM   13  O   UNL     2      -7.812  13.546  68.177  1.00  0.00    -0.122 OA 
BRANCH  11  14
HETATM   14  C   UNL     2      -7.695  11.776  69.839  1.00  0.00     1.314 C  
HETATM   15  H   UNL     2      -7.203  10.101  68.913  1.00  0.00     0.000 HD 
HETATM   16  O   UNL     2      -7.111  11.031  68.742  1.00  0.00    -0.072 OA 
BRANCH  14  17
HETATM   17  C   UNL     2      -9.132  11.296  70.011  1.00  0.00     1.848 C  
HETATM   18  C   UNL     2      -9.230   9.760  69.986  1.00  0.00    -0.229 C  
HETATM   19  H   UNL     2     -10.817  11.532  69.019  1.00  0.00     0.000 HD 
HETATM   20  O   UNL     2      -9.922  11.831  68.912  1.00  0.00    -0.151 OA 
HETATM   21  O   UNL     2      -9.232   9.212  68.810  1.00  0.00    -0.135 OA 
HETATM   22  O   UNL     2      -9.620   9.125  70.962  1.00  0.00    -0.251 OA 
ENDBRANCH  14  17
ENDBRANCH  11  14
ENDBRANCH   2  11
BRANCH   3  23
HETATM   23  C   UNL     3     -11.818  11.274  63.694  1.00  0.00     0.328 C  
HETATM   24  O   UNL     3     -10.828  11.206  62.659  1.00  0.00    -0.630 OA 
HETATM   25  H   UNL     3     -10.225  10.506  62.879  1.00  0.00     0.000 HD 
BRANCH  23  26
HETATM   26  C   UNL     3     -11.086  11.332  65.055  1.00  0.00    -0.089 C  
HETATM   27  O   UNL     3     -11.505  12.493  65.791  1.00  0.00    -0.328 OA 
HETATM   28  H   UNL     3     -11.055  12.528  66.628  1.00  0.00     0.000 HD 
BRANCH  26  29
HETATM   29  C   UNL     3      -9.568  11.427  64.780  1.00  0.00    -0.210 C  
HETATM   30  C   UNL     3      -8.715  10.181  65.127  1.00  0.00    -0.173 C  
HETATM   31  O   UNL     3      -8.993  12.573  65.498  1.00  0.00    -0.308 OA 
HETATM   32  O   UNL     3      -9.099   9.053  64.771  1.00  0.00    -0.165 OA 
HETATM   33  O   UNL     3      -7.635  10.529  65.774  1.00  0.00    -0.143 OA 
HETATM   34  H   UNL     3      -8.060  12.631  65.329  1.00  0.00     0.000 HD 
ENDBRANCH  26  29
ENDBRANCH  23  26
ENDBRANCH   3  23
BRANCH   3  35
HETATM   35  C   UNL     3     -13.497  13.056  64.525  1.00  0.00     1.129 C  
HETATM   36  O   UNL     3     -12.922  14.353  64.705  1.00  0.00    -0.592 OA 
HETATM   37  H   UNL     3     -13.364  14.762  65.440  1.00  0.00     0.000 HD 
ENDBRANCH   3  35
TORSDOF 8
ENDMDL
MODEL      307
REMARK 921   NORMALIZED FREE ENERGY PREDICTED BY IDOCK:    2.90 KCAL/MOL
REMARK 922        TOTAL FREE ENERGY PREDICTED BY IDOCK:    2.15 KCAL/MOL
REMARK 923 INTER-LIGAND FREE ENERGY PREDICTED BY IDOCK:    0.43 KCAL/MOL
REMARK 924 INTRA-LIGAND FREE ENERGY PREDICTED BY IDOCK:    1.72 KCAL/MOL
REMARK 927      BINDING AFFINITY PREDICTED BY RF-SCORE:    0.00 PKD
ROOT
HETATM    1 FE   UNL     1      -9.456  15.756  64.935  1.00  0.00    -0.197 Fe 
HETATM    2  C   UNL     2      -7.415   9.416  63.580  1.00  0.00    -0.107 C  
HETATM    3  C   UNL     3      -6.609  15.702  70.627  1.00  0.00     0.550 C  
HETATM    4  H   UNL     3      -4.706  15.896  70.256  1.00  0.00     0.000 HD 
HETATM    5  H   UNL     2      -6.607  10.987  62.696  1.00  0.00     0.000 HD 
HETATM    6  O   UNL     2      -7.144  10.245  62.445  1.00  0.00    -0.130 OA 
HETATM    7  O   UNL     3      -5.255  15.197  70.591  1.00  0.00    -0.122 OA 
ENDROOT
BRANCH   2   8
HETATM    8  C   UNL     2      -8.282   8.220  63.175  1.00  0.00    -0.104 C  
HETATM    9  H   UNL     2      -8.103   6.250  63.056  1.00  0.00     0.000 HD 
HETATM   10  O   UNL     2      -7.565   6.992  63.307  1.00  0.00    -0.094 OA 
ENDBRANCH   2   8
BRANCH   2  11
HETATM   11  C   UNL     2      -8.062  10.258  64.697  1.00  0.00    -0.154 C  
HETATM   12  H   UNL     2      -8.565  12.155  64.999  1.00  0.00     0.000 HD 
HETATM   13  O   UNL     2      -8.167  11.636  64.310  1.00  0.00     0.927 OA 
BRANCH  11  14
HETATM   14  C   UNL     2      -9.458   9.707  65.032  1.00  0.00    -0.245 C  
HETATM   15  H   UNL     2     -11.311  10.062  64.443  1.00  0.00     0.000 HD 
HETATM   16  O   UNL     2     -10.448  10.403  64.236  1.00  0.00    -0.199 OA 
BRANCH  14  17
HETATM   17  C   UNL     2      -9.864   9.842  66.496  1.00  0.00    -0.225 C  
HETATM   18  C   UNL     2      -8.985   8.974  67.416  1.00  0.00    -0.124 C  
HETATM   19  H   UNL     2     -11.498   9.488  67.536  1.00  0.00     0.000 HD 
HETATM   20  O   UNL     2     -11.245   9.404  66.625  1.00  0.00     0.349 OA 
HETATM   21  O   UNL     2      -9.306   7.719  67.486  1.00  0.00    -0.137 OA 
HETATM   22  O   UNL     2      -8.265   9.474  68.275  1.00  0.00    -0.111 OA 
ENDBRANCH  14  17
ENDBRANCH  11  14
ENDBRANCH   2  11
BRANCH   3  23
HETATM   23  C   UNL     3      -6.928  16.176  69.214  1.00  0.00    -0.210 C  
HETATM   24  O   UNL     3      -5.729  16.076  68.435  1.00  0.00    -0.099 OA 
HETATM   25  H   UNL     3      -5.928  16.371  67.554  1.00  0.00     0.000 HD 
BRANCH  23  26
HETATM   26  C   UNL     3      -8.064  15.468  68.439  1.00  0.00    -0.136 C  
HETATM   27  O   UNL     3      -8.912  14.752  69.352  1.00  0.00    -0.392 OA 
HETATM   28  H   UNL     3      -9.610  14.317  68.876  1.00  0.00     0.000 HD 
BRANCH  26  29
HETATM   29  C   UNL     3      -7.420  14.465  67.454  1.00  0.00    -0.159 C  
HETATM   30  C   UNL     3      -7.517  12.964  67.822  1.00  0.00    -0.136 C  
HETATM   31  O   UNL     3      -5.999  14.785  67.260  1.00  0.00    -0.305 OA 
HETATM   32  O   UNL     3      -8.604  12.490  68.195  1.00  0.00    -0.177 OA 
HETATM   33  O   UNL     3      -6.362  12.375  67.657  1.00  0.00    -0.098 OA 
HETATM   34  H   UNL     3      -5.604  14.169  66.655  1.00  0.00     0.000 HD 
ENDBRANCH  26  29
ENDBRANCH  23  26
ENDBRANCH   3  23
BRANCH   3  35
HETATM   35  C   UNL     3      -7.493  14.578  71.166  1.00  0.00     2.262 C  
HETATM   36  O   UNL     3      -6.636  13.484  71.508  1.00  0.00     0.003 OA 
HETATM   37  H   UNL     3      -7.185  12.784  71.844  1.00  0.00     0.000 HD 
ENDBRANCH   3  35
TORSDOF 8
ENDMDL
MODEL      308
REMARK 921   NORMALIZED FREE ENERGY PREDICTED BY IDOCK:    4.36 KCAL/MOL
REMARK 922        TOTAL FREE ENERGY PREDICTED BY IDOCK:    4.30 KCAL/MOL
REMARK 923 INTER-LIGAND FREE ENERGY PREDICTED BY IDOCK:    0.92 KCAL/MOL
REMARK 924 INTRA-LIGAND FREE ENERGY PREDICTED BY IDOCK:    3.38 KCAL/MOL
REMARK 927      BINDING AFFINITY PREDICTED BY RF-SCORE:    0.00 PKD
ROOT
HETATM    1 FE   UNL     1     -11.306  19.384  68.104  1.00  0.00    -0.305 Fe 
HETATM    2  C   UNL     2     -12.626  14.104  64.033  1.00  0.00     0.002 C  
HETATM    3  C   UNL     3      -5.969  16.676  70.270  1.00  0.00    -0.052 C  
HETATM    4  H   UNL     3      -4.672  16.865  68.829  1.00  0.00     0.000 HD 
HETATM    5  H   UNL     2     -11.988  15.836  63.328  1.00  0.00     0.000 HD 
HETATM    6  O   UNL     2     -12.783  15.317  63.289  1.00  0.00     0.229 OA 
HETATM    7  O   UNL     3      -5.132  16.134  69.225  1.00  0.00    -0.109 OA 
ENDROOT
BRANCH   2   8
HETATM    8  C   UNL     2     -13.907  13.268  63.971  1.00  0.00     3.706 C  
HETATM    9  H   UNL     2     -14.417  11.386  63.611  1.00  0.00     0.000 HD 
HETATM   10  O   UNL     2     -13.622  11.905  63.649  1.00  0.00    -0.337 OA 
ENDBRANCH   2   8
BRANCH   2  11
HETATM   11  C   UNL     2     -12.209  14.432  65.480  1.00  0.00    -0.348 C  
HETATM   12  H   UNL     2     -13.075  14.565  67.261  1.00  0.00     0.000 HD 
HETATM   13  O   UNL     2     -13.333  14.364  66.370  1.00  0.00     0.675 OA 
BRANCH  11  14
HETATM   14  C   UNL     2     -11.118  13.453  65.948  1.00  0.00    -0.280 C  
HETATM   15  H   UNL     2     -10.905  11.490  66.033  1.00  0.00     0.000 HD 
HETATM   16  O   UNL     2     -11.578  12.095  65.744  1.00  0.00    -0.366 OA 
BRANCH  14  17
HETATM   17  C   UNL     2     -10.723  13.592  67.415  1.00  0.00    -0.267 C  
HETATM   18  C   UNL     2     -11.403  14.803  68.079  1.00  0.00    -0.316 C  
HETATM   19  H   UNL     2      -9.034  13.864  68.391  1.00  0.00     0.000 HD 
HETATM   20  O   UNL     2      -9.281  13.777  67.478  1.00  0.00    -0.199 OA 
HETATM   21  O   UNL     2     -10.847  15.954  67.862  1.00  0.00    -0.308 OA 
HETATM   22  O   UNL     2     -12.193  14.665  69.010  1.00  0.00    -0.261 OA 
ENDBRANCH  14  17
ENDBRANCH  11  14
ENDBRANCH   2  11
BRANCH   3  23
HETATM   23  C   UNL     3      -6.848  17.733  69.611  1.00  0.00     0.066 C  
HETATM   24  O   UNL     3      -6.030  18.482  68.703  1.00  0.00    -0.194 OA 
HETATM   25  H   UNL     3      -6.578  19.141  68.293  1.00  0.00     0.000 HD 
BRANCH  23  26
HETATM   26  C   UNL     3      -8.111  17.270  68.849  1.00  0.00    -0.189 C  
HETATM   27  O   UNL     3      -8.926  16.447  69.699  1.00  0.00     0.014 OA 
HETATM   28  H   UNL     3      -9.702  16.162  69.231  1.00  0.00     0.000 HD 
BRANCH  26  29
HETATM   29  C   UNL     3      -7.656  16.441  67.626  1.00  0.00    -0.142 C  
HETATM   30  C   UNL     3      -8.069  16.971  66.230  1.00  0.00    -0.297 C  
HETATM   31  O   UNL     3      -8.145  15.060  67.740  1.00  0.00    -0.131 OA 
HETATM   32  O   UNL     3      -7.912  18.173  65.957  1.00  0.00    -0.468 OA 
HETATM   33  O   UNL     3      -8.537  16.001  65.491  1.00  0.00     0.081 OA 
HETATM   34  H   UNL     3      -7.865  14.550  66.988  1.00  0.00     0.000 HD 
ENDBRANCH  26  29
ENDBRANCH  23  26
ENDBRANCH   3  23
BRANCH   3  35
HETATM   35  C   UNL     3      -6.710  15.500  70.907  1.00  0.00     0.947 C  
HETATM   36  O   UNL     3      -6.879  14.501  69.896  1.00  0.00    -0.231 OA 
HETATM   37  H   UNL     3      -7.340  13.770  70.292  1.00  0.00     0.000 HD 
ENDBRANCH   3  35
TORSDOF 8
ENDMDL
MODEL      309
REMARK 921   NORMALIZED FREE ENERGY PREDICTED BY IDOCK:    4.79 KCAL/MOL
REMARK 922        TOTAL FREE ENERGY PREDICTED BY IDOCK:    4.94 KCAL/MOL
REMARK 923 INTER-LIGAND FREE ENERGY PREDICTED BY IDOCK:    5.24 KCAL/MOL
REMARK 924 INTRA-LIGAND FREE ENERGY PREDICTED BY IDOCK:   -0.30 KCAL/MOL
REMARK 927      BINDING AFFINITY PREDICTED BY RF-SCORE:    0.00 PKD
ROOT
HETATM    1 FE   UNL     1     -12.449  11.100  66.522  1.00  0.00     0.299 Fe 
HETATM    2  C   UNL     2     -13.476  14.906  72.058  1.00  0.00    -0.388 C  
HETATM    3  C   UNL     3      -6.133  11.759  66.957  1.00  0.00    -0.152 C  
HETATM    4  H   UNL     3      -5.592  10.599  68.426  1.00  0.00     0.000 HD 
HETATM    5  H   UNL     2     -13.718  12.946  72.076  1.00  0.00     0.000 HD 
HETATM    6  O   UNL     2     -14.266  13.717  72.157  1.00  0.00    -0.507 OA 
HETATM    7  O   UNL     3      -5.621  11.539  68.290  1.00  0.00    -0.046 OA 
ENDROOT
BRANCH   2   8
HETATM    8  C   UNL     2     -14.360  16.150  72.188  1.00  0.00     0.613 C  
HETATM    9  H   UNL     2     -14.526  17.715  73.393  1.00  0.00     0.000 HD 
HETATM   10  O   UNL     2     -13.977  16.943  73.312  1.00  0.00     0.609 OA 
ENDBRANCH   2   8
BRANCH   2  11
HETATM   11  C   UNL     2     -12.675  14.891  70.741  1.00  0.00    -0.363 C  
HETATM   12  H   UNL     2     -12.746  15.787  68.971  1.00  0.00     0.000 HD 
HETATM   13  O   UNL     2     -13.240  15.797  69.782  1.00  0.00     0.178 OA 
BRANCH  11  14
HETATM   14  C   UNL     2     -11.209  15.271  71.012  1.00  0.00    -0.335 C  
HETATM   15  H   UNL     2      -9.880  16.490  70.205  1.00  0.00     0.000 HD 
HETATM   16  O   UNL     2     -10.786  16.256  70.038  1.00  0.00    -0.321 OA 
BRANCH  14  17
HETATM   17  C   UNL     2     -10.226  14.106  70.950  1.00  0.00     2.668 C  
HETATM   18  C   UNL     2      -8.966  14.463  70.140  1.00  0.00     1.478 C  
HETATM   19  H   UNL     2     -10.280  12.261  70.264  1.00  0.00     0.000 HD 
HETATM   20  O   UNL     2     -10.892  12.986  70.303  1.00  0.00     0.784 OA 
HETATM   21  O   UNL     2      -9.080  14.382  68.851  1.00  0.00    -0.161 OA 
HETATM   22  O   UNL     2      -7.854  14.487  70.660  1.00  0.00     1.057 OA 
ENDBRANCH  14  17
ENDBRANCH  11  14
ENDBRANCH   2  11
BRANCH   3  23
HETATM   23  C   UNL     3      -7.475  11.040  66.889  1.00  0.00    -0.133 C  
HETATM   24  O   UNL     3      -8.259  11.463  68.012  1.00  0.00    -0.127 OA 
HETATM   25  H   UNL     3      -9.096  11.014  67.969  1.00  0.00     0.000 HD 
BRANCH  23  26
HETATM   26  C   UNL     3      -8.335  11.203  65.615  1.00  0.00     0.002 C  
HETATM   27  O   UNL     3      -9.367  12.179  65.837  1.00  0.00    -0.341 OA 
HETATM   28  H   UNL     3      -9.895  12.280  65.054  1.00  0.00     0.000 HD 
BRANCH  26  29
HETATM   29  C   UNL     3      -8.988   9.839  65.297  1.00  0.00    -0.193 C  
HETATM   30  C   UNL     3     -10.133   9.377  66.234  1.00  0.00    -0.258 C  
HETATM   31  O   UNL     3      -7.970   8.780  65.284  1.00  0.00    -0.106 OA 
HETATM   32  O   UNL     3     -11.038  10.172  66.539  1.00  0.00     0.044 OA 
HETATM   33  O   UNL     3      -9.972   8.125  66.572  1.00  0.00    -0.256 OA 
HETATM   34  H   UNL     3      -8.371   7.941  65.089  1.00  0.00     0.000 HD 
ENDBRANCH  26  29
ENDBRANCH  23  26
ENDBRANCH   3  23
BRANCH   3  35
HETATM   35  C   UNL     3      -6.179  13.272  66.739  1.00  0.00     1.541 C  
HETATM   36  O   UNL     3      -7.521  13.702  66.991  1.00  0.00    -0.351 OA 
HETATM   37  H   UNL     3      -7.549  14.642  66.856  1.00  0.00     0.000 HD 
ENDBRANCH   3  35
TORSDOF 8
ENDMDL
MODEL      310
REMARK 921   NORMALIZED FREE ENERGY PREDICTED BY IDOCK:    5.11 KCAL/MOL
REMARK 922        TOTAL FREE ENERGY PREDICTED BY IDOCK:    5.41 KCAL/MOL
REMARK 923 INTER-LIGAND FREE ENERGY PREDICTED BY IDOCK:    3.48 KCAL/MOL
REMARK 924 INTRA-LIGAND FREE ENERGY PREDICTED BY IDOCK:    1.92 KCAL/MOL
REMARK 927      BINDING AFFINITY PREDICTED BY RF-SCORE:    0.00 PKD
ROOT
HETATM    1 FE   UNL     1     -11.309  19.385  68.104  1.00  0.00    -0.305 Fe 
HETATM    2  C   UNL     2     -12.632  14.137  63.995  1.00  0.00     0.002 C  
HETATM    3  C   UNL     3      -6.056  16.591  70.364  1.00  0.00     0.149 C  
HETATM    4  H   UNL     3      -4.728  16.763  68.948  1.00  0.00     0.000 HD 
HETATM    5  H   UNL     2     -11.954  15.860  63.306  1.00  0.00     0.000 HD 
HETATM    6  O   UNL     2     -12.756  15.353  63.251  1.00  0.00     0.332 OA 
HETATM    7  O   UNL     3      -5.207  16.038  69.333  1.00  0.00    -0.109 OA 
ENDROOT
BRANCH   2   8
HETATM    8  C   UNL     2     -13.923  13.320  63.906  1.00  0.00     4.661 C  
HETATM    9  H   UNL     2     -14.497  11.442  64.182  1.00  0.00     0.000 HD 
HETATM   10  O   UNL     2     -13.695  11.949  64.237  1.00  0.00    -0.243 OA 
ENDBRANCH   2   8
BRANCH   2  11
HETATM   11  C   UNL     2     -12.237  14.454  65.450  1.00  0.00    -0.361 C  
HETATM   12  H   UNL     2     -12.964  14.135  67.269  1.00  0.00     0.000 HD 
HETATM   13  O   UNL     2     -13.208  13.939  66.373  1.00  0.00     0.140 OA 
BRANCH  11  14
HETATM   14  C   UNL     2     -10.855  13.854  65.764  1.00  0.00    -0.289 C  
HETATM   15  H   UNL     2      -8.987  14.219  65.234  1.00  0.00     0.000 HD 
HETATM   16  O   UNL     2      -9.841  14.591  65.040  1.00  0.00    -0.258 OA 
BRANCH  14  17
HETATM   17  C   UNL     2     -10.703  12.380  65.404  1.00  0.00    -0.282 C  
HETATM   18  C   UNL     2      -9.308  11.841  65.772  1.00  0.00    -0.185 C  
HETATM   19  H   UNL     2     -10.794  11.327  63.742  1.00  0.00     0.000 HD 
HETATM   20  O   UNL     2     -10.889  12.245  63.967  1.00  0.00    -0.322 OA 
HETATM   21  O   UNL     2      -8.359  12.103  64.928  1.00  0.00     1.336 OA 
HETATM   22  O   UNL     2      -9.164  10.951  66.605  1.00  0.00    -0.163 OA 
ENDBRANCH  14  17
ENDBRANCH  11  14
ENDBRANCH   2  11
BRANCH   3  23
HETATM   23  C   UNL     3      -6.906  17.663  69.691  1.00  0.00     0.063 C  
HETATM   24  O   UNL     3      -6.060  18.400  68.799  1.00  0.00    -0.196 OA 
HETATM   25  H   UNL     3      -6.590  19.068  68.380  1.00  0.00     0.000 HD 
BRANCH  23  26
HETATM   26  C   UNL     3      -8.162  17.221  68.906  1.00  0.00    -0.181 C  
HETATM   27  O   UNL     3      -8.513  15.872  69.256  1.00  0.00    -0.242 OA 
HETATM   28  H   UNL     3      -9.285  15.600  68.773  1.00  0.00     0.000 HD 
BRANCH  26  29
HETATM   29  C   UNL     3      -7.831  17.283  67.397  1.00  0.00    -0.180 C  
HETATM   30  C   UNL     3      -8.692  18.237  66.531  1.00  0.00    -0.274 C  
HETATM   31  O   UNL     3      -7.919  15.942  66.803  1.00  0.00    -0.226 OA 
HETATM   32  O   UNL     3      -8.910  19.396  66.923  1.00  0.00    -0.284 OA 
HETATM   33  O   UNL     3      -9.072  17.642  65.432  1.00  0.00     0.087 OA 
HETATM   34  H   UNL     3      -7.716  15.981  65.876  1.00  0.00     0.000 HD 
ENDBRANCH  26  29
ENDBRANCH  23  26
ENDBRANCH   3  23
BRANCH   3  35
HETATM   35  C   UNL     3      -6.826  15.425  70.983  1.00  0.00     1.165 C  
HETATM   36  O   UNL     3      -7.029  14.450  69.956  1.00  0.00    -0.352 OA 
HETATM   37  H   UNL     3      -7.508  13.725  70.340  1.00  0.00     0.000 HD 
ENDBRANCH   3  35
TORSDOF 8
ENDMDL
MODEL      311
REMARK 921   NORMALIZED FREE ENERGY PREDICTED BY IDOCK:    5.43 KCAL/MOL
REMARK 922        TOTAL FREE ENERGY PREDICTED BY IDOCK:    5.87 KCAL/MOL
REMARK 923 INTER-LIGAND FREE ENERGY PREDICTED BY IDOCK:    7.41 KCAL/MOL
REMARK 924 INTRA-LIGAND FREE ENERGY PREDICTED BY IDOCK:   -1.54 KCAL/MOL
REMARK 927      BINDING AFFINITY PREDICTED BY RF-SCORE:    0.00 PKD
ROOT
HETATM    1 FE   UNL     1      -9.284   7.533  68.489  1.00  0.00    -0.137 Fe 
HETATM    2  C   UNL     2     -11.134  12.664  64.435  1.00  0.00    -0.345 C  
HETATM    3  C   UNL     3     -13.064   9.574  73.185  1.00  0.00     1.256 C  
HETATM    4  H   UNL     3     -14.873   9.104  72.635  1.00  0.00     0.000 HD 
HETATM    5  H   UNL     2     -11.761  10.815  64.135  1.00  0.00     0.000 HD 
HETATM    6  O   UNL     2     -11.197  11.441  63.696  1.00  0.00    -0.402 OA 
HETATM    7  O   UNL     3     -14.397   9.919  72.745  1.00  0.00     0.065 OA 
ENDROOT
BRANCH   2   8
HETATM    8  C   UNL     2     -10.225  13.672  63.727  1.00  0.00     1.401 C  
HETATM    9  H   UNL     2      -8.943  15.100  64.227  1.00  0.00     0.000 HD 
HETATM   10  O   UNL     2      -9.507  14.475  64.667  1.00  0.00     0.458 OA 
ENDBRANCH   2   8
BRANCH   2  11
HETATM   11  C   UNL     2     -10.679  12.377  65.879  1.00  0.00    -0.266 C  
HETATM   12  H   UNL     2     -11.139  12.991  67.711  1.00  0.00     0.000 HD 
HETATM   13  O   UNL     2     -11.419  13.168  66.821  1.00  0.00    -0.312 OA 
BRANCH  11  14
HETATM   14  C   UNL     2     -10.861  10.884  66.202  1.00  0.00    -0.098 C  
HETATM   15  H   UNL     2     -11.996   9.816  67.417  1.00  0.00     0.000 HD 
HETATM   16  O   UNL     2     -11.884  10.738  67.218  1.00  0.00    -0.298 OA 
BRANCH  14  17
HETATM   17  C   UNL     2      -9.605  10.182  66.707  1.00  0.00    -0.177 C  
HETATM   18  C   UNL     2      -8.702   9.722  65.547  1.00  0.00    -0.149 C  
HETATM   19  H   UNL     2      -9.233   8.574  67.782  1.00  0.00     0.000 HD 
HETATM   20  O   UNL     2     -10.016   9.012  67.468  1.00  0.00    -0.180 OA 
HETATM   21  O   UNL     2      -9.041   8.611  64.972  1.00  0.00    -0.087 OA 
HETATM   22  O   UNL     2      -7.568  10.172  65.399  1.00  0.00    -0.133 OA 
ENDBRANCH  14  17
ENDBRANCH  11  14
ENDBRANCH   2  11
BRANCH   3  23
HETATM   23  C   UNL     3     -12.502   8.615  72.142  1.00  0.00    -0.389 C  
HETATM   24  O   UNL     3     -13.608   7.975  71.492  1.00  0.00    -0.398 OA 
HETATM   25  H   UNL     3     -13.257   7.376  70.843  1.00  0.00     0.000 HD 
BRANCH  23  26
HETATM   26  C   UNL     3     -11.566   9.180  71.050  1.00  0.00    -0.306 C  
HETATM   27  O   UNL     3     -12.212   9.122  69.768  1.00  0.00    -0.019 OA 
HETATM   28  H   UNL     3     -11.636   9.469  69.096  1.00  0.00     0.000 HD 
BRANCH  26  29
HETATM   29  C   UNL     3     -10.289   8.310  71.014  1.00  0.00    -0.191 C  
HETATM   30  C   UNL     3     -10.477   6.784  71.205  1.00  0.00    -0.213 C  
HETATM   31  O   UNL     3      -9.333   8.770  72.031  1.00  0.00    -0.280 OA 
HETATM   32  O   UNL     3     -11.364   6.189  70.568  1.00  0.00    -0.336 OA 
HETATM   33  O   UNL     3      -9.602   6.316  72.054  1.00  0.00    -0.153 OA 
HETATM   34  H   UNL     3      -8.548   8.235  72.009  1.00  0.00     0.000 HD 
ENDBRANCH  26  29
ENDBRANCH  23  26
ENDBRANCH   3  23
BRANCH   3  35
HETATM   35  C   UNL     3     -12.298  10.886  73.362  1.00  0.00     8.124 C  
HETATM   36  O   UNL     3     -13.232  11.956  73.189  1.00  0.00     0.970 OA 
HETATM   37  H   UNL     3     -12.756  12.771  73.299  1.00  0.00     0.000 HD 
ENDBRANCH   3  35
TORSDOF 8
ENDMDL
MODEL      312
REMARK 921   NORMALIZED FREE ENERGY PREDICTED BY IDOCK:   11.45 KCAL/MOL
REMARK 922        TOTAL FREE ENERGY PREDICTED BY IDOCK:   14.70 KCAL/MOL
REMARK 923 INTER-LIGAND FREE ENERGY PREDICTED BY IDOCK:   13.01 KCAL/MOL
REMARK 924 INTRA-LIGAND FREE ENERGY PREDICTED BY IDOCK:    1.69 KCAL/MOL
REMARK 927      BINDING AFFINITY PREDICTED BY RF-SCORE:    0.00 PKD
ROOT
HETATM    1 FE   UNL     1      -9.041   6.366  70.035  1.00  0.00    -0.134 Fe 
HETATM    2  C   UNL     2     -11.225  12.743  69.171  1.00  0.00    -0.237 C  
HETATM    3  C   UNL     3     -10.183   4.903  63.946  1.00  0.00     0.823 C  
HETATM    4  H   UNL     3      -8.751   5.752  62.933  1.00  0.00     0.000 HD 
HETATM    5  H   UNL     2      -9.308  12.312  69.376  1.00  0.00     0.000 HD 
HETATM    6  O   UNL     2      -9.978  12.769  69.871  1.00  0.00     1.481 OA 
HETATM    7  O   UNL     3      -9.688   5.890  63.014  1.00  0.00     1.366 OA 
ENDROOT
BRANCH   2   8
HETATM    8  C   UNL     2     -12.305  13.479  69.969  1.00  0.00    -0.249 C  
HETATM    9  H   UNL     2     -13.536  13.097  71.475  1.00  0.00     0.000 HD 
HETATM   10  O   UNL     2     -12.866  12.640  70.979  1.00  0.00    -0.275 OA 
ENDBRANCH   2   8
BRANCH   2  11
HETATM   11  C   UNL     2     -11.617  11.285  68.859  1.00  0.00    -0.319 C  
HETATM   12  H   UNL     2     -13.267  10.181  68.849  1.00  0.00     0.000 HD 
HETATM   13  O   UNL     2     -13.025  11.079  69.042  1.00  0.00     0.125 OA 
BRANCH  11  14
HETATM   14  C   UNL     2     -11.225  10.932  67.414  1.00  0.00    -0.273 C  
HETATM   15  H   UNL     2     -10.296   9.439  66.513  1.00  0.00     0.000 HD 
HETATM   16  O   UNL     2     -10.538   9.657  67.406  1.00  0.00    -0.258 OA 
BRANCH  14  17
HETATM   17  C   UNL     2     -10.319  11.951  66.731  1.00  0.00    -0.209 C  
HETATM   18  C   UNL     2     -10.017  11.562  65.272  1.00  0.00    -0.260 C  
HETATM   19  H   UNL     2      -8.500  12.639  67.041  1.00  0.00     0.000 HD 
HETATM   20  O   UNL     2      -9.064  12.004  67.466  1.00  0.00    -0.167 OA 
HETATM   21  O   UNL     2      -9.083  10.679  65.103  1.00  0.00    -0.185 OA 
HETATM   22  O   UNL     2     -10.377  12.266  64.332  1.00  0.00    -0.299 OA 
ENDBRANCH  14  17
ENDBRANCH  11  14
ENDBRANCH   2  11
BRANCH   3  23
HETATM   23  C   UNL     3      -9.376   5.081  65.227  1.00  0.00    -0.084 C  
HETATM   24  O   UNL     3     -10.295   5.104  66.327  1.00  0.00    -0.236 OA 
HETATM   25  H   UNL     3      -9.791   5.216  67.125  1.00  0.00     0.000 HD 
BRANCH  23  26
HETATM   26  C   UNL     3      -8.269   4.051  65.549  1.00  0.00    -0.105 C  
HETATM   27  O   UNL     3      -8.477   2.849  64.788  1.00  0.00    -0.090 OA 
HETATM   28  H   UNL     3      -7.797   2.216  64.986  1.00  0.00     0.000 HD 
BRANCH  26  29
HETATM   29  C   UNL     3      -8.349   3.715  67.057  1.00  0.00    -0.099 C  
HETATM   30  C   UNL     3      -9.315   2.577  67.469  1.00  0.00    -0.129 C  
HETATM   31  O   UNL     3      -8.719   4.913  67.823  1.00  0.00    -0.103 OA 
HETATM   32  O   UNL     3      -9.308   1.505  66.839  1.00  0.00    -0.050 OA 
HETATM   33  O   UNL     3     -10.029   2.933  68.503  1.00  0.00     0.192 OA 
HETATM   34  H   UNL     3      -8.768   4.707  68.750  1.00  0.00     0.000 HD 
ENDBRANCH  26  29
ENDBRANCH  23  26
ENDBRANCH   3  23
BRANCH   3  35
HETATM   35  C   UNL     3     -11.690   5.125  64.076  1.00  0.00     3.565 C  
HETATM   36  O   UNL     3     -11.999   6.366  63.434  1.00  0.00     9.217 OA 
HETATM   37  H   UNL     3     -12.935   6.504  63.514  1.00  0.00     0.000 HD 
ENDBRANCH   3  35
TORSDOF 8
ENDMDL
MODEL      313
REMARK 921   NORMALIZED FREE ENERGY PREDICTED BY IDOCK:   19.69 KCAL/MOL
REMARK 922        TOTAL FREE ENERGY PREDICTED BY IDOCK:   26.81 KCAL/MOL
REMARK 923 INTER-LIGAND FREE ENERGY PREDICTED BY IDOCK:   22.04 KCAL/MOL
REMARK 924 INTRA-LIGAND FREE ENERGY PREDICTED BY IDOCK:    4.77 KCAL/MOL
REMARK 927      BINDING AFFINITY PREDICTED BY RF-SCORE:    0.00 PKD
ROOT
HETATM    1 FE   UNL     1      -9.284   7.533  68.490  1.00  0.00    -0.137 Fe 
HETATM    2  C   UNL     2     -11.174  12.584  64.354  1.00  0.00    -0.339 C  
HETATM    3  C   UNL     3     -13.003   9.678  73.189  1.00  0.00     1.604 C  
HETATM    4  H   UNL     3     -14.819   9.200  72.670  1.00  0.00     0.000 HD 
HETATM    5  H   UNL     2     -11.808  10.730  64.100  1.00  0.00     0.000 HD 
HETATM    6  O   UNL     2     -11.249  11.346  63.641  1.00  0.00    -0.402 OA 
HETATM    7  O   UNL     3     -14.340  10.016  72.758  1.00  0.00     0.195 OA 
ENDROOT
BRANCH   2   8
HETATM    8  C   UNL     2     -10.272  13.575  63.615  1.00  0.00     1.511 C  
HETATM    9  H   UNL     2      -8.477  13.584  62.773  1.00  0.00     0.000 HD 
HETATM   10  O   UNL     2      -9.037  12.968  63.232  1.00  0.00     2.007 OA 
ENDBRANCH   2   8
BRANCH   2  11
HETATM   11  C   UNL     2     -10.702  12.325  65.798  1.00  0.00    -0.263 C  
HETATM   12  H   UNL     2     -10.997  13.108  67.599  1.00  0.00     0.000 HD 
HETATM   13  O   UNL     2     -11.287  13.268  66.709  1.00  0.00    -0.304 OA 
BRANCH  11  14
HETATM   14  C   UNL     2     -11.072  10.895  66.226  1.00  0.00     0.033 C  
HETATM   15  H   UNL     2     -12.290  10.071  67.546  1.00  0.00     0.000 HD 
HETATM   16  O   UNL     2     -12.062  10.955  67.282  1.00  0.00     0.046 OA 
BRANCH  14  17
HETATM   17  C   UNL     2      -9.903  10.058  66.734  1.00  0.00    -0.198 C  
HETATM   18  C   UNL     2      -9.121   9.406  65.579  1.00  0.00    -0.218 C  
HETATM   19  H   UNL     2      -9.709   8.484  67.902  1.00  0.00     0.000 HD 
HETATM   20  O   UNL     2     -10.437   9.005  67.585  1.00  0.00    -0.245 OA 
HETATM   21  O   UNL     2      -9.632   8.319  65.090  1.00  0.00     0.495 OA 
HETATM   22  O   UNL     2      -7.944   9.684  65.363  1.00  0.00    -0.113 OA 
ENDBRANCH  14  17
ENDBRANCH  11  14
ENDBRANCH   2  11
BRANCH   3  23
HETATM   23  C   UNL     3     -12.455   8.696  72.159  1.00  0.00    -0.389 C  
HETATM   24  O   UNL     3     -12.202   7.454  72.828  1.00  0.00    -0.529 OA 
HETATM   25  H   UNL     3     -11.860   6.842  72.186  1.00  0.00     0.000 HD 
BRANCH  23  26
HETATM   26  C   UNL     3     -13.303   8.400  70.901  1.00  0.00     0.303 C  
HETATM   27  O   UNL     3     -13.419   6.980  70.708  1.00  0.00    -0.469 OA 
HETATM   28  H   UNL     3     -13.940   6.798  69.934  1.00  0.00     0.000 HD 
BRANCH  26  29
HETATM   29  C   UNL     3     -12.584   9.020  69.681  1.00  0.00     2.018 C  
HETATM   30  C   UNL     3     -12.576  10.566  69.586  1.00  0.00     0.128 C  
HETATM   31  O   UNL     3     -13.163   8.501  68.434  1.00  0.00     8.349 OA 
HETATM   32  O   UNL     3     -12.284  11.243  70.586  1.00  0.00    -0.349 OA 
HETATM   33  O   UNL     3     -12.883  10.953  68.376  1.00  0.00     0.831 OA 
HETATM   34  H   UNL     3     -12.721   8.882  67.684  1.00  0.00     0.000 HD 
ENDBRANCH  26  29
ENDBRANCH  23  26
ENDBRANCH   3  23
BRANCH   3  35
HETATM   35  C   UNL     3     -12.233  10.991  73.329  1.00  0.00     7.634 C  
HETATM   36  O   UNL     3     -13.167  12.060  73.147  1.00  0.00     0.841 OA 
HETATM   37  H   UNL     3     -12.688  12.876  73.234  1.00  0.00     0.000 HD 
ENDBRANCH   3  35
TORSDOF 8
ENDMDL
MODEL      314
REMARK 921   NORMALIZED FREE ENERGY PREDICTED BY IDOCK:   38.98 KCAL/MOL
REMARK 922        TOTAL FREE ENERGY PREDICTED BY IDOCK:   55.11 KCAL/MOL
REMARK 923 INTER-LIGAND FREE ENERGY PREDICTED BY IDOCK:   55.30 KCAL/MOL
REMARK 924 INTRA-LIGAND FREE ENERGY PREDICTED BY IDOCK:   -0.19 KCAL/MOL
REMARK 927      BINDING AFFINITY PREDICTED BY RF-SCORE:    0.00 PKD
ROOT
HETATM    1 FE   UNL     1     -14.358  14.228  71.330  1.00  0.00    -0.360 Fe 
HETATM    2  C   UNL     2     -10.736  17.713  66.756  1.00  0.00    -0.129 C  
HETATM    3  C   UNL     3     -10.937   8.949  70.360  1.00  0.00    -0.244 C  
HETATM    4  H   UNL     3      -9.236   9.263  71.256  1.00  0.00     0.000 HD 
HETATM    5  H   UNL     2     -10.539  18.016  68.698  1.00  0.00     0.000 HD 
HETATM    6  O   UNL     2     -10.863  18.498  67.946  1.00  0.00    -0.350 OA 
HETATM    7  O   UNL     3      -9.511   9.180  70.350  1.00  0.00    -0.190 OA 
ENDROOT
BRANCH   2   8
HETATM    8  C   UNL     2     -11.258  18.489  65.544  1.00  0.00     0.945 C  
HETATM    9  H   UNL     2     -10.728  18.800  63.659  1.00  0.00     0.000 HD 
HETATM   10  O   UNL     2     -10.404  18.318  64.411  1.00  0.00     2.183 OA 
ENDBRANCH   2   8
BRANCH   2  11
HETATM   11  C   UNL     2     -11.457  16.364  66.944  1.00  0.00     0.571 C  
HETATM   12  H   UNL     2     -12.675  15.195  65.899  1.00  0.00     0.000 HD 
HETATM   13  O   UNL     2     -12.231  16.027  65.784  1.00  0.00     1.153 OA 
BRANCH  11  14
HETATM   14  C   UNL     2     -10.430  15.252  67.222  1.00  0.00    -0.275 C  
HETATM   15  H   UNL     2     -10.431  13.511  68.155  1.00  0.00     0.000 HD 
HETATM   16  O   UNL     2     -11.066  14.197  67.983  1.00  0.00    -0.253 OA 
BRANCH  14  17
HETATM   17  C   UNL     2      -9.196  15.703  67.996  1.00  0.00    -0.184 C  
HETATM   18  C   UNL     2      -8.183  16.426  67.089  1.00  0.00    -0.180 C  
HETATM   19  H   UNL     2      -7.789  14.801  69.039  1.00  0.00     0.000 HD 
HETATM   20  O   UNL     2      -8.557  14.521  68.556  1.00  0.00    -0.166 OA 
HETATM   21  O   UNL     2      -7.409  15.661  66.383  1.00  0.00     0.049 OA 
HETATM   22  O   UNL     2      -7.888  17.604  67.268  1.00  0.00    -0.199 OA 
ENDBRANCH  14  17
ENDBRANCH  11  14
ENDBRANCH   2  11
BRANCH   3  23
HETATM   23  C   UNL     3     -11.554  10.108  71.134  1.00  0.00    -0.346 C  
HETATM   24  O   UNL     3     -12.664   9.596  71.883  1.00  0.00    -0.374 OA 
HETATM   25  H   UNL     3     -13.049  10.319  72.365  1.00  0.00     0.000 HD 
BRANCH  23  26
HETATM   26  C   UNL     3     -10.653  10.910  72.101  1.00  0.00     7.148 C  
HETATM   27  O   UNL     3     -10.522  10.210  73.349  1.00  0.00     7.067 OA 
HETATM   28  H   UNL     3      -9.968  10.702  73.944  1.00  0.00     0.000 HD 
BRANCH  26  29
HETATM   29  C   UNL     3     -11.323  12.280  72.357  1.00  0.00     7.151 C  
HETATM   30  C   UNL     3     -10.901  13.035  73.642  1.00  0.00    12.638 C  
HETATM   31  O   UNL     3     -12.784  12.132  72.388  1.00  0.00     0.051 OA 
HETATM   32  O   UNL     3      -9.695  13.140  73.927  1.00  0.00    11.903 OA 
HETATM   33  O   UNL     3     -11.950  13.497  74.269  1.00  0.00     3.173 OA 
HETATM   34  H   UNL     3     -13.196  12.974  72.546  1.00  0.00     0.000 HD 
ENDBRANCH  26  29
ENDBRANCH  23  26
ENDBRANCH   3  23
BRANCH   3  35
HETATM   35  C   UNL     3     -11.379   8.815  68.902  1.00  0.00     0.563 C  
HETATM   36  O   UNL     3     -12.798   8.629  68.898  1.00  0.00     3.961 OA 
HETATM   37  H   UNL     3     -13.073   8.545  67.993  1.00  0.00     0.000 HD 
ENDBRANCH   3  35
TORSDOF 8
ENDMDL
MODEL      315
REMARK 921   NORMALIZED FREE ENERGY PREDICTED BY IDOCK:   55.99 KCAL/MOL
REMARK 922        TOTAL FREE ENERGY PREDICTED BY IDOCK:   80.07 KCAL/MOL
REMARK 923 INTER-LIGAND FREE ENERGY PREDICTED BY IDOCK:   80.29 KCAL/MOL
REMARK 924 INTRA-LIGAND FREE ENERGY PREDICTED BY IDOCK:   -0.21 KCAL/MOL
REMARK 927      BINDING AFFINITY PREDICTED BY RF-SCORE:    0.00 PKD
ROOT
HETATM    1 FE   UNL     1     -14.231  14.164  71.541  1.00  0.00    -0.347 Fe 
HETATM    2  C   UNL     2     -12.217  14.945  65.098  1.00  0.00    -0.114 C  
HETATM    3  C   UNL     3     -11.835   8.274  71.820  1.00  0.00    -0.306 C  
HETATM    4  H   UNL     3      -9.905   8.507  71.961  1.00  0.00     0.000 HD 
HETATM    5  H   UNL     2     -11.312  15.861  66.596  1.00  0.00     0.000 HD 
HETATM    6  O   UNL     2     -11.843  16.105  65.846  1.00  0.00     0.738 OA 
HETATM    7  O   UNL     3     -10.493   8.172  71.293  1.00  0.00    -0.204 OA 
ENDROOT
BRANCH   2   8
HETATM    8  C   UNL     2     -13.073  15.338  63.891  1.00  0.00     1.655 C  
HETATM    9  H   UNL     2     -13.213  14.863  61.971  1.00  0.00     0.000 HD 
HETATM   10  O   UNL     2     -12.682  14.619  62.720  1.00  0.00     0.695 OA 
ENDBRANCH   2   8
BRANCH   2  11
HETATM   11  C   UNL     2     -12.931  13.938  66.020  1.00  0.00    -0.090 C  
HETATM   12  H   UNL     2     -14.678  12.998  66.091  1.00  0.00     0.000 HD 
HETATM   13  O   UNL     2     -14.239  13.619  65.523  1.00  0.00     1.396 OA 
BRANCH  11  14
HETATM   14  C   UNL     2     -12.096  12.652  66.143  1.00  0.00    -0.333 C  
HETATM   15  H   UNL     2     -11.921  11.185  67.456  1.00  0.00     0.000 HD 
HETATM   16  O   UNL     2     -12.437  11.980  67.380  1.00  0.00    -0.030 OA 
BRANCH  14  17
HETATM   17  C   UNL     2     -10.586  12.868  66.135  1.00  0.00    -0.271 C  
HETATM   18  C   UNL     2     -10.050  13.108  64.712  1.00  0.00    -0.223 C  
HETATM   19  H   UNL     2      -9.015  11.806  66.668  1.00  0.00     0.000 HD 
HETATM   20  O   UNL     2      -9.955  11.672  66.673  1.00  0.00    -0.198 OA 
HETATM   21  O   UNL     2      -9.860  12.047  63.992  1.00  0.00    -0.271 OA 
HETATM   22  O   UNL     2      -9.519  14.170  64.397  1.00  0.00     0.720 OA 
ENDBRANCH  14  17
ENDBRANCH  11  14
ENDBRANCH   2  11
BRANCH   3  23
HETATM   23  C   UNL     3     -12.034   9.736  72.204  1.00  0.00     0.152 C  
HETATM   24  O   UNL     3     -13.110   9.799  73.150  1.00  0.00    -0.115 OA 
HETATM   25  H   UNL     3     -13.234  10.710  73.389  1.00  0.00     0.000 HD 
BRANCH  23  26
HETATM   26  C   UNL     3     -10.834  10.514  72.790  1.00  0.00     7.649 C  
HETATM   27  O   UNL     3     -11.199  11.114  74.044  1.00  0.00    14.689 OA 
HETATM   28  H   UNL     3     -10.461  11.592  74.405  1.00  0.00     0.000 HD 
BRANCH  26  29
HETATM   29  C   UNL     3     -10.448  11.627  71.789  1.00  0.00     8.868 C  
HETATM   30  C   UNL     3      -9.376  12.644  72.254  1.00  0.00    21.301 C  
HETATM   31  O   UNL     3     -11.641  12.388  71.393  1.00  0.00     0.683 OA 
HETATM   32  O   UNL     3      -8.333  12.236  72.792  1.00  0.00    18.012 OA 
HETATM   33  O   UNL     3      -9.749  13.865  71.973  1.00  0.00     6.666 OA 
HETATM   34  H   UNL     3     -11.404  13.072  70.778  1.00  0.00     0.000 HD 
ENDBRANCH  26  29
ENDBRANCH  23  26
ENDBRANCH   3  23
BRANCH   3  35
HETATM   35  C   UNL     3     -12.779   7.735  70.746  1.00  0.00     0.148 C  
HETATM   36  O   UNL     3     -14.115   7.866  71.243  1.00  0.00    -0.582 OA 
HETATM   37  H   UNL     3     -14.702   7.531  70.575  1.00  0.00     0.000 HD 
ENDBRANCH   3  35
TORSDOF 8
ENDMDL
