MODEL        1
REMARK 921   NORMALIZED FREE ENERGY PREDICTED BY IDOCK:   -8.14 KCAL/MOL
REMARK 922        TOTAL FREE ENERGY PREDICTED BY IDOCK:  -10.64 KCAL/MOL
REMARK 923 INTER-LIGAND FREE ENERGY PREDICTED BY IDOCK:   -9.09 KCAL/MOL
REMARK 924 INTRA-LIGAND FREE ENERGY PREDICTED BY IDOCK:   -1.55 KCAL/MOL
REMARK 927      BINDING AFFINITY PREDICTED BY RF-SCORE:    0.00 PKD
ROOT
HETATM    1 FE   UNL     1     -13.984  11.291  69.886  1.00  0.00     0.583 Fe 
HETATM    2 FE   UNL     2      -8.577   8.488  66.511  1.00  0.00    -0.101 Fe 
HETATM    3 FE   UNL     3      -8.858   7.578  73.533  1.00  0.00    -0.122 Fe 
HETATM    4 FE   UNL     4      -8.282  14.290  68.757  1.00  0.00    -0.117 Fe 
HETATM    5  O   UNL     5      -9.909   9.869  69.729  1.00  0.00    -0.212 OA 
HETATM    6  P   UNL     5     -10.458  10.948  68.492  1.00  0.00    -0.216 P  
HETATM    7  O   UNL     6     -10.027   9.943  69.591  1.00  0.00    -0.204 OA 
HETATM    8  P   UNL     6     -10.576  11.022  68.355  1.00  0.00    -0.228 P  
HETATM    9  O   UNL     5     -11.006  12.026  67.256  1.00  0.00    -0.237 OA 
HETATM   10  O   UNL     7      -9.988   9.981  69.590  1.00  0.00    -0.212 OA 
HETATM   11  O   UNL     5     -12.171  10.232  69.631  1.00  0.00    -0.116 OA 
HETATM   12  O   UNL     5      -9.479  12.261  69.531  1.00  0.00     0.885 OA 
HETATM   13  O   UNL     6     -11.125  12.100  67.118  1.00  0.00    -0.259 OA 
HETATM   14  O   UNL     6     -11.828  12.018  69.494  1.00  0.00    -0.304 OA 
HETATM   15  O   UNL     6     -12.397  10.122  67.723  1.00  0.00     1.670 OA 
HETATM   16  O   UNL     8      -6.794   4.827  63.888  1.00  0.00    -0.042 OA 
HETATM   17  P   UNL     7     -10.536  11.059  68.353  1.00  0.00    -0.228 P  
HETATM   18  P   UNL     5      -9.771  11.236  65.649  1.00  0.00    -0.248 P  
HETATM   19  O   UNL     7      -9.022  10.118  67.501  1.00  0.00    -0.131 OA 
HETATM   20  O   UNL     7     -10.654   9.495  67.122  1.00  0.00    -0.257 OA 
HETATM   21  O   UNL     7     -11.085  12.138  67.116  1.00  0.00    -0.259 OA 
HETATM   22  O   UNL     5     -11.031  11.579  64.742  1.00  0.00    -0.310 OA 
HETATM   23  C   UNL     8      -7.367   5.642  64.900  1.00  0.00    -0.071 C  
HETATM   24  H   UNL     8      -6.651   3.986  64.305  1.00  0.00     0.000 HD 
HETATM   25  O   UNL     5      -8.624  11.856  66.688  1.00  0.00    -0.187 OA 
HETATM   26  P   UNL     6     -11.668  13.576  67.839  1.00  0.00    -0.353 P  
HETATM   27  O   UNL     9     -13.525  15.024  70.197  1.00  0.00    -0.498 OA 
HETATM   28  O   UNL     5      -8.731  11.841  64.678  1.00  0.00     0.463 OA 
HETATM   29  C   UNL     8      -8.770   5.121  65.391  1.00  0.00    -0.149 C  
HETATM   30  C   UNL     8      -7.600   7.008  64.225  1.00  0.00    -0.112 C  
HETATM   31  P   UNL     7      -9.885  13.775  66.245  1.00  0.00    -0.267 P  
HETATM   32  O   UNL     6     -12.156  14.896  68.485  1.00  0.00    -0.263 OA 
HETATM   33  O   UNL     6     -12.298  14.135  66.423  1.00  0.00    -0.460 OA 
HETATM   34  O   UNL    10      -5.230   8.676  69.662  1.00  0.00    -0.030 OA 
HETATM   35  H   UNL     9     -13.103  14.628  69.445  1.00  0.00     0.000 HD 
HETATM   36  C   UNL     8      -6.407   5.791  66.143  1.00  0.00    -0.039 C  
HETATM   37  C   UNL     9     -12.401  15.073  71.185  1.00  0.00    -0.327 C  
HETATM   38  O   UNL     6     -10.219  14.070  68.443  1.00  0.00    -0.228 OA 
HETATM   39  C   UNL     9     -12.117  13.612  71.416  1.00  0.00    -0.038 C  
HETATM   40  C   UNL     9     -11.033  15.920  70.602  1.00  0.00    -0.291 C  
HETATM   41  C   UNL     9     -13.067  15.697  72.370  1.00  0.00    -0.544 C  
HETATM   42  O   UNL     8      -7.029   5.987  67.244  1.00  0.00    -0.065 OA 
HETATM   43  O   UNL     8      -5.184   5.940  65.907  1.00  0.00    -0.009 OA 
HETATM   44  C   UNL    10      -6.538   9.194  69.517  1.00  0.00    -0.043 C  
HETATM   45  H   UNL    10      -4.735   8.716  68.852  1.00  0.00     0.000 HD 
HETATM   46  C   UNL     8      -7.085   8.470  64.185  1.00  0.00    -0.086 C  
HETATM   47  O   UNL     7     -10.353  15.179  66.685  1.00  0.00    -0.263 OA 
HETATM   48  O   UNL     7     -10.115  13.691  64.773  1.00  0.00    -0.349 OA 
HETATM   49  O   UNL     7      -8.504  13.878  67.021  1.00  0.00    -0.199 OA 
HETATM   50  C   UNL     8      -9.559   3.863  65.104  1.00  0.00    -0.181 C  
HETATM   51  O   UNL     9     -11.238  17.136  70.309  1.00  0.00     0.306 OA 
HETATM   52  C   UNL    10      -6.518  10.653  68.909  1.00  0.00    -0.049 C  
HETATM   53  C   UNL    10      -7.280   8.305  68.483  1.00  0.00    -0.088 C  
HETATM   54  O   UNL     9      -9.926  15.266  70.298  1.00  0.00    -0.170 OA 
HETATM   55  C   UNL     9     -12.127  15.684  73.594  1.00  0.00    -0.493 C  
HETATM   56  C   UNL    10      -7.321   9.131  70.799  1.00  0.00    -0.120 C  
HETATM   57  O   UNL     8      -6.027   8.881  63.714  1.00  0.00    -0.071 OA 
HETATM   58  O   UNL     8     -10.785   4.010  65.430  1.00  0.00    -0.060 OA 
HETATM   59  O   UNL     8      -8.961   2.850  64.678  1.00  0.00    -0.111 OA 
HETATM   60  O   UNL     8      -8.014   9.120  64.905  1.00  0.00    -0.112 OA 
HETATM   61  O   UNL    10      -6.880  13.046  69.124  1.00  0.00    -0.104 OA 
HETATM   62  C   UNL    10      -6.289  11.985  69.644  1.00  0.00    -0.120 C  
HETATM   63  O   UNL    10      -6.967   8.519  67.261  1.00  0.00    -0.072 OA 
HETATM   64  O   UNL    10      -5.881  11.894  70.821  1.00  0.00    -0.304 OA 
HETATM   65  O   UNL    10      -8.520   7.953  68.564  1.00  0.00    -0.127 OA 
HETATM   66  O   UNL     9     -12.398  16.542  74.450  1.00  0.00    -0.681 OA 
HETATM   67  O   UNL     9     -11.311  14.751  73.631  1.00  0.00     0.236 OA 
ENDROOT
BRANCH  39  68
HETATM   68  C   UNL     9     -13.244  12.630  71.646  1.00  0.00    -0.298 C  
HETATM   69  O   UNL     9     -13.042  11.401  72.021  1.00  0.00    -0.487 OA 
HETATM   70  H   UNL     9     -14.925  12.354  72.604  1.00  0.00     0.000 HD 
HETATM   71  O   UNL     9     -14.217  12.970  72.459  1.00  0.00    -0.597 OA 
HETATM   72  H   UNL     9     -13.750  10.785  72.166  1.00  0.00     0.000 HD 
ENDBRANCH  39  68
BRANCH  56  73
HETATM   73  C   UNL    10      -7.328   8.692  72.184  1.00  0.00    -0.020 C  
HETATM   74  O   UNL    10      -6.675   9.299  73.127  1.00  0.00    -0.228 OA 
HETATM   75  O   UNL    10      -6.963   7.450  72.431  1.00  0.00    -0.062 OA 
HETATM   76  H   UNL    10      -6.967   7.164  73.337  1.00  0.00     0.000 HD 
HETATM   77  H   UNL    10      -6.679   9.012  74.033  1.00  0.00     0.000 HD 
ENDBRANCH  56  73
TORSDOF 2
ENDMDL
MODEL        2
REMARK 921   NORMALIZED FREE ENERGY PREDICTED BY IDOCK:   -5.77 KCAL/MOL
REMARK 922        TOTAL FREE ENERGY PREDICTED BY IDOCK:   -8.00 KCAL/MOL
REMARK 923 INTER-LIGAND FREE ENERGY PREDICTED BY IDOCK:   -7.58 KCAL/MOL
REMARK 924 INTRA-LIGAND FREE ENERGY PREDICTED BY IDOCK:   -0.41 KCAL/MOL
REMARK 927      BINDING AFFINITY PREDICTED BY RF-SCORE:    0.00 PKD
ROOT
HETATM    1 FE   UNL     1     -10.526   4.982  67.087  1.00  0.00    -0.163 Fe 
HETATM    2 FE   UNL     2     -10.635  11.873  68.076  1.00  0.00    -0.178 Fe 
HETATM    3 FE   UNL     3      -5.190   9.196  64.415  1.00  0.00    -0.046 Fe 
HETATM    4 FE   UNL     4      -7.829   8.102  72.163  1.00  0.00    -0.075 Fe 
HETATM    5  O   UNL     5      -8.565   8.811  67.463  1.00  0.00    -0.125 OA 
HETATM    6  P   UNL     5      -9.732   8.358  68.658  1.00  0.00    -0.172 P  
HETATM    7  O   UNL     6      -8.733   8.742  67.537  1.00  0.00    -0.132 OA 
HETATM    8  P   UNL     6      -9.900   8.289  68.731  1.00  0.00    -0.182 P  
HETATM    9  O   UNL     5     -10.898   7.904  69.852  1.00  0.00    -0.247 OA 
HETATM   10  O   UNL     7      -8.707   8.753  67.583  1.00  0.00    -0.133 OA 
HETATM   11  O   UNL     5      -9.864   6.988  66.970  1.00  0.00    -0.159 OA 
HETATM   12  O   UNL     5      -8.152   7.957  69.709  1.00  0.00    -0.112 OA 
HETATM   13  O   UNL     6     -11.067   7.836  69.925  1.00  0.00    -0.230 OA 
HETATM   14  O   UNL     6      -9.535   6.361  68.651  1.00  0.00    -0.124 OA 
HETATM   15  O   UNL     6     -11.563   7.678  67.553  1.00  0.00     0.767 OA 
HETATM   16  O   UNL     8     -12.284  16.216  66.705  1.00  0.00     1.214 OA 
HETATM   17  P   UNL     7      -9.874   8.299  68.778  1.00  0.00    -0.182 P  
HETATM   18  P   UNL     5     -11.626   9.909  70.284  1.00  0.00    -0.192 P  
HETATM   19  O   UNL     7      -9.850  10.272  68.886  1.00  0.00    -0.176 OA 
HETATM   20  O   UNL     7     -11.162   9.551  67.910  1.00  0.00    -0.097 OA 
HETATM   21  O   UNL     7     -11.040   7.846  69.972  1.00  0.00    -0.241 OA 
HETATM   22  O   UNL     5     -13.025   9.175  70.467  1.00  0.00     0.211 OA 
HETATM   23  C   UNL     8     -11.666  14.939  66.775  1.00  0.00    -0.233 C  
HETATM   24  H   UNL     8     -11.981  16.589  65.886  1.00  0.00     0.000 HD 
HETATM   25  O   UNL     5     -10.048   9.996  70.816  1.00  0.00    -0.125 OA 
HETATM   26  P   UNL     6     -10.578   6.356  70.676  1.00  0.00    -0.269 P  
HETATM   27  O   UNL     9      -9.494   3.231  70.268  1.00  0.00    -0.161 OA 
HETATM   28  O   UNL     5     -11.750  10.768  71.563  1.00  0.00    -0.030 OA 
HETATM   29  C   UNL     8     -12.125  13.968  65.623  1.00  0.00    -0.432 C  
HETATM   30  C   UNL     8     -12.158  14.333  68.104  1.00  0.00    -0.275 C  
HETATM   31  P   UNL     7     -10.850   8.240  72.137  1.00  0.00    -0.362 P  
HETATM   32  O   UNL     6     -10.141   5.031  71.348  1.00  0.00    -0.184 OA 
HETATM   33  O   UNL     6     -12.009   6.190  71.476  1.00  0.00    -0.249 OA 
HETATM   34  O   UNL    10      -6.160  12.930  68.219  1.00  0.00    -0.068 OA 
HETATM   35  H   UNL     9      -9.926   4.067  70.391  1.00  0.00     0.000 HD 
HETATM   36  C   UNL     8     -10.093  15.051  66.761  1.00  0.00    -0.254 C  
HETATM   37  C   UNL     9      -8.051   3.623  70.332  1.00  0.00    -0.053 C  
HETATM   38  O   UNL     6      -9.203   6.916  71.387  1.00  0.00    -0.155 OA 
HETATM   39  C   UNL     9      -7.906   4.503  69.118  1.00  0.00    -0.069 C  
HETATM   40  C   UNL     9      -7.641   4.436  71.781  1.00  0.00    -0.071 C  
HETATM   41  C   UNL     9      -7.371   2.305  70.138  1.00  0.00    -0.036 C  
HETATM   42  O   UNL     8      -9.516  14.025  66.257  1.00  0.00    -0.278 OA 
HETATM   43  O   UNL     8      -9.578  15.977  67.432  1.00  0.00    -0.223 OA 
HETATM   44  C   UNL    10      -6.939  11.750  68.227  1.00  0.00    -0.075 C  
HETATM   45  H   UNL    10      -6.537  13.616  68.757  1.00  0.00     0.000 HD 
HETATM   46  C   UNL     8     -11.698  13.963  69.538  1.00  0.00    -0.313 C  
HETATM   47  O   UNL     7     -10.558   6.973  72.968  1.00  0.00    -0.240 OA 
HETATM   48  O   UNL     7     -12.191   8.733  72.567  1.00  0.00    -0.364 OA 
HETATM   49  O   UNL     7      -9.428   8.883  72.426  1.00  0.00    -0.315 OA 
HETATM   50  C   UNL     8     -12.978  14.165  64.388  1.00  0.00     0.464 C  
HETATM   51  O   UNL     9      -7.826   3.768  72.842  1.00  0.00    -0.071 OA 
HETATM   52  C   UNL    10      -7.222  11.254  69.702  1.00  0.00     0.030 C  
HETATM   53  C   UNL    10      -8.323  12.102  67.618  1.00  0.00    -0.163 C  
HETATM   54  O   UNL     9      -7.359   5.727  71.762  1.00  0.00    -0.088 OA 
HETATM   55  C   UNL     9      -5.846   2.494  69.988  1.00  0.00    -0.018 C  
HETATM   56  C   UNL    10      -6.342  10.665  67.375  1.00  0.00    -0.058 C  
HETATM   57  O   UNL     8     -11.432  14.729  70.461  1.00  0.00    -0.270 OA 
HETATM   58  O   UNL     8     -13.379  13.043  63.930  1.00  0.00     0.077 OA 
HETATM   59  O   UNL     8     -13.131  15.318  63.929  1.00  0.00    -0.321 OA 
HETATM   60  O   UNL     8     -11.541  12.632  69.454  1.00  0.00    -0.288 OA 
HETATM   61  O   UNL    10      -6.916   9.640  71.492  1.00  0.00    -0.316 OA 
HETATM   62  C   UNL    10      -6.308  10.416  70.612  1.00  0.00    -0.063 C  
HETATM   63  O   UNL    10      -9.115  12.734  68.399  1.00  0.00    -0.192 OA 
HETATM   64  O   UNL    10      -5.131  10.272  70.219  1.00  0.00    -0.036 OA 
HETATM   65  O   UNL    10      -9.002  11.335  66.832  1.00  0.00    -0.154 OA 
HETATM   66  O   UNL     9      -5.181   1.483  70.268  1.00  0.00    -0.004 OA 
HETATM   67  O   UNL     9      -5.488   3.572  69.491  1.00  0.00    -0.015 OA 
ENDROOT
BRANCH  39  68
HETATM   68  C   UNL     9      -8.488   4.088  67.785  1.00  0.00    -0.095 C  
HETATM   69  O   UNL     9      -8.182   4.679  66.668  1.00  0.00    -0.106 OA 
HETATM   70  H   UNL     9      -8.756   2.569  66.585  1.00  0.00     0.000 HD 
HETATM   71  O   UNL     9      -8.391   2.829  67.422  1.00  0.00    -0.080 OA 
HETATM   72  H   UNL     9      -8.548   4.419  65.831  1.00  0.00     0.000 HD 
ENDBRANCH  39  68
BRANCH  56  73
HETATM   73  C   UNL    10      -5.277  10.309  66.454  1.00  0.00    -0.043 C  
HETATM   74  O   UNL    10      -5.142  10.845  65.279  1.00  0.00    -0.134 OA 
HETATM   75  O   UNL    10      -5.153   9.038  66.127  1.00  0.00    -0.032 OA 
HETATM   76  H   UNL    10      -4.457   8.806  65.524  1.00  0.00     0.000 HD 
HETATM   77  H   UNL    10      -4.445  10.613  64.676  1.00  0.00     0.000 HD 
ENDBRANCH  56  73
TORSDOF 2
ENDMDL
MODEL        3
REMARK 921   NORMALIZED FREE ENERGY PREDICTED BY IDOCK:   -4.70 KCAL/MOL
REMARK 922        TOTAL FREE ENERGY PREDICTED BY IDOCK:   -6.80 KCAL/MOL
REMARK 923 INTER-LIGAND FREE ENERGY PREDICTED BY IDOCK:   -5.53 KCAL/MOL
REMARK 924 INTRA-LIGAND FREE ENERGY PREDICTED BY IDOCK:   -1.28 KCAL/MOL
REMARK 927      BINDING AFFINITY PREDICTED BY RF-SCORE:    0.00 PKD
ROOT
HETATM    1 FE   UNL     1     -10.884   5.822  68.445  1.00  0.00    -0.169 Fe 
HETATM    2 FE   UNL     2     -10.160  12.740  68.741  1.00  0.00    -0.203 Fe 
HETATM    3 FE   UNL     3     -14.353  10.121  63.665  1.00  0.00     1.617 Fe 
HETATM    4 FE   UNL     4      -6.303   9.267  65.296  1.00  0.00    -0.058 Fe 
HETATM    5  O   UNL     5     -10.901   9.738  66.626  1.00  0.00    -0.090 OA 
HETATM    6  P   UNL     5      -9.556   9.292  67.618  1.00  0.00    -0.153 P  
HETATM    7  O   UNL     6     -10.806   9.666  66.781  1.00  0.00    -0.123 OA 
HETATM    8  P   UNL     6      -9.460   9.220  67.773  1.00  0.00    -0.145 P  
HETATM    9  O   UNL     5      -8.211   8.847  68.611  1.00  0.00    -0.113 OA 
HETATM   10  O   UNL     7     -10.763   9.680  66.750  1.00  0.00    -0.180 OA 
HETATM   11  O   UNL     5     -11.160   7.845  67.892  1.00  0.00     0.062 OA 
HETATM   12  O   UNL     5      -8.691   9.001  65.907  1.00  0.00    -0.146 OA 
HETATM   13  O   UNL     6      -8.115   8.775  68.765  1.00  0.00    -0.111 OA 
HETATM   14  O   UNL     6      -9.509   7.306  67.335  1.00  0.00    -0.127 OA 
HETATM   15  O   UNL     6     -10.401   8.493  69.537  1.00  0.00    -0.210 OA 
HETATM   16  O   UNL     8     -11.486  16.950  70.735  1.00  0.00    -0.406 OA 
HETATM   17  P   UNL     7      -9.418   9.234  67.742  1.00  0.00    -0.145 P  
HETATM   18  P   UNL     5      -7.771  10.838  69.369  1.00  0.00     0.019 P  
HETATM   19  O   UNL     7      -9.390  11.209  67.793  1.00  0.00    -0.159 OA 
HETATM   20  O   UNL     7     -10.169  10.394  69.180  1.00  0.00    -0.198 OA 
HETATM   21  O   UNL     7      -8.072   8.788  68.734  1.00  0.00    -0.111 OA 
HETATM   22  O   UNL     5      -7.390  10.058  70.702  1.00  0.00    -0.308 OA 
HETATM   23  C   UNL     8     -11.443  15.703  70.057  1.00  0.00    -0.344 C  
HETATM   24  H   UNL     8     -12.351  17.298  70.550  1.00  0.00     0.000 HD 
HETATM   25  O   UNL     5      -7.441  11.011  67.744  1.00  0.00    -0.091 OA 
HETATM   26  P   UNL     6      -7.372   7.350  68.124  1.00  0.00    -0.104 P  
HETATM   27  O   UNL     9      -7.789   4.255  66.960  1.00  0.00    -0.095 OA 
HETATM   28  O   UNL     5      -6.522  11.747  69.375  1.00  0.00    -0.100 OA 
HETATM   29  C   UNL     8     -12.491  14.664  70.608  1.00  0.00    -0.408 C  
HETATM   30  C   UNL     8     -10.041  15.137  70.357  1.00  0.00     0.155 C  
HETATM   31  P   UNL     7      -5.964   9.285  68.301  1.00  0.00    -0.045 P  
HETATM   32  O   UNL     6      -6.708   6.074  67.551  1.00  0.00    -0.054 OA 
HETATM   33  O   UNL     6      -6.398   7.163  69.439  1.00  0.00    -0.033 OA 
HETATM   34  O   UNL    10     -10.608  13.979  64.333  1.00  0.00    -0.588 OA 
HETATM   35  H   UNL     9      -7.646   5.079  67.411  1.00  0.00     0.000 HD 
HETATM   36  C   UNL     8     -11.655  15.876  68.504  1.00  0.00    -0.349 C  
HETATM   37  C   UNL     9      -7.918   4.706  65.538  1.00  0.00    -0.095 C  
HETATM   38  O   UNL     6      -6.858   7.994  66.700  1.00  0.00    -0.065 OA 
HETATM   39  C   UNL     9      -9.173   5.537  65.580  1.00  0.00    -0.100 C  
HETATM   40  C   UNL     9      -6.562   5.598  64.993  1.00  0.00    -0.043 C  
HETATM   41  C   UNL     9      -8.142   3.409  64.828  1.00  0.00    -0.090 C  
HETATM   42  O   UNL     8     -12.185  14.852  67.947  1.00  0.00    -0.167 OA 
HETATM   43  O   UNL     8     -11.088  16.850  67.954  1.00  0.00    -0.301 OA 
HETATM   44  C   UNL    10     -10.458  12.770  65.052  1.00  0.00    -0.314 C  
HETATM   45  H   UNL    10     -10.054  14.672  64.673  1.00  0.00     0.000 HD 
HETATM   46  C   UNL     8      -8.661  14.849  69.711  1.00  0.00     0.210 C  
HETATM   47  O   UNL     7      -5.126   8.068  67.855  1.00  0.00    -0.030 OA 
HETATM   48  O   UNL     7      -5.393   9.742  69.601  1.00  0.00    -0.034 OA 
HETATM   49  O   UNL     7      -5.877   9.996  66.884  1.00  0.00    -0.050 OA 
HETATM   50  C   UNL     8     -13.618  14.773  71.612  1.00  0.00    -0.405 C  
HETATM   51  O   UNL     9      -5.461   4.971  65.018  1.00  0.00    -0.013 OA 
HETATM   52  C   UNL    10      -8.942  12.329  65.132  1.00  0.00     0.668 C  
HETATM   53  C   UNL    10     -10.906  13.040  66.514  1.00  0.00    -0.279 C  
HETATM   54  O   UNL     9      -6.666   6.897  64.772  1.00  0.00    -0.041 OA 
HETATM   55  C   UNL     9      -8.485   3.651  63.343  1.00  0.00    -0.090 C  
HETATM   56  C   UNL    10     -11.334  11.673  64.514  1.00  0.00    -0.310 C  
HETATM   57  O   UNL     8      -7.808  15.665  69.370  1.00  0.00    -0.219 OA 
HETATM   58  O   UNL     8     -13.981  13.617  72.016  1.00  0.00    -0.455 OA 
HETATM   59  O   UNL     8     -14.100  15.897  71.871  1.00  0.00    -0.353 OA 
HETATM   60  O   UNL     8      -8.711  13.523  69.507  1.00  0.00     0.818 OA 
HETATM   61  O   UNL    10      -7.141  10.808  64.541  1.00  0.00     0.135 OA 
HETATM   62  C   UNL    10      -8.118  11.569  64.078  1.00  0.00     1.313 C  
HETATM   63  O   UNL    10     -10.059  13.674  67.233  1.00  0.00    -0.235 OA 
HETATM   64  O   UNL    10      -8.647  11.454  62.953  1.00  0.00    -0.076 OA 
HETATM   65  O   UNL    10     -11.573  12.212  67.248  1.00  0.00    -0.345 OA 
HETATM   66  O   UNL     9      -8.250   2.681  62.604  1.00  0.00    -0.071 OA 
HETATM   67  O   UNL     9      -9.063   4.720  63.096  1.00  0.00    -0.127 OA 
ENDROOT
BRANCH  39  68
HETATM   68  C   UNL     9     -10.407   5.040  66.300  1.00  0.00    -0.291 C  
HETATM   69  O   UNL     9     -11.464   4.614  65.673  1.00  0.00    -0.781 OA 
HETATM   70  H   UNL     9     -11.046   3.787  67.656  1.00  0.00     0.000 HD 
HETATM   71  O   UNL     9     -10.271   4.098  67.205  1.00  0.00    -0.049 OA 
HETATM   72  H   UNL     9     -12.239   4.302  66.125  1.00  0.00     0.000 HD 
ENDBRANCH  39  68
BRANCH  56  73
HETATM   73  C   UNL    10     -12.365  11.319  63.554  1.00  0.00     0.564 C  
HETATM   74  O   UNL    10     -12.107  10.848  62.373  1.00  0.00     0.295 OA 
HETATM   75  O   UNL    10     -13.241  12.249  63.230  1.00  0.00    -0.592 OA 
HETATM   76  H   UNL    10     -13.915  12.017  62.601  1.00  0.00     0.000 HD 
HETATM   77  H   UNL    10     -12.781  10.616  61.744  1.00  0.00     0.000 HD 
ENDBRANCH  56  73
TORSDOF 2
ENDMDL
MODEL        4
REMARK 921   NORMALIZED FREE ENERGY PREDICTED BY IDOCK:   -4.44 KCAL/MOL
REMARK 922        TOTAL FREE ENERGY PREDICTED BY IDOCK:   -6.51 KCAL/MOL
REMARK 923 INTER-LIGAND FREE ENERGY PREDICTED BY IDOCK:   -4.91 KCAL/MOL
REMARK 924 INTRA-LIGAND FREE ENERGY PREDICTED BY IDOCK:   -1.59 KCAL/MOL
REMARK 927      BINDING AFFINITY PREDICTED BY RF-SCORE:    0.00 PKD
ROOT
HETATM    1 FE   UNL     1     -11.704  12.698  65.855  1.00  0.00    -0.294 Fe 
HETATM    2 FE   UNL     2      -8.738   6.456  66.701  1.00  0.00    -0.110 Fe 
HETATM    3 FE   UNL     3     -14.401   7.936  70.694  1.00  0.00    -0.589 Fe 
HETATM    4 FE   UNL     4      -6.906  11.350  70.091  1.00  0.00    -0.124 Fe 
HETATM    5  O   UNL     5     -10.782   9.203  68.219  1.00  0.00    -0.199 OA 
HETATM    6  P   UNL     5      -9.497   9.990  67.368  1.00  0.00    -0.157 P  
HETATM    7  O   UNL     6     -10.688   9.289  68.070  1.00  0.00    -0.232 OA 
HETATM    8  P   UNL     6      -9.404  10.075  67.219  1.00  0.00    -0.152 P  
HETATM    9  O   UNL     5      -8.213  10.776  66.518  1.00  0.00    -0.136 OA 
HETATM   10  O   UNL     7     -10.650   9.294  68.108  1.00  0.00    -0.221 OA 
HETATM   11  O   UNL     5     -11.406  10.764  66.660  1.00  0.00    -0.192 OA 
HETATM   12  O   UNL     5      -9.099  10.720  69.121  1.00  0.00    -0.167 OA 
HETATM   13  O   UNL     6      -8.119  10.862  66.369  1.00  0.00    -0.153 OA 
HETATM   14  O   UNL     6     -10.148  11.888  67.355  1.00  0.00    -0.194 OA 
HETATM   15  O   UNL     6     -10.192  10.266  65.253  1.00  0.00    -0.307 OA 
HETATM   16  O   UNL     8      -8.244   1.879  65.193  1.00  0.00    -0.077 OA 
HETATM   17  P   UNL     7      -9.365  10.081  67.258  1.00  0.00    -0.152 P  
HETATM   18  P   UNL     5      -7.022   8.996  66.134  1.00  0.00    -0.087 P  
HETATM   19  O   UNL     7      -8.691   8.240  67.506  1.00  0.00    -0.127 OA 
HETATM   20  O   UNL     7      -9.426   8.604  65.919  1.00  0.00    -0.223 OA 
HETATM   21  O   UNL     7      -8.080  10.867  66.407  1.00  0.00    -0.153 OA 
HETATM   22  O   UNL     5      -6.678   9.730  64.766  1.00  0.00    -0.101 OA 
HETATM   23  C   UNL     8      -8.731   3.123  65.676  1.00  0.00    -0.126 C  
HETATM   24  H   UNL     8      -8.968   1.274  65.306  1.00  0.00     0.000 HD 
HETATM   25  O   UNL     5      -6.954   9.100  67.797  1.00  0.00    -0.076 OA 
HETATM   26  P   UNL     6      -8.007  12.509  66.887  1.00  0.00     0.177 P  
HETATM   27  O   UNL     9      -9.606  15.366  67.506  1.00  0.00    -0.206 OA 
HETATM   28  O   UNL     5      -5.566   8.576  66.438  1.00  0.00    -0.040 OA 
HETATM   29  C   UNL     8      -9.940   3.681  64.836  1.00  0.00    -0.137 C  
HETATM   30  C   UNL     8      -7.558   4.106  65.493  1.00  0.00    -0.085 C  
HETATM   31  P   UNL     7      -6.040  11.169  67.199  1.00  0.00    -0.109 P  
HETATM   32  O   UNL     6      -7.907  13.983  67.350  1.00  0.00    -0.177 OA 
HETATM   33  O   UNL     6      -6.924  12.895  65.707  1.00  0.00     2.838 OA 
HETATM   34  O   UNL    10      -9.553   5.558  71.139  1.00  0.00    -0.155 OA 
HETATM   35  H   UNL     9      -9.126  14.603  67.208  1.00  0.00     0.000 HD 
HETATM   36  C   UNL     8      -9.154   3.034  67.193  1.00  0.00    -0.175 C  
HETATM   37  C   UNL     9      -9.838  15.033  68.947  1.00  0.00    -0.233 C  
HETATM   38  O   UNL     6      -7.579  12.217  68.449  1.00  0.00    -0.116 OA 
HETATM   39  C   UNL     9     -10.727  13.821  68.855  1.00  0.00    -0.249 C  
HETATM   40  C   UNL     9      -8.390  14.718  69.803  1.00  0.00     0.268 C  
HETATM   41  C   UNL     9     -10.595  16.235  69.417  1.00  0.00    -0.301 C  
HETATM   42  O   UNL     8     -10.078   3.860  67.512  1.00  0.00     0.003 OA 
HETATM   43  O   UNL     8      -8.412   2.371  67.956  1.00  0.00    -0.069 OA 
HETATM   44  C   UNL    10      -9.674   6.671  70.274  1.00  0.00    -0.171 C  
HETATM   45  H   UNL    10      -8.753   5.069  70.986  1.00  0.00     0.000 HD 
HETATM   46  C   UNL     8      -6.487   4.910  66.275  1.00  0.00    -0.044 C  
HETATM   47  O   UNL     7      -5.738  12.636  67.570  1.00  0.00    -0.125 OA 
HETATM   48  O   UNL     7      -5.126  10.816  66.074  1.00  0.00    -0.071 OA 
HETATM   49  O   UNL     7      -5.986  10.668  68.704  1.00  0.00    -0.041 OA 
HETATM   50  C   UNL     8     -10.770   3.098  63.712  1.00  0.00    -0.202 C  
HETATM   51  O   UNL     9      -7.566  15.680  69.838  1.00  0.00    -0.104 OA 
HETATM   52  C   UNL    10      -8.395   7.597  70.342  1.00  0.00    -0.124 C  
HETATM   53  C   UNL    10      -9.738   6.128  68.822  1.00  0.00    -0.129 C  
HETATM   54  O   UNL     9      -8.106  13.489  70.199  1.00  0.00     1.821 OA 
HETATM   55  C   UNL     9     -11.105  16.030  70.859  1.00  0.00    -0.250 C  
HETATM   56  C   UNL    10     -10.941   7.445  70.515  1.00  0.00    -0.270 C  
HETATM   57  O   UNL     8      -5.492   4.473  66.850  1.00  0.00    -0.012 OA 
HETATM   58  O   UNL     8     -11.407   4.015  63.094  1.00  0.00     0.067 OA 
HETATM   59  O   UNL     8     -10.806   1.857  63.560  1.00  0.00    -0.168 OA 
HETATM   60  O   UNL     8      -7.000   6.151  66.270  1.00  0.00    -0.063 OA 
HETATM   61  O   UNL    10      -7.323   9.693  70.944  1.00  0.00    -0.288 OA 
HETATM   62  C   UNL    10      -8.068   8.689  71.374  1.00  0.00    -0.151 C  
HETATM   63  O   UNL    10      -8.615   5.759  68.331  1.00  0.00    -0.112 OA 
HETATM   64  O   UNL    10      -8.800   8.720  72.385  1.00  0.00    -0.391 OA 
HETATM   65  O   UNL    10     -10.492   6.603  67.887  1.00  0.00    -0.175 OA 
HETATM   66  O   UNL     9     -11.335  17.086  71.470  1.00  0.00     0.167 OA 
HETATM   67  O   UNL     9     -11.341  14.855  71.180  1.00  0.00    -0.289 OA 
ENDROOT
BRANCH  39  68
HETATM   68  C   UNL     9     -11.904  13.793  67.905  1.00  0.00    -0.378 C  
HETATM   69  O   UNL     9     -12.712  12.778  67.814  1.00  0.00     0.426 OA 
HETATM   70  H   UNL     9     -13.505  14.764  67.347  1.00  0.00     0.000 HD 
HETATM   71  O   UNL     9     -12.767  14.782  67.944  1.00  0.00     0.435 OA 
HETATM   72  H   UNL     9     -13.451  12.760  67.217  1.00  0.00     0.000 HD 
ENDBRANCH  39  68
BRANCH  56  73
HETATM   73  C   UNL    10     -12.187   7.511  71.259  1.00  0.00    -0.329 C  
HETATM   74  O   UNL    10     -12.529   8.529  71.987  1.00  0.00    -0.320 OA 
HETATM   75  O   UNL    10     -12.439   6.539  72.113  1.00  0.00    -0.502 OA 
HETATM   76  H   UNL    10     -13.254   6.583  72.599  1.00  0.00     0.000 HD 
HETATM   77  H   UNL    10     -13.344   8.573  72.473  1.00  0.00     0.000 HD 
ENDBRANCH  56  73
TORSDOF 2
ENDMDL
MODEL        5
REMARK 921   NORMALIZED FREE ENERGY PREDICTED BY IDOCK:    3.67 KCAL/MOL
REMARK 922        TOTAL FREE ENERGY PREDICTED BY IDOCK:    2.55 KCAL/MOL
REMARK 923 INTER-LIGAND FREE ENERGY PREDICTED BY IDOCK:    4.14 KCAL/MOL
REMARK 924 INTRA-LIGAND FREE ENERGY PREDICTED BY IDOCK:   -1.58 KCAL/MOL
REMARK 927      BINDING AFFINITY PREDICTED BY RF-SCORE:    0.00 PKD
ROOT
HETATM    1 FE   UNL     1      -6.902  14.650  69.992  1.00  0.00    -0.117 Fe 
HETATM    2 FE   UNL     2      -9.164   8.305  68.232  1.00  0.00    -0.131 Fe 
HETATM    3 FE   UNL     3      -5.128  11.743  63.530  1.00  0.00    -0.216 Fe 
HETATM    4 FE   UNL     4     -12.504  13.381  66.863  1.00  0.00    -0.344 Fe 
HETATM    5  O   UNL     5      -8.012  11.674  67.067  1.00  0.00    -0.152 OA 
HETATM    6  P   UNL     5      -9.087  11.976  68.388  1.00  0.00    -0.057 P  
HETATM    7  O   UNL     6      -8.069  11.703  67.252  1.00  0.00    -0.144 OA 
HETATM    8  P   UNL     6      -9.144  12.006  68.573  1.00  0.00     0.033 P  
HETATM    9  O   UNL     5     -10.161  12.279  69.710  1.00  0.00     0.783 OA 
HETATM   10  O   UNL     7      -8.117  11.709  67.227  1.00  0.00    -0.144 OA 
HETATM   11  O   UNL     5      -7.171  12.931  68.789  1.00  0.00    -0.102 OA 
HETATM   12  O   UNL     5     -10.062  12.993  67.055  1.00  0.00    -0.237 OA 
HETATM   13  O   UNL     6     -10.219  12.308  69.895  1.00  0.00     1.041 OA 
HETATM   14  O   UNL     6      -8.708  13.912  68.758  1.00  0.00    -0.115 OA 
HETATM   15  O   UNL     6      -7.853  11.896  70.261  1.00  0.00     1.708 OA 
HETATM   16  O   UNL     8      -8.613   3.501  68.507  1.00  0.00    -0.084 OA 
HETATM   17  P   UNL     7      -9.192  12.012  68.548  1.00  0.00     0.023 P  
HETATM   18  P   UNL     5     -10.954  10.259  69.873  1.00  0.00    -0.319 P  
HETATM   19  O   UNL     7      -9.669  10.180  67.981  1.00  0.00    -0.141 OA 
HETATM   20  O   UNL     7      -8.560  10.311  69.376  1.00  0.00    -0.158 OA 
HETATM   21  O   UNL     7     -10.267  12.314  69.870  1.00  0.00     1.041 OA 
HETATM   22  O   UNL     5     -10.980  10.580  71.431  1.00  0.00     0.458 OA 
HETATM   23  C   UNL     8      -8.449   4.893  68.277  1.00  0.00    -0.098 C  
HETATM   24  H   UNL     8      -7.881   3.092  68.059  1.00  0.00     0.000 HD 
HETATM   25  O   UNL     5     -11.510  10.723  68.372  1.00  0.00    -0.289 OA 
HETATM   26  P   UNL     6     -10.685  13.974  69.889  1.00  0.00     0.632 P  
HETATM   27  O   UNL     9      -9.710  17.156  69.700  1.00  0.00     0.088 OA 
HETATM   28  O   UNL     5     -12.369   9.640  69.834  1.00  0.00     0.223 OA 
HETATM   29  C   UNL     8      -7.131   5.472  68.915  1.00  0.00    -0.061 C  
HETATM   30  C   UNL     8      -9.635   5.557  69.004  1.00  0.00    -0.180 C  
HETATM   31  P   UNL     7     -12.470  12.379  69.717  1.00  0.00     0.426 P  
HETATM   32  O   UNL     6     -11.101  15.466  69.885  1.00  0.00    -0.250 OA 
HETATM   33  O   UNL     6     -11.422  13.861  71.358  1.00  0.00     0.434 OA 
HETATM   34  O   UNL    10      -9.553   8.619  63.658  1.00  0.00     0.576 OA 
HETATM   35  H   UNL     9      -9.982  16.266  69.887  1.00  0.00     0.000 HD 
HETATM   36  C   UNL     8      -8.474   5.236  66.738  1.00  0.00    -0.107 C  
HETATM   37  C   UNL     9      -9.862  17.212  68.212  1.00  0.00    -0.288 C  
HETATM   38  O   UNL     6     -11.503  13.967  68.462  1.00  0.00    -0.265 OA 
HETATM   39  C   UNL     9      -8.837  16.211  67.748  1.00  0.00    -0.184 C  
HETATM   40  C   UNL     9     -11.443  16.820  67.685  1.00  0.00     0.329 C  
HETATM   41  C   UNL     9      -9.433  18.614  67.916  1.00  0.00    -0.331 C  
HETATM   42  O   UNL     8      -7.793   6.279  66.440  1.00  0.00    -0.100 OA 
HETATM   43  O   UNL     8      -9.313   4.631  66.030  1.00  0.00    -0.137 OA 
HETATM   44  C   UNL    10      -9.332   9.507  64.736  1.00  0.00    -0.169 C  
HETATM   45  H   UNL    10     -10.206   7.960  63.863  1.00  0.00     0.000 HD 
HETATM   46  C   UNL     8     -10.980   6.289  68.759  1.00  0.00    -0.352 C  
HETATM   47  O   UNL     7     -13.051  13.803  69.846  1.00  0.00     0.219 OA 
HETATM   48  O   UNL     7     -12.968  11.607  70.891  1.00  0.00    -0.214 OA 
HETATM   49  O   UNL     7     -12.890  12.233  68.193  1.00  0.00     0.931 OA 
HETATM   50  C   UNL     8      -5.945   4.824  69.597  1.00  0.00    -0.018 C  
HETATM   51  O   UNL     9     -12.358  17.583  68.117  1.00  0.00     1.941 OA 
HETATM   52  C   UNL    10     -10.683  10.154  65.240  1.00  0.00     0.376 C  
HETATM   53  C   UNL    10      -8.783   8.672  65.924  1.00  0.00    -0.172 C  
HETATM   54  O   UNL     9     -11.669  15.682  67.052  1.00  0.00     0.033 OA 
HETATM   55  C   UNL     9      -9.338  18.847  66.394  1.00  0.00    -0.328 C  
HETATM   56  C   UNL    10      -8.298  10.550  64.413  1.00  0.00    -0.097 C  
HETATM   57  O   UNL     8     -12.033   5.808  68.349  1.00  0.00     1.786 OA 
HETATM   58  O   UNL     8      -5.280   5.684  70.266  1.00  0.00    -0.004 OA 
HETATM   59  O   UNL     8      -5.708   3.613  69.391  1.00  0.00    -0.016 OA 
HETATM   60  O   UNL     8     -10.650   7.573  68.976  1.00  0.00    -0.213 OA 
HETATM   61  O   UNL    10     -12.142  12.077  65.515  1.00  0.00    -0.479 OA 
HETATM   62  C   UNL    10     -11.431  11.366  64.658  1.00  0.00    -0.020 C  
HETATM   63  O   UNL    10      -9.660   7.987  66.556  1.00  0.00    -0.207 OA 
HETATM   64  O   UNL    10     -11.031  11.769  63.546  1.00  0.00    -0.396 OA 
HETATM   65  O   UNL    10      -7.859   9.061  66.738  1.00  0.00    -0.102 OA 
HETATM   66  O   UNL     9      -9.431  20.039  66.057  1.00  0.00    -0.396 OA 
HETATM   67  O   UNL     9      -9.056  17.847  65.717  1.00  0.00    -0.495 OA 
ENDROOT
BRANCH  39  68
HETATM   68  C   UNL     9      -7.444  16.200  68.336  1.00  0.00    -0.153 C  
HETATM   69  O   UNL     9      -6.451  15.568  67.782  1.00  0.00    -0.137 OA 
HETATM   70  H   UNL     9      -5.995  17.341  68.982  1.00  0.00     0.000 HD 
HETATM   71  O   UNL     9      -6.870  17.348  68.613  1.00  0.00    -0.197 OA 
HETATM   72  H   UNL     9      -5.575  15.561  68.151  1.00  0.00     0.000 HD 
ENDBRANCH  39  68
BRANCH  56  73
HETATM   73  C   UNL    10      -7.338  11.029  63.433  1.00  0.00     0.632 C  
HETATM   74  O   UNL    10      -7.675  11.692  62.369  1.00  0.00    -0.536 OA 
HETATM   75  O   UNL    10      -6.530  10.141  62.887  1.00  0.00    -0.124 OA 
HETATM   76  H   UNL    10      -5.903  10.454  62.247  1.00  0.00     0.000 HD 
HETATM   77  H   UNL    10      -7.047  12.005  61.729  1.00  0.00     0.000 HD 
ENDBRANCH  56  73
TORSDOF 2
ENDMDL
MODEL        6
REMARK 921   NORMALIZED FREE ENERGY PREDICTED BY IDOCK:    4.13 KCAL/MOL
REMARK 922        TOTAL FREE ENERGY PREDICTED BY IDOCK:    3.07 KCAL/MOL
REMARK 923 INTER-LIGAND FREE ENERGY PREDICTED BY IDOCK:    4.84 KCAL/MOL
REMARK 924 INTRA-LIGAND FREE ENERGY PREDICTED BY IDOCK:   -1.77 KCAL/MOL
REMARK 927      BINDING AFFINITY PREDICTED BY RF-SCORE:    0.00 PKD
ROOT
HETATM    1 FE   UNL     1      -5.125   8.072  71.694  1.00  0.00    -0.030 Fe 
HETATM    2 FE   UNL     2      -9.690  11.283  67.531  1.00  0.00    -0.163 Fe 
HETATM    3 FE   UNL     3     -11.511  10.449  74.328  1.00  0.00     7.486 Fe 
HETATM    4 FE   UNL     4      -9.835   5.099  68.265  1.00  0.00    -0.117 Fe 
HETATM    5  O   UNL     5      -9.143   9.235  70.620  1.00  0.00    -0.226 OA 
HETATM    6  P   UNL     5      -8.133   8.531  69.405  1.00  0.00    -0.115 P  
HETATM    7  O   UNL     6      -8.982   9.205  70.512  1.00  0.00    -0.191 OA 
HETATM    8  P   UNL     6      -7.972   8.500  69.298  1.00  0.00    -0.115 P  
HETATM    9  O   UNL     5      -7.122   7.827  68.191  1.00  0.00    -0.080 OA 
HETATM   10  O   UNL     7      -9.015   9.166  70.491  1.00  0.00    -0.191 OA 
HETATM   11  O   UNL     5      -6.918   9.048  71.137  1.00  0.00    -0.085 OA 
HETATM   12  O   UNL     5      -9.181   6.944  69.787  1.00  0.00    -0.147 OA 
HETATM   13  O   UNL     6      -6.962   7.796  68.083  1.00  0.00    -0.074 OA 
HETATM   14  O   UNL     6      -6.969   7.333  70.518  1.00  0.00    -0.055 OA 
HETATM   15  O   UNL     6      -6.182   9.638  69.460  1.00  0.00    -0.039 OA 
HETATM   16  O   UNL     8     -11.133  15.360  65.351  1.00  0.00    -0.343 OA 
HETATM   17  P   UNL     7      -8.004   8.462  69.276  1.00  0.00    -0.116 P  
HETATM   18  P   UNL     5      -7.951   8.911  66.496  1.00  0.00    -0.104 P  
HETATM   19  O   UNL     7      -9.329   9.489  68.230  1.00  0.00    -0.133 OA 
HETATM   20  O   UNL     7      -7.754  10.286  68.509  1.00  0.00    -0.086 OA 
HETATM   21  O   UNL     7      -6.994   7.758  68.061  1.00  0.00    -0.075 OA 
HETATM   22  O   UNL     5      -6.453   8.880  65.963  1.00  0.00    -0.059 OA 
HETATM   23  C   UNL     8     -10.765  14.357  66.287  1.00  0.00    -0.307 C  
HETATM   24  H   UNL     8     -11.498  16.062  65.877  1.00  0.00     0.000 HD 
HETATM   25  O   UNL     5      -9.251   7.985  66.977  1.00  0.00    -0.136 OA 
HETATM   26  P   UNL     6      -6.452   6.224  68.596  1.00  0.00    -0.053 P  
HETATM   27  O   UNL     9      -5.156   4.356  71.033  1.00  0.00     0.000 OA 
HETATM   28  O   UNL     5      -8.588   8.501  65.149  1.00  0.00    -0.177 OA 
HETATM   29  C   UNL     8      -9.638  14.827  67.282  1.00  0.00    -0.223 C  
HETATM   30  C   UNL     8     -10.174  13.217  65.435  1.00  0.00    -0.304 C  
HETATM   31  P   UNL     7      -7.674   6.315  66.533  1.00  0.00    -0.102 P  
HETATM   32  O   UNL     6      -5.995   4.818  69.056  1.00  0.00    -0.023 OA 
HETATM   33  O   UNL     6      -5.382   6.072  67.353  1.00  0.00    -0.005 OA 
HETATM   34  O   UNL    10     -13.731  10.118  69.397  1.00  0.00     0.759 OA 
HETATM   35  H   UNL     9      -5.399   4.899  70.293  1.00  0.00     0.000 HD 
HETATM   36  C   UNL     8     -12.007  13.848  67.116  1.00  0.00    -0.420 C  
HETATM   37  C   UNL     9      -6.495   3.997  71.597  1.00  0.00    -0.015 C  
HETATM   38  O   UNL     6      -7.934   5.508  68.609  1.00  0.00    -0.090 OA 
HETATM   39  C   UNL     9      -7.023   5.335  72.043  1.00  0.00    -0.078 C  
HETATM   40  C   UNL     9      -7.521   3.237  70.457  1.00  0.00    -0.040 C  
HETATM   41  C   UNL     9      -6.112   3.142  72.763  1.00  0.00    -0.009 C  
HETATM   42  O   UNL     8     -11.698  13.426  68.284  1.00  0.00    -0.315 OA 
HETATM   43  O   UNL     8     -13.083  13.687  66.494  1.00  0.00     0.150 OA 
HETATM   44  C   UNL    10     -12.379   9.733  69.547  1.00  0.00     0.780 C  
HETATM   45  H   UNL    10     -13.969  10.249  68.486  1.00  0.00     0.000 HD 
HETATM   46  C   UNL     8     -10.459  11.781  64.924  1.00  0.00    -0.287 C  
HETATM   47  O   UNL     7      -7.168   4.878  66.778  1.00  0.00    -0.077 OA 
HETATM   48  O   UNL     7      -7.055   6.774  65.255  1.00  0.00    -0.063 OA 
HETATM   49  O   UNL     7      -9.191   5.939  66.811  1.00  0.00    -0.126 OA 
HETATM   50  C   UNL     8      -8.973  16.163  67.528  1.00  0.00    -0.191 C  
HETATM   51  O   UNL     9      -7.083   2.146  69.984  1.00  0.00    -0.033 OA 
HETATM   52  C   UNL    10     -12.034   8.470  68.660  1.00  0.00     2.507 C  
HETATM   53  C   UNL    10     -11.501  10.893  69.007  1.00  0.00    -0.302 C  
HETATM   54  O   UNL     9      -8.575   3.877  69.981  1.00  0.00    -0.062 OA 
HETATM   55  C   UNL     9      -7.351   2.794  73.617  1.00  0.00    -0.042 C  
HETATM   56  C   UNL    10     -12.001   9.526  70.988  1.00  0.00    -0.407 C  
HETATM   57  O   UNL     8     -11.279  11.436  64.076  1.00  0.00    -0.368 OA 
HETATM   58  O   UNL     8      -7.879  16.016  68.170  1.00  0.00    -0.136 OA 
HETATM   59  O   UNL     8      -9.555  17.211  67.171  1.00  0.00    -0.245 OA 
HETATM   60  O   UNL     8      -9.692  11.032  65.732  1.00  0.00    -0.204 OA 
HETATM   61  O   UNL    10     -11.434   6.125  68.450  1.00  0.00    -0.152 OA 
HETATM   62  C   UNL    10     -12.283   6.987  68.983  1.00  0.00     1.896 C  
HETATM   63  O   UNL    10     -11.428  10.968  67.731  1.00  0.00    -0.425 OA 
HETATM   64  O   UNL    10     -13.012   6.760  69.971  1.00  0.00     0.799 OA 
HETATM   65  O   UNL    10     -10.391  11.290  69.534  1.00  0.00    -0.088 OA 
HETATM   66  O   UNL     9      -7.219   1.770  74.307  1.00  0.00    -0.026 OA 
HETATM   67  O   UNL     9      -8.260   3.638  73.606  1.00  0.00    -0.081 OA 
ENDROOT
BRANCH  39  68
HETATM   68  C   UNL     9      -6.145   6.297  72.812  1.00  0.00    -0.049 C  
HETATM   69  O   UNL     9      -6.622   7.309  73.475  1.00  0.00    -0.065 OA 
HETATM   70  H   UNL     9      -4.751   6.416  74.176  1.00  0.00     0.000 HD 
HETATM   71  O   UNL     9      -5.302   5.811  73.693  1.00  0.00    -0.023 OA 
HETATM   72  H   UNL     9      -6.071   7.914  73.958  1.00  0.00     0.000 HD 
ENDBRANCH  39  68
BRANCH  56  73
HETATM   73  C   UNL    10     -12.441   9.609  72.370  1.00  0.00    -0.040 C  
HETATM   74  O   UNL    10     -12.826   8.579  73.059  1.00  0.00    -0.701 OA 
HETATM   75  O   UNL    10     -13.429  10.437  72.647  1.00  0.00    -0.502 OA 
HETATM   76  H   UNL    10     -13.716  10.491  73.551  1.00  0.00     0.000 HD 
HETATM   77  H   UNL    10     -13.114   8.633  73.963  1.00  0.00     0.000 HD 
ENDBRANCH  56  73
TORSDOF 2
ENDMDL
MODEL        7
REMARK 921   NORMALIZED FREE ENERGY PREDICTED BY IDOCK:    5.58 KCAL/MOL
REMARK 922        TOTAL FREE ENERGY PREDICTED BY IDOCK:    4.68 KCAL/MOL
REMARK 923 INTER-LIGAND FREE ENERGY PREDICTED BY IDOCK:    6.04 KCAL/MOL
REMARK 924 INTRA-LIGAND FREE ENERGY PREDICTED BY IDOCK:   -1.36 KCAL/MOL
REMARK 927      BINDING AFFINITY PREDICTED BY RF-SCORE:    0.00 PKD
ROOT
HETATM    1 FE   UNL     1      -5.665  10.635  69.576  1.00  0.00    -0.038 Fe 
HETATM    2 FE   UNL     2      -9.623  15.750  66.998  1.00  0.00    -0.206 Fe 
HETATM    3 FE   UNL     3      -9.374  15.065  74.047  1.00  0.00     3.463 Fe 
HETATM    4 FE   UNL     4     -11.990  10.077  68.007  1.00  0.00    -0.523 Fe 
HETATM    5  O   UNL     5      -8.995  13.373  69.825  1.00  0.00     1.502 OA 
HETATM    6  P   UNL     5      -8.792  12.446  68.378  1.00  0.00    -0.008 P  
HETATM    7  O   UNL     6      -8.903  13.292  69.672  1.00  0.00     1.262 OA 
HETATM    8  P   UNL     6      -8.700  12.366  68.225  1.00  0.00    -0.098 P  
HETATM    9  O   UNL     5      -8.589  11.520  66.931  1.00  0.00    -0.151 OA 
HETATM   10  O   UNL     7      -8.953  13.272  69.663  1.00  0.00     1.264 OA 
HETATM   11  O   UNL     5      -6.992  12.282  69.593  1.00  0.00     0.047 OA 
HETATM   12  O   UNL     5     -10.208  11.369  69.149  1.00  0.00    -0.169 OA 
HETATM   13  O   UNL     6      -8.497  11.439  66.778  1.00  0.00    -0.154 OA 
HETATM   14  O   UNL     6      -7.918  10.790  69.100  1.00  0.00    -0.143 OA 
HETATM   15  O   UNL     6      -6.654  12.692  67.744  1.00  0.00    -0.097 OA 
HETATM   16  O   UNL     8      -9.922  20.252  65.235  1.00  0.00    -0.370 OA 
HETATM   17  P   UNL     7      -8.750  12.345  68.217  1.00  0.00    -0.098 P  
HETATM   18  P   UNL     5      -9.403  12.995  65.556  1.00  0.00     0.623 P  
HETATM   19  O   UNL     7      -9.809  13.902  67.618  1.00  0.00    -0.228 OA 
HETATM   20  O   UNL     7      -8.047  13.989  67.332  1.00  0.00    -0.173 OA 
HETATM   21  O   UNL     7      -8.547  11.418  66.770  1.00  0.00    -0.155 OA 
HETATM   22  O   UNL     5      -8.296  12.430  64.564  1.00  0.00     2.173 OA 
HETATM   23  C   UNL     8      -9.711  19.102  66.042  1.00  0.00    -0.212 C  
HETATM   24  H   UNL     8      -9.788  20.988  65.820  1.00  0.00     0.000 HD 
HETATM   25  O   UNL     5     -10.740  12.611  66.475  1.00  0.00    -0.246 OA 
HETATM   26  P   UNL     6      -8.525   9.753  67.165  1.00  0.00    -0.124 P  
HETATM   27  O   UNL     9      -7.387   7.307  69.123  1.00  0.00    -0.083 OA 
HETATM   28  O   UNL     5     -10.541  12.995  64.510  1.00  0.00    -0.348 OA 
HETATM   29  C   UNL     8      -8.239  18.997  66.592  1.00  0.00    -0.301 C  
HETATM   30  C   UNL     8      -9.928  17.906  65.093  1.00  0.00     1.381 C  
HETATM   31  P   UNL     7     -10.193  10.507  65.612  1.00  0.00    -0.170 P  
HETATM   32  O   UNL     6      -8.549   8.244  67.511  1.00  0.00    -0.128 OA 
HETATM   33  O   UNL     6      -8.059   9.310  65.648  1.00  0.00    -0.107 OA 
HETATM   34  O   UNL    10     -12.975  16.092  70.131  1.00  0.00    -0.639 OA 
HETATM   35  H   UNL     9      -7.613   7.969  68.480  1.00  0.00     0.000 HD 
HETATM   36  C   UNL     8     -10.720  19.045  67.252  1.00  0.00    -0.470 C  
HETATM   37  C   UNL     9      -8.505   7.450  70.109  1.00  0.00    -0.137 C  
HETATM   38  O   UNL     6     -10.082   9.676  67.692  1.00  0.00    -0.171 OA 
HETATM   39  C   UNL     9      -8.282   8.840  70.644  1.00  0.00    -0.159 C  
HETATM   40  C   UNL     9     -10.051   7.262  69.401  1.00  0.00    -0.183 C  
HETATM   41  C   UNL     9      -8.148   6.408  71.122  1.00  0.00    -0.117 C  
HETATM   42  O   UNL     8     -10.255  18.428  68.272  1.00  0.00    -0.363 OA 
HETATM   43  O   UNL     8     -11.908  19.377  67.023  1.00  0.00     0.892 OA 
HETATM   44  C   UNL    10     -11.918  15.196  69.848  1.00  0.00    -0.337 C  
HETATM   45  H   UNL    10     -13.415  16.390  69.344  1.00  0.00     0.000 HD 
HETATM   46  C   UNL     8     -10.909  16.752  64.766  1.00  0.00     0.019 C  
HETATM   47  O   UNL     7     -10.255   8.970  65.741  1.00  0.00    -0.071 OA 
HETATM   48  O   UNL     7      -9.880  10.804  64.184  1.00  0.00    -0.270 OA 
HETATM   49  O   UNL     7     -11.560  10.731  66.387  1.00  0.00     0.041 OA 
HETATM   50  C   UNL     8      -7.054  19.938  66.549  1.00  0.00    -0.240 C  
HETATM   51  O   UNL     9     -10.261   6.136  68.859  1.00  0.00    -0.159 OA 
HETATM   52  C   UNL    10     -12.407  13.988  68.953  1.00  0.00    -0.106 C  
HETATM   53  C   UNL    10     -10.870  15.965  69.000  1.00  0.00    -0.266 C  
HETATM   54  O   UNL     9     -10.852   8.305  69.269  1.00  0.00    -0.171 OA 
HETATM   55  C   UNL     9      -9.083   6.495  72.347  1.00  0.00    -0.133 C  
HETATM   56  C   UNL    10     -11.221  14.724  71.094  1.00  0.00    -0.099 C  
HETATM   57  O   UNL     8     -12.021  16.835  64.249  1.00  0.00    -0.513 OA 
HETATM   58  O   UNL     8      -5.969  19.315  66.804  1.00  0.00    -0.164 OA 
HETATM   59  O   UNL     8      -7.249  21.158  66.357  1.00  0.00    -0.020 OA 
HETATM   60  O   UNL     8     -10.294  15.690  65.311  1.00  0.00    -0.374 OA 
HETATM   61  O   UNL    10     -12.897  11.626  68.659  1.00  0.00     0.460 OA 
HETATM   62  C   UNL    10     -13.113  12.697  69.403  1.00  0.00     1.814 C  
HETATM   63  O   UNL    10     -11.180  16.124  67.768  1.00  0.00    -0.299 OA 
HETATM   64  O   UNL    10     -13.519  12.683  70.584  1.00  0.00     0.548 OA 
HETATM   65  O   UNL    10      -9.590  15.844  69.118  1.00  0.00    -0.222 OA 
HETATM   66  O   UNL     9      -9.161   5.442  73.000  1.00  0.00    -0.134 OA 
HETATM   67  O   UNL     9      -9.530   7.625  72.598  1.00  0.00    -0.150 OA 
ENDROOT
BRANCH  39  68
HETATM   68  C   UNL     9      -6.899   9.305  71.041  1.00  0.00    -0.089 C  
HETATM   69  O   UNL     9      -6.612   9.717  72.241  1.00  0.00    -0.138 OA 
HETATM   70  H   UNL     9      -5.010   8.804  71.061  1.00  0.00     0.000 HD 
HETATM   71  O   UNL     9      -5.879   8.511  70.811  1.00  0.00    -0.031 OA 
HETATM   72  H   UNL     9      -5.743  10.009  72.491  1.00  0.00     0.000 HD 
ENDBRANCH  39  68
BRANCH  56  73
HETATM   73  C   UNL    10     -11.128  14.843  72.538  1.00  0.00     0.686 C  
HETATM   74  O   UNL    10     -11.665  13.993  73.360  1.00  0.00     0.747 OA 
HETATM   75  O   UNL    10     -11.548  15.967  73.085  1.00  0.00    -0.326 OA 
HETATM   76  H   UNL    10     -11.488  16.044  74.030  1.00  0.00     0.000 HD 
HETATM   77  H   UNL    10     -11.604  14.070  74.304  1.00  0.00     0.000 HD 
ENDBRANCH  56  73
TORSDOF 2
ENDMDL
MODEL        8
REMARK 921   NORMALIZED FREE ENERGY PREDICTED BY IDOCK:    5.70 KCAL/MOL
REMARK 922        TOTAL FREE ENERGY PREDICTED BY IDOCK:    4.82 KCAL/MOL
REMARK 923 INTER-LIGAND FREE ENERGY PREDICTED BY IDOCK:    5.15 KCAL/MOL
REMARK 924 INTRA-LIGAND FREE ENERGY PREDICTED BY IDOCK:   -0.33 KCAL/MOL
REMARK 927      BINDING AFFINITY PREDICTED BY RF-SCORE:    0.00 PKD
ROOT
HETATM    1 FE   UNL     1     -12.453  14.986  70.188  1.00  0.00    -0.271 Fe 
HETATM    2 FE   UNL     2      -9.739   8.830  68.393  1.00  0.00    -0.145 Fe 
HETATM    3 FE   UNL     3      -6.158  12.714  73.117  1.00  0.00     0.629 Fe 
HETATM    4 FE   UNL     4      -8.287  14.004  65.243  1.00  0.00     0.397 Fe 
HETATM    5  O   UNL     5      -9.114  12.299  69.664  1.00  0.00     1.317 OA 
HETATM    6  P   UNL     5     -10.249  12.471  68.370  1.00  0.00    -0.171 P  
HETATM    7  O   UNL     6      -9.288  12.310  69.575  1.00  0.00     0.938 OA 
HETATM    8  P   UNL     6     -10.423  12.482  68.281  1.00  0.00    -0.237 P  
HETATM    9  O   UNL     5     -11.384  12.643  67.076  1.00  0.00    -0.287 OA 
HETATM   10  O   UNL     7      -9.255  12.318  69.531  1.00  0.00     0.974 OA 
HETATM   11  O   UNL     5     -11.066  13.389  70.167  1.00  0.00     0.157 OA 
HETATM   12  O   UNL     5      -8.866  13.607  67.621  1.00  0.00    -0.173 OA 
HETATM   13  O   UNL     6     -11.558  12.654  66.987  1.00  0.00    -0.325 OA 
HETATM   14  O   UNL     6     -10.858  14.363  68.640  1.00  0.00    -0.235 OA 
HETATM   15  O   UNL     6     -12.292  12.216  69.260  1.00  0.00    -0.111 OA 
HETATM   16  O   UNL     8      -9.658   4.024  68.983  1.00  0.00    -0.173 OA 
HETATM   17  P   UNL     7     -10.391  12.490  68.237  1.00  0.00    -0.230 P  
HETATM   18  P   UNL     5     -11.217  10.614  66.307  1.00  0.00     0.770 P  
HETATM   19  O   UNL     7      -9.580  10.720  67.903  1.00  0.00    -0.156 OA 
HETATM   20  O   UNL     7     -11.154  10.720  68.749  1.00  0.00    -0.221 OA 
HETATM   21  O   UNL     7     -11.526  12.662  66.943  1.00  0.00    -0.303 OA 
HETATM   22  O   UNL     5     -12.769  10.785  66.004  1.00  0.00     4.087 OA 
HETATM   23  C   UNL     8      -9.591   5.432  69.156  1.00  0.00    -0.141 C  
HETATM   24  H   UNL     8      -9.308   3.662  69.789  1.00  0.00     0.000 HD 
HETATM   25  O   UNL     5      -9.692  11.217  66.011  1.00  0.00    -0.205 OA 
HETATM   26  P   UNL     6     -11.627  14.312  66.496  1.00  0.00    -0.394 P  
HETATM   27  O   UNL     9     -11.909  17.500  67.426  1.00  0.00     1.144 OA 
HETATM   28  O   UNL     5     -10.873   9.997  64.932  1.00  0.00     0.577 OA 
HETATM   29  C   UNL     8     -10.500   5.952  70.332  1.00  0.00    -0.324 C  
HETATM   30  C   UNL     8     -10.157   6.020  67.849  1.00  0.00    -0.183 C  
HETATM   31  P   UNL     7     -10.997  12.735  64.800  1.00  0.00    -0.348 P  
HETATM   32  O   UNL     6     -11.689  15.795  66.057  1.00  0.00     0.273 OA 
HETATM   33  O   UNL     6     -12.927  14.056  65.517  1.00  0.00    -0.681 OA 
HETATM   34  O   UNL    10      -5.218   9.578  68.799  1.00  0.00    -0.037 OA 
HETATM   35  H   UNL     9     -11.962  16.595  67.142  1.00  0.00     0.000 HD 
HETATM   36  C   UNL     8      -8.110   5.921  69.393  1.00  0.00    -0.109 C  
HETATM   37  C   UNL     9     -10.429  17.697  67.533  1.00  0.00    -0.365 C  
HETATM   38  O   UNL     6     -10.084  14.438  65.938  1.00  0.00    -0.296 OA 
HETATM   39  C   UNL     9     -10.060  16.748  68.643  1.00  0.00    -0.279 C  
HETATM   40  C   UNL     9      -9.599  17.352  66.076  1.00  0.00    -0.118 C  
HETATM   41  C   UNL     9     -10.345  19.122  67.980  1.00  0.00    -0.483 C  
HETATM   42  O   UNL     8      -8.034   6.989  70.094  1.00  0.00    -0.110 OA 
HETATM   43  O   UNL     8      -7.212   5.383  68.702  1.00  0.00    -0.064 OA 
HETATM   44  C   UNL    10      -6.396  10.361  68.812  1.00  0.00    -0.047 C  
HETATM   45  H   UNL    10      -5.243   8.901  68.133  1.00  0.00     0.000 HD 
HETATM   46  C   UNL     8      -9.751   6.768  66.553  1.00  0.00    -0.125 C  
HETATM   47  O   UNL     7     -11.154  14.138  64.177  1.00  0.00    -0.216 OA 
HETATM   48  O   UNL     7     -11.988  11.852  64.120  1.00  0.00    -0.353 OA 
HETATM   49  O   UNL     7      -9.416  12.733  64.654  1.00  0.00     0.190 OA 
HETATM   50  C   UNL     8     -11.315   5.246  71.394  1.00  0.00     0.345 C  
HETATM   51  O   UNL     9      -9.934  18.067  65.085  1.00  0.00     0.252 OA 
HETATM   52  C   UNL    10      -6.714  10.952  67.381  1.00  0.00    -0.078 C  
HETATM   53  C   UNL    10      -7.578   9.417  69.162  1.00  0.00    -0.074 C  
HETATM   54  O   UNL     9      -8.833  16.279  65.986  1.00  0.00    -0.333 OA 
HETATM   55  C   UNL     9      -8.891  19.500  68.333  1.00  0.00    -0.342 C  
HETATM   56  C   UNL    10      -6.357  11.433  69.866  1.00  0.00    -0.141 C  
HETATM   57  O   UNL     8      -9.119   6.325  65.597  1.00  0.00    -0.090 OA 
HETATM   58  O   UNL     8     -12.168   6.040  71.916  1.00  0.00    -0.209 OA 
HETATM   59  O   UNL     8     -11.042   4.061  71.686  1.00  0.00     0.722 OA 
HETATM   60  O   UNL     8     -10.141   8.026  66.815  1.00  0.00    -0.253 OA 
HETATM   61  O   UNL    10      -6.908  12.836  65.859  1.00  0.00     2.157 OA 
HETATM   62  C   UNL    10      -6.126  12.211  66.722  1.00  0.00     0.133 C  
HETATM   63  O   UNL    10      -7.980   8.673  68.202  1.00  0.00    -0.105 OA 
HETATM   64  O   UNL    10      -5.144  12.720  67.301  1.00  0.00    -0.288 OA 
HETATM   65  O   UNL    10      -8.574   9.730  69.923  1.00  0.00    -0.190 OA 
HETATM   66  O   UNL     9      -8.656  20.718  68.277  1.00  0.00     0.313 OA 
HETATM   67  O   UNL     9      -8.184  18.569  68.748  1.00  0.00    -0.312 OA 
ENDROOT
BRANCH  39  68
HETATM   68  C   UNL     9     -10.879  16.685  69.913  1.00  0.00    -0.202 C  
HETATM   69  O   UNL     9     -10.558  15.930  70.922  1.00  0.00    -0.063 OA 
HETATM   70  H   UNL     9     -11.674  17.768  71.333  1.00  0.00     0.000 HD 
HETATM   71  O   UNL     9     -11.160  17.807  70.536  1.00  0.00     1.227 OA 
HETATM   72  H   UNL     9     -11.072  15.891  71.720  1.00  0.00     0.000 HD 
ENDBRANCH  39  68
BRANCH  56  73
HETATM   73  C   UNL    10      -5.609  12.005  70.972  1.00  0.00    -0.019 C  
HETATM   74  O   UNL    10      -5.330  11.351  72.057  1.00  0.00    -0.333 OA 
HETATM   75  O   UNL    10      -6.067  13.122  71.503  1.00  0.00    -0.504 OA 
HETATM   76  H   UNL    10      -5.577  13.496  72.227  1.00  0.00     0.000 HD 
HETATM   77  H   UNL    10      -4.840  11.725  72.781  1.00  0.00     0.000 HD 
ENDBRANCH  56  73
TORSDOF 2
ENDMDL
MODEL        9
REMARK 921   NORMALIZED FREE ENERGY PREDICTED BY IDOCK:    6.56 KCAL/MOL
REMARK 922        TOTAL FREE ENERGY PREDICTED BY IDOCK:    5.78 KCAL/MOL
REMARK 923 INTER-LIGAND FREE ENERGY PREDICTED BY IDOCK:    5.58 KCAL/MOL
REMARK 924 INTRA-LIGAND FREE ENERGY PREDICTED BY IDOCK:    0.20 KCAL/MOL
REMARK 927      BINDING AFFINITY PREDICTED BY RF-SCORE:    0.00 PKD
ROOT
HETATM    1 FE   UNL     1     -11.529   7.394  70.563  1.00  0.00    -0.249 Fe 
HETATM    2 FE   UNL     2      -8.328  13.239  68.548  1.00  0.00    -0.130 Fe 
HETATM    3 FE   UNL     3     -12.630  10.106  63.870  1.00  0.00     1.443 Fe 
HETATM    4 FE   UNL     4      -5.691   7.671  67.628  1.00  0.00    -0.025 Fe 
HETATM    5  O   UNL     5      -9.901   9.996  67.526  1.00  0.00    -0.164 OA 
HETATM    6  P   UNL     5      -8.930   9.631  68.911  1.00  0.00    -0.157 P  
HETATM    7  O   UNL     6      -9.855   9.971  67.715  1.00  0.00    -0.151 OA 
HETATM    8  P   UNL     6      -8.884   9.606  69.100  1.00  0.00    -0.180 P  
HETATM    9  O   UNL     5      -7.959   9.267  70.296  1.00  0.00    -0.109 OA 
HETATM   10  O   UNL     7      -9.807   9.957  67.693  1.00  0.00    -0.154 OA 
HETATM   11  O   UNL     5     -10.975   8.980  69.277  1.00  0.00    -0.161 OA 
HETATM   12  O   UNL     5      -8.058   8.407  67.685  1.00  0.00    -0.115 OA 
HETATM   13  O   UNL     6      -7.914   9.241  70.485  1.00  0.00    -0.135 OA 
HETATM   14  O   UNL     6      -9.592   7.795  69.374  1.00  0.00    -0.156 OA 
HETATM   15  O   UNL     6     -10.209  10.001  70.717  1.00  0.00    -0.172 OA 
HETATM   16  O   UNL     8      -8.203  18.081  68.522  1.00  0.00    -0.296 OA 
HETATM   17  P   UNL     7      -8.837   9.592  69.078  1.00  0.00    -0.158 P  
HETATM   18  P   UNL     5      -6.896  11.163  70.380  1.00  0.00     1.127 P  
HETATM   19  O   UNL     7      -8.085  11.300  68.428  1.00  0.00    -0.128 OA 
HETATM   20  O   UNL     7      -9.252  11.413  69.776  1.00  0.00     0.788 OA 
HETATM   21  O   UNL     7      -7.866   9.227  70.462  1.00  0.00    -0.121 OA 
HETATM   22  O   UNL     5      -6.974  10.940  71.953  1.00  0.00     2.535 OA 
HETATM   23  C   UNL     8      -8.554  16.714  68.365  1.00  0.00    -0.221 C  
HETATM   24  H   UNL     8      -8.852  18.559  68.018  1.00  0.00     0.000 HD 
HETATM   25  O   UNL     5      -6.354  10.532  68.934  1.00  0.00    -0.046 OA 
HETATM   26  P   UNL     6      -7.689   7.530  70.596  1.00  0.00    -0.092 P  
HETATM   27  O   UNL     9      -9.096   4.509  70.545  1.00  0.00    -0.103 OA 
HETATM   28  O   UNL     5      -5.406  11.575  70.370  1.00  0.00    -0.091 OA 
HETATM   29  C   UNL     8      -9.964  16.365  68.973  1.00  0.00    -0.267 C  
HETATM   30  C   UNL     8      -7.502  15.938  69.182  1.00  0.00    -0.210 C  
HETATM   31  P   UNL     7      -5.690   8.847  70.415  1.00  0.00    -0.033 P  
HETATM   32  O   UNL     6      -7.488   5.998  70.697  1.00  0.00    -0.082 OA 
HETATM   33  O   UNL     6      -6.998   7.632  72.088  1.00  0.00    -0.061 OA 
HETATM   34  O   UNL    10      -7.815  12.585  64.023  1.00  0.00     3.560 OA 
HETATM   35  H   UNL     9      -8.707   5.363  70.693  1.00  0.00     0.000 HD 
HETATM   36  C   UNL     8      -8.520  16.273  66.851  1.00  0.00    -0.224 C  
HETATM   37  C   UNL     9      -8.897   4.338  69.071  1.00  0.00    -0.096 C  
HETATM   38  O   UNL     6      -6.824   7.333  69.210  1.00  0.00    -0.051 OA 
HETATM   39  C   UNL     9      -9.752   5.441  68.504  1.00  0.00    -0.183 C  
HETATM   40  C   UNL     9      -7.258   4.473  68.596  1.00  0.00    -0.056 C  
HETATM   41  C   UNL     9      -9.509   2.994  68.837  1.00  0.00    -0.176 C  
HETATM   42  O   UNL     8      -9.329  15.319  66.582  1.00  0.00    -0.225 OA 
HETATM   43  O   UNL     8      -7.578  16.710  66.148  1.00  0.00    -0.259 OA 
HETATM   44  C   UNL    10      -8.201  11.806  65.139  1.00  0.00     1.099 C  
HETATM   45  H   UNL    10      -7.083  13.159  64.220  1.00  0.00     0.000 HD 
HETATM   46  C   UNL     8      -6.266  15.012  69.042  1.00  0.00    -0.098 C  
HETATM   47  O   UNL     7      -5.321   7.367  70.652  1.00  0.00    -0.023 OA 
HETATM   48  O   UNL     7      -5.132   9.615  71.565  1.00  0.00    -0.051 OA 
HETATM   49  O   UNL     7      -5.196   8.836  68.906  1.00  0.00    -0.032 OA 
HETATM   50  C   UNL     8     -11.070  17.213  69.561  1.00  0.00     0.385 C  
HETATM   51  O   UNL     9      -6.477   3.619  69.113  1.00  0.00    -0.032 OA 
HETATM   52  C   UNL    10      -6.974  11.011  65.741  1.00  0.00     0.094 C  
HETATM   53  C   UNL    10      -8.670  12.783  66.250  1.00  0.00     0.235 C  
HETATM   54  O   UNL     9      -6.850   5.526  67.910  1.00  0.00    -0.060 OA 
HETATM   55  C   UNL     9      -9.579   2.680  67.328  1.00  0.00     0.123 C  
HETATM   56  C   UNL    10      -9.359  10.899  64.828  1.00  0.00    -0.259 C  
HETATM   57  O   UNL     8      -5.140  15.316  68.654  1.00  0.00    -0.086 OA 
HETATM   58  O   UNL     8     -11.876  16.498  70.247  1.00  0.00     0.064 OA 
HETATM   59  O   UNL     8     -11.125  18.429  69.276  1.00  0.00     1.177 OA 
HETATM   60  O   UNL     8      -6.782  13.803  69.317  1.00  0.00    -0.110 OA 
HETATM   61  O   UNL    10      -5.813   8.925  66.193  1.00  0.00    -0.049 OA 
HETATM   62  C   UNL    10      -6.384   9.673  65.264  1.00  0.00    -0.081 C  
HETATM   63  O   UNL    10      -7.729  13.378  66.881  1.00  0.00     0.053 OA 
HETATM   64  O   UNL    10      -6.795   9.259  64.160  1.00  0.00    -0.088 OA 
HETATM   65  O   UNL    10      -9.669  12.579  67.041  1.00  0.00    -0.205 OA 
HETATM   66  O   UNL     9      -9.643   1.468  67.065  1.00  0.00     0.086 OA 
HETATM   67  O   UNL     9      -9.690   3.665  66.582  1.00  0.00    -0.182 OA 
ENDROOT
BRANCH  39  68
HETATM   68  C   UNL     9     -11.151   5.682  69.025  1.00  0.00     0.046 C  
HETATM   69  O   UNL     9     -11.391   6.096  70.235  1.00  0.00    -0.365 OA 
HETATM   70  H   UNL     9     -12.827   6.622  68.669  1.00  0.00     0.000 HD 
HETATM   71  O   UNL     9     -11.949   6.471  68.342  1.00  0.00     0.729 OA 
HETATM   72  H   UNL     9     -12.269   6.248  70.562  1.00  0.00     0.000 HD 
ENDBRANCH  39  68
BRANCH  56  73
HETATM   73  C   UNL    10     -10.339  10.498  63.834  1.00  0.00    -0.015 C  
HETATM   74  O   UNL    10     -10.040   9.814  62.773  1.00  0.00    -0.253 OA 
HETATM   75  O   UNL    10     -11.070  11.446  63.282  1.00  0.00    -0.739 OA 
HETATM   76  H   UNL    10     -11.711  11.183  62.632  1.00  0.00     0.000 HD 
HETATM   77  H   UNL    10     -10.680   9.551  62.122  1.00  0.00     0.000 HD 
ENDBRANCH  56  73
TORSDOF 2
ENDMDL
MODEL       10
REMARK 921   NORMALIZED FREE ENERGY PREDICTED BY IDOCK:    8.76 KCAL/MOL
REMARK 922        TOTAL FREE ENERGY PREDICTED BY IDOCK:    8.23 KCAL/MOL
REMARK 923 INTER-LIGAND FREE ENERGY PREDICTED BY IDOCK:    9.78 KCAL/MOL
REMARK 924 INTRA-LIGAND FREE ENERGY PREDICTED BY IDOCK:   -1.55 KCAL/MOL
REMARK 927      BINDING AFFINITY PREDICTED BY RF-SCORE:    0.00 PKD
ROOT
HETATM    1 FE   UNL     1     -13.213  12.179  69.640  1.00  0.00     0.205 Fe 
HETATM    2 FE   UNL     2      -9.240   6.461  69.589  1.00  0.00    -0.132 Fe 
HETATM    3 FE   UNL     3      -7.886  11.322  74.564  1.00  0.00     3.506 Fe 
HETATM    4 FE   UNL     4      -7.622  11.505  66.312  1.00  0.00    -0.138 Fe 
HETATM    5  O   UNL     5      -9.533  10.085  70.492  1.00  0.00    -0.057 OA 
HETATM    6  P   UNL     5     -10.223   9.938  68.912  1.00  0.00    -0.221 P  
HETATM    7  O   UNL     6      -9.671  10.058  70.355  1.00  0.00    -0.173 OA 
HETATM    8  P   UNL     6     -10.360   9.910  68.775  1.00  0.00    -0.224 P  
HETATM    9  O   UNL     5     -10.912   9.790  67.332  1.00  0.00    -0.259 OA 
HETATM   10  O   UNL     7      -9.628  10.067  70.322  1.00  0.00    -0.196 OA 
HETATM   11  O   UNL     5     -11.679  10.855  70.247  1.00  0.00    -0.294 OA 
HETATM   12  O   UNL     5      -8.850  11.227  68.448  1.00  0.00    -0.149 OA 
HETATM   13  O   UNL     6     -11.050   9.763  67.195  1.00  0.00    -0.139 OA 
HETATM   14  O   UNL     6     -11.145  11.710  68.726  1.00  0.00    -0.198 OA 
HETATM   15  O   UNL     6     -12.385   9.408  69.193  1.00  0.00     1.274 OA 
HETATM   16  O   UNL     8      -8.673   1.816  70.839  1.00  0.00    -0.050 OA 
HETATM   17  P   UNL     7     -10.318   9.920  68.742  1.00  0.00    -0.224 P  
HETATM   18  P   UNL     5     -10.232   7.762  66.935  1.00  0.00    -0.249 P  
HETATM   19  O   UNL     7      -9.203   8.297  68.909  1.00  0.00    -0.147 OA 
HETATM   20  O   UNL     7     -10.946   8.096  69.250  1.00  0.00    -0.111 OA 
HETATM   21  O   UNL     7     -11.007   9.773  67.163  1.00  0.00    -0.202 OA 
HETATM   22  O   UNL     5     -11.621   7.629  66.172  1.00  0.00     2.920 OA 
HETATM   23  C   UNL     8      -8.861   3.224  70.827  1.00  0.00    -0.082 C  
HETATM   24  H   UNL     8      -8.544   1.595  71.754  1.00  0.00     0.000 HD 
HETATM   25  O   UNL     5      -8.791   8.595  67.017  1.00  0.00    -0.128 OA 
HETATM   26  P   UNL     6     -11.195  11.331  66.480  1.00  0.00     0.094 P  
HETATM   27  O   UNL     9     -12.195  14.491  66.835  1.00  0.00    -0.498 OA 
HETATM   28  O   UNL     5      -9.395   7.094  65.821  1.00  0.00     0.030 OA 
HETATM   29  C   UNL     8     -10.154   3.679  71.602  1.00  0.00    -0.132 C  
HETATM   30  C   UNL     8      -9.070   3.583  69.343  1.00  0.00    -0.200 C  
HETATM   31  P   UNL     7      -9.854   9.744  65.279  1.00  0.00     0.001 P  
HETATM   32  O   UNL     6     -11.325  12.736  65.841  1.00  0.00    -0.299 OA 
HETATM   33  O   UNL     6     -12.076  10.765  65.210  1.00  0.00     1.350 OA 
HETATM   34  O   UNL    10      -5.221   8.026  71.189  1.00  0.00    -0.029 OA 
HETATM   35  H   UNL     9     -12.030  13.569  66.677  1.00  0.00     0.000 HD 
HETATM   36  C   UNL     8      -7.611   3.985  71.415  1.00  0.00    -0.063 C  
HETATM   37  C   UNL     9     -10.865  14.954  67.341  1.00  0.00    -0.304 C  
HETATM   38  O   UNL     6      -9.588  11.677  66.385  1.00  0.00    -0.205 OA 
HETATM   39  C   UNL     9     -10.731  14.188  68.631  1.00  0.00    -0.263 C  
HETATM   40  C   UNL     9      -9.584  14.631  66.253  1.00  0.00    -0.308 C  
HETATM   41  C   UNL     9     -11.125  16.406  67.590  1.00  0.00    -0.150 C  
HETATM   42  O   UNL     8      -7.907   5.108  71.953  1.00  0.00    -0.105 OA 
HETATM   43  O   UNL     8      -6.477   3.553  71.099  1.00  0.00    -0.018 OA 
HETATM   44  C   UNL    10      -6.442   8.587  70.749  1.00  0.00    -0.040 C  
HETATM   45  H   UNL    10      -4.942   7.297  70.646  1.00  0.00     0.000 HD 
HETATM   46  C   UNL     8      -8.390   4.272  68.132  1.00  0.00    -0.093 C  
HETATM   47  O   UNL     7     -10.005  11.036  64.448  1.00  0.00    -0.258 OA 
HETATM   48  O   UNL     7     -10.451   8.643  64.468  1.00  0.00     3.731 OA 
HETATM   49  O   UNL     7      -8.322  10.008  65.602  1.00  0.00    -0.135 OA 
HETATM   50  C   UNL     8     -11.151   2.939  72.467  1.00  0.00     0.492 C  
HETATM   51  O   UNL     9      -9.692  15.184  65.118  1.00  0.00    -0.232 OA 
HETATM   52  C   UNL    10      -6.379   8.982  69.219  1.00  0.00    -0.042 C  
HETATM   53  C   UNL    10      -7.530   7.485  70.866  1.00  0.00    -0.073 C  
HETATM   54  O   UNL     9      -8.685  13.706  66.540  1.00  0.00    -0.068 OA 
HETATM   55  C   UNL     9      -9.921  17.064  68.296  1.00  0.00    -0.285 C  
HETATM   56  C   UNL    10      -6.883   9.739  71.608  1.00  0.00     0.597 C  
HETATM   57  O   UNL     8      -7.438   3.862  67.472  1.00  0.00    -0.067 OA 
HETATM   58  O   UNL     8     -12.226   3.614  72.602  1.00  0.00     1.092 OA 
HETATM   59  O   UNL     8     -10.819   1.852  72.988  1.00  0.00    -0.146 OA 
HETATM   60  O   UNL     8      -9.015   5.460  68.091  1.00  0.00    -0.109 OA 
HETATM   61  O   UNL    10      -6.353  10.658  67.460  1.00  0.00    -0.056 OA 
HETATM   62  C   UNL    10      -5.798  10.260  68.592  1.00  0.00    -0.037 C  
HETATM   63  O   UNL    10      -7.505   6.598  69.944  1.00  0.00    -0.090 OA 
HETATM   64  O   UNL    10      -5.126  10.984  69.356  1.00  0.00    -0.042 OA 
HETATM   65  O   UNL    10      -8.746   7.685  71.251  1.00  0.00    -0.129 OA 
HETATM   66  O   UNL     9      -9.854  18.294  68.142  1.00  0.00    -0.307 OA 
HETATM   67  O   UNL     9      -9.254  16.313  69.024  1.00  0.00    -0.240 OA 
ENDROOT
BRANCH  39  68
HETATM   68  C   UNL     9     -11.886  14.097  69.602  1.00  0.00    -0.324 C  
HETATM   69  O   UNL     9     -11.772  13.568  70.785  1.00  0.00    -0.514 OA 
HETATM   70  H   UNL     9     -13.275  15.135  70.504  1.00  0.00     0.000 HD 
HETATM   71  O   UNL     9     -12.549  15.192  69.894  1.00  0.00    -0.264 OA 
HETATM   72  H   UNL     9     -12.497  13.511  71.395  1.00  0.00     0.000 HD 
ENDBRANCH  39  68
BRANCH  56  73
HETATM   73  C   UNL    10      -6.604  10.531  72.793  1.00  0.00     3.228 C  
HETATM   74  O   UNL    10      -5.677  11.438  72.842  1.00  0.00     0.602 OA 
HETATM   75  O   UNL    10      -6.333   9.883  73.909  1.00  0.00     0.156 OA 
HETATM   76  H   UNL    10      -6.150  10.402  74.684  1.00  0.00     0.000 HD 
HETATM   77  H   UNL    10      -5.494  11.957  73.617  1.00  0.00     0.000 HD 
ENDBRANCH  56  73
TORSDOF 2
ENDMDL
MODEL       11
REMARK 921   NORMALIZED FREE ENERGY PREDICTED BY IDOCK:   10.28 KCAL/MOL
REMARK 922        TOTAL FREE ENERGY PREDICTED BY IDOCK:    9.93 KCAL/MOL
REMARK 923 INTER-LIGAND FREE ENERGY PREDICTED BY IDOCK:   11.66 KCAL/MOL
REMARK 924 INTRA-LIGAND FREE ENERGY PREDICTED BY IDOCK:   -1.73 KCAL/MOL
REMARK 927      BINDING AFFINITY PREDICTED BY RF-SCORE:    0.00 PKD
ROOT
HETATM    1 FE   UNL     1      -5.882   8.846  71.367  1.00  0.00    -0.032 Fe 
HETATM    2 FE   UNL     2      -8.733  14.180  67.918  1.00  0.00    -0.141 Fe 
HETATM    3 FE   UNL     3     -11.552  12.482  74.193  1.00  0.00     4.758 Fe 
HETATM    4 FE   UNL     4     -10.794   8.363  67.076  1.00  0.00    -0.242 Fe 
HETATM    5  O   UNL     5      -9.207  11.434  70.421  1.00  0.00     2.308 OA 
HETATM    6  P   UNL     5      -8.307  10.733  69.120  1.00  0.00     0.013 P  
HETATM    7  O   UNL     6      -9.050  11.378  70.317  1.00  0.00     1.980 OA 
HETATM    8  P   UNL     6      -8.151  10.677  69.016  1.00  0.00    -0.113 P  
HETATM    9  O   UNL     5      -7.408  10.032  67.819  1.00  0.00    -0.087 OA 
HETATM   10  O   UNL     7      -9.090  11.358  70.284  1.00  0.00     1.980 OA 
HETATM   11  O   UNL     5      -7.220  10.439  70.983  1.00  0.00     0.018 OA 
HETATM   12  O   UNL     5      -9.818   9.519  69.040  1.00  0.00    -0.166 OA 
HETATM   13  O   UNL     6      -7.251   9.976  67.715  1.00  0.00    -0.086 OA 
HETATM   14  O   UNL     6      -7.700   9.012  69.954  1.00  0.00    -0.066 OA 
HETATM   15  O   UNL     6      -6.139  11.122  69.545  1.00  0.00    -0.061 OA 
HETATM   16  O   UNL     8      -8.618  18.881  66.757  1.00  0.00    -0.279 OA 
HETATM   17  P   UNL     7      -8.190  10.657  68.984  1.00  0.00    -0.104 P  
HETATM   18  P   UNL     5      -7.660  11.671  66.410  1.00  0.00     0.295 P  
HETATM   19  O   UNL     7      -9.010  12.258  68.164  1.00  0.00    -0.183 OA 
HETATM   20  O   UNL     7      -7.317  12.429  68.710  1.00  0.00    -0.108 OA 
HETATM   21  O   UNL     7      -7.290   9.956  67.683  1.00  0.00    -0.088 OA 
HETATM   22  O   UNL     5      -6.184  11.284  65.961  1.00  0.00    -0.083 OA 
HETATM   23  C   UNL     8      -8.683  17.632  67.430  1.00  0.00    -0.234 C  
HETATM   24  H   UNL     8      -8.820  19.528  67.423  1.00  0.00     0.000 HD 
HETATM   25  O   UNL     5      -9.225  11.124  66.580  1.00  0.00    -0.167 OA 
HETATM   26  P   UNL     6      -7.299   8.252  67.844  1.00  0.00    -0.099 P  
HETATM   27  O   UNL     9      -6.930   5.577  69.798  1.00  0.00    -0.057 OA 
HETATM   28  O   UNL     5      -8.216  11.794  64.974  1.00  0.00     0.779 OA 
HETATM   29  C   UNL     8      -7.601  17.486  68.564  1.00  0.00    -0.266 C  
HETATM   30  C   UNL     8      -8.355  16.582  66.350  1.00  0.00    -0.358 C  
HETATM   31  P   UNL     7      -8.172   9.182  65.811  1.00  0.00    -0.126 P  
HETATM   32  O   UNL     6      -7.341   6.709  67.960  1.00  0.00    -0.091 OA 
HETATM   33  O   UNL     6      -6.176   8.047  66.656  1.00  0.00    -0.051 OA 
HETATM   34  O   UNL    10     -13.137  13.977  69.232  1.00  0.00     0.160 OA 
HETATM   35  H   UNL     9      -6.907   6.319  69.205  1.00  0.00     0.000 HD 
HETATM   36  C   UNL     8     -10.113  17.374  68.043  1.00  0.00    -0.326 C  
HETATM   37  C   UNL     9      -8.375   5.546  70.188  1.00  0.00    -0.116 C  
HETATM   38  O   UNL     6      -8.916   8.060  67.604  1.00  0.00    -0.134 OA 
HETATM   39  C   UNL     9      -8.534   6.848  70.927  1.00  0.00    -0.135 C  
HETATM   40  C   UNL     9      -9.429   5.425  68.845  1.00  0.00    -0.133 C  
HETATM   41  C   UNL     9      -8.411   4.378  71.120  1.00  0.00    -0.107 C  
HETATM   42  O   UNL     8     -10.092  16.627  69.082  1.00  0.00    -0.268 OA 
HETATM   43  O   UNL     8     -11.103  17.706  67.348  1.00  0.00    -0.150 OA 
HETATM   44  C   UNL    10     -11.989  13.159  69.348  1.00  0.00    -0.291 C  
HETATM   45  H   UNL    10     -13.210  14.375  68.372  1.00  0.00     0.000 HD 
HETATM   46  C   UNL     8      -8.987  15.463  65.483  1.00  0.00     0.639 C  
HETATM   47  O   UNL     7      -8.149   7.641  65.714  1.00  0.00    -0.111 OA 
HETATM   48  O   UNL     7      -7.290   9.691  64.721  1.00  0.00    -0.108 OA 
HETATM   49  O   UNL     7      -9.754   9.256  65.911  1.00  0.00    -0.265 OA 
HETATM   50  C   UNL     8      -6.606  18.452  69.170  1.00  0.00    -0.268 C  
HETATM   51  O   UNL     9      -9.279   4.385  68.136  1.00  0.00    -0.121 OA 
HETATM   52  C   UNL    10     -11.926  12.082  68.192  1.00  0.00    -0.231 C  
HETATM   53  C   UNL    10     -10.746  14.070  69.158  1.00  0.00    -0.173 C  
HETATM   54  O   UNL     9     -10.178   6.455  68.492  1.00  0.00    -0.151 OA 
HETATM   55  C   UNL     9      -9.793   4.262  71.798  1.00  0.00    -0.180 C  
HETATM   56  C   UNL    10     -11.873  12.528  70.708  1.00  0.00     0.132 C  
HETATM   57  O   UNL     8      -9.760  15.593  64.536  1.00  0.00     0.349 OA 
HETATM   58  O   UNL     8      -5.694  17.826  69.807  1.00  0.00    -0.218 OA 
HETATM   59  O   UNL     8      -6.802  19.682  69.057  1.00  0.00    -0.316 OA 
HETATM   60  O   UNL     8      -8.584  14.349  66.116  1.00  0.00     0.225 OA 
HETATM   61  O   UNL    10     -12.027   9.777  67.432  1.00  0.00     1.383 OA 
HETATM   62  C   UNL    10     -12.642  10.723  68.121  1.00  0.00     2.404 C  
HETATM   63  O   UNL    10     -10.495  14.399  67.947  1.00  0.00    -0.235 OA 
HETATM   64  O   UNL    10     -13.523  10.526  68.983  1.00  0.00     1.740 OA 
HETATM   65  O   UNL    10      -9.644  13.965  69.822  1.00  0.00     0.803 OA 
HETATM   66  O   UNL     9     -10.059   3.123  72.216  1.00  0.00    -0.161 OA 
HETATM   67  O   UNL     9     -10.403   5.331  71.953  1.00  0.00    -0.203 OA 
ENDROOT
BRANCH  39  68
HETATM   68  C   UNL     9      -7.513   7.286  71.954  1.00  0.00    -0.084 C  
HETATM   69  O   UNL     9      -7.788   8.131  72.903  1.00  0.00    -0.135 OA 
HETATM   70  H   UNL     9      -6.231   6.639  73.279  1.00  0.00     0.000 HD 
HETATM   71  O   UNL     9      -6.871   6.364  72.634  1.00  0.00    -0.068 OA 
HETATM   72  H   UNL     9      -7.147   8.406  73.548  1.00  0.00     0.000 HD 
ENDBRANCH  39  68
BRANCH  56  73
HETATM   73  C   UNL    10     -12.437  12.438  72.044  1.00  0.00     0.411 C  
HETATM   74  O   UNL    10     -13.033  11.377  72.496  1.00  0.00    -0.234 OA 
HETATM   75  O   UNL    10     -13.322  13.350  72.394  1.00  0.00    -0.508 OA 
HETATM   76  H   UNL    10     -13.691  13.290  73.268  1.00  0.00     0.000 HD 
HETATM   77  H   UNL    10     -13.401  11.318  73.370  1.00  0.00     0.000 HD 
ENDBRANCH  56  73
TORSDOF 2
ENDMDL
MODEL       12
REMARK 921   NORMALIZED FREE ENERGY PREDICTED BY IDOCK:   10.80 KCAL/MOL
REMARK 922        TOTAL FREE ENERGY PREDICTED BY IDOCK:   10.51 KCAL/MOL
REMARK 923 INTER-LIGAND FREE ENERGY PREDICTED BY IDOCK:   12.09 KCAL/MOL
REMARK 924 INTRA-LIGAND FREE ENERGY PREDICTED BY IDOCK:   -1.58 KCAL/MOL
REMARK 927      BINDING AFFINITY PREDICTED BY RF-SCORE:    0.00 PKD
ROOT
HETATM    1 FE   UNL     1      -5.210   7.369  69.646  1.00  0.00    -0.013 Fe 
HETATM    2 FE   UNL     2      -8.109  13.503  68.081  1.00  0.00    -0.104 Fe 
HETATM    3 FE   UNL     3     -10.957   9.826  73.427  1.00  0.00     1.721 Fe 
HETATM    4 FE   UNL     4     -10.077   8.252  65.368  1.00  0.00    -0.442 Fe 
HETATM    5  O   UNL     5      -8.564  10.087  69.549  1.00  0.00    -0.162 OA 
HETATM    6  P   UNL     5      -7.644   9.857  68.103  1.00  0.00    -0.081 P  
HETATM    7  O   UNL     6      -8.406  10.070  69.435  1.00  0.00    -0.137 OA 
HETATM    8  P   UNL     6      -7.485   9.840  67.989  1.00  0.00    -0.081 P  
HETATM    9  O   UNL     5      -6.723   9.627  66.657  1.00  0.00    -0.076 OA 
HETATM   10  O   UNL     7      -8.445  10.061  69.398  1.00  0.00    -0.143 OA 
HETATM   11  O   UNL     5      -6.568   8.985  69.784  1.00  0.00    -0.043 OA 
HETATM   12  O   UNL     5      -9.135   8.718  67.614  1.00  0.00    -0.134 OA 
HETATM   13  O   UNL     6      -6.564   9.610  66.542  1.00  0.00    -0.069 OA 
HETATM   14  O   UNL     6      -7.018   7.965  68.341  1.00  0.00    -0.071 OA 
HETATM   15  O   UNL     6      -5.485  10.110  68.660  1.00  0.00    -0.039 OA 
HETATM   16  O   UNL     8      -8.053  18.327  68.512  1.00  0.00    -0.304 OA 
HETATM   17  P   UNL     7      -7.524   9.831  67.951  1.00  0.00    -0.085 P  
HETATM   18  P   UNL     5      -6.986  11.632  65.854  1.00  0.00     1.267 P  
HETATM   19  O   UNL     7      -8.360  11.602  67.685  1.00  0.00    -0.131 OA 
HETATM   20  O   UNL     7      -6.674  11.605  68.279  1.00  0.00    -0.060 OA 
HETATM   21  O   UNL     7      -6.603   9.601  66.505  1.00  0.00    -0.069 OA 
HETATM   22  O   UNL     5      -5.501  11.428  65.323  1.00  0.00    -0.094 OA 
HETATM   23  C   UNL     8      -8.106  16.926  68.742  1.00  0.00    -0.251 C  
HETATM   24  H   UNL     8      -8.271  18.720  69.349  1.00  0.00     0.000 HD 
HETATM   25  O   UNL     5      -8.545  11.042  65.817  1.00  0.00    -0.180 OA 
HETATM   26  P   UNL     6      -6.587   7.937  66.104  1.00  0.00    -0.050 P  
HETATM   27  O   UNL     9      -6.196   4.776  67.087  1.00  0.00    -0.033 OA 
HETATM   28  O   UNL     5      -7.532  12.209  64.528  1.00  0.00     3.300 OA 
HETATM   29  C   UNL     8      -7.032  16.431  69.781  1.00  0.00     0.076 C  
HETATM   30  C   UNL     8      -7.753  16.288  67.384  1.00  0.00    -0.187 C  
HETATM   31  P   UNL     7      -7.457   9.467  64.472  1.00  0.00    -0.127 P  
HETATM   32  O   UNL     6      -6.608   6.439  65.712  1.00  0.00    -0.045 OA 
HETATM   33  O   UNL     6      -5.452   8.141  64.928  1.00  0.00    -0.039 OA 
HETATM   34  O   UNL    10     -12.521  12.835  69.201  1.00  0.00     0.040 OA 
HETATM   35  H   UNL     9      -6.179   5.671  66.768  1.00  0.00     0.000 HD 
HETATM   36  C   UNL     8      -9.537  16.467  69.219  1.00  0.00    -0.198 C  
HETATM   37  C   UNL     9      -7.644   4.604  67.427  1.00  0.00    -0.085 C  
HETATM   38  O   UNL     6      -8.200   7.815  65.794  1.00  0.00    -0.117 OA 
HETATM   39  C   UNL     9      -7.828   5.594  68.547  1.00  0.00    -0.096 C  
HETATM   40  C   UNL     9      -8.685   4.914  66.104  1.00  0.00    -0.117 C  
HETATM   41  C   UNL     9      -7.671   3.196  67.929  1.00  0.00    -0.063 C  
HETATM   42  O   UNL     8      -9.514  15.423  69.960  1.00  0.00    -0.180 OA 
HETATM   43  O   UNL     8     -10.526  16.995  68.657  1.00  0.00    -0.320 OA 
HETATM   44  C   UNL    10     -11.362  12.036  69.060  1.00  0.00    -0.275 C  
HETATM   45  H   UNL    10     -12.592  13.490  68.517  1.00  0.00     0.000 HD 
HETATM   46  C   UNL     8      -8.361  15.504  66.192  1.00  0.00     0.236 C  
HETATM   47  O   UNL     7      -7.410   8.042  63.880  1.00  0.00    -0.086 OA 
HETATM   48  O   UNL     7      -6.573  10.313  63.618  1.00  0.00    -0.133 OA 
HETATM   49  O   UNL     7      -9.041   9.487  64.570  1.00  0.00    -0.230 OA 
HETATM   50  C   UNL     8      -6.056  17.159  70.680  1.00  0.00     0.591 C  
HETATM   51  O   UNL     9      -8.513   4.163  65.098  1.00  0.00    -0.111 OA 
HETATM   52  C   UNL    10     -11.274  11.394  67.618  1.00  0.00    -0.346 C  
HETATM   53  C   UNL    10     -10.132  12.973  69.192  1.00  0.00     0.319 C  
HETATM   54  O   UNL     9      -9.445   5.995  66.096  1.00  0.00    -0.154 OA 
HETATM   55  C   UNL     9      -9.057   2.851  68.514  1.00  0.00    -0.161 C  
HETATM   56  C   UNL    10     -11.249  10.999  70.143  1.00  0.00    -0.264 C  
HETATM   57  O   UNL     8      -9.128  15.926  65.329  1.00  0.00    -0.064 OA 
HETATM   58  O   UNL     8      -5.141  16.370  71.092  1.00  0.00    -0.204 OA 
HETATM   59  O   UNL     8      -6.270  18.356  70.971  1.00  0.00     0.509 OA 
HETATM   60  O   UNL     8      -7.947  14.250  66.434  1.00  0.00     0.606 OA 
HETATM   61  O   UNL    10     -11.335   9.460  66.149  1.00  0.00     1.300 OA 
HETATM   62  C   UNL    10     -11.969  10.123  67.100  1.00  0.00     2.819 C  
HETATM   63  O   UNL    10      -9.875  13.680  68.157  1.00  0.00    -0.223 OA 
HETATM   64  O   UNL    10     -12.854   9.647  67.840  1.00  0.00     5.483 OA 
HETATM   65  O   UNL    10      -9.033  12.670  69.801  1.00  0.00     1.818 OA 
HETATM   66  O   UNL     9      -9.309   1.635  68.536  1.00  0.00    -0.148 OA 
HETATM   67  O   UNL     9      -9.683   3.804  69.001  1.00  0.00    -0.156 OA 
ENDROOT
BRANCH  39  68
HETATM   68  C   UNL     9      -6.823   5.685  69.674  1.00  0.00    -0.061 C  
HETATM   69  O   UNL     9      -7.158   5.988  70.894  1.00  0.00    -0.065 OA 
HETATM   70  H   UNL     9      -5.398   4.720  70.599  1.00  0.00     0.000 HD 
HETATM   71  O   UNL     9      -6.029   4.662  69.892  1.00  0.00    -0.016 OA 
HETATM   72  H   UNL     9      -6.527   6.045  71.601  1.00  0.00     0.000 HD 
ENDBRANCH  39  68
BRANCH  56  73
HETATM   73  C   UNL    10     -11.822  10.473  71.369  1.00  0.00    -0.145 C  
HETATM   74  O   UNL    10     -12.250   9.254  71.491  1.00  0.00    -0.318 OA 
HETATM   75  O   UNL    10     -12.852  11.116  71.885  1.00  0.00    -0.411 OA 
HETATM   76  H   UNL    10     -13.227  10.772  72.687  1.00  0.00     0.000 HD 
HETATM   77  H   UNL    10     -12.625   8.910  72.293  1.00  0.00     0.000 HD 
ENDBRANCH  56  73
TORSDOF 2
ENDMDL
MODEL       13
REMARK 921   NORMALIZED FREE ENERGY PREDICTED BY IDOCK:   16.18 KCAL/MOL
REMARK 922        TOTAL FREE ENERGY PREDICTED BY IDOCK:   16.52 KCAL/MOL
REMARK 923 INTER-LIGAND FREE ENERGY PREDICTED BY IDOCK:   16.63 KCAL/MOL
REMARK 924 INTRA-LIGAND FREE ENERGY PREDICTED BY IDOCK:   -0.11 KCAL/MOL
REMARK 927      BINDING AFFINITY PREDICTED BY RF-SCORE:    0.00 PKD
ROOT
HETATM    1 FE   UNL     1      -6.100  10.063  66.283  1.00  0.00    -0.053 Fe 
HETATM    2 FE   UNL     2      -8.977  16.397  66.556  1.00  0.00    -0.173 Fe 
HETATM    3 FE   UNL     3      -5.152  14.316  72.146  1.00  0.00    -0.105 Fe 
HETATM    4 FE   UNL     4     -12.046  11.401  68.657  1.00  0.00    -0.249 Fe 
HETATM    5  O   UNL     5      -7.693  13.436  68.458  1.00  0.00    -0.131 OA 
HETATM    6  P   UNL     5      -8.615  12.787  67.146  1.00  0.00    -0.143 P  
HETATM    7  O   UNL     6      -7.730  13.367  68.279  1.00  0.00    -0.123 OA 
HETATM    8  P   UNL     6      -8.653  12.718  66.967  1.00  0.00    -0.085 P  
HETATM    9  O   UNL     5      -9.538  12.138  65.834  1.00  0.00    -0.239 OA 
HETATM   10  O   UNL     7      -7.780  13.361  68.301  1.00  0.00    -0.123 OA 
HETATM   11  O   UNL     5      -6.605  11.951  67.092  1.00  0.00    -0.130 OA 
HETATM   12  O   UNL     5      -9.633  11.964  68.578  1.00  0.00    -0.200 OA 
HETATM   13  O   UNL     6      -9.575  12.069  65.655  1.00  0.00    -0.239 OA 
HETATM   14  O   UNL     6      -8.062  10.859  67.202  1.00  0.00    -0.120 OA 
HETATM   15  O   UNL     6      -7.223  12.615  65.395  1.00  0.00     3.322 OA 
HETATM   16  O   UNL     8      -8.759  21.087  65.364  1.00  0.00     0.570 OA 
HETATM   17  P   UNL     7      -8.702  12.712  66.989  1.00  0.00    -0.134 P  
HETATM   18  P   UNL     5     -10.458  14.007  65.209  1.00  0.00    -0.407 P  
HETATM   19  O   UNL     7      -9.364  14.568  67.139  1.00  0.00    -0.202 OA 
HETATM   20  O   UNL     7      -8.124  14.271  65.887  1.00  0.00     1.516 OA 
HETATM   21  O   UNL     7      -9.625  12.063  65.677  1.00  0.00    -0.239 OA 
HETATM   22  O   UNL     5     -10.316  13.390  63.750  1.00  0.00    -0.160 OA 
HETATM   23  C   UNL     8      -8.515  19.786  65.881  1.00  0.00    -0.167 C  
HETATM   24  H   UNL     8      -8.105  21.639  65.775  1.00  0.00     0.000 HD 
HETATM   25  O   UNL     5     -11.116  13.795  66.726  1.00  0.00    -0.300 OA 
HETATM   26  P   UNL     6      -9.915  10.400  65.959  1.00  0.00    -0.238 P  
HETATM   27  O   UNL     9      -8.730   7.417  66.858  1.00  0.00    -0.119 OA 
HETATM   28  O   UNL     5     -11.913  14.492  65.015  1.00  0.00    -0.382 OA 
HETATM   29  C   UNL     8      -7.104  19.217  65.475  1.00  0.00    -0.197 C  
HETATM   30  C   UNL     8      -9.577  18.889  65.214  1.00  0.00     1.584 C  
HETATM   31  P   UNL     7     -11.822  11.829  65.672  1.00  0.00     0.533 P  
HETATM   32  O   UNL     6     -10.219   8.906  66.231  1.00  0.00    -0.284 OA 
HETATM   33  O   UNL     6     -10.520  10.159  64.446  1.00  0.00     0.028 OA 
HETATM   34  O   UNL    10      -9.765  16.941  71.056  1.00  0.00     2.971 OA 
HETATM   35  H   UNL     9      -9.049   8.226  66.475  1.00  0.00     0.000 HD 
HETATM   36  C   UNL     8      -8.657  19.747  67.451  1.00  0.00    -0.322 C  
HETATM   37  C   UNL     9      -9.016   7.637  68.311  1.00  0.00    -0.127 C  
HETATM   38  O   UNL     6     -10.861  10.609  67.290  1.00  0.00    -0.269 OA 
HETATM   39  C   UNL     9      -8.114   8.797  68.640  1.00  0.00    -0.116 C  
HETATM   40  C   UNL     9     -10.663   7.978  68.626  1.00  0.00    -0.026 C  
HETATM   41  C   UNL     9      -8.513   6.363  68.913  1.00  0.00    -0.121 C  
HETATM   42  O   UNL     8      -7.932  18.848  68.003  1.00  0.00    -0.271 OA 
HETATM   43  O   UNL     8      -9.601  20.400  67.958  1.00  0.00    -0.295 OA 
HETATM   44  C   UNL    10      -9.379  15.884  70.199  1.00  0.00     0.597 C  
HETATM   45  H   UNL    10     -10.443  17.486  70.674  1.00  0.00     0.000 HD 
HETATM   46  C   UNL     8     -10.881  18.099  65.497  1.00  0.00     0.165 C  
HETATM   47  O   UNL     7     -12.282  10.361  65.787  1.00  0.00     2.878 OA 
HETATM   48  O   UNL     7     -12.265  12.311  64.331  1.00  0.00    -0.410 OA 
HETATM   49  O   UNL     7     -12.391  12.229  67.099  1.00  0.00    -0.379 OA 
HETATM   50  C   UNL     8      -5.912  19.825  64.769  1.00  0.00    -0.249 C  
HETATM   51  O   UNL     9     -11.475   7.067  68.287  1.00  0.00     0.139 OA 
HETATM   52  C   UNL    10     -10.627  15.033  69.733  1.00  0.00    -0.232 C  
HETATM   53  C   UNL    10      -8.786  16.520  68.913  1.00  0.00    -0.244 C  
HETATM   54  O   UNL     9     -11.030   9.192  68.999  1.00  0.00    -0.143 OA 
HETATM   55  C   UNL     9      -8.543   6.439  70.454  1.00  0.00    -0.142 C  
HETATM   56  C   UNL    10      -8.306  15.022  70.803  1.00  0.00     2.023 C  
HETATM   57  O   UNL     8     -12.000  18.554  65.721  1.00  0.00     2.710 OA 
HETATM   58  O   UNL     8      -5.126  18.916  64.339  1.00  0.00    -0.163 OA 
HETATM   59  O   UNL     8      -5.785  21.069  64.745  1.00  0.00    -0.233 OA 
HETATM   60  O   UNL     8     -10.438  16.833  65.568  1.00  0.00    -0.538 OA 
HETATM   61  O   UNL    10     -11.908  12.968  69.739  1.00  0.00    -0.308 OA 
HETATM   62  C   UNL    10     -11.334  13.894  70.488  1.00  0.00     0.203 C  
HETATM   63  O   UNL    10      -9.649  16.987  68.091  1.00  0.00    -0.252 OA 
HETATM   64  O   UNL    10     -11.010  13.751  71.685  1.00  0.00     2.344 OA 
HETATM   65  O   UNL    10      -7.765  16.066  68.266  1.00  0.00    -0.136 OA 
HETATM   66  O   UNL     9      -8.578   5.332  71.015  1.00  0.00    -0.119 OA 
HETATM   67  O   UNL     9      -8.400   7.573  70.936  1.00  0.00    -0.112 OA 
ENDROOT
BRANCH  39  68
HETATM   68  C   UNL     9      -6.677   8.821  68.171  1.00  0.00    -0.065 C  
HETATM   69  O   UNL     9      -5.703   9.272  68.905  1.00  0.00    -0.039 OA 
HETATM   70  H   UNL     9      -5.240   7.721  67.432  1.00  0.00     0.000 HD 
HETATM   71  O   UNL     9      -6.143   7.706  67.727  1.00  0.00    -0.041 OA 
HETATM   72  H   UNL     9      -4.800   9.287  68.610  1.00  0.00     0.000 HD 
ENDBRANCH  39  68
BRANCH  56  73
HETATM   73  C   UNL    10      -7.408  14.832  71.929  1.00  0.00     3.257 C  
HETATM   74  O   UNL    10      -6.518  15.706  72.287  1.00  0.00     2.090 OA 
HETATM   75  O   UNL    10      -6.660  13.746  71.935  1.00  0.00     0.002 OA 
HETATM   76  H   UNL    10      -6.073  13.622  72.672  1.00  0.00     0.000 HD 
HETATM   77  H   UNL    10      -5.931  15.582  73.023  1.00  0.00     0.000 HD 
ENDBRANCH  56  73
TORSDOF 2
ENDMDL
MODEL       14
REMARK 921   NORMALIZED FREE ENERGY PREDICTED BY IDOCK:   21.02 KCAL/MOL
REMARK 922        TOTAL FREE ENERGY PREDICTED BY IDOCK:   21.93 KCAL/MOL
REMARK 923 INTER-LIGAND FREE ENERGY PREDICTED BY IDOCK:   22.02 KCAL/MOL
REMARK 924 INTRA-LIGAND FREE ENERGY PREDICTED BY IDOCK:   -0.09 KCAL/MOL
REMARK 927      BINDING AFFINITY PREDICTED BY RF-SCORE:    0.00 PKD
ROOT
HETATM    1 FE   UNL     1      -6.220  15.848  65.507  1.00  0.00     1.433 Fe 
HETATM    2 FE   UNL     2      -8.195   9.627  67.934  1.00  0.00    -0.099 Fe 
HETATM    3 FE   UNL     3     -12.534  12.865  63.362  1.00  0.00    -0.395 Fe 
HETATM    4 FE   UNL     4      -9.800  14.869  70.892  1.00  0.00    -0.471 Fe 
HETATM    5  O   UNL     5      -9.243  12.936  66.523  1.00  0.00    -0.235 OA 
HETATM    6  P   UNL     5      -8.011  13.290  67.685  1.00  0.00    -0.194 P  
HETATM    7  O   UNL     6      -9.063  12.968  66.594  1.00  0.00    -0.230 OA 
HETATM    8  P   UNL     6      -7.831  13.322  67.755  1.00  0.00    -0.190 P  
HETATM    9  O   UNL     5      -6.779  13.645  68.847  1.00  0.00    -0.098 OA 
HETATM   10  O   UNL     7      -9.092  12.976  66.639  1.00  0.00    -0.230 OA 
HETATM   11  O   UNL     5      -7.451  14.146  65.762  1.00  0.00     3.363 OA 
HETATM   12  O   UNL     5      -9.413  14.357  68.497  1.00  0.00    -0.206 OA 
HETATM   13  O   UNL     6      -6.599  13.677  68.917  1.00  0.00    -0.093 OA 
HETATM   14  O   UNL     6      -7.600  15.204  67.241  1.00  0.00    -0.189 OA 
HETATM   15  O   UNL     6      -6.045  13.144  66.614  1.00  0.00     0.496 OA 
HETATM   16  O   UNL     8      -7.904   4.801  67.649  1.00  0.00    -0.089 OA 
HETATM   17  P   UNL     7      -7.860  13.331  67.801  1.00  0.00    -0.190 P  
HETATM   18  P   UNL     5      -6.692  11.667  69.751  1.00  0.00     0.200 P  
HETATM   19  O   UNL     7      -8.475  11.526  68.322  1.00  0.00    -0.146 OA 
HETATM   20  O   UNL     7      -6.994  11.598  67.325  1.00  0.00    -0.110 OA 
HETATM   21  O   UNL     7      -6.628  13.685  68.963  1.00  0.00    -0.099 OA 
HETATM   22  O   UNL     5      -5.140  11.987  69.887  1.00  0.00    -0.070 OA 
HETATM   23  C   UNL     8      -8.112   6.184  67.398  1.00  0.00    -0.109 C  
HETATM   24  H   UNL     8      -8.293   4.357  66.906  1.00  0.00     0.000 HD 
HETATM   25  O   UNL     5      -8.231  12.161  70.159  1.00  0.00     2.228 OA 
HETATM   26  P   UNL     6      -6.633  15.364  69.297  1.00  0.00    -0.169 P  
HETATM   27  O   UNL     9      -6.724  18.492  68.151  1.00  0.00    -0.215 OA 
HETATM   28  O   UNL     5      -6.850  11.121  71.188  1.00  0.00     0.826 OA 
HETATM   29  C   UNL     8      -7.366   6.694  66.108  1.00  0.00    -0.076 C  
HETATM   30  C   UNL     8      -7.480   6.906  68.604  1.00  0.00    -0.099 C  
HETATM   31  P   UNL     7      -6.959  13.862  71.140  1.00  0.00     2.957 P  
HETATM   32  O   UNL     6      -6.662  16.875  69.636  1.00  0.00    -0.221 OA 
HETATM   33  O   UNL     6      -5.229  15.285  70.156  1.00  0.00    -0.109 OA 
HETATM   34  O   UNL    10     -12.783   9.969  67.935  1.00  0.00     2.969 OA 
HETATM   35  H   UNL     9      -6.564  17.617  68.483  1.00  0.00     0.000 HD 
HETATM   36  C   UNL     8      -9.646   6.531  67.280  1.00  0.00    -0.126 C  
HETATM   37  C   UNL     9      -8.219  18.559  68.180  1.00  0.00    -0.295 C  
HETATM   38  O   UNL     6      -8.122  15.401  69.997  1.00  0.00    -0.030 OA 
HETATM   39  C   UNL     9      -8.604  17.508  67.172  1.00  0.00    -0.238 C  
HETATM   40  C   UNL     9      -8.875  18.248  69.730  1.00  0.00     1.217 C  
HETATM   41  C   UNL     9      -8.471  19.938  67.658  1.00  0.00    -0.374 C  
HETATM   42  O   UNL     8      -9.881   7.538  66.526  1.00  0.00    -0.208 OA 
HETATM   43  O   UNL     8     -10.423   5.970  68.088  1.00  0.00    -0.186 OA 
HETATM   44  C   UNL    10     -11.685  10.843  67.757  1.00  0.00     0.001 C  
HETATM   45  H   UNL    10     -12.635   9.344  68.634  1.00  0.00     0.000 HD 
HETATM   46  C   UNL     8      -7.828   7.706  69.886  1.00  0.00    -0.102 C  
HETATM   47  O   UNL     7      -6.869  15.313  71.658  1.00  0.00     1.418 OA 
HETATM   48  O   UNL     7      -5.833  13.113  71.771  1.00  0.00    -0.328 OA 
HETATM   49  O   UNL     7      -8.512  13.740  71.443  1.00  0.00     5.890 OA 
HETATM   50  C   UNL     8      -6.594   5.986  65.016  1.00  0.00    -0.043 C  
HETATM   51  O   UNL     9      -8.514  19.056  70.637  1.00  0.00     2.356 OA 
HETATM   52  C   UNL    10     -11.289  11.557  69.111  1.00  0.00    -0.351 C  
HETATM   53  C   UNL    10     -10.462   9.979  67.349  1.00  0.00    -0.260 C  
HETATM   54  O   UNL     9      -9.531  17.124  69.961  1.00  0.00     0.833 OA 
HETATM   55  C   UNL     9      -9.979  20.169  67.428  1.00  0.00    -0.430 C  
HETATM   56  C   UNL    10     -11.918  11.833  66.649  1.00  0.00     0.162 C  
HETATM   57  O   UNL     8      -8.325   7.279  70.925  1.00  0.00    -0.114 OA 
HETATM   58  O   UNL     8      -5.868   6.810  64.364  1.00  0.00    -0.030 OA 
HETATM   59  O   UNL     8      -6.787   4.765  64.824  1.00  0.00    -0.047 OA 
HETATM   60  O   UNL     8      -7.577   8.970  69.510  1.00  0.00    -0.073 OA 
HETATM   61  O   UNL    10     -11.121  13.551  70.489  1.00  0.00     0.443 OA 
HETATM   62  C   UNL    10     -11.922  12.805  69.747  1.00  0.00    -0.292 C  
HETATM   63  O   UNL    10      -9.907   9.338  68.308  1.00  0.00    -0.151 OA 
HETATM   64  O   UNL    10     -12.996  13.191  69.238  1.00  0.00     0.785 OA 
HETATM   65  O   UNL    10      -9.574  10.319  66.476  1.00  0.00    -0.169 OA 
HETATM   66  O   UNL     9     -10.315  21.364  67.433  1.00  0.00     0.699 OA 
HETATM   67  O   UNL     9     -10.637  19.157  67.143  1.00  0.00    -0.422 OA 
ENDROOT
BRANCH  39  68
HETATM   68  C   UNL     9      -7.906  17.426  65.833  1.00  0.00    -0.042 C  
HETATM   69  O   UNL     9      -8.380  16.745  64.832  1.00  0.00     2.366 OA 
HETATM   70  H   UNL     9      -7.138  18.491  64.385  1.00  0.00     0.000 HD 
HETATM   71  O   UNL     9      -7.576  18.543  65.226  1.00  0.00    -0.250 OA 
HETATM   72  H   UNL     9      -7.942  16.693  63.991  1.00  0.00     0.000 HD 
ENDBRANCH  39  68
BRANCH  56  73
HETATM   73  C   UNL    10     -12.814  12.264  65.590  1.00  0.00     1.248 C  
HETATM   74  O   UNL    10     -12.663  11.925  64.346  1.00  0.00    -0.319 OA 
HETATM   75  O   UNL    10     -13.002  13.560  65.440  1.00  0.00    -0.656 OA 
HETATM   76  H   UNL    10     -13.588  13.842  64.747  1.00  0.00     0.000 HD 
HETATM   77  H   UNL    10     -13.249  12.207  63.653  1.00  0.00     0.000 HD 
ENDBRANCH  56  73
TORSDOF 2
ENDMDL
MODEL       15
REMARK 921   NORMALIZED FREE ENERGY PREDICTED BY IDOCK:   29.35 KCAL/MOL
REMARK 922        TOTAL FREE ENERGY PREDICTED BY IDOCK:   31.23 KCAL/MOL
REMARK 923 INTER-LIGAND FREE ENERGY PREDICTED BY IDOCK:   30.37 KCAL/MOL
REMARK 924 INTRA-LIGAND FREE ENERGY PREDICTED BY IDOCK:    0.86 KCAL/MOL
REMARK 927      BINDING AFFINITY PREDICTED BY RF-SCORE:    0.00 PKD
ROOT
HETATM    1 FE   UNL     1     -10.943   6.818  65.969  1.00  0.00    -0.475 Fe 
HETATM    2 FE   UNL     2     -10.983  12.625  69.810  1.00  0.00    -0.328 Fe 
HETATM    3 FE   UNL     3      -5.126  11.235  66.073  1.00  0.00    -0.061 Fe 
HETATM    4 FE   UNL     4      -8.968   7.233  72.190  1.00  0.00    -0.125 Fe 
HETATM    5  O   UNL     5      -8.943   9.925  68.204  1.00  0.00    -0.119 OA 
HETATM    6  P   UNL     5     -10.295   9.124  68.928  1.00  0.00    -0.196 P  
HETATM    7  O   UNL     6      -9.123   9.848  68.218  1.00  0.00    -0.122 OA 
HETATM    8  P   UNL     6     -10.474   9.047  68.942  1.00  0.00    -0.141 P  
HETATM    9  O   UNL     5     -11.646   8.323  69.652  1.00  0.00     0.230 OA 
HETATM   10  O   UNL     7      -9.104   9.835  68.268  1.00  0.00    -0.123 OA 
HETATM   11  O   UNL     5     -10.207   8.613  66.813  1.00  0.00    -0.270 OA 
HETATM   12  O   UNL     5      -8.911   8.168  69.894  1.00  0.00    -0.137 OA 
HETATM   13  O   UNL     6     -11.826   8.246  69.666  1.00  0.00     0.510 OA 
HETATM   14  O   UNL     6     -10.163   7.307  68.085  1.00  0.00    -0.173 OA 
HETATM   15  O   UNL     6     -11.953   9.152  67.417  1.00  0.00     2.392 OA 
HETATM   16  O   UNL     8     -12.260  17.276  70.250  1.00  0.00     2.103 OA 
HETATM   17  P   UNL     7     -10.455   9.034  68.992  1.00  0.00    -0.156 P  
HETATM   18  P   UNL     5     -12.367  10.017  70.811  1.00  0.00    -0.264 P  
HETATM   19  O   UNL     7     -10.386  10.765  69.943  1.00  0.00    -0.127 OA 
HETATM   20  O   UNL     7     -11.553  10.651  68.594  1.00  0.00    -0.281 OA 
HETATM   21  O   UNL     7     -11.807   8.233  69.716  1.00  0.00     0.390 OA 
HETATM   22  O   UNL     5     -13.801   9.412  70.481  1.00  0.00     0.180 OA 
HETATM   23  C   UNL     8     -11.702  16.037  69.840  1.00  0.00    -0.271 C  
HETATM   24  H   UNL     8     -11.822  17.930  69.718  1.00  0.00     0.000 HD 
HETATM   25  O   UNL     5     -10.889   9.721  71.523  1.00  0.00    -0.262 OA 
HETATM   26  P   UNL     6     -11.507   6.548  69.761  1.00  0.00    -0.179 P  
HETATM   27  O   UNL     9     -10.474   3.799  68.185  1.00  0.00     0.640 OA 
HETATM   28  O   UNL     5     -12.661  10.264  72.308  1.00  0.00    -0.218 OA 
HETATM   29  C   UNL     8     -12.008  15.691  68.335  1.00  0.00    -0.084 C  
HETATM   30  C   UNL     8     -12.413  14.976  70.704  1.00  0.00    -0.422 C  
HETATM   31  P   UNL     7     -11.942   7.657  71.844  1.00  0.00    -0.313 P  
HETATM   32  O   UNL     6     -11.222   5.028  69.844  1.00  0.00     0.687 OA 
HETATM   33  O   UNL     6     -13.049   6.198  70.222  1.00  0.00     1.933 OA 
HETATM   34  O   UNL    10      -6.553  13.091  70.959  1.00  0.00    -0.060 OA 
HETATM   35  H   UNL     9     -10.893   4.543  68.601  1.00  0.00     0.000 HD 
HETATM   36  C   UNL     8     -10.143  15.993  70.074  1.00  0.00    -0.039 C  
HETATM   37  C   UNL     9      -9.046   3.988  68.593  1.00  0.00    -0.133 C  
HETATM   38  O   UNL     6     -10.242   6.622  70.811  1.00  0.00    -0.194 OA 
HETATM   39  C   UNL     9      -8.687   5.280  67.907  1.00  0.00    -0.102 C  
HETATM   40  C   UNL     9      -8.840   4.071  70.290  1.00  0.00    -0.086 C  
HETATM   41  C   UNL     9      -8.387   2.817  67.938  1.00  0.00    -0.094 C  
HETATM   42  O   UNL     8      -9.528  15.226  69.255  1.00  0.00    -0.224 OA 
HETATM   43  O   UNL     8      -9.709  16.496  71.138  1.00  0.00     2.713 OA 
HETATM   44  C   UNL    10      -7.362  12.098  70.359  1.00  0.00     2.511 C  
HETATM   45  H   UNL    10      -6.988  13.518  71.688  1.00  0.00     0.000 HD 
HETATM   46  C   UNL     8     -12.193  13.994  71.884  1.00  0.00    -0.022 C  
HETATM   47  O   UNL     7     -11.823   6.136  72.076  1.00  0.00    -0.318 OA 
HETATM   48  O   UNL     7     -13.317   8.048  72.271  1.00  0.00    -0.208 OA 
HETATM   49  O   UNL     7     -10.562   7.979  72.560  1.00  0.00    -0.278 OA 
HETATM   50  C   UNL     8     -12.652  16.470  67.209  1.00  0.00     3.262 C  
HETATM   51  O   UNL     9      -9.208   3.039  70.927  1.00  0.00    -0.107 OA 
HETATM   52  C   UNL    10      -7.885  11.055  71.427  1.00  0.00     5.950 C  
HETATM   53  C   UNL    10      -8.623  12.804  69.792  1.00  0.00     2.410 C  
HETATM   54  O   UNL     9      -8.517   5.216  70.866  1.00  0.00    -0.114 OA 
HETATM   55  C   UNL     9      -6.852   2.904  68.078  1.00  0.00    -0.048 C  
HETATM   56  C   UNL    10      -6.675  11.422  69.206  1.00  0.00    -0.113 C  
HETATM   57  O   UNL     8     -12.049  14.270  73.072  1.00  0.00     0.037 OA 
HETATM   58  O   UNL     8     -13.013  15.691  66.264  1.00  0.00     2.012 OA 
HETATM   59  O   UNL     8     -12.695  17.719  67.276  1.00  0.00     4.485 OA 
HETATM   60  O   UNL     8     -12.068  12.815  71.254  1.00  0.00    -0.042 OA 
HETATM   61  O   UNL    10      -7.913   8.815  72.368  1.00  0.00    -0.362 OA 
HETATM   62  C   UNL    10      -7.151   9.829  71.994  1.00  0.00     1.327 C  
HETATM   63  O   UNL    10      -9.506  13.120  70.663  1.00  0.00     5.058 OA 
HETATM   64  O   UNL    10      -5.933   9.752  71.730  1.00  0.00    -0.266 OA 
HETATM   65  O   UNL    10      -9.195  12.509  68.673  1.00  0.00    -0.108 OA 
HETATM   66  O   UNL     9      -6.271   1.812  67.976  1.00  0.00    -0.024 OA 
HETATM   67  O   UNL     9      -6.387   4.052  68.144  1.00  0.00    -0.035 OA 
ENDROOT
BRANCH  39  68
HETATM   68  C   UNL     9      -9.068   5.523  66.464  1.00  0.00    -0.138 C  
HETATM   69  O   UNL     9      -8.365   5.076  65.465  1.00  0.00    -0.117 OA 
HETATM   70  H   UNL     9     -10.516   5.349  65.163  1.00  0.00     0.000 HD 
HETATM   71  O   UNL     9     -10.277   5.196  66.070  1.00  0.00    -0.201 OA 
HETATM   72  H   UNL     9      -8.604   5.228  64.558  1.00  0.00     0.000 HD 
ENDBRANCH  39  68
BRANCH  56  73
HETATM   73  C   UNL    10      -5.492  11.388  68.363  1.00  0.00    -0.042 C  
HETATM   74  O   UNL    10      -5.339  12.143  67.318  1.00  0.00    -0.104 OA 
HETATM   75  O   UNL    10      -5.147  10.226  67.844  1.00  0.00    -0.035 OA 
HETATM   76  H   UNL    10      -4.373  10.205  67.293  1.00  0.00     0.000 HD 
HETATM   77  H   UNL    10      -4.565  12.121  66.767  1.00  0.00     0.000 HD 
ENDBRANCH  56  73
TORSDOF 2
ENDMDL
MODEL       16
REMARK 921   NORMALIZED FREE ENERGY PREDICTED BY IDOCK:   34.28 KCAL/MOL
REMARK 922        TOTAL FREE ENERGY PREDICTED BY IDOCK:   36.74 KCAL/MOL
REMARK 923 INTER-LIGAND FREE ENERGY PREDICTED BY IDOCK:   37.06 KCAL/MOL
REMARK 924 INTRA-LIGAND FREE ENERGY PREDICTED BY IDOCK:   -0.33 KCAL/MOL
REMARK 927      BINDING AFFINITY PREDICTED BY RF-SCORE:    0.00 PKD
ROOT
HETATM    1 FE   UNL     1      -5.818   9.394  64.168  1.00  0.00    -0.065 Fe 
HETATM    2 FE   UNL     2      -8.997  15.254  66.176  1.00  0.00    -0.204 Fe 
HETATM    3 FE   UNL     3      -5.130  11.824  71.023  1.00  0.00    -0.072 Fe 
HETATM    4 FE   UNL     4     -11.843   9.737  66.689  1.00  0.00     0.273 Fe 
HETATM    5  O   UNL     5      -7.591  11.930  67.180  1.00  0.00    -0.145 OA 
HETATM    6  P   UNL     5      -8.468  11.645  65.717  1.00  0.00     0.462 P  
HETATM    7  O   UNL     6      -7.623  11.913  66.988  1.00  0.00    -0.151 OA 
HETATM    8  P   UNL     6      -8.501  11.628  65.525  1.00  0.00     0.687 P  
HETATM    9  O   UNL     5      -9.346  11.361  64.254  1.00  0.00    -0.172 OA 
HETATM   10  O   UNL     7      -7.672  11.900  67.006  1.00  0.00    -0.157 OA 
HETATM   11  O   UNL     5      -6.420  10.947  65.472  1.00  0.00    -0.058 OA 
HETATM   12  O   UNL     5      -9.459  10.403  66.830  1.00  0.00    -0.161 OA 
HETATM   13  O   UNL     6      -9.378  11.344  64.061  1.00  0.00    -0.164 OA 
HETATM   14  O   UNL     6      -7.824   9.808  65.232  1.00  0.00    -0.111 OA 
HETATM   15  O   UNL     6      -7.053  12.043  64.022  1.00  0.00     3.408 OA 
HETATM   16  O   UNL     8      -8.992  20.093  66.381  1.00  0.00    -0.474 OA 
HETATM   17  P   UNL     7      -8.550  11.615  65.543  1.00  0.00     0.557 P  
HETATM   18  P   UNL     5     -10.349  13.289  64.168  1.00  0.00     0.363 P  
HETATM   19  O   UNL     7      -9.301  13.320  66.203  1.00  0.00    -0.190 OA 
HETATM   20  O   UNL     7      -8.036  13.447  64.947  1.00  0.00     4.596 OA 
HETATM   21  O   UNL     7      -9.428  11.330  64.080  1.00  0.00    -0.220 OA 
HETATM   22  O   UNL     5     -10.164  13.123  62.597  1.00  0.00     2.189 OA 
HETATM   23  C   UNL     8      -8.691  18.711  66.509  1.00  0.00    -0.304 C  
HETATM   24  H   UNL     8      -8.369  20.532  66.947  1.00  0.00     0.000 HD 
HETATM   25  O   UNL     5     -11.010  12.622  65.545  1.00  0.00    -0.270 OA 
HETATM   26  P   UNL     6      -9.641   9.645  63.867  1.00  0.00     0.833 P  
HETATM   27  O   UNL     9      -8.324   6.584  63.902  1.00  0.00    -0.320 OA 
HETATM   28  O   UNL     5     -11.824  13.746  64.088  1.00  0.00    -0.414 OA 
HETATM   29  C   UNL     8      -7.251  18.343  65.990  1.00  0.00    -0.290 C  
HETATM   30  C   UNL     8      -9.702  17.998  65.590  1.00  0.00     0.410 C  
HETATM   31  P   UNL     7     -11.611  11.013  63.957  1.00  0.00     1.518 P  
HETATM   32  O   UNL     6      -9.876   8.124  63.694  1.00  0.00     3.280 OA 
HETATM   33  O   UNL     6     -10.219   9.823  62.335  1.00  0.00     0.826 OA 
HETATM   34  O   UNL    10      -9.853  14.450  70.624  1.00  0.00     0.732 OA 
HETATM   35  H   UNL     9      -8.677   7.454  63.759  1.00  0.00     0.000 HD 
HETATM   36  C   UNL     8      -8.846  18.216  67.999  1.00  0.00    -0.279 C  
HETATM   37  C   UNL     9      -8.633   6.365  65.350  1.00  0.00    -0.081 C  
HETATM   38  O   UNL     6     -10.609   9.423  65.180  1.00  0.00     0.941 OA 
HETATM   39  C   UNL     9      -7.792   7.420  66.019  1.00  0.00    -0.102 C  
HETATM   40  C   UNL     9     -10.298   6.531  65.712  1.00  0.00     1.148 C  
HETATM   41  C   UNL     9      -8.076   4.995  65.575  1.00  0.00    -0.115 C  
HETATM   42  O   UNL     8      -8.084  17.229  68.287  1.00  0.00    -0.227 OA 
HETATM   43  O   UNL     8      -9.824  18.655  68.649  1.00  0.00    -0.354 OA 
HETATM   44  C   UNL    10      -9.409  13.701  69.510  1.00  0.00     1.103 C  
HETATM   45  H   UNL    10     -10.552  15.052  70.398  1.00  0.00     0.000 HD 
HETATM   46  C   UNL     8     -10.969  17.104  65.605  1.00  0.00     0.080 C  
HETATM   47  O   UNL     7     -12.002   9.555  63.637  1.00  0.00     8.980 OA 
HETATM   48  O   UNL     7     -12.064  11.840  62.801  1.00  0.00     0.123 OA 
HETATM   49  O   UNL     7     -12.213  10.962  65.425  1.00  0.00     1.308 OA 
HETATM   50  C   UNL     8      -6.082  19.178  65.515  1.00  0.00    -0.227 C  
HETATM   51  O   UNL     9     -11.062   5.720  65.109  1.00  0.00     1.771 OA 
HETATM   52  C   UNL    10     -10.610  12.966  68.791  1.00  0.00    -0.217 C  
HETATM   53  C   UNL    10      -8.835  14.704  68.473  1.00  0.00    -0.182 C  
HETATM   54  O   UNL     9     -10.726   7.569  66.408  1.00  0.00     0.085 OA 
HETATM   55  C   UNL     9      -8.124   4.624  67.072  1.00  0.00    -0.102 C  
HETATM   56  C   UNL    10      -8.301  12.749  69.866  1.00  0.00     2.640 C  
HETATM   57  O   UNL     8     -12.111  17.427  65.924  1.00  0.00     2.793 OA 
HETATM   58  O   UNL     8      -5.249  18.466  64.861  1.00  0.00    -0.158 OA 
HETATM   59  O   UNL     8      -6.015  20.381  65.851  1.00  0.00    -0.180 OA 
HETATM   60  O   UNL     8     -10.467  15.892  65.321  1.00  0.00    -0.385 OA 
HETATM   61  O   UNL    10     -11.791  10.933  68.177  1.00  0.00    -0.564 OA 
HETATM   62  C   UNL    10     -11.269  11.629  69.172  1.00  0.00    -0.263 C  
HETATM   63  O   UNL    10      -9.711  15.349  67.800  1.00  0.00    -0.211 OA 
HETATM   64  O   UNL    10     -10.950  11.163  70.286  1.00  0.00    -0.077 OA 
HETATM   65  O   UNL    10      -7.786  14.499  67.747  1.00  0.00    -0.132 OA 
HETATM   66  O   UNL     9      -8.112   3.402  67.292  1.00  0.00    -0.082 OA 
HETATM   67  O   UNL     9      -8.040   5.577  67.861  1.00  0.00    -0.100 OA 
ENDROOT
BRANCH  39  68
HETATM   68  C   UNL     9      -6.353   7.639  65.608  1.00  0.00    -0.042 C  
HETATM   69  O   UNL     9      -5.506   8.307  66.336  1.00  0.00    -0.028 OA 
HETATM   70  H   UNL     9      -4.719   6.731  65.037  1.00  0.00     0.000 HD 
HETATM   71  O   UNL     9      -5.623   6.593  65.294  1.00  0.00    -0.028 OA 
HETATM   72  H   UNL     9      -4.602   8.444  66.078  1.00  0.00     0.000 HD 
ENDBRANCH  39  68
BRANCH  56  73
HETATM   73  C   UNL    10      -7.406  12.282  70.911  1.00  0.00     4.654 C  
HETATM   74  O   UNL    10      -6.275  12.855  71.189  1.00  0.00    -0.494 OA 
HETATM   75  O   UNL    10      -7.006  11.027  70.855  1.00  0.00    -0.130 OA 
HETATM   76  H   UNL    10      -6.420  10.723  71.539  1.00  0.00     0.000 HD 
HETATM   77  H   UNL    10      -5.690  12.550  71.873  1.00  0.00     0.000 HD 
ENDBRANCH  56  73
TORSDOF 2
ENDMDL
MODEL       17
REMARK 921   NORMALIZED FREE ENERGY PREDICTED BY IDOCK:   36.19 KCAL/MOL
REMARK 922        TOTAL FREE ENERGY PREDICTED BY IDOCK:   38.87 KCAL/MOL
REMARK 923 INTER-LIGAND FREE ENERGY PREDICTED BY IDOCK:   39.24 KCAL/MOL
REMARK 924 INTRA-LIGAND FREE ENERGY PREDICTED BY IDOCK:   -0.37 KCAL/MOL
REMARK 927      BINDING AFFINITY PREDICTED BY RF-SCORE:    0.00 PKD
ROOT
HETATM    1 FE   UNL     1      -8.428  10.120  66.167  1.00  0.00    -0.116 Fe 
HETATM    2 FE   UNL     2      -9.161  17.044  66.122  1.00  0.00    -0.219 Fe 
HETATM    3 FE   UNL     3      -5.125  14.231  71.222  1.00  0.00    -0.096 Fe 
HETATM    4 FE   UNL     4     -13.117  13.431  69.301  1.00  0.00    -0.069 Fe 
HETATM    5  O   UNL     5      -8.480  13.961  68.139  1.00  0.00    -0.155 OA 
HETATM    6  P   UNL     5      -9.791  13.553  67.087  1.00  0.00    -0.258 P  
HETATM    7  O   UNL     6      -8.570  13.895  67.979  1.00  0.00    -0.159 OA 
HETATM    8  P   UNL     6      -9.882  13.487  66.927  1.00  0.00    -0.269 P  
HETATM    9  O   UNL     5     -11.103  13.145  66.035  1.00  0.00    -0.278 OA 
HETATM   10  O   UNL     7      -8.614  13.907  68.009  1.00  0.00    -0.159 OA 
HETATM   11  O   UNL     5      -8.175  12.120  66.808  1.00  0.00    -0.164 OA 
HETATM   12  O   UNL     5     -10.710  13.193  68.757  1.00  0.00    -0.249 OA 
HETATM   13  O   UNL     6     -11.193  13.079  65.875  1.00  0.00    -0.281 OA 
HETATM   14  O   UNL     6      -9.842  11.557  67.290  1.00  0.00    -0.188 OA 
HETATM   15  O   UNL     6      -8.883  12.832  65.166  1.00  0.00     0.927 OA 
HETATM   16  O   UNL     8      -7.783  21.331  64.340  1.00  0.00     0.400 OA 
HETATM   17  P   UNL     7      -9.926  13.499  66.957  1.00  0.00    -0.258 P  
HETATM   18  P   UNL     5     -11.523  15.164  65.343  1.00  0.00    -0.106 P  
HETATM   19  O   UNL     7      -9.957  15.475  66.983  1.00  0.00    -0.233 OA 
HETATM   20  O   UNL     7      -9.132  14.717  65.591  1.00  0.00     0.072 OA 
HETATM   21  O   UNL     7     -11.237  13.091  65.905  1.00  0.00    -0.281 OA 
HETATM   22  O   UNL     5     -11.860  14.438  63.968  1.00  0.00    -0.326 OA 
HETATM   23  C   UNL     8      -7.845  20.058  64.966  1.00  0.00     0.796 C  
HETATM   24  H   UNL     8      -6.926  21.673  64.566  1.00  0.00     0.000 HD 
HETATM   25  O   UNL     5     -11.906  15.272  66.962  1.00  0.00    -0.133 OA 
HETATM   26  P   UNL     6     -11.952  11.629  66.435  1.00  0.00     1.224 P  
HETATM   27  O   UNL     9     -11.565   8.491  67.489  1.00  0.00     0.605 OA 
HETATM   28  O   UNL     5     -12.775  16.071  65.332  1.00  0.00     1.702 OA 
HETATM   29  C   UNL     8      -6.777  19.044  64.408  1.00  0.00     0.999 C  
HETATM   30  C   UNL     8      -9.235  19.502  64.599  1.00  0.00     4.080 C  
HETATM   31  P   UNL     7     -13.360  13.568  66.289  1.00  0.00     3.358 P  
HETATM   32  O   UNL     6     -12.631  10.331  66.936  1.00  0.00     4.468 OA 
HETATM   33  O   UNL     6     -12.884  11.493  65.083  1.00  0.00     0.883 OA 
HETATM   34  O   UNL    10      -8.858  18.107  70.588  1.00  0.00     3.661 OA 
HETATM   35  H   UNL     9     -11.695   9.332  67.066  1.00  0.00     0.000 HD 
HETATM   36  C   UNL     8      -7.684  20.169  66.531  1.00  0.00    -0.277 C  
HETATM   37  C   UNL     9     -11.483   8.886  68.930  1.00  0.00     0.724 C  
HETATM   38  O   UNL     6     -12.514  12.216  67.866  1.00  0.00    -0.094 OA 
HETATM   39  C   UNL     9     -10.229   9.719  68.961  1.00  0.00    -0.214 C  
HETATM   40  C   UNL     9     -12.858   9.753  69.467  1.00  0.00     1.569 C  
HETATM   41  C   UNL     9     -11.279   7.562  69.595  1.00  0.00    -0.023 C  
HETATM   42  O   UNL     8      -7.169  19.126  67.064  1.00  0.00    -0.204 OA 
HETATM   43  O   UNL     8      -8.270  21.120  67.101  1.00  0.00    -0.127 OA 
HETATM   44  C   UNL    10      -8.982  16.928  69.817  1.00  0.00     0.933 C  
HETATM   45  H   UNL    10      -9.402  18.812  70.258  1.00  0.00     0.000 HD 
HETATM   46  C   UNL     8     -10.634  19.188  65.188  1.00  0.00     0.821 C  
HETATM   47  O   UNL     7     -14.208  12.332  66.660  1.00  0.00     9.488 OA 
HETATM   48  O   UNL     7     -13.890  14.075  64.991  1.00  0.00     0.445 OA 
HETATM   49  O   UNL     7     -13.494  14.221  67.730  1.00  0.00     2.962 OA 
HETATM   50  C   UNL     8      -5.618  19.194  63.446  1.00  0.00    -0.198 C  
HETATM   51  O   UNL     9     -13.955   9.126  69.382  1.00  0.00     3.523 OA 
HETATM   52  C   UNL    10     -10.493  16.488  69.671  1.00  0.00    -0.267 C  
HETATM   53  C   UNL    10      -8.487  17.256  68.382  1.00  0.00    -0.254 C  
HETATM   54  O   UNL     9     -12.764  11.042  69.742  1.00  0.00    -0.187 OA 
HETATM   55  C   UNL     9     -10.984   7.745  71.099  1.00  0.00    -0.239 C  
HETATM   56  C   UNL    10      -8.120  15.811  70.338  1.00  0.00     1.424 C  
HETATM   57  O   UNL     8     -11.500  19.988  65.535  1.00  0.00     0.140 OA 
HETATM   58  O   UNL     8      -5.240  18.055  63.009  1.00  0.00     0.538 OA 
HETATM   59  O   UNL     8      -5.131  20.328  63.248  1.00  0.00    -0.168 OA 
HETATM   60  O   UNL     8     -10.587  17.854  65.342  1.00  0.00    -0.656 OA 
HETATM   61  O   UNL    10     -12.308  14.942  70.143  1.00  0.00    -0.316 OA 
HETATM   62  C   UNL    10     -11.348  15.685  70.667  1.00  0.00    -0.368 C  
HETATM   63  O   UNL    10      -9.313  17.917  67.662  1.00  0.00    -0.254 OA 
HETATM   64  O   UNL    10     -10.855  15.527  71.803  1.00  0.00    -0.140 OA 
HETATM   65  O   UNL    10      -7.795  16.459  67.638  1.00  0.00    -0.138 OA 
HETATM   66  O   UNL     9     -11.240   6.746  71.791  1.00  0.00    -0.241 OA 
HETATM   67  O   UNL     9     -10.416   8.804  71.406  1.00  0.00    -0.234 OA 
ENDROOT
BRANCH  39  68
HETATM   68  C   UNL     9      -8.971   9.253  68.263  1.00  0.00    -0.129 C  
HETATM   69  O   UNL     9      -7.793   9.728  68.543  1.00  0.00    -0.080 OA 
HETATM   70  H   UNL     9      -7.919   7.675  67.794  1.00  0.00     0.000 HD 
HETATM   71  O   UNL     9      -8.709   7.967  68.233  1.00  0.00    -0.130 OA 
HETATM   72  H   UNL     9      -7.003   9.436  68.104  1.00  0.00     0.000 HD 
ENDBRANCH  39  68
BRANCH  56  73
HETATM   73  C   UNL    10      -7.120  15.421  71.317  1.00  0.00     2.068 C  
HETATM   74  O   UNL    10      -5.952  15.980  71.404  1.00  0.00     0.563 OA 
HETATM   75  O   UNL    10      -6.756  14.154  71.344  1.00  0.00    -0.193 OA 
HETATM   76  H   UNL    10      -6.102  13.899  71.984  1.00  0.00     0.000 HD 
HETATM   77  H   UNL    10      -5.297  15.726  72.044  1.00  0.00     0.000 HD 
ENDBRANCH  56  73
TORSDOF 2
ENDMDL
MODEL       18
REMARK 921   NORMALIZED FREE ENERGY PREDICTED BY IDOCK:   38.13 KCAL/MOL
REMARK 922        TOTAL FREE ENERGY PREDICTED BY IDOCK:   41.04 KCAL/MOL
REMARK 923 INTER-LIGAND FREE ENERGY PREDICTED BY IDOCK:   40.46 KCAL/MOL
REMARK 924 INTRA-LIGAND FREE ENERGY PREDICTED BY IDOCK:    0.58 KCAL/MOL
REMARK 927      BINDING AFFINITY PREDICTED BY RF-SCORE:    0.00 PKD
ROOT
HETATM    1 FE   UNL     1      -6.208  14.388  65.588  1.00  0.00     3.181 Fe 
HETATM    2 FE   UNL     2      -8.125   7.778  66.648  1.00  0.00    -0.093 Fe 
HETATM    3 FE   UNL     3     -12.414  11.820  62.713  1.00  0.00    -0.573 Fe 
HETATM    4 FE   UNL     4      -9.896  12.287  70.564  1.00  0.00     1.099 Fe 
HETATM    5  O   UNL     5      -9.200  11.291  65.911  1.00  0.00    -0.204 OA 
HETATM    6  P   UNL     5      -8.003  11.417  67.153  1.00  0.00    -0.167 P  
HETATM    7  O   UNL     6      -9.022  11.310  65.991  1.00  0.00    -0.197 OA 
HETATM    8  P   UNL     6      -7.825  11.437  67.233  1.00  0.00    -0.164 P  
HETATM    9  O   UNL     5      -6.806  11.544  68.395  1.00  0.00    -0.063 OA 
HETATM   10  O   UNL     7      -9.052  11.309  66.036  1.00  0.00    -0.200 OA 
HETATM   11  O   UNL     5      -7.413  12.654  65.460  1.00  0.00     2.610 OA 
HETATM   12  O   UNL     5      -9.443  12.278  68.127  1.00  0.00    -0.203 OA 
HETATM   13  O   UNL     6      -6.628  11.564  68.476  1.00  0.00    -0.057 OA 
HETATM   14  O   UNL     6      -7.617  13.386  67.118  1.00  0.00    -0.102 OA 
HETATM   15  O   UNL     6      -6.010  11.518  66.127  1.00  0.00    -0.122 OA 
HETATM   16  O   UNL     8      -7.738   3.115  65.398  1.00  0.00    -0.079 OA 
HETATM   17  P   UNL     7      -7.855  11.435  67.279  1.00  0.00    -0.164 P  
HETATM   18  P   UNL     5      -6.704   9.426  68.881  1.00  0.00    -0.051 P  
HETATM   19  O   UNL     7      -8.449   9.555  67.405  1.00  0.00    -0.124 OA 
HETATM   20  O   UNL     7      -6.946   9.848  66.484  1.00  0.00    -0.086 OA 
HETATM   21  O   UNL     7      -6.658  11.562  68.521  1.00  0.00    -0.057 OA 
HETATM   22  O   UNL     5      -5.161   9.731  69.121  1.00  0.00    -0.036 OA 
HETATM   23  C   UNL     8      -7.965   4.517  65.426  1.00  0.00    -0.098 C  
HETATM   24  H   UNL     8      -8.101   2.826  64.569  1.00  0.00     0.000 HD 
HETATM   25  O   UNL     5      -8.261   9.806  69.340  1.00  0.00    -0.110 OA 
HETATM   26  P   UNL     6      -6.701  13.138  69.189  1.00  0.00    -0.007 P  
HETATM   27  O   UNL     9      -6.824  16.433  68.700  1.00  0.00    -0.139 OA 
HETATM   28  O   UNL     5      -6.885   8.596  70.172  1.00  0.00    -0.038 OA 
HETATM   29  C   UNL     8      -7.199   5.289  64.288  1.00  0.00    -0.054 C  
HETATM   30  C   UNL     8      -7.375   4.987  66.771  1.00  0.00    -0.086 C  
HETATM   31  P   UNL     7      -7.043  11.288  70.679  1.00  0.00     2.648 P  
HETATM   32  O   UNL     6      -6.767  14.547  69.827  1.00  0.00    -0.151 OA 
HETATM   33  O   UNL     6      -5.318  12.905  70.052  1.00  0.00    -0.088 OA 
HETATM   34  O   UNL    10     -12.717   8.052  66.594  1.00  0.00     7.763 OA 
HETATM   35  H   UNL     9      -6.656  15.510  68.851  1.00  0.00     0.000 HD 
HETATM   36  C   UNL     8      -9.502   4.860  65.340  1.00  0.00    -0.123 C  
HETATM   37  C   UNL     9      -8.320  16.472  68.701  1.00  0.00    -0.235 C  
HETATM   38  O   UNL     6      -8.207  13.012  69.841  1.00  0.00     1.718 OA 
HETATM   39  C   UNL     9      -8.661  15.643  67.491  1.00  0.00    -0.189 C  
HETATM   40  C   UNL     9      -9.006  15.844  70.138  1.00  0.00     0.823 C  
HETATM   41  C   UNL     9      -8.584  17.925  68.463  1.00  0.00    -0.298 C  
HETATM   42  O   UNL     8      -9.739   5.997  64.801  1.00  0.00     0.956 OA 
HETATM   43  O   UNL     8     -10.288   4.136  65.996  1.00  0.00    -0.155 OA 
HETATM   44  C   UNL    10     -11.632   8.959  66.627  1.00  0.00     3.353 C  
HETATM   45  H   UNL    10     -12.575   7.299  67.157  1.00  0.00     0.000 HD 
HETATM   46  C   UNL     8      -7.769   5.505  68.178  1.00  0.00    -0.085 C  
HETATM   47  O   UNL     7      -6.993  12.605  71.483  1.00  0.00     3.273 OA 
HETATM   48  O   UNL     7      -5.919  10.442  71.175  1.00  0.00    -0.281 OA 
HETATM   49  O   UNL     7      -8.601  11.087  70.909  1.00  0.00     2.898 OA 
HETATM   50  C   UNL     8      -6.389   4.828  63.096  1.00  0.00    -0.026 C  
HETATM   51  O   UNL     9      -8.682  16.454  71.200  1.00  0.00     4.337 OA 
HETATM   52  C   UNL    10     -11.281   9.387  68.108  1.00  0.00     0.139 C  
HETATM   53  C   UNL    10     -10.384   8.211  66.086  1.00  0.00     0.550 C  
HETATM   54  O   UNL     9      -9.647  14.688  70.118  1.00  0.00     0.433 OA 
HETATM   55  C   UNL     9     -10.091  18.178  68.245  1.00  0.00    -0.386 C  
HETATM   56  C   UNL    10     -11.857  10.150  65.738  1.00  0.00     3.740 C  
HETATM   57  O   UNL     8      -8.282   4.869  69.096  1.00  0.00    -0.078 OA 
HETATM   58  O   UNL     8      -5.663   5.777  62.645  1.00  0.00    -0.014 OA 
HETATM   59  O   UNL     8      -6.554   3.670  62.655  1.00  0.00    -0.024 OA 
HETATM   60  O   UNL     8      -7.533   6.823  68.074  1.00  0.00    -0.094 OA 
HETATM   61  O   UNL    10     -11.183  11.061  69.866  1.00  0.00    -0.270 OA 
HETATM   62  C   UNL    10     -11.952  10.471  68.968  1.00  0.00    -0.023 C  
HETATM   63  O   UNL    10      -9.840   7.397  66.909  1.00  0.00    -0.184 OA 
HETATM   64  O   UNL    10     -13.020  10.938  68.519  1.00  0.00     1.062 OA 
HETATM   65  O   UNL    10      -9.481   8.734  65.324  1.00  0.00    -0.067 OA 
HETATM   66  O   UNL     9     -10.449  19.342  68.483  1.00  0.00    -0.355 OA 
HETATM   67  O   UNL     9     -10.723  17.236  67.743  1.00  0.00    -0.368 OA 
ENDROOT
BRANCH  39  68
HETATM   68  C   UNL     9      -7.930  15.844  66.182  1.00  0.00     0.335 C  
HETATM   69  O   UNL     9      -8.408  16.566  65.212  1.00  0.00     0.662 OA 
HETATM   70  H   UNL     9      -6.233  16.406  65.393  1.00  0.00     0.000 HD 
HETATM   71  O   UNL     9      -6.692  16.279  66.215  1.00  0.00    -0.009 OA 
HETATM   72  H   UNL     9      -7.949  16.692  64.390  1.00  0.00     0.000 HD 
ENDBRANCH  39  68
BRANCH  56  73
HETATM   73  C   UNL    10     -12.735  10.775  64.765  1.00  0.00     4.902 C  
HETATM   74  O   UNL    10     -12.531  10.724  63.484  1.00  0.00     1.090 OA 
HETATM   75  O   UNL    10     -12.970  12.066  64.896  1.00  0.00    -0.336 OA 
HETATM   76  H   UNL    10     -13.544  12.474  64.259  1.00  0.00     0.000 HD 
HETATM   77  H   UNL    10     -13.106  11.133  62.847  1.00  0.00     0.000 HD 
ENDBRANCH  56  73
TORSDOF 2
ENDMDL
MODEL       19
REMARK 921   NORMALIZED FREE ENERGY PREDICTED BY IDOCK:   41.37 KCAL/MOL
REMARK 922        TOTAL FREE ENERGY PREDICTED BY IDOCK:   44.65 KCAL/MOL
REMARK 923 INTER-LIGAND FREE ENERGY PREDICTED BY IDOCK:   43.93 KCAL/MOL
REMARK 924 INTRA-LIGAND FREE ENERGY PREDICTED BY IDOCK:    0.72 KCAL/MOL
REMARK 927      BINDING AFFINITY PREDICTED BY RF-SCORE:    0.00 PKD
ROOT
HETATM    1 FE   UNL     1     -13.618  14.639  69.411  1.00  0.00    -0.369 Fe 
HETATM    2 FE   UNL     2      -9.221  10.330  66.157  1.00  0.00    -0.140 Fe 
HETATM    3 FE   UNL     3      -7.579  12.271  72.771  1.00  0.00     6.600 Fe 
HETATM    4 FE   UNL     4      -8.532  16.508  65.746  1.00  0.00    -0.254 Fe 
HETATM    5  O   UNL     5      -9.688  12.961  68.783  1.00  0.00    -0.088 OA 
HETATM    6  P   UNL     5     -10.585  13.507  67.407  1.00  0.00    -0.253 P  
HETATM    7  O   UNL     6      -9.841  12.984  68.663  1.00  0.00    -0.177 OA 
HETATM    8  P   UNL     6     -10.738  13.530  67.287  1.00  0.00    -0.270 P  
HETATM    9  O   UNL     5     -11.481  14.052  66.032  1.00  0.00    -0.323 OA 
HETATM   10  O   UNL     7      -9.805  13.015  68.636  1.00  0.00    -0.177 OA 
HETATM   11  O   UNL     5     -11.904  13.428  69.138  1.00  0.00    -0.301 OA 
HETATM   12  O   UNL     5      -9.408  15.043  67.545  1.00  0.00    -0.191 OA 
HETATM   13  O   UNL     6     -11.634  14.076  65.912  1.00  0.00    -0.329 OA 
HETATM   14  O   UNL     6     -11.672  14.986  68.218  1.00  0.00    -0.328 OA 
HETATM   15  O   UNL     6     -12.630  12.597  67.562  1.00  0.00     0.095 OA 
HETATM   16  O   UNL     8      -8.083   5.809  64.844  1.00  0.00    -0.119 OA 
HETATM   17  P   UNL     7     -10.701  13.561  67.261  1.00  0.00    -0.270 P  
HETATM   18  P   UNL     5     -10.695  12.603  64.613  1.00  0.00    -0.373 P  
HETATM   19  O   UNL     7      -9.440  12.247  66.494  1.00  0.00    -0.226 OA 
HETATM   20  O   UNL     7     -11.091  11.652  66.831  1.00  0.00    -0.280 OA 
HETATM   21  O   UNL     7     -11.598  14.106  65.886  1.00  0.00    -0.331 OA 
HETATM   22  O   UNL     5     -12.164  12.659  64.005  1.00  0.00    -0.408 OA 
HETATM   23  C   UNL     8      -8.391   6.998  65.558  1.00  0.00    -0.133 C  
HETATM   24  H   UNL     8      -7.805   5.190  65.508  1.00  0.00     0.000 HD 
HETATM   25  O   UNL     5      -9.333  13.490  64.983  1.00  0.00     0.367 OA 
HETATM   26  P   UNL     6     -12.015  15.753  66.100  1.00  0.00     1.372 P  
HETATM   27  O   UNL     9     -13.219  18.148  68.079  1.00  0.00     5.289 OA 
HETATM   28  O   UNL     5      -9.975  12.697  63.248  1.00  0.00    -0.249 OA 
HETATM   29  C   UNL     8      -9.592   6.820  66.561  1.00  0.00    -0.191 C  
HETATM   30  C   UNL     8      -8.843   8.003  64.481  1.00  0.00     0.399 C  
HETATM   31  P   UNL     7     -10.732  15.173  64.156  1.00  0.00     1.798 P  
HETATM   32  O   UNL     6     -12.355  17.254  66.269  1.00  0.00     3.755 OA 
HETATM   33  O   UNL     6     -13.020  15.759  64.795  1.00  0.00     0.727 OA 
HETATM   34  O   UNL    10      -5.160  11.481  67.987  1.00  0.00    -0.043 OA 
HETATM   35  H   UNL     9     -13.001  17.457  67.465  1.00  0.00     0.000 HD 
HETATM   36  C   UNL     8      -7.139   7.547  66.344  1.00  0.00    -0.071 C  
HETATM   37  C   UNL     9     -11.874  18.493  68.638  1.00  0.00     3.695 C  
HETATM   38  O   UNL     6     -10.474  16.332  66.059  1.00  0.00    -0.325 OA 
HETATM   39  C   UNL     9     -11.489  17.224  69.350  1.00  0.00     1.177 C  
HETATM   40  C   UNL     9     -10.742  18.937  67.433  1.00  0.00    -0.444 C  
HETATM   41  C   UNL     9     -12.218  19.582  69.605  1.00  0.00    10.111 C  
HETATM   42  O   UNL     8      -7.449   8.206  67.396  1.00  0.00    -0.090 OA 
HETATM   43  O   UNL     8      -6.030   7.497  65.760  1.00  0.00    -0.037 OA 
HETATM   44  C   UNL    10      -6.476  12.000  67.992  1.00  0.00    -0.061 C  
HETATM   45  H   UNL    10      -4.903  11.162  67.130  1.00  0.00     0.000 HD 
HETATM   46  C   UNL     8      -8.408   9.288  63.730  1.00  0.00    -0.180 C  
HETATM   47  O   UNL     7     -11.112  16.669  64.105  1.00  0.00    -1.005 OA 
HETATM   48  O   UNL     7     -11.344  14.536  62.954  1.00  0.00     2.054 OA 
HETATM   49  O   UNL     7      -9.197  15.466  64.440  1.00  0.00     1.942 OA 
HETATM   50  C   UNL     8     -10.387   5.614  67.014  1.00  0.00    -0.254 C  
HETATM   51  O   UNL     9     -11.059  19.952  66.745  1.00  0.00    -0.286 OA 
HETATM   52  C   UNL    10      -6.670  13.098  66.871  1.00  0.00     0.777 C  
HETATM   53  C   UNL    10      -7.437  10.837  67.629  1.00  0.00    -0.095 C  
HETATM   54  O   UNL     9      -9.735  18.132  67.140  1.00  0.00    -0.284 OA 
HETATM   55  C   UNL     9     -10.985  19.978  70.444  1.00  0.00     2.732 C  
HETATM   56  C   UNL    10      -6.884  12.505  69.348  1.00  0.00     0.033 C  
HETATM   57  O   UNL     8      -7.529   9.398  62.878  1.00  0.00    -0.104 OA 
HETATM   58  O   UNL     8     -11.484   5.971  67.559  1.00  0.00     0.091 OA 
HETATM   59  O   UNL     8      -9.891   4.473  66.887  1.00  0.00    -0.193 OA 
HETATM   60  O   UNL     8      -9.131  10.237  64.345  1.00  0.00    -0.197 OA 
HETATM   61  O   UNL    10      -7.042  15.403  66.201  1.00  0.00     1.060 OA 
HETATM   62  C   UNL    10      -6.297  14.589  66.928  1.00  0.00     1.457 C  
HETATM   63  O   UNL    10      -7.471  10.529  66.387  1.00  0.00    -0.119 OA 
HETATM   64  O   UNL    10      -5.586  14.936  67.894  1.00  0.00    -0.136 OA 
HETATM   65  O   UNL    10      -8.597  10.641  68.161  1.00  0.00    -0.117 OA 
HETATM   66  O   UNL     9     -11.046  21.120  70.926  1.00  0.00     3.397 OA 
HETATM   67  O   UNL     9     -10.158  19.074  70.637  1.00  0.00     1.222 OA 
ENDROOT
BRANCH  39  68
HETATM   68  C   UNL     9     -12.479  16.500  70.235  1.00  0.00     1.612 C  
HETATM   69  O   UNL     9     -12.515  15.204  70.338  1.00  0.00    -0.337 OA 
HETATM   70  H   UNL     9     -13.179  16.388  72.056  1.00  0.00     0.000 HD 
HETATM   71  O   UNL     9     -12.557  16.842  71.500  1.00  0.00     1.395 OA 
HETATM   72  H   UNL     9     -13.137  14.750  70.894  1.00  0.00     0.000 HD 
ENDBRANCH  39  68
BRANCH  56  73
HETATM   73  C   UNL    10      -6.505  12.647  70.743  1.00  0.00     1.107 C  
HETATM   74  O   UNL    10      -6.685  13.737  71.424  1.00  0.00    -0.038 OA 
HETATM   75  O   UNL    10      -5.250  12.397  71.062  1.00  0.00    -0.138 OA 
HETATM   76  H   UNL    10      -5.003  12.490  71.974  1.00  0.00     0.000 HD 
HETATM   77  H   UNL    10      -6.437  13.830  72.337  1.00  0.00     0.000 HD 
ENDBRANCH  56  73
TORSDOF 2
ENDMDL
MODEL       20
REMARK 921   NORMALIZED FREE ENERGY PREDICTED BY IDOCK:   51.46 KCAL/MOL
REMARK 922        TOTAL FREE ENERGY PREDICTED BY IDOCK:   55.92 KCAL/MOL
REMARK 923 INTER-LIGAND FREE ENERGY PREDICTED BY IDOCK:   53.88 KCAL/MOL
REMARK 924 INTRA-LIGAND FREE ENERGY PREDICTED BY IDOCK:    2.05 KCAL/MOL
REMARK 927      BINDING AFFINITY PREDICTED BY RF-SCORE:    0.00 PKD
ROOT
HETATM    1 FE   UNL     1     -13.191   7.002  68.652  1.00  0.00     1.969 Fe 
HETATM    2 FE   UNL     2     -11.040  13.576  67.859  1.00  0.00    -0.227 Fe 
HETATM    3 FE   UNL     3      -7.205   8.498  64.743  1.00  0.00    -0.073 Fe 
HETATM    4 FE   UNL     4      -9.036  10.112  72.632  1.00  0.00     1.656 Fe 
HETATM    5  O   UNL     5     -10.113   9.948  67.947  1.00  0.00    -0.158 OA 
HETATM    6  P   UNL     5     -11.200  10.187  69.272  1.00  0.00    -0.115 P  
HETATM    7  O   UNL     6     -10.284   9.957  68.044  1.00  0.00    -0.164 OA 
HETATM    8  P   UNL     6     -11.370  10.196  69.368  1.00  0.00    -0.082 P  
HETATM    9  O   UNL     5     -12.286  10.426  70.597  1.00  0.00    -0.301 OA 
HETATM   10  O   UNL     7     -10.250   9.968  68.085  1.00  0.00    -0.160 OA 
HETATM   11  O   UNL     5     -11.963   8.595  67.997  1.00  0.00     2.348 OA 
HETATM   12  O   UNL     5      -9.700   9.533  70.314  1.00  0.00    -0.231 OA 
HETATM   13  O   UNL     6     -12.456  10.435  70.693  1.00  0.00    -0.313 OA 
HETATM   14  O   UNL     6     -11.631   8.290  69.764  1.00  0.00     0.146 OA 
HETATM   15  O   UNL     6     -13.276   9.921  68.466  1.00  0.00     4.057 OA 
HETATM   16  O   UNL     8     -11.430  17.794  65.510  1.00  0.00     0.630 OA 
HETATM   17  P   UNL     7     -11.336  10.207  69.410  1.00  0.00    -0.082 P  
HETATM   18  P   UNL     5     -12.298  12.600  70.540  1.00  0.00    -0.044 P  
HETATM   19  O   UNL     7     -10.691  12.032  69.012  1.00  0.00    -0.206 OA 
HETATM   20  O   UNL     7     -12.275  11.585  68.316  1.00  0.00    -0.561 OA 
HETATM   21  O   UNL     7     -12.423  10.446  70.735  1.00  0.00    -0.316 OA 
HETATM   22  O   UNL     5     -13.819  12.432  70.970  1.00  0.00     0.985 OA 
HETATM   23  C   UNL     8     -11.232  16.435  65.873  1.00  0.00     0.286 C  
HETATM   24  H   UNL     8     -11.134  17.852  64.609  1.00  0.00     0.000 HD 
HETATM   25  O   UNL     5     -10.715  12.279  70.955  1.00  0.00     3.277 OA 
HETATM   26  P   UNL     6     -12.357   9.086  71.772  1.00  0.00    -0.409 P  
HETATM   27  O   UNL     9     -12.352   5.771  72.120  1.00  0.00    -0.134 OA 
HETATM   28  O   UNL     5     -11.985  13.717  71.563  1.00  0.00    -0.026 OA 
HETATM   29  C   UNL     8     -12.112  15.438  65.029  1.00  0.00     0.149 C  
HETATM   30  C   UNL     8     -11.713  16.341  67.334  1.00  0.00     0.544 C  
HETATM   31  P   UNL     7     -11.844  11.232  72.717  1.00  0.00     8.112 P  
HETATM   32  O   UNL     6     -12.268   7.878  72.737  1.00  0.00    -0.203 OA 
HETATM   33  O   UNL     6     -13.654   9.587  72.655  1.00  0.00    -0.381 OA 
HETATM   34  O   UNL    10      -6.478  13.097  67.514  1.00  0.00    -0.160 OA 
HETATM   35  H   UNL     9     -12.485   6.709  72.047  1.00  0.00     0.000 HD 
HETATM   36  C   UNL     8      -9.717  16.014  65.755  1.00  0.00    -0.305 C  
HETATM   37  C   UNL     9     -10.863   5.668  72.013  1.00  0.00    -0.242 C  
HETATM   38  O   UNL     6     -10.797   9.304  72.250  1.00  0.00    -0.086 OA 
HETATM   39  C   UNL     9     -10.610   6.153  70.610  1.00  0.00    -0.307 C  
HETATM   40  C   UNL     9     -10.040   6.603  73.186  1.00  0.00    -0.194 C  
HETATM   41  C   UNL     9     -10.653   4.191  72.128  1.00  0.00    -0.026 C  
HETATM   42  O   UNL     8      -9.554  14.770  65.501  1.00  0.00    -0.286 OA 
HETATM   43  O   UNL     8      -8.860  16.843  66.143  1.00  0.00    -0.390 OA 
HETATM   44  C   UNL    10      -7.576  12.276  67.860  1.00  0.00    -0.127 C  
HETATM   45  H   UNL    10      -6.553  13.972  67.878  1.00  0.00     0.000 HD 
HETATM   46  C   UNL     8     -11.210  16.173  68.791  1.00  0.00    -0.365 C  
HETATM   47  O   UNL     7     -11.854  10.160  73.828  1.00  0.00     6.932 OA 
HETATM   48  O   UNL     7     -12.901  12.223  73.071  1.00  0.00     1.098 OA 
HETATM   49  O   UNL     7     -10.268  11.415  72.764  1.00  0.00    12.541 OA 
HETATM   50  C   UNL     8     -13.014  15.623  63.828  1.00  0.00     1.711 C  
HETATM   51  O   UNL     9     -10.284   6.291  74.390  1.00  0.00    -0.319 OA 
HETATM   52  C   UNL    10      -7.806  12.246  69.423  1.00  0.00     0.648 C  
HETATM   53  C   UNL    10      -8.849  12.918  67.248  1.00  0.00    -0.206 C  
HETATM   54  O   UNL     9      -9.377   7.688  72.826  1.00  0.00    -0.152 OA 
HETATM   55  C   UNL     9      -9.177   3.826  71.862  1.00  0.00    -0.123 C  
HETATM   56  C   UNL    10      -7.457  10.892  67.284  1.00  0.00    -0.104 C  
HETATM   57  O   UNL     8     -10.604  16.994  69.476  1.00  0.00    -0.316 OA 
HETATM   58  O   UNL     8     -13.797  14.624  63.689  1.00  0.00     2.938 OA 
HETATM   59  O   UNL     8     -12.861  16.627  63.098  1.00  0.00     3.271 OA 
HETATM   60  O   UNL     8     -11.484  14.882  69.041  1.00  0.00    -0.270 OA 
HETATM   61  O   UNL    10      -7.787  11.068  71.548  1.00  0.00     4.431 OA 
HETATM   62  C   UNL    10      -7.086  11.380  70.472  1.00  0.00     1.538 C  
HETATM   63  O   UNL    10      -9.300  13.936  67.880  1.00  0.00    -0.194 OA 
HETATM   64  O   UNL    10      -6.073  10.771  70.072  1.00  0.00    -0.076 OA 
HETATM   65  O   UNL    10      -9.827  12.263  66.716  1.00  0.00    -0.202 OA 
HETATM   66  O   UNL     9      -8.826   2.743  72.357  1.00  0.00    -0.073 OA 
HETATM   67  O   UNL     9      -8.571   4.585  71.091  1.00  0.00    -0.102 OA 
ENDROOT
BRANCH  39  68
HETATM   68  C   UNL     9     -11.457   5.665  69.456  1.00  0.00     0.750 C  
HETATM   69  O   UNL     9     -12.718   5.961  69.333  1.00  0.00     3.143 OA 
HETATM   70  H   UNL     9     -11.572   5.583  67.507  1.00  0.00     0.000 HD 
HETATM   71  O   UNL     9     -11.040   5.890  68.231  1.00  0.00    -0.258 OA 
HETATM   72  H   UNL     9     -13.250   5.655  68.609  1.00  0.00     0.000 HD 
ENDBRANCH  39  68
BRANCH  56  73
HETATM   73  C   UNL    10      -6.681  10.006  66.433  1.00  0.00    -0.088 C  
HETATM   74  O   UNL    10      -7.159   8.916  65.915  1.00  0.00    -0.082 OA 
HETATM   75  O   UNL    10      -5.546   9.538  66.914  1.00  0.00    -0.045 OA 
HETATM   76  H   UNL    10      -5.040   8.959  66.357  1.00  0.00     0.000 HD 
HETATM   77  H   UNL    10      -6.652   8.337  65.358  1.00  0.00     0.000 HD 
ENDBRANCH  56  73
TORSDOF 2
ENDMDL
MODEL       21
REMARK 921   NORMALIZED FREE ENERGY PREDICTED BY IDOCK:   56.19 KCAL/MOL
REMARK 922        TOTAL FREE ENERGY PREDICTED BY IDOCK:   61.21 KCAL/MOL
REMARK 923 INTER-LIGAND FREE ENERGY PREDICTED BY IDOCK:   61.27 KCAL/MOL
REMARK 924 INTRA-LIGAND FREE ENERGY PREDICTED BY IDOCK:   -0.06 KCAL/MOL
REMARK 927      BINDING AFFINITY PREDICTED BY RF-SCORE:    0.00 PKD
ROOT
HETATM    1 FE   UNL     1      -5.155   6.534  68.527  1.00  0.00    -0.004 Fe 
HETATM    2 FE   UNL     2      -8.439  12.544  69.785  1.00  0.00    -0.089 Fe 
HETATM    3 FE   UNL     3     -10.900   6.748  73.034  1.00  0.00    -0.200 Fe 
HETATM    4 FE   UNL     4     -10.204   8.862  65.081  1.00  0.00    -0.441 Fe 
HETATM    5  O   UNL     5      -8.656   8.807  69.635  1.00  0.00    -0.125 OA 
HETATM    6  P   UNL     5      -7.772   9.283  68.226  1.00  0.00    -0.086 P  
HETATM    7  O   UNL     6      -8.501   8.851  69.524  1.00  0.00    -0.121 OA 
HETATM    8  P   UNL     6      -7.617   9.327  68.114  1.00  0.00    -0.083 P  
HETATM    9  O   UNL     5      -6.889   9.758  66.817  1.00  0.00    -0.081 OA 
HETATM   10  O   UNL     7      -8.540   8.857  69.486  1.00  0.00    -0.127 OA 
HETATM   11  O   UNL     5      -6.595   7.843  69.358  1.00  0.00    -0.035 OA 
HETATM   12  O   UNL     5      -9.215   8.373  67.302  1.00  0.00    -0.134 OA 
HETATM   13  O   UNL     6      -6.734   9.803  66.705  1.00  0.00    -0.076 OA 
HETATM   14  O   UNL     6      -7.036   7.518  67.618  1.00  0.00    -0.075 OA 
HETATM   15  O   UNL     6      -5.614   9.409  68.824  1.00  0.00    -0.037 OA 
HETATM   16  O   UNL     8      -8.635  16.703  72.259  1.00  0.00    11.461 OA 
HETATM   17  P   UNL     7      -7.657   9.332  68.077  1.00  0.00    -0.083 P  
HETATM   18  P   UNL     5      -7.289  11.892  66.961  1.00  0.00    -0.023 P  
HETATM   19  O   UNL     7      -8.597  10.987  68.608  1.00  0.00    -0.147 OA 
HETATM   20  O   UNL     7      -6.896  10.842  69.135  1.00  0.00    -0.067 OA 
HETATM   21  O   UNL     7      -6.773   9.808  66.668  1.00  0.00    -0.076 OA 
HETATM   22  O   UNL     5      -5.814  12.033  66.385  1.00  0.00    -0.183 OA 
HETATM   23  C   UNL     8      -8.602  15.340  71.861  1.00  0.00     5.871 C  
HETATM   24  H   UNL     8      -8.846  16.682  73.185  1.00  0.00     0.000 HD 
HETATM   25  O   UNL     5      -8.814  11.277  66.682  1.00  0.00    -0.163 OA 
HETATM   26  P   UNL     6      -6.679   8.484  65.586  1.00  0.00    -0.060 P  
HETATM   27  O   UNL     9      -6.082   5.241  65.104  1.00  0.00    -0.025 OA 
HETATM   28  O   UNL     5      -7.910  12.948  66.019  1.00  0.00     1.268 OA 
HETATM   29  C   UNL     8      -7.468  14.515  72.577  1.00  0.00     4.820 C  
HETATM   30  C   UNL     8      -8.260  15.374  70.359  1.00  0.00     1.116 C  
HETATM   31  P   UNL     7      -7.685  10.509  64.782  1.00  0.00     0.171 P  
HETATM   32  O   UNL     6      -6.630   7.304  64.585  1.00  0.00    -0.042 OA 
HETATM   33  O   UNL     6      -5.596   9.248  64.608  1.00  0.00    -0.060 OA 
HETATM   34  O   UNL    10     -12.767  11.177  70.533  1.00  0.00    -0.285 OA 
HETATM   35  H   UNL     9      -6.125   6.185  65.203  1.00  0.00     0.000 HD 
HETATM   36  C   UNL     8      -9.990  14.629  72.102  1.00  0.00     4.397 C  
HETATM   37  C   UNL     9      -7.506   4.847  65.345  1.00  0.00    -0.077 C  
HETATM   38  O   UNL     6      -8.292   8.405  65.264  1.00  0.00    -0.145 OA 
HETATM   39  C   UNL     9      -7.707   5.243  66.784  1.00  0.00    -0.096 C  
HETATM   40  C   UNL     9      -8.605   5.629  64.293  1.00  0.00     0.035 C  
HETATM   41  C   UNL     9      -7.439   3.361  65.189  1.00  0.00    -0.073 C  
HETATM   42  O   UNL     8      -9.884  13.372  72.318  1.00  0.00     9.955 OA 
HETATM   43  O   UNL     8     -11.024  15.284  71.829  1.00  0.00    -0.289 OA 
HETATM   44  C   UNL    10     -11.572  10.593  70.054  1.00  0.00    -0.325 C  
HETATM   45  H   UNL    10     -12.897  12.057  70.200  1.00  0.00     0.000 HD 
HETATM   46  C   UNL     8      -8.864  15.144  68.949  1.00  0.00    -0.205 C  
HETATM   47  O   UNL     7      -7.580   9.485  63.632  1.00  0.00    -0.111 OA 
HETATM   48  O   UNL     7      -6.879  11.696  64.372  1.00  0.00     1.916 OA 
HETATM   49  O   UNL     7      -9.264  10.383  64.889  1.00  0.00    -0.185 OA 
HETATM   50  C   UNL     8      -6.505  14.846  73.697  1.00  0.00     2.158 C  
HETATM   51  O   UNL     9      -8.426   5.398  63.060  1.00  0.00    -0.124 OA 
HETATM   52  C   UNL    10     -11.496  10.643  68.475  1.00  0.00    -0.333 C  
HETATM   53  C   UNL    10     -10.391  11.458  70.570  1.00  0.00     2.307 C  
HETATM   54  O   UNL     9      -9.425   6.557  64.758  1.00  0.00     0.977 OA 
HETATM   55  C   UNL     9      -8.783   2.709  65.576  1.00  0.00    -0.121 C  
HETATM   56  C   UNL    10     -11.365   9.200  70.581  1.00  0.00    -0.323 C  
HETATM   57  O   UNL     8      -9.681  15.846  68.358  1.00  0.00    -0.209 OA 
HETATM   58  O   UNL     8      -5.534  14.017  73.721  1.00  0.00    -0.415 OA 
HETATM   59  O   UNL     8      -6.774  15.784  74.478  1.00  0.00     4.408 OA 
HETATM   60  O   UNL     8      -8.373  13.937  68.622  1.00  0.00    -0.152 OA 
HETATM   61  O   UNL    10     -11.499   9.532  66.315  1.00  0.00     1.289 OA 
HETATM   62  C   UNL    10     -12.137   9.678  67.463  1.00  0.00     4.069 C  
HETATM   63  O   UNL    10     -10.208  12.558  69.941  1.00  0.00     1.120 OA 
HETATM   64  O   UNL    10     -12.970   8.874  67.930  1.00  0.00     8.277 OA 
HETATM   65  O   UNL    10      -9.258  10.994  70.981  1.00  0.00     3.374 OA 
HETATM   66  O   UNL     9      -8.967   1.589  65.072  1.00  0.00    -0.115 OA 
HETATM   67  O   UNL     9      -9.444   3.317  66.431  1.00  0.00    -0.163 OA 
ENDROOT
BRANCH  39  68
HETATM   68  C   UNL     9      -6.672   4.904  67.833  1.00  0.00    -0.055 C  
HETATM   69  O   UNL     9      -6.530   3.707  68.322  1.00  0.00    -0.036 OA 
HETATM   70  H   UNL     9      -4.767   5.003  68.261  1.00  0.00     0.000 HD 
HETATM   71  O   UNL     9      -5.417   5.216  67.602  1.00  0.00    -0.011 OA 
HETATM   72  H   UNL     9      -5.880   3.494  68.981  1.00  0.00     0.000 HD 
ENDBRANCH  39  68
BRANCH  56  73
HETATM   73  C   UNL    10     -11.868   8.162  71.463  1.00  0.00    -0.294 C  
HETATM   74  O   UNL    10     -12.884   7.408  71.171  1.00  0.00    -0.483 OA 
HETATM   75  O   UNL    10     -12.204   8.513  72.689  1.00  0.00    -0.449 OA 
HETATM   76  H   UNL    10     -12.533   7.833  73.265  1.00  0.00     0.000 HD 
HETATM   77  H   UNL    10     -13.213   6.729  71.748  1.00  0.00     0.000 HD 
ENDBRANCH  56  73
TORSDOF 2
ENDMDL
MODEL       22
REMARK 921   NORMALIZED FREE ENERGY PREDICTED BY IDOCK:   60.42 KCAL/MOL
REMARK 922        TOTAL FREE ENERGY PREDICTED BY IDOCK:   65.94 KCAL/MOL
REMARK 923 INTER-LIGAND FREE ENERGY PREDICTED BY IDOCK:   63.73 KCAL/MOL
REMARK 924 INTRA-LIGAND FREE ENERGY PREDICTED BY IDOCK:    2.20 KCAL/MOL
REMARK 927      BINDING AFFINITY PREDICTED BY RF-SCORE:    0.00 PKD
ROOT
HETATM    1 FE   UNL     1      -5.272   6.043  68.844  1.00  0.00    -0.002 Fe 
HETATM    2 FE   UNL     2     -10.017  11.045  67.876  1.00  0.00    -0.158 Fe 
HETATM    3 FE   UNL     3      -6.376  11.145  73.954  1.00  0.00     1.152 Fe 
HETATM    4 FE   UNL     4     -11.560   5.660  70.601  1.00  0.00    -0.275 Fe 
HETATM    5  O   UNL     5      -8.082   8.970  70.322  1.00  0.00    -0.105 OA 
HETATM    6  P   UNL     5      -8.599   7.877  69.086  1.00  0.00    -0.138 P  
HETATM    7  O   UNL     6      -8.075   8.868  70.155  1.00  0.00    -0.101 OA 
HETATM    8  P   UNL     6      -8.593   7.774  68.919  1.00  0.00    -0.131 P  
HETATM    9  O   UNL     5      -9.117   6.783  67.849  1.00  0.00    -0.118 OA 
HETATM   10  O   UNL     7      -8.122   8.849  70.175  1.00  0.00    -0.101 OA 
HETATM   11  O   UNL     5      -6.435   7.752  69.293  1.00  0.00    -0.035 OA 
HETATM   12  O   UNL     5      -9.457   6.972  70.572  1.00  0.00    -0.165 OA 
HETATM   13  O   UNL     6      -9.110   6.681  67.682  1.00  0.00    -0.115 OA 
HETATM   14  O   UNL     6      -7.474   6.267  69.498  1.00  0.00    -0.088 OA 
HETATM   15  O   UNL     6      -7.039   7.931  67.475  1.00  0.00    -0.079 OA 
HETATM   16  O   UNL     8     -11.164  15.328  65.928  1.00  0.00    -0.322 OA 
HETATM   17  P   UNL     7      -8.640   7.756  68.938  1.00  0.00    -0.131 P  
HETATM   18  P   UNL     5     -10.506   8.137  66.864  1.00  0.00    -0.064 P  
HETATM   19  O   UNL     7      -9.867   9.291  68.735  1.00  0.00    -0.158 OA 
HETATM   20  O   UNL     7      -8.466   9.248  67.627  1.00  0.00    -0.116 OA 
HETATM   21  O   UNL     7      -9.158   6.662  67.702  1.00  0.00    -0.115 OA 
HETATM   22  O   UNL     5     -10.015   7.403  65.541  1.00  0.00     0.891 OA 
HETATM   23  C   UNL     8     -10.580  14.267  66.669  1.00  0.00    -0.278 C  
HETATM   24  H   UNL     8     -10.768  16.118  66.278  1.00  0.00     0.000 HD 
HETATM   25  O   UNL     5     -11.227   7.933  68.354  1.00  0.00     0.264 OA 
HETATM   26  P   UNL     6      -8.936   5.053  68.242  1.00  0.00    -0.115 P  
HETATM   27  O   UNL     9      -6.976   2.785  69.698  1.00  0.00    -0.034 OA 
HETATM   28  O   UNL     5     -12.009   8.081  66.506  1.00  0.00     4.027 OA 
HETATM   29  C   UNL     8      -9.025  14.144  66.450  1.00  0.00    -0.069 C  
HETATM   30  C   UNL     8     -11.222  12.986  66.101  1.00  0.00    -0.320 C  
HETATM   31  P   UNL     7     -11.153   5.718  67.605  1.00  0.00     0.737 P  
HETATM   32  O   UNL     6      -8.780   3.596  68.743  1.00  0.00    -0.086 OA 
HETATM   33  O   UNL     6      -9.262   4.417  66.758  1.00  0.00    -0.122 OA 
HETATM   34  O   UNL    10     -11.431  11.921  72.166  1.00  0.00     2.953 OA 
HETATM   35  H   UNL     9      -7.490   3.381  69.167  1.00  0.00     0.000 HD 
HETATM   36  C   UNL     8     -10.875  14.402  68.213  1.00  0.00    -0.242 C  
HETATM   37  C   UNL     9      -7.476   3.099  71.074  1.00  0.00    -0.036 C  
HETATM   38  O   UNL     6     -10.042   5.122  69.460  1.00  0.00    -0.210 OA 
HETATM   39  C   UNL     9      -7.031   4.526  71.257  1.00  0.00    -0.039 C  
HETATM   40  C   UNL     9      -9.171   2.918  71.229  1.00  0.00    -0.124 C  
HETATM   41  C   UNL     9      -6.666   2.160  71.911  1.00  0.00    -0.018 C  
HETATM   42  O   UNL     8      -9.969  13.880  68.950  1.00  0.00    -0.182 OA 
HETATM   43  O   UNL     8     -12.027  14.771  68.545  1.00  0.00    -0.309 OA 
HETATM   44  C   UNL    10     -10.639  10.942  71.523  1.00  0.00     3.881 C  
HETATM   45  H   UNL    10     -12.200  12.152  71.658  1.00  0.00     0.000 HD 
HETATM   46  C   UNL     8     -12.231  11.857  66.435  1.00  0.00     0.703 C  
HETATM   47  O   UNL     7     -11.135   4.211  67.939  1.00  0.00     2.259 OA 
HETATM   48  O   UNL     7     -11.574   5.834  66.179  1.00  0.00     0.616 OA 
HETATM   49  O   UNL     7     -11.975   6.102  68.908  1.00  0.00     0.574 OA 
HETATM   50  C   UNL     8      -8.016  15.007  65.724  1.00  0.00     2.933 C  
HETATM   51  O   UNL     9      -9.609   1.751  71.001  1.00  0.00    -0.125 OA 
HETATM   52  C   UNL    10     -11.493   9.670  71.133  1.00  0.00    -0.456 C  
HETATM   53  C   UNL    10     -10.138  11.552  70.186  1.00  0.00     1.774 C  
HETATM   54  O   UNL     9      -9.942   3.982  71.369  1.00  0.00    -0.185 OA 
HETATM   55  C   UNL     9      -6.889   2.436  73.413  1.00  0.00    -0.023 C  
HETATM   56  C   UNL    10      -9.422  10.575  72.326  1.00  0.00     8.688 C  
HETATM   57  O   UNL     8     -13.455  11.943  66.512  1.00  0.00     5.024 OA 
HETATM   58  O   UNL     8      -6.939  14.358  65.501  1.00  0.00     6.628 OA 
HETATM   59  O   UNL     8      -8.288  16.207  65.499  1.00  0.00     0.298 OA 
HETATM   60  O   UNL     8     -11.421  10.832  66.744  1.00  0.00    -0.235 OA 
HETATM   61  O   UNL    10     -12.047   7.320  71.411  1.00  0.00    -0.300 OA 
HETATM   62  C   UNL    10     -11.882   8.479  72.025  1.00  0.00    -0.362 C  
HETATM   63  O   UNL    10     -11.008  11.588  69.247  1.00  0.00    -0.231 OA 
HETATM   64  O   UNL    10     -11.665   8.619  73.247  1.00  0.00     0.333 OA 
HETATM   65  O   UNL    10      -8.960  11.375  69.687  1.00  0.00     0.586 OA 
HETATM   66  O   UNL     9      -6.635   1.469  74.149  1.00  0.00    -0.015 OA 
HETATM   67  O   UNL     9      -7.167   3.609  73.705  1.00  0.00    -0.052 OA 
ENDROOT
BRANCH  39  68
HETATM   68  C   UNL     9      -5.632   4.956  70.877  1.00  0.00    -0.012 C  
HETATM   69  O   UNL     9      -5.180   4.887  69.659  1.00  0.00     0.000 OA 
HETATM   70  H   UNL     9      -4.355   6.433  70.971  1.00  0.00     0.000 HD 
HETATM   71  O   UNL     9      -5.233   6.162  71.210  1.00  0.00    -0.017 OA 
HETATM   72  H   UNL     9      -4.301   5.158  69.420  1.00  0.00     0.000 HD 
ENDBRANCH  39  68
BRANCH  56  73
HETATM   73  C   UNL    10      -8.641  10.851  73.520  1.00  0.00    15.450 C  
HETATM   74  O   UNL    10      -7.384  11.174  73.491  1.00  0.00     7.340 OA 
HETATM   75  O   UNL    10      -8.604   9.920  74.452  1.00  0.00     3.337 OA 
HETATM   76  H   UNL    10      -8.093  10.101  75.233  1.00  0.00     0.000 HD 
HETATM   77  H   UNL    10      -6.873  11.355  74.271  1.00  0.00     0.000 HD 
ENDBRANCH  56  73
TORSDOF 2
ENDMDL
MODEL       23
REMARK 921   NORMALIZED FREE ENERGY PREDICTED BY IDOCK:   63.49 KCAL/MOL
REMARK 922        TOTAL FREE ENERGY PREDICTED BY IDOCK:   69.36 KCAL/MOL
REMARK 923 INTER-LIGAND FREE ENERGY PREDICTED BY IDOCK:   71.07 KCAL/MOL
REMARK 924 INTRA-LIGAND FREE ENERGY PREDICTED BY IDOCK:   -1.70 KCAL/MOL
REMARK 927      BINDING AFFINITY PREDICTED BY RF-SCORE:    0.00 PKD
ROOT
HETATM    1 FE   UNL     1      -8.228  12.203  71.677  1.00  0.00     5.926 Fe 
HETATM    2 FE   UNL     2      -9.641   7.747  66.517  1.00  0.00    -0.146 Fe 
HETATM    3 FE   UNL     3      -6.865  14.018  64.733  1.00  0.00     7.522 Fe 
HETATM    4 FE   UNL     4     -13.910  11.848  68.456  1.00  0.00     2.833 Fe 
HETATM    5  O   UNL     5      -9.213  11.318  67.566  1.00  0.00    -0.156 OA 
HETATM    6  P   UNL     5     -10.140  10.568  68.820  1.00  0.00    -0.212 P  
HETATM    7  O   UNL     6      -9.249  11.222  67.733  1.00  0.00    -0.150 OA 
HETATM    8  P   UNL     6     -10.177  10.472  68.986  1.00  0.00    -0.233 P  
HETATM    9  O   UNL     5     -11.068   9.819  70.073  1.00  0.00    -0.242 OA 
HETATM   10  O   UNL     7      -9.300  11.231  67.717  1.00  0.00    -0.157 OA 
HETATM   11  O   UNL     5      -8.369  11.487  69.691  1.00  0.00     0.564 OA 
HETATM   12  O   UNL     5     -11.434  11.938  68.358  1.00  0.00    -0.250 OA 
HETATM   13  O   UNL     6     -11.105   9.723  70.240  1.00  0.00    -0.252 OA 
HETATM   14  O   UNL     6     -10.036  11.959  70.262  1.00  0.00     2.145 OA 
HETATM   15  O   UNL     6      -8.677   9.678  70.268  1.00  0.00    -0.218 OA 
HETATM   16  O   UNL     8      -8.287   3.913  63.884  1.00  0.00    -0.090 OA 
HETATM   17  P   UNL     7     -10.228  10.482  68.970  1.00  0.00    -0.233 P  
HETATM   18  P   UNL     5     -11.494   7.967  69.014  1.00  0.00     1.238 P  
HETATM   19  O   UNL     7     -10.472   9.266  67.431  1.00  0.00    -0.249 OA 
HETATM   20  O   UNL     7      -9.226   8.793  68.622  1.00  0.00    -0.141 OA 
HETATM   21  O   UNL     7     -11.156   9.732  70.224  1.00  0.00    -0.252 OA 
HETATM   22  O   UNL     5     -11.369   7.313  70.458  1.00  0.00    -0.274 OA 
HETATM   23  C   UNL     8      -8.383   5.179  64.523  1.00  0.00    -0.137 C  
HETATM   24  H   UNL     8      -7.564   4.002  63.274  1.00  0.00     0.000 HD 
HETATM   25  O   UNL     5     -12.310   9.086  68.085  1.00  0.00     3.413 OA 
HETATM   26  P   UNL     6     -11.831  10.943  71.228  1.00  0.00     0.498 P  
HETATM   27  O   UNL     9     -11.419  13.765  72.953  1.00  0.00     1.647 OA 
HETATM   28  O   UNL     5     -12.784   7.207  68.628  1.00  0.00     3.639 OA 
HETATM   29  C   UNL     8      -7.104   5.541  65.368  1.00  0.00    -0.066 C  
HETATM   30  C   UNL     8      -9.556   5.035  65.513  1.00  0.00    -0.105 C  
HETATM   31  P   UNL     7     -13.341   9.414  70.159  1.00  0.00     1.845 P  
HETATM   32  O   UNL     6     -12.481  12.035  72.113  1.00  0.00     0.186 OA 
HETATM   33  O   UNL     6     -12.343   9.851  72.350  1.00  0.00    -0.084 OA 
HETATM   34  O   UNL    10     -10.670  10.560  63.025  1.00  0.00    -0.425 OA 
HETATM   35  H   UNL     9     -11.516  12.897  72.579  1.00  0.00     0.000 HD 
HETATM   36  C   UNL     8      -8.664   6.335  63.488  1.00  0.00     0.517 C  
HETATM   37  C   UNL     9     -11.771  14.638  71.790  1.00  0.00    -0.145 C  
HETATM   38  O   UNL     6     -12.818  11.593  70.082  1.00  0.00     0.028 OA 
HETATM   39  C   UNL     9     -10.667  14.330  70.814  1.00  0.00     1.000 C  
HETATM   40  C   UNL     9     -13.322  14.305  71.148  1.00  0.00    -0.299 C  
HETATM   41  C   UNL     9     -11.617  16.004  72.380  1.00  0.00    -0.442 C  
HETATM   42  O   UNL     8      -8.206   7.471  63.860  1.00  0.00    -0.078 OA 
HETATM   43  O   UNL     8      -9.478   6.093  62.566  1.00  0.00     0.785 OA 
HETATM   44  C   UNL    10     -10.457  10.683  64.417  1.00  0.00    -0.177 C  
HETATM   45  H   UNL    10     -11.175   9.786  62.805  1.00  0.00     0.000 HD 
HETATM   46  C   UNL     8     -11.022   5.475  65.763  1.00  0.00     0.567 C  
HETATM   47  O   UNL     7     -14.124  10.341  71.113  1.00  0.00     0.343 OA 
HETATM   48  O   UNL     7     -13.550   8.021  70.651  1.00  0.00     0.363 OA 
HETATM   49  O   UNL     7     -13.928  10.093  68.850  1.00  0.00     4.323 OA 
HETATM   50  C   UNL     8      -5.750   4.882  65.522  1.00  0.00    -0.018 C  
HETATM   51  O   UNL     9     -14.284  14.466  71.956  1.00  0.00    -0.475 OA 
HETATM   52  C   UNL    10     -11.818  10.620  65.219  1.00  0.00     2.298 C  
HETATM   53  C   UNL    10      -9.630   9.451  64.873  1.00  0.00     0.018 C  
HETATM   54  O   UNL     9     -13.442  13.727  69.965  1.00  0.00     0.702 OA 
HETATM   55  C   UNL     9     -11.761  17.089  71.291  1.00  0.00     1.213 C  
HETATM   56  C   UNL    10      -9.657  11.908  64.766  1.00  0.00    -0.063 C  
HETATM   57  O   UNL     8     -12.027   5.113  65.157  1.00  0.00     1.125 OA 
HETATM   58  O   UNL     8      -5.151   5.311  66.564  1.00  0.00    -0.005 OA 
HETATM   59  O   UNL     8      -5.349   4.095  64.636  1.00  0.00    -0.012 OA 
HETATM   60  O   UNL     8     -10.878   6.430  66.696  1.00  0.00    -0.285 OA 
HETATM   61  O   UNL    10     -13.521  11.675  66.595  1.00  0.00     6.089 OA 
HETATM   62  C   UNL    10     -12.822  11.757  65.476  1.00  0.00     2.489 C  
HETATM   63  O   UNL    10     -10.294   8.363  64.984  1.00  0.00     2.315 OA 
HETATM   64  O   UNL    10     -12.641  12.802  64.817  1.00  0.00    -0.556 OA 
HETATM   65  O   UNL    10      -8.683   9.479  65.751  1.00  0.00    -0.135 OA 
HETATM   66  O   UNL     9     -12.089  18.204  71.728  1.00  0.00     5.204 OA 
HETATM   67  O   UNL     9     -11.412  16.750  70.151  1.00  0.00     0.063 OA 
ENDROOT
BRANCH  39  68
HETATM   68  C   UNL     9      -9.225  14.271  71.267  1.00  0.00     5.308 C  
HETATM   69  O   UNL     9      -8.223  14.424  70.452  1.00  0.00     0.509 OA 
HETATM   70  H   UNL     9      -7.941  15.009  72.542  1.00  0.00     0.000 HD 
HETATM   71  O   UNL     9      -8.846  15.046  72.258  1.00  0.00     4.701 OA 
HETATM   72  H   UNL     9      -7.318  14.387  70.737  1.00  0.00     0.000 HD 
ENDBRANCH  39  68
BRANCH  56  73
HETATM   73  C   UNL    10      -8.924  13.052  64.252  1.00  0.00     2.554 C  
HETATM   74  O   UNL    10      -9.448  14.231  64.113  1.00  0.00     0.473 OA 
HETATM   75  O   UNL    10      -8.352  12.928  63.070  1.00  0.00     3.385 OA 
HETATM   76  H   UNL    10      -7.873  13.677  62.735  1.00  0.00     0.000 HD 
HETATM   77  H   UNL    10      -8.968  14.979  63.777  1.00  0.00     0.000 HD 
ENDBRANCH  56  73
TORSDOF 2
ENDMDL
MODEL       24
REMARK 921   NORMALIZED FREE ENERGY PREDICTED BY IDOCK:   81.44 KCAL/MOL
REMARK 922        TOTAL FREE ENERGY PREDICTED BY IDOCK:   89.41 KCAL/MOL
REMARK 923 INTER-LIGAND FREE ENERGY PREDICTED BY IDOCK:   89.46 KCAL/MOL
REMARK 924 INTRA-LIGAND FREE ENERGY PREDICTED BY IDOCK:   -0.05 KCAL/MOL
REMARK 927      BINDING AFFINITY PREDICTED BY RF-SCORE:    0.00 PKD
ROOT
HETATM    1 FE   UNL     1     -10.390   6.360  63.819  1.00  0.00     1.947 Fe 
HETATM    2 FE   UNL     2     -11.622  11.985  67.733  1.00  0.00    -0.216 Fe 
HETATM    3 FE   UNL     3      -5.135  11.303  64.964  1.00  0.00    -0.123 Fe 
HETATM    4 FE   UNL     4      -9.481   6.722  70.286  1.00  0.00    -0.151 Fe 
HETATM    5  O   UNL     5      -9.092   9.555  66.419  1.00  0.00    -0.147 OA 
HETATM    6  P   UNL     5     -10.455   8.602  66.896  1.00  0.00    -0.079 P  
HETATM    7  O   UNL     6      -9.263   9.461  66.402  1.00  0.00    -0.151 OA 
HETATM    8  P   UNL     6     -10.626   8.508  66.879  1.00  0.00     0.118 P  
HETATM    9  O   UNL     5     -11.817   7.648  67.373  1.00  0.00     1.591 OA 
HETATM   10  O   UNL     7      -9.251   9.448  66.454  1.00  0.00    -0.151 OA 
HETATM   11  O   UNL     5      -9.981   8.183  64.812  1.00  0.00     2.010 OA 
HETATM   12  O   UNL     5      -9.154   7.745  68.052  1.00  0.00    -0.130 OA 
HETATM   13  O   UNL     6     -11.988   7.554  67.356  1.00  0.00     1.883 OA 
HETATM   14  O   UNL     6     -10.010   6.839  66.045  1.00  0.00     0.126 OA 
HETATM   15  O   UNL     6     -11.846   8.530  65.137  1.00  0.00     9.547 OA 
HETATM   16  O   UNL     8     -13.412  16.473  68.065  1.00  0.00     3.279 OA 
HETATM   17  P   UNL     7     -10.614   8.495  66.931  1.00  0.00     0.118 P  
HETATM   18  P   UNL     5     -12.879   9.220  68.437  1.00  0.00     9.560 P  
HETATM   19  O   UNL     7     -10.870  10.187  67.919  1.00  0.00    -0.251 OA 
HETATM   20  O   UNL     7     -11.790  10.014  66.397  1.00  0.00     1.560 OA 
HETATM   21  O   UNL     7     -11.976   7.541  67.408  1.00  0.00     1.883 OA 
HETATM   22  O   UNL     5     -14.174   8.495  67.866  1.00  0.00    18.297 OA 
HETATM   23  C   UNL     8     -12.674  15.309  67.723  1.00  0.00     1.604 C  
HETATM   24  H   UNL     8     -12.962  17.185  67.626  1.00  0.00     0.000 HD 
HETATM   25  O   UNL     5     -11.511   9.040  69.373  1.00  0.00     0.141 OA 
HETATM   26  P   UNL     6     -11.521   5.892  67.463  1.00  0.00     1.886 P  
HETATM   27  O   UNL     9      -9.980   3.316  66.014  1.00  0.00    -0.399 OA 
HETATM   28  O   UNL     5     -13.430   9.381  69.872  1.00  0.00     1.269 OA 
HETATM   29  C   UNL     8     -12.700  14.994  66.180  1.00  0.00     0.802 C  
HETATM   30  C   UNL     8     -13.403  14.154  68.436  1.00  0.00     3.932 C  
HETATM   31  P   UNL     7     -12.390   6.874  69.473  1.00  0.00     2.416 P  
HETATM   32  O   UNL     6     -11.102   4.404  67.557  1.00  0.00     1.473 OA 
HETATM   33  O   UNL     6     -13.073   5.379  67.660  1.00  0.00    11.848 OA 
HETATM   34  O   UNL    10      -7.500  12.826  69.595  1.00  0.00    -0.137 OA 
HETATM   35  H   UNL     9     -10.532   4.001  66.373  1.00  0.00     0.000 HD 
HETATM   36  C   UNL     8     -11.175  15.405  68.206  1.00  0.00    -0.323 C  
HETATM   37  C   UNL     9      -8.661   3.625  66.653  1.00  0.00    -0.121 C  
HETATM   38  O   UNL     6     -10.452   6.045  68.706  1.00  0.00    -0.196 OA 
HETATM   39  C   UNL     9      -8.328   4.970  66.063  1.00  0.00    -0.114 C  
HETATM   40  C   UNL     9      -8.737   3.661  68.362  1.00  0.00    -0.103 C  
HETATM   41  C   UNL     9      -7.792   2.547  66.087  1.00  0.00    -0.081 C  
HETATM   42  O   UNL     8     -10.364  14.732  67.480  1.00  0.00    -0.237 OA 
HETATM   43  O   UNL     8     -10.969  15.906  69.337  1.00  0.00    -0.262 OA 
HETATM   44  C   UNL    10      -8.100  11.784  68.850  1.00  0.00     0.030 C  
HETATM   45  H   UNL    10      -8.086  13.181  70.254  1.00  0.00     0.000 HD 
HETATM   46  C   UNL     8     -13.277  13.152  69.613  1.00  0.00     1.718 C  
HETATM   47  O   UNL     7     -12.158   5.363  69.687  1.00  0.00     2.819 OA 
HETATM   48  O   UNL     7     -13.848   7.116  69.679  1.00  0.00     3.722 OA 
HETATM   49  O   UNL     7     -11.181   7.298  70.409  1.00  0.00    -0.269 OA 
HETATM   50  C   UNL     8     -13.231  15.751  64.983  1.00  0.00     2.162 C  
HETATM   51  O   UNL     9      -9.097   2.575  68.907  1.00  0.00    -0.108 OA 
HETATM   52  C   UNL    10      -8.679  10.656  69.795  1.00  0.00     0.273 C  
HETATM   53  C   UNL    10      -9.318  12.388  68.102  1.00  0.00    -0.209 C  
HETATM   54  O   UNL     9      -8.626   4.809  69.008  1.00  0.00    -0.081 OA 
HETATM   55  C   UNL     9      -6.316   2.775  66.475  1.00  0.00    -0.028 C  
HETATM   56  C   UNL    10      -7.173  11.221  67.808  1.00  0.00    -0.088 C  
HETATM   57  O   UNL     8     -13.352  13.395  70.816  1.00  0.00     0.032 OA 
HETATM   58  O   UNL     8     -13.358  14.978  63.975  1.00  0.00     0.327 OA 
HETATM   59  O   UNL     8     -13.409  16.986  65.071  1.00  0.00     6.139 OA 
HETATM   60  O   UNL     8     -12.936  12.015  68.986  1.00  0.00     0.830 OA 
HETATM   61  O   UNL    10      -8.632   8.390  70.669  1.00  0.00    -0.127 OA 
HETATM   62  C   UNL    10      -7.925   9.484  70.446  1.00  0.00    -0.178 C  
HETATM   63  O   UNL    10     -10.355  12.585  68.825  1.00  0.00    -0.204 OA 
HETATM   64  O   UNL    10      -6.680   9.534  70.381  1.00  0.00    -0.068 OA 
HETATM   65  O   UNL    10      -9.673  12.083  66.898  1.00  0.00    -0.197 OA 
HETATM   66  O   UNL     9      -5.619   1.748  66.444  1.00  0.00    -0.016 OA 
HETATM   67  O   UNL     9      -5.985   3.959  66.642  1.00  0.00    -0.022 OA 
ENDROOT
BRANCH  39  68
HETATM   68  C   UNL     9      -8.497   5.231  64.583  1.00  0.00    -0.142 C  
HETATM   69  O   UNL     9      -8.055   6.308  64.003  1.00  0.00    -0.170 OA 
HETATM   70  H   UNL     9      -8.194   4.481  62.804  1.00  0.00     0.000 HD 
HETATM   71  O   UNL     9      -8.087   4.317  63.733  1.00  0.00    -0.087 OA 
HETATM   72  H   UNL     9      -8.161   6.472  63.073  1.00  0.00     0.000 HD 
ENDBRANCH  39  68
BRANCH  56  73
HETATM   73  C   UNL    10      -5.874  11.332  67.168  1.00  0.00    -0.082 C  
HETATM   74  O   UNL    10      -5.319  12.468  66.874  1.00  0.00    -0.342 OA 
HETATM   75  O   UNL    10      -5.704  10.705  66.021  1.00  0.00    -0.092 OA 
HETATM   76  H   UNL    10      -4.854  10.778  65.603  1.00  0.00     0.000 HD 
HETATM   77  H   UNL    10      -4.469  12.541  66.456  1.00  0.00     0.000 HD 
ENDBRANCH  56  73
TORSDOF 2
ENDMDL
MODEL       25
REMARK 921   NORMALIZED FREE ENERGY PREDICTED BY IDOCK:   86.36 KCAL/MOL
REMARK 922        TOTAL FREE ENERGY PREDICTED BY IDOCK:   94.90 KCAL/MOL
REMARK 923 INTER-LIGAND FREE ENERGY PREDICTED BY IDOCK:   90.23 KCAL/MOL
REMARK 924 INTRA-LIGAND FREE ENERGY PREDICTED BY IDOCK:    4.67 KCAL/MOL
REMARK 927      BINDING AFFINITY PREDICTED BY RF-SCORE:    0.00 PKD
ROOT
HETATM    1 FE   UNL     1     -13.482   9.703  71.052  1.00  0.00    -0.331 Fe 
HETATM    2 FE   UNL     2      -9.670  14.726  68.100  1.00  0.00    -0.189 Fe 
HETATM    3 FE   UNL     3     -13.563  10.647  63.809  1.00  0.00     0.379 Fe 
HETATM    4 FE   UNL     4      -7.321   9.022  68.966  1.00  0.00    -0.062 Fe 
HETATM    5  O   UNL     5     -11.320  11.385  67.714  1.00  0.00    -0.258 OA 
HETATM    6  P   UNL     5     -10.554  11.354  69.265  1.00  0.00     0.045 P  
HETATM    7  O   UNL     6     -11.300  11.407  67.908  1.00  0.00    -0.263 OA 
HETATM    8  P   UNL     6     -10.534  11.376  69.459  1.00  0.00     0.388 P  
HETATM    9  O   UNL     5      -9.788  11.323  70.816  1.00  0.00     2.684 OA 
HETATM   10  O   UNL     7     -11.251  11.386  67.897  1.00  0.00    -0.243 OA 
HETATM   11  O   UNL     5     -12.668  10.887  69.500  1.00  0.00    -0.267 OA 
HETATM   12  O   UNL     5      -9.622   9.827  68.514  1.00  0.00    -0.146 OA 
HETATM   13  O   UNL     6      -9.768  11.345  71.010  1.00  0.00     4.276 OA 
HETATM   14  O   UNL     6     -11.391   9.720  70.076  1.00  0.00    -0.242 OA 
HETATM   15  O   UNL     6     -12.018  12.216  70.730  1.00  0.00    -0.276 OA 
HETATM   16  O   UNL     8      -9.217  19.393  66.886  1.00  0.00    -0.299 OA 
HETATM   17  P   UNL     7     -10.485  11.355  69.448  1.00  0.00     0.229 P  
HETATM   18  P   UNL     5      -8.618  13.140  70.570  1.00  0.00     7.412 P  
HETATM   19  O   UNL     7      -9.545  12.814  68.502  1.00  0.00    -0.198 OA 
HETATM   20  O   UNL     7     -10.860  13.307  69.607  1.00  0.00     0.048 OA 
HETATM   21  O   UNL     7      -9.719  11.324  70.999  1.00  0.00     3.809 OA 
HETATM   22  O   UNL     5      -8.904  13.330  72.122  1.00  0.00    13.151 OA 
HETATM   23  C   UNL     8      -9.636  18.043  67.028  1.00  0.00    -0.287 C  
HETATM   24  H   UNL     8      -9.764  19.747  66.195  1.00  0.00     0.000 HD 
HETATM   25  O   UNL     5      -7.946  12.142  69.415  1.00  0.00     0.378 OA 
HETATM   26  P   UNL     6      -9.675   9.712  71.574  1.00  0.00     1.557 P  
HETATM   27  O   UNL     9     -11.265   6.828  72.085  1.00  0.00    -0.241 OA 
HETATM   28  O   UNL     5      -7.114  13.486  70.661  1.00  0.00     0.901 OA 
HETATM   29  C   UNL     8     -11.131  17.910  67.506  1.00  0.00     0.077 C  
HETATM   30  C   UNL     8      -8.748  17.468  68.149  1.00  0.00    -0.262 C  
HETATM   31  P   UNL     7      -7.585  10.871  71.345  1.00  0.00     6.263 P  
HETATM   32  O   UNL     6      -9.591   8.251  72.080  1.00  0.00    -0.197 OA 
HETATM   33  O   UNL     6      -9.168  10.170  73.074  1.00  0.00     5.708 OA 
HETATM   34  O   UNL    10      -8.648  12.919  63.995  1.00  0.00     1.931 OA 
HETATM   35  H   UNL     9     -10.841   7.678  72.068  1.00  0.00     0.000 HD 
HETATM   36  C   UNL     8      -9.446  17.229  65.691  1.00  0.00     0.286 C  
HETATM   37  C   UNL     9     -10.898   6.280  70.742  1.00  0.00    -0.281 C  
HETATM   38  O   UNL     6      -8.661   9.138  70.412  1.00  0.00    -0.167 OA 
HETATM   39  C   UNL     9     -11.600   7.229  69.807  1.00  0.00     0.048 C  
HETATM   40  C   UNL     9      -9.208   6.232  70.477  1.00  0.00    -0.158 C  
HETATM   41  C   UNL     9     -11.566   4.942  70.769  1.00  0.00     2.451 C  
HETATM   42  O   UNL     8     -10.278  16.266  65.561  1.00  0.00    -0.456 OA 
HETATM   43  O   UNL     8      -8.397  17.440  65.037  1.00  0.00     1.590 OA 
HETATM   44  C   UNL    10      -9.220  12.465  65.206  1.00  0.00     0.374 C  
HETATM   45  H   UNL    10      -7.909  13.498  64.140  1.00  0.00     0.000 HD 
HETATM   46  C   UNL     8      -7.570  16.495  68.414  1.00  0.00    -0.189 C  
HETATM   47  O   UNL     7      -7.349   9.489  71.991  1.00  0.00    -0.031 OA 
HETATM   48  O   UNL     7      -7.122  11.888  72.332  1.00  0.00     6.884 OA 
HETATM   49  O   UNL     7      -6.910  10.458  69.968  1.00  0.00    -0.125 OA 
HETATM   50  C   UNL     8     -12.242  18.917  67.707  1.00  0.00     3.775 C  
HETATM   51  O   UNL     9      -8.556   5.513  71.292  1.00  0.00    -0.124 OA 
HETATM   52  C   UNL    10      -8.133  11.809  66.149  1.00  0.00     0.206 C  
HETATM   53  C   UNL    10      -9.755  13.709  65.964  1.00  0.00    -0.222 C  
HETATM   54  O   UNL     9      -8.647   7.060  69.612  1.00  0.00    -0.132 OA 
HETATM   55  C   UNL     9     -11.470   4.254  69.391  1.00  0.00     6.433 C  
HETATM   56  C   UNL    10     -10.389  11.548  64.976  1.00  0.00    -0.333 C  
HETATM   57  O   UNL     8      -6.387  16.651  68.120  1.00  0.00    -0.128 OA 
HETATM   58  O   UNL     8     -13.172  18.430  68.433  1.00  0.00     7.185 OA 
HETATM   59  O   UNL     8     -12.179  20.021  67.123  1.00  0.00     1.829 OA 
HETATM   60  O   UNL     8      -8.197  15.415  68.908  1.00  0.00    -0.160 OA 
HETATM   61  O   UNL    10      -7.181   9.870  67.260  1.00  0.00    -0.085 OA 
HETATM   62  C   UNL    10      -7.580  10.374  66.106  1.00  0.00    -0.130 C  
HETATM   63  O   UNL    10      -8.862  14.413  66.549  1.00  0.00    -0.202 OA 
HETATM   64  O   UNL    10      -7.879   9.706  65.094  1.00  0.00    -0.108 OA 
HETATM   65  O   UNL    10     -10.856  13.748  66.637  1.00  0.00    -0.285 OA 
HETATM   66  O   UNL     9     -11.583   3.019  69.432  1.00  0.00     8.892 OA 
HETATM   67  O   UNL     9     -11.422   5.019  68.415  1.00  0.00     1.777 OA 
ENDROOT
BRANCH  39  68
HETATM   68  C   UNL     9     -13.033   7.643  70.056  1.00  0.00     1.786 C  
HETATM   69  O   UNL     9     -13.886   6.888  70.683  1.00  0.00    -0.106 OA 
HETATM   70  H   UNL     9     -14.162   9.057  70.796  1.00  0.00     0.000 HD 
HETATM   71  O   UNL     9     -13.262   8.797  70.640  1.00  0.00     0.284 OA 
HETATM   72  H   UNL     9     -14.786   7.148  70.839  1.00  0.00     0.000 HD 
ENDBRANCH  39  68
BRANCH  56  73
HETATM   73  C   UNL    10     -11.264  10.939  63.989  1.00  0.00     0.491 C  
HETATM   74  O   UNL    10     -12.463  11.368  63.739  1.00  0.00    -0.334 OA 
HETATM   75  O   UNL    10     -11.516   9.651  64.110  1.00  0.00     4.223 OA 
HETATM   76  H   UNL    10     -12.088   9.253  63.465  1.00  0.00     0.000 HD 
HETATM   77  H   UNL    10     -13.036  10.970  63.093  1.00  0.00     0.000 HD 
ENDBRANCH  56  73
TORSDOF 2
ENDMDL
MODEL       26
REMARK 921   NORMALIZED FREE ENERGY PREDICTED BY IDOCK:   90.92 KCAL/MOL
REMARK 922        TOTAL FREE ENERGY PREDICTED BY IDOCK:  100.00 KCAL/MOL
REMARK 923 INTER-LIGAND FREE ENERGY PREDICTED BY IDOCK:  100.87 KCAL/MOL
REMARK 924 INTRA-LIGAND FREE ENERGY PREDICTED BY IDOCK:   -0.87 KCAL/MOL
REMARK 927      BINDING AFFINITY PREDICTED BY RF-SCORE:    0.00 PKD
ROOT
HETATM    1 FE   UNL     1     -13.686   8.385  68.929  1.00  0.00     4.409 Fe 
HETATM    2 FE   UNL     2      -9.080  13.603  69.162  1.00  0.00    -0.299 Fe 
HETATM    3 FE   UNL     3     -12.469  12.523  63.033  1.00  0.00    -0.442 Fe 
HETATM    4 FE   UNL     4      -7.324   7.861  67.504  1.00  0.00    -0.073 Fe 
HETATM    5  O   UNL     5     -10.874  11.075  67.057  1.00  0.00    -0.260 OA 
HETATM    6  P   UNL     5     -10.387  10.233  68.487  1.00  0.00    -0.204 P  
HETATM    7  O   UNL     6     -10.885  11.004  67.239  1.00  0.00    -0.248 OA 
HETATM    8  P   UNL     6     -10.398  10.162  68.669  1.00  0.00    -0.214 P  
HETATM    9  O   UNL     5      -9.900   9.392  69.918  1.00  0.00    -0.184 OA 
HETATM   10  O   UNL     7     -10.837  10.984  67.225  1.00  0.00    -0.248 OA 
HETATM   11  O   UNL     5     -12.538  10.017  68.225  1.00  0.00     1.898 OA 
HETATM   12  O   UNL     5      -9.452   9.101  67.220  1.00  0.00    -0.141 OA 
HETATM   13  O   UNL     6      -9.911   9.320  70.100  1.00  0.00    -0.187 OA 
HETATM   14  O   UNL     6     -11.463   8.547  68.328  1.00  0.00     0.690 OA 
HETATM   15  O   UNL     6     -12.013  10.533  70.003  1.00  0.00    -0.275 OA 
HETATM   16  O   UNL     8      -8.097  18.193  70.353  1.00  0.00     2.465 OA 
HETATM   17  P   UNL     7     -10.350  10.142  68.655  1.00  0.00    -0.214 P  
HETATM   18  P   UNL     5      -8.578  10.935  70.696  1.00  0.00     4.466 P  
HETATM   19  O   UNL     7      -9.162  11.721  68.626  1.00  0.00    -0.169 OA 
HETATM   20  O   UNL     7     -10.607  11.839  69.671  1.00  0.00     0.069 OA 
HETATM   21  O   UNL     7      -9.863   9.300  70.086  1.00  0.00    -0.186 OA 
HETATM   22  O   UNL     5      -9.110  10.436  72.109  1.00  0.00     4.848 OA 
HETATM   23  C   UNL     8      -8.630  17.002  69.792  1.00  0.00     1.120 C  
HETATM   24  H   UNL     8      -8.494  18.897  69.852  1.00  0.00     0.000 HD 
HETATM   25  O   UNL     5      -7.793  10.488  69.295  1.00  0.00    -0.126 OA 
HETATM   26  P   UNL     6     -10.031   7.615  69.835  1.00  0.00    -0.197 P  
HETATM   27  O   UNL     9     -11.886   5.073  68.736  1.00  0.00     3.587 OA 
HETATM   28  O   UNL     5      -7.091  10.984  71.114  1.00  0.00     1.207 OA 
HETATM   29  C   UNL     8     -10.190  16.879  69.972  1.00  0.00     0.344 C  
HETATM   30  C   UNL     8      -7.988  15.860  70.604  1.00  0.00     2.291 C  
HETATM   31  P   UNL     7      -7.856   8.441  70.424  1.00  0.00    -0.104 P  
HETATM   32  O   UNL     6     -10.139   6.089  69.598  1.00  0.00    -0.169 OA 
HETATM   33  O   UNL     6      -9.755   7.263  71.420  1.00  0.00    -0.165 OA 
HETATM   34  O   UNL    10      -7.507  13.737  64.841  1.00  0.00     8.196 OA 
HETATM   35  H   UNL     9     -11.406   5.768  69.171  1.00  0.00     0.000 HD 
HETATM   36  C   UNL     8      -8.274  16.867  68.262  1.00  0.00    -0.222 C  
HETATM   37  C   UNL     9     -11.336   5.150  67.346  1.00  0.00     1.948 C  
HETATM   38  O   UNL     6      -8.878   7.495  68.667  1.00  0.00    -0.128 OA 
HETATM   39  C   UNL     9     -11.800   6.509  66.894  1.00  0.00     1.676 C  
HETATM   40  C   UNL     9      -9.633   4.989  67.290  1.00  0.00    -0.148 C  
HETATM   41  C   UNL     9     -12.092   4.056  66.661  1.00  0.00    10.016 C  
HETATM   42  O   UNL     8      -9.138  16.198  67.596  1.00  0.00    -0.195 OA 
HETATM   43  O   UNL     8      -7.116  17.201  67.912  1.00  0.00    -0.156 OA 
HETATM   44  C   UNL    10      -8.307  12.868  65.618  1.00  0.00     1.915 C  
HETATM   45  H   UNL    10      -6.765  14.075  65.327  1.00  0.00     0.000 HD 
HETATM   46  C   UNL     8      -6.944  14.716  70.516  1.00  0.00     0.340 C  
HETATM   47  O   UNL     7      -7.832   6.898  70.366  1.00  0.00    -0.104 OA 
HETATM   48  O   UNL     7      -7.496   8.820  71.822  1.00  0.00    -0.208 OA 
HETATM   49  O   UNL     7      -6.989   8.608  69.106  1.00  0.00    -0.060 OA 
HETATM   50  C   UNL     8     -11.244  17.831  70.493  1.00  0.00     2.459 C  
HETATM   51  O   UNL     9      -9.182   3.893  67.739  1.00  0.00    -0.139 OA 
HETATM   52  C   UNL    10      -7.446  11.708  66.261  1.00  0.00     0.198 C  
HETATM   53  C   UNL    10      -8.874  13.693  66.805  1.00  0.00    -0.133 C  
HETATM   54  O   UNL     9      -8.877   6.030  66.990  1.00  0.00    -0.113 OA 
HETATM   55  C   UNL     9     -11.812   4.066  65.144  1.00  0.00     2.957 C  
HETATM   56  C   UNL    10      -9.483  12.332  64.849  1.00  0.00     0.164 C  
HETATM   57  O   UNL     8      -5.720  14.819  70.470  1.00  0.00    -0.135 OA 
HETATM   58  O   UNL     8     -12.316  17.204  70.789  1.00  0.00     2.446 OA 
HETATM   59  O   UNL     8     -11.005  19.059  70.510  1.00  0.00     2.106 OA 
HETATM   60  O   UNL     8      -7.721  13.632  70.365  1.00  0.00     1.646 OA 
HETATM   61  O   UNL    10      -6.836   9.362  66.430  1.00  0.00    -0.081 OA 
HETATM   62  C   UNL    10      -6.997  10.388  65.611  1.00  0.00    -0.132 C  
HETATM   63  O   UNL    10      -8.045  13.918  67.753  1.00  0.00    -0.143 OA 
HETATM   64  O   UNL    10      -7.166  10.303  64.377  1.00  0.00    -0.132 OA 
HETATM   65  O   UNL    10     -10.068  13.577  67.283  1.00  0.00    -0.231 OA 
HETATM   66  O   UNL     9     -12.018   2.977  64.584  1.00  0.00     2.487 OA 
HETATM   67  O   UNL     9     -11.545   5.175  64.657  1.00  0.00     1.235 OA 
ENDROOT
BRANCH  39  68
HETATM   68  C   UNL     9     -13.222   6.964  67.139  1.00  0.00    14.143 C  
HETATM   69  O   UNL     9     -14.151   6.892  66.232  1.00  0.00    12.618 OA 
HETATM   70  H   UNL     9     -14.758   6.768  68.331  1.00  0.00     0.000 HD 
HETATM   71  O   UNL     9     -13.865   6.483  68.178  1.00  0.00    13.770 OA 
HETATM   72  H   UNL     9     -15.043   7.178  66.385  1.00  0.00     0.000 HD 
ENDBRANCH  39  68
BRANCH  56  73
HETATM   73  C   UNL    10     -10.219  12.371  63.597  1.00  0.00    -0.354 C  
HETATM   74  O   UNL    10      -9.782  11.838  62.497  1.00  0.00    -0.397 OA 
HETATM   75  O   UNL    10     -10.579  13.553  63.138  1.00  0.00     0.473 OA 
HETATM   76  H   UNL    10     -11.060  13.577  62.319  1.00  0.00     0.000 HD 
HETATM   77  H   UNL    10     -10.263  11.863  61.678  1.00  0.00     0.000 HD 
ENDBRANCH  56  73
TORSDOF 2
ENDMDL
MODEL       27
REMARK 921   NORMALIZED FREE ENERGY PREDICTED BY IDOCK:   91.67 KCAL/MOL
REMARK 922        TOTAL FREE ENERGY PREDICTED BY IDOCK:  100.83 KCAL/MOL
REMARK 923 INTER-LIGAND FREE ENERGY PREDICTED BY IDOCK:   98.51 KCAL/MOL
REMARK 924 INTRA-LIGAND FREE ENERGY PREDICTED BY IDOCK:    2.33 KCAL/MOL
REMARK 927      BINDING AFFINITY PREDICTED BY RF-SCORE:    0.00 PKD
ROOT
HETATM    1 FE   UNL     1     -12.865  15.941  69.346  1.00  0.00    -0.524 Fe 
HETATM    2 FE   UNL     2      -9.361  10.743  66.316  1.00  0.00    -0.158 Fe 
HETATM    3 FE   UNL     3      -9.632  10.793  73.397  1.00  0.00     6.280 Fe 
HETATM    4 FE   UNL     4      -6.497  16.056  67.858  1.00  0.00    -0.097 Fe 
HETATM    5  O   UNL     5      -9.803  12.896  69.350  1.00  0.00     0.531 OA 
HETATM    6  P   UNL     5      -9.903  13.968  67.995  1.00  0.00    -0.239 P  
HETATM    7  O   UNL     6      -9.885  12.999  69.205  1.00  0.00     0.198 OA 
HETATM    8  P   UNL     6      -9.985  14.071  67.850  1.00  0.00    -0.249 P  
HETATM    9  O   UNL     5     -10.003  15.040  66.641  1.00  0.00    -0.243 OA 
HETATM   10  O   UNL     7      -9.833  13.016  69.198  1.00  0.00     0.198 OA 
HETATM   11  O   UNL     5     -11.694  14.184  69.214  1.00  0.00    -0.279 OA 
HETATM   12  O   UNL     5      -8.403  14.834  68.869  1.00  0.00    -0.162 OA 
HETATM   13  O   UNL     6     -10.085  15.142  66.496  1.00  0.00    -0.253 OA 
HETATM   14  O   UNL     6     -10.630  15.623  68.865  1.00  0.00    -0.212 OA 
HETATM   15  O   UNL     6     -12.046  13.981  67.333  1.00  0.00    -0.402 OA 
HETATM   16  O   UNL     8      -9.454   6.417  64.141  1.00  0.00     0.898 OA 
HETATM   17  P   UNL     7      -9.933  14.087  67.844  1.00  0.00    -0.249 P  
HETATM   18  P   UNL     5      -9.310  13.629  65.136  1.00  0.00     1.363 P  
HETATM   19  O   UNL     7      -9.014  12.501  67.106  1.00  0.00    -0.186 OA 
HETATM   20  O   UNL     7     -10.772  12.605  66.807  1.00  0.00    -0.236 OA 
HETATM   21  O   UNL     7     -10.033  15.159  66.489  1.00  0.00    -0.247 OA 
HETATM   22  O   UNL     5     -10.349  14.383  64.198  1.00  0.00     0.125 OA 
HETATM   23  C   UNL     8      -9.569   7.501  65.051  1.00  0.00     1.693 C  
HETATM   24  H   UNL     8      -9.661   5.645  64.654  1.00  0.00     0.000 HD 
HETATM   25  O   UNL     5      -7.955  13.801  66.092  1.00  0.00     1.242 OA 
HETATM   26  P   UNL     6      -9.907  16.776  67.038  1.00  0.00    -0.281 P  
HETATM   27  O   UNL     9     -10.840  19.123  69.212  1.00  0.00     0.175 OA 
HETATM   28  O   UNL     5      -8.164  13.621  64.099  1.00  0.00     6.656 OA 
HETATM   29  C   UNL     8     -11.032   7.690  65.603  1.00  0.00     4.342 C  
HETATM   30  C   UNL     8      -9.232   8.754  64.219  1.00  0.00     0.546 C  
HETATM   31  P   UNL     7      -8.297  16.018  65.428  1.00  0.00     3.717 P  
HETATM   32  O   UNL     6      -9.749  18.237  67.523  1.00  0.00    -0.288 OA 
HETATM   33  O   UNL     6     -10.312  17.398  65.567  1.00  0.00    -0.621 OA 
HETATM   34  O   UNL    10      -6.092   9.805  69.415  1.00  0.00    -0.040 OA 
HETATM   35  H   UNL     9     -10.667  18.506  68.510  1.00  0.00     0.000 HD 
HETATM   36  C   UNL     8      -8.573   7.352  66.265  1.00  0.00    -0.142 C  
HETATM   37  C   UNL     9      -9.752  18.788  70.184  1.00  0.00     1.285 C  
HETATM   38  O   UNL     6      -8.356  16.659  67.576  1.00  0.00    -0.172 OA 
HETATM   39  C   UNL     9     -10.108  17.381  70.586  1.00  0.00     2.199 C  
HETATM   40  C   UNL     9      -8.186  18.896  69.502  1.00  0.00     0.406 C  
HETATM   41  C   UNL     9     -10.024  19.759  71.288  1.00  0.00     2.267 C  
HETATM   42  O   UNL     8      -8.993   7.912  67.337  1.00  0.00    -0.126 OA 
HETATM   43  O   UNL     8      -7.418   6.935  66.011  1.00  0.00    -0.077 OA 
HETATM   44  C   UNL    10      -7.059  10.817  69.213  1.00  0.00    -0.116 C  
HETATM   45  H   UNL    10      -5.672   9.542  68.605  1.00  0.00     0.000 HD 
HETATM   46  C   UNL     8      -8.144   9.839  64.005  1.00  0.00    -0.150 C  
HETATM   47  O   UNL     7      -8.096  17.524  65.699  1.00  0.00    -0.508 OA 
HETATM   48  O   UNL     7      -8.618  15.884  63.977  1.00  0.00     7.598 OA 
HETATM   49  O   UNL     7      -6.965  15.598  66.183  1.00  0.00     0.812 OA 
HETATM   50  C   UNL     8     -12.297   6.871  65.469  1.00  0.00     9.419 C  
HETATM   51  O   UNL     9      -7.868  20.044  69.068  1.00  0.00    -0.134 OA 
HETATM   52  C   UNL    10      -6.451  12.052  68.436  1.00  0.00    -0.055 C  
HETATM   53  C   UNL    10      -8.163  10.230  68.293  1.00  0.00    -0.115 C  
HETATM   54  O   UNL     9      -7.483  17.801  69.276  1.00  0.00    -0.141 OA 
HETATM   55  C   UNL     9      -9.116  19.473  72.504  1.00  0.00     4.722 C  
HETATM   56  C   UNL    10      -7.726  11.234  70.495  1.00  0.00     2.602 C  
HETATM   57  O   UNL     8      -7.039   9.701  63.486  1.00  0.00    -0.101 OA 
HETATM   58  O   UNL     8     -13.323   7.565  65.777  1.00  0.00    12.764 OA 
HETATM   59  O   UNL     8     -12.212   5.661  65.164  1.00  0.00     2.937 OA 
HETATM   60  O   UNL     8      -8.667  10.897  64.645  1.00  0.00    -0.140 OA 
HETATM   61  O   UNL    10      -5.744  14.376  68.367  1.00  0.00    -0.091 OA 
HETATM   62  C   UNL    10      -5.636  13.225  69.008  1.00  0.00    -0.074 C  
HETATM   63  O   UNL    10      -7.854  10.158  67.053  1.00  0.00    -0.102 OA 
HETATM   64  O   UNL    10      -5.244  13.093  70.186  1.00  0.00    -0.087 OA 
HETATM   65  O   UNL    10      -9.429  10.457  68.418  1.00  0.00    -0.141 OA 
HETATM   66  O   UNL     9      -8.950  20.450  73.252  1.00  0.00     2.929 OA 
HETATM   67  O   UNL     9      -8.777  18.289  72.649  1.00  0.00    11.916 OA 
ENDROOT
BRANCH  39  68
HETATM   68  C   UNL     9     -11.532  17.010  70.933  1.00  0.00     0.996 C  
HETATM   69  O   UNL     9     -12.046  15.849  70.653  1.00  0.00    -0.382 OA 
HETATM   70  H   UNL     9     -12.829  16.921  72.393  1.00  0.00     0.000 HD 
HETATM   71  O   UNL     9     -11.934  17.154  72.175  1.00  0.00     0.475 OA 
HETATM   72  H   UNL     9     -12.941  15.616  70.870  1.00  0.00     0.000 HD 
ENDBRANCH  39  68
BRANCH  56  73
HETATM   73  C   UNL    10      -7.846  10.991  71.922  1.00  0.00     8.538 C  
HETATM   74  O   UNL    10      -6.929  10.399  72.624  1.00  0.00     2.244 OA 
HETATM   75  O   UNL    10      -8.903  10.323  72.339  1.00  0.00     4.249 OA 
HETATM   76  H   UNL    10      -8.982  10.163  73.272  1.00  0.00     0.000 HD 
HETATM   77  H   UNL    10      -7.007  10.240  73.557  1.00  0.00     0.000 HD 
ENDBRANCH  56  73
TORSDOF 2
ENDMDL
MODEL       28
REMARK 921   NORMALIZED FREE ENERGY PREDICTED BY IDOCK:  111.39 KCAL/MOL
REMARK 922        TOTAL FREE ENERGY PREDICTED BY IDOCK:  122.87 KCAL/MOL
REMARK 923 INTER-LIGAND FREE ENERGY PREDICTED BY IDOCK:  122.19 KCAL/MOL
REMARK 924 INTRA-LIGAND FREE ENERGY PREDICTED BY IDOCK:    0.68 KCAL/MOL
REMARK 927      BINDING AFFINITY PREDICTED BY RF-SCORE:    0.00 PKD
ROOT
HETATM    1 FE   UNL     1      -6.988  10.661  65.656  1.00  0.00    -0.108 Fe 
HETATM    2 FE   UNL     2      -9.274  16.125  69.316  1.00  0.00    -0.187 Fe 
HETATM    3 FE   UNL     3      -5.243  11.390  72.712  1.00  0.00    -0.078 Fe 
HETATM    4 FE   UNL     4     -12.603  10.870  69.003  1.00  0.00    -0.332 Fe 
HETATM    5  O   UNL     5      -8.116  12.563  69.366  1.00  0.00     0.550 OA 
HETATM    6  P   UNL     5      -9.185  12.690  68.012  1.00  0.00    -0.203 P  
HETATM    7  O   UNL     6      -8.172  12.593  69.181  1.00  0.00     0.295 OA 
HETATM    8  P   UNL     6      -9.242  12.720  67.827  1.00  0.00    -0.217 P  
HETATM    9  O   UNL     5     -10.255  12.817  66.658  1.00  0.00    -0.233 OA 
HETATM   10  O   UNL     7      -8.220  12.580  69.202  1.00  0.00     0.279 OA 
HETATM   11  O   UNL     5      -7.265  11.914  67.338  1.00  0.00    -0.121 OA 
HETATM   12  O   UNL     5     -10.162  11.304  68.953  1.00  0.00    -0.200 OA 
HETATM   13  O   UNL     6     -10.312  12.847  66.473  1.00  0.00    -0.257 OA 
HETATM   14  O   UNL     6      -8.800  10.970  67.053  1.00  0.00    -0.139 OA 
HETATM   15  O   UNL     6      -7.947  13.358  66.265  1.00  0.00     0.881 OA 
HETATM   16  O   UNL     8      -8.737  20.773  70.569  1.00  0.00     1.664 OA 
HETATM   17  P   UNL     7      -9.290  12.707  67.848  1.00  0.00    -0.214 P  
HETATM   18  P   UNL     5     -11.053  14.784  67.136  1.00  0.00    -0.345 P  
HETATM   19  O   UNL     7      -9.774  14.266  68.962  1.00  0.00    -0.154 OA 
HETATM   20  O   UNL     7      -8.661  14.583  67.601  1.00  0.00    -0.160 OA 
HETATM   21  O   UNL     7     -10.360  12.833  66.495  1.00  0.00    -0.245 OA 
HETATM   22  O   UNL     5     -11.073  14.969  65.556  1.00  0.00    -0.336 OA 
HETATM   23  C   UNL     8      -8.569  19.380  70.350  1.00  0.00     1.811 C  
HETATM   24  H   UNL     8      -8.008  21.022  71.126  1.00  0.00     0.000 HD 
HETATM   25  O   UNL     5     -11.613  13.870  68.412  1.00  0.00    -0.290 OA 
HETATM   26  P   UNL     6     -10.772  11.263  65.952  1.00  0.00    -0.141 P  
HETATM   27  O   UNL     9      -9.789   8.186  65.134  1.00  0.00     0.406 OA 
HETATM   28  O   UNL     5     -12.471  15.356  67.362  1.00  0.00     0.658 OA 
HETATM   29  C   UNL     8      -7.247  19.033  69.568  1.00  0.00    -0.074 C  
HETATM   30  C   UNL     8      -9.751  18.976  69.447  1.00  0.00    -0.076 C  
HETATM   31  P   UNL     7     -12.563  12.719  66.611  1.00  0.00     1.482 P  
HETATM   32  O   UNL     6     -11.184   9.846  65.485  1.00  0.00     1.127 OA 
HETATM   33  O   UNL     6     -11.506  11.832  64.591  1.00  0.00    -0.304 OA 
HETATM   34  O   UNL    10      -9.677  14.386  73.556  1.00  0.00     4.911 OA 
HETATM   35  H   UNL     9     -10.064   9.089  65.235  1.00  0.00     0.000 HD 
HETATM   36  C   UNL     8      -8.598  18.569  71.702  1.00  0.00     9.622 C  
HETATM   37  C   UNL     9      -9.946   7.664  66.528  1.00  0.00    -0.155 C  
HETATM   38  O   UNL     6     -11.596  10.819  67.306  1.00  0.00    -0.439 OA 
HETATM   39  C   UNL     9      -8.925   8.470  67.287  1.00  0.00    -0.141 C  
HETATM   40  C   UNL     9     -11.529   7.867  67.145  1.00  0.00     1.554 C  
HETATM   41  C   UNL     9      -9.513   6.241  66.368  1.00  0.00    -0.165 C  
HETATM   42  O   UNL     8      -7.915  17.487  71.660  1.00  0.00     8.669 OA 
HETATM   43  O   UNL     8      -9.441  18.919  72.562  1.00  0.00     5.672 OA 
HETATM   44  C   UNL    10      -9.449  13.883  72.255  1.00  0.00    10.470 C  
HETATM   45  H   UNL    10     -10.332  15.075  73.567  1.00  0.00     0.000 HD 
HETATM   46  C   UNL     8     -11.094  18.201  69.443  1.00  0.00     1.706 C  
HETATM   47  O   UNL     7     -13.140  11.407  66.038  1.00  0.00     3.839 OA 
HETATM   48  O   UNL     7     -13.060  13.822  65.737  1.00  0.00    -0.493 OA 
HETATM   49  O   UNL     7     -12.989  12.377  68.101  1.00  0.00     1.370 OA 
HETATM   50  C   UNL     8      -6.062  19.865  69.129  1.00  0.00    -0.295 C  
HETATM   51  O   UNL     9     -12.441   7.277  66.491  1.00  0.00     4.964 OA 
HETATM   52  C   UNL    10     -10.798  13.426  71.567  1.00  0.00     4.666 C  
HETATM   53  C   UNL    10      -8.900  15.051  71.393  1.00  0.00     3.880 C  
HETATM   54  O   UNL     9     -11.761   8.747  68.103  1.00  0.00     1.246 OA 
HETATM   55  C   UNL     9      -9.423   5.540  67.741  1.00  0.00    -0.116 C  
HETATM   56  C   UNL    10      -8.414  12.793  72.237  1.00  0.00    19.071 C  
HETATM   57  O   UNL     8     -12.151  18.527  69.979  1.00  0.00     7.290 OA 
HETATM   58  O   UNL     8      -5.391  19.261  68.226  1.00  0.00    -0.184 OA 
HETATM   59  O   UNL     8      -5.829  20.949  69.707  1.00  0.00    -0.418 OA 
HETATM   60  O   UNL     8     -10.760  17.052  68.834  1.00  0.00    -0.335 OA 
HETATM   61  O   UNL    10     -12.250  11.684  70.695  1.00  0.00    -0.369 OA 
HETATM   62  C   UNL    10     -11.544  12.091  71.735  1.00  0.00     3.064 C  
HETATM   63  O   UNL    10      -9.777  15.898  71.005  1.00  0.00     1.301 OA 
HETATM   64  O   UNL    10     -11.146  11.358  72.665  1.00  0.00     6.926 OA 
HETATM   65  O   UNL    10      -7.972  14.940  70.501  1.00  0.00     0.657 OA 
HETATM   66  O   UNL     9      -9.513   4.303  67.684  1.00  0.00    -0.154 OA 
HETATM   67  O   UNL     9      -9.146   6.277  68.699  1.00  0.00    -0.127 OA 
ENDROOT
BRANCH  39  68
HETATM   68  C   UNL     9      -7.530   8.668  66.738  1.00  0.00    -0.086 C  
HETATM   69  O   UNL     9      -6.554   7.843  66.982  1.00  0.00    -0.057 OA 
HETATM   70  H   UNL     9      -6.505   8.960  65.100  1.00  0.00     0.000 HD 
HETATM   71  O   UNL     9      -7.382   8.836  65.445  1.00  0.00    -0.083 OA 
HETATM   72  H   UNL     9      -5.677   7.968  66.638  1.00  0.00     0.000 HD 
ENDBRANCH  39  68
BRANCH  56  73
HETATM   73  C   UNL    10      -7.455  12.033  73.021  1.00  0.00    14.767 C  
HETATM   74  O   UNL    10      -6.594  12.581  73.822  1.00  0.00     2.977 OA 
HETATM   75  O   UNL    10      -6.655  11.210  72.372  1.00  0.00     2.445 OA 
HETATM   76  H   UNL    10      -6.028  10.713  72.885  1.00  0.00     0.000 HD 
HETATM   77  H   UNL    10      -5.967  12.084  74.334  1.00  0.00     0.000 HD 
ENDBRANCH  56  73
TORSDOF 2
ENDMDL
MODEL       29
REMARK 921   NORMALIZED FREE ENERGY PREDICTED BY IDOCK:  132.01 KCAL/MOL
REMARK 922        TOTAL FREE ENERGY PREDICTED BY IDOCK:  145.89 KCAL/MOL
REMARK 923 INTER-LIGAND FREE ENERGY PREDICTED BY IDOCK:  144.59 KCAL/MOL
REMARK 924 INTRA-LIGAND FREE ENERGY PREDICTED BY IDOCK:    1.31 KCAL/MOL
REMARK 927      BINDING AFFINITY PREDICTED BY RF-SCORE:    0.00 PKD
ROOT
HETATM    1 FE   UNL     1      -8.358   8.473  65.832  1.00  0.00    -0.100 Fe 
HETATM    2 FE   UNL     2      -9.228  15.064  67.901  1.00  0.00    -0.167 Fe 
HETATM    3 FE   UNL     3      -5.226  10.874  71.979  1.00  0.00    -0.099 Fe 
HETATM    4 FE   UNL     4     -13.166  10.596  69.725  1.00  0.00    -0.334 Fe 
HETATM    5  O   UNL     5      -8.521  11.520  68.887  1.00  0.00    -0.101 OA 
HETATM    6  P   UNL     5      -9.805  11.438  67.732  1.00  0.00    -0.183 P  
HETATM    7  O   UNL     6      -8.607  11.506  68.712  1.00  0.00    -0.139 OA 
HETATM    8  P   UNL     6      -9.892  11.423  67.557  1.00  0.00    -0.182 P  
HETATM    9  O   UNL     5     -11.090  11.356  66.576  1.00  0.00    -0.292 OA 
HETATM   10  O   UNL     7      -8.652  11.507  68.744  1.00  0.00    -0.139 OA 
HETATM   11  O   UNL     5      -8.157  10.182  67.062  1.00  0.00    -0.116 OA 
HETATM   12  O   UNL     5     -10.745  10.569  69.189  1.00  0.00    -0.201 OA 
HETATM   13  O   UNL     6     -11.176  11.341  66.401  1.00  0.00    -0.253 OA 
HETATM   14  O   UNL     6      -9.820   9.476  67.310  1.00  0.00    -0.159 OA 
HETATM   15  O   UNL     6      -8.850  11.355  65.703  1.00  0.00    -0.174 OA 
HETATM   16  O   UNL     8      -7.904  19.710  67.553  1.00  0.00    -0.260 OA 
HETATM   17  P   UNL     7      -9.936  11.425  67.588  1.00  0.00    -0.186 P  
HETATM   18  P   UNL     5     -11.538  13.484  66.528  1.00  0.00    -0.401 P  
HETATM   19  O   UNL     7     -10.007  13.296  68.219  1.00  0.00    -0.228 OA 
HETATM   20  O   UNL     7      -9.143  13.014  66.680  1.00  0.00    -0.230 OA 
HETATM   21  O   UNL     7     -11.221  11.343  66.432  1.00  0.00    -0.283 OA 
HETATM   22  O   UNL     5     -11.836  13.211  64.990  1.00  0.00    -0.323 OA 
HETATM   23  C   UNL     8      -7.952  18.305  67.757  1.00  0.00    -0.245 C  
HETATM   24  H   UNL     8      -7.058  19.978  67.893  1.00  0.00     0.000 HD 
HETATM   25  O   UNL     5     -11.951  13.084  68.093  1.00  0.00    -0.343 OA 
HETATM   26  P   UNL     6     -11.916   9.779  66.471  1.00  0.00     6.890 P  
HETATM   27  O   UNL     9     -11.485   6.474  66.518  1.00  0.00    -0.610 OA 
HETATM   28  O   UNL     5     -12.807  14.334  66.768  1.00  0.00     0.049 OA 
HETATM   29  C   UNL     8      -6.854  17.527  66.938  1.00  0.00    -0.220 C  
HETATM   30  C   UNL     8      -9.324  17.871  67.205  1.00  0.00    -0.258 C  
HETATM   31  P   UNL     7     -13.359  11.649  66.896  1.00  0.00    11.016 P  
HETATM   32  O   UNL     6     -12.577   8.380  66.533  1.00  0.00     8.587 OA 
HETATM   33  O   UNL     6     -12.821  10.053  65.122  1.00  0.00     8.409 OA 
HETATM   34  O   UNL    10      -9.024  14.706  72.483  1.00  0.00     4.580 OA 
HETATM   35  H   UNL     9     -11.625   7.402  66.371  1.00  0.00     0.000 HD 
HETATM   36  C   UNL     8      -7.820  17.932  69.284  1.00  0.00     0.152 C  
HETATM   37  C   UNL     9     -11.436   6.408  68.012  1.00  0.00     0.296 C  
HETATM   38  O   UNL     6     -12.514   9.889  68.000  1.00  0.00     2.313 OA 
HETATM   39  C   UNL     9     -10.200   7.208  68.326  1.00  0.00    -0.210 C  
HETATM   40  C   UNL     9     -12.837   7.049  68.758  1.00  0.00     6.202 C  
HETATM   41  C   UNL     9     -11.217   4.946  68.242  1.00  0.00     2.129 C  
HETATM   42  O   UNL     8      -7.294  16.782  69.481  1.00  0.00    -0.146 OA 
HETATM   43  O   UNL     8      -8.435  18.654  70.104  1.00  0.00     1.448 OA 
HETATM   44  C   UNL    10      -9.110  13.820  71.384  1.00  0.00     8.958 C  
HETATM   45  H   UNL    10      -9.576  15.471  72.373  1.00  0.00     0.000 HD 
HETATM   46  C   UNL     8     -10.727  17.371  67.637  1.00  0.00    -0.310 C  
HETATM   47  O   UNL     7     -14.189  10.348  66.850  1.00  0.00    18.477 OA 
HETATM   48  O   UNL     7     -13.877  12.524  65.805  1.00  0.00     2.356 OA 
HETATM   49  O   UNL     7     -13.531  11.826  68.464  1.00  0.00     3.614 OA 
HETATM   50  C   UNL     8      -5.682  17.981  66.096  1.00  0.00    -0.194 C  
HETATM   51  O   UNL     9     -13.920   6.464  68.460  1.00  0.00    13.128 OA 
HETATM   52  C   UNL    10     -10.610  13.425  71.076  1.00  0.00     4.041 C  
HETATM   53  C   UNL    10      -8.598  14.580  70.131  1.00  0.00     1.193 C  
HETATM   54  O   UNL     9     -12.773   8.192  69.418  1.00  0.00     2.754 OA 
HETATM   55  C   UNL     9     -10.952   4.662  69.736  1.00  0.00     1.772 C  
HETATM   56  C   UNL    10      -8.236  12.609  71.556  1.00  0.00    13.248 C  
HETATM   57  O   UNL     8     -11.614  18.015  68.193  1.00  0.00     0.725 OA 
HETATM   58  O   UNL     8      -5.274  17.038  65.338  1.00  0.00     0.242 OA 
HETATM   59  O   UNL     8      -5.215  19.128  66.267  1.00  0.00    -0.148 OA 
HETATM   60  O   UNL     8     -10.655  16.057  67.375  1.00  0.00    -0.307 OA 
HETATM   61  O   UNL    10     -12.402  11.785  71.009  1.00  0.00    -0.358 OA 
HETATM   62  C   UNL    10     -11.466  12.344  71.757  1.00  0.00     3.754 C  
HETATM   63  O   UNL    10      -9.424  15.419  69.630  1.00  0.00    -0.264 OA 
HETATM   64  O   UNL    10     -10.990  11.850  72.800  1.00  0.00     9.235 OA 
HETATM   65  O   UNL    10      -7.877  14.060  69.194  1.00  0.00    -0.037 OA 
HETATM   66  O   UNL     9     -11.200   3.495  70.081  1.00  0.00     4.141 OA 
HETATM   67  O   UNL     9     -10.411   5.582  70.367  1.00  0.00    -0.234 OA 
ENDROOT
BRANCH  39  68
HETATM   68  C   UNL     9      -8.921   6.997  67.547  1.00  0.00    -0.117 C  
HETATM   69  O   UNL     9      -7.956   7.869  67.526  1.00  0.00    -0.119 OA 
HETATM   70  H   UNL     9      -7.435   5.760  67.258  1.00  0.00     0.000 HD 
HETATM   71  O   UNL     9      -8.239   5.892  67.747  1.00  0.00    -0.105 OA 
HETATM   72  H   UNL     9      -7.153   7.737  67.037  1.00  0.00     0.000 HD 
ENDBRANCH  39  68
BRANCH  56  73
HETATM   73  C   UNL    10      -7.246  11.950  72.390  1.00  0.00    10.403 C  
HETATM   74  O   UNL    10      -6.303  12.587  73.016  1.00  0.00     2.277 OA 
HETATM   75  O   UNL    10      -6.530  10.988  71.841  1.00  0.00     0.970 OA 
HETATM   76  H   UNL    10      -5.882  10.558  72.386  1.00  0.00     0.000 HD 
HETATM   77  H   UNL    10      -5.655  12.156  73.561  1.00  0.00     0.000 HD 
ENDBRANCH  56  73
TORSDOF 2
ENDMDL
MODEL       30
REMARK 921   NORMALIZED FREE ENERGY PREDICTED BY IDOCK:  195.21 KCAL/MOL
REMARK 922        TOTAL FREE ENERGY PREDICTED BY IDOCK:  216.48 KCAL/MOL
REMARK 923 INTER-LIGAND FREE ENERGY PREDICTED BY IDOCK:  216.36 KCAL/MOL
REMARK 924 INTRA-LIGAND FREE ENERGY PREDICTED BY IDOCK:    0.12 KCAL/MOL
REMARK 927      BINDING AFFINITY PREDICTED BY RF-SCORE:    0.00 PKD
ROOT
HETATM    1 FE   UNL     1      -7.785   6.506  66.093  1.00  0.00    -0.076 Fe 
HETATM    2 FE   UNL     2      -9.452  13.256  66.467  1.00  0.00    -0.209 Fe 
HETATM    3 FE   UNL     3      -6.227  10.384  72.085  1.00  0.00     0.146 Fe 
HETATM    4 FE   UNL     4     -13.444   8.869  68.367  1.00  0.00     4.950 Fe 
HETATM    5  O   UNL     5      -8.787  10.069  68.319  1.00  0.00    -0.115 OA 
HETATM    6  P   UNL     5      -9.777   9.630  66.970  1.00  0.00    -0.206 P  
HETATM    7  O   UNL     6      -8.831  10.011  68.137  1.00  0.00    -0.121 OA 
HETATM    8  P   UNL     6      -9.822   9.572  66.789  1.00  0.00    -0.252 P  
HETATM    9  O   UNL     5     -10.768   9.191  65.622  1.00  0.00     0.867 OA 
HETATM   10  O   UNL     7      -8.882  10.014  68.158  1.00  0.00    -0.121 OA 
HETATM   11  O   UNL     5      -7.955   8.437  66.940  1.00  0.00    -0.097 OA 
HETATM   12  O   UNL     5     -10.967   8.978  68.357  1.00  0.00    -0.071 OA 
HETATM   13  O   UNL     6     -10.813   9.133  65.440  1.00  0.00     1.739 OA 
HETATM   14  O   UNL     6      -9.591   7.632  66.989  1.00  0.00    -0.153 OA 
HETATM   15  O   UNL     6      -8.394   9.241  65.247  1.00  0.00    -0.130 OA 
HETATM   16  O   UNL     8      -8.341  17.849  65.402  1.00  0.00     0.074 OA 
HETATM   17  P   UNL     7      -9.872   9.575  66.809  1.00  0.00    -0.252 P  
HETATM   18  P   UNL     5     -11.311  11.211  65.024  1.00  0.00     0.516 P  
HETATM   19  O   UNL     7     -10.184  11.518  66.993  1.00  0.00    -0.206 OA 
HETATM   20  O   UNL     7      -8.987  11.023  65.762  1.00  0.00    -0.189 OA 
HETATM   21  O   UNL     7     -10.863   9.136  65.461  1.00  0.00     1.464 OA 
HETATM   22  O   UNL     5     -11.246  10.609  63.554  1.00  0.00     0.561 OA 
HETATM   23  C   UNL     8      -8.355  16.515  65.890  1.00  0.00     0.090 C  
HETATM   24  H   UNL     8      -7.607  18.262  65.842  1.00  0.00     0.000 HD 
HETATM   25  O   UNL     5     -12.037  11.091  66.520  1.00  0.00     0.536 OA 
HETATM   26  P   UNL     6     -11.463   7.550  65.693  1.00  0.00     8.841 P  
HETATM   27  O   UNL     9     -10.872   4.381  66.540  1.00  0.00    -0.241 OA 
HETATM   28  O   UNL     5     -12.646  11.960  64.811  1.00  0.00    -0.312 OA 
HETATM   29  C   UNL     8      -7.063  15.703  65.502  1.00  0.00     5.755 C  
HETATM   30  C   UNL     8      -9.545  15.844  65.177  1.00  0.00     0.426 C  
HETATM   31  P   UNL     7     -13.064   9.313  65.400  1.00  0.00    24.935 P  
HETATM   32  O   UNL     6     -12.044   6.132  65.919  1.00  0.00     2.516 OA 
HETATM   33  O   UNL     6     -12.060   7.458  64.161  1.00  0.00    17.304 OA 
HETATM   34  O   UNL    10     -10.246  13.840  70.960  1.00  0.00     2.594 OA 
HETATM   35  H   UNL     9     -11.026   5.242  66.171  1.00  0.00     0.000 HD 
HETATM   36  C   UNL     8      -8.544  16.469  67.456  1.00  0.00    -0.177 C  
HETATM   37  C   UNL     9     -11.151   4.618  67.991  1.00  0.00     2.218 C  
HETATM   38  O   UNL     6     -12.389   7.902  67.007  1.00  0.00     4.911 OA 
HETATM   39  C   UNL     9     -10.061   5.585  68.371  1.00  0.00    -0.234 C  
HETATM   40  C   UNL     9     -12.715   5.252  68.278  1.00  0.00    12.785 C  
HETATM   41  C   UNL     9     -10.908   3.261  68.571  1.00  0.00     4.521 C  
HETATM   42  O   UNL     8      -8.012  15.440  68.000  1.00  0.00    -0.124 OA 
HETATM   43  O   UNL     8      -9.364  17.274  67.957  1.00  0.00    -0.252 OA 
HETATM   44  C   UNL    10     -10.039  12.748  70.085  1.00  0.00     2.839 C  
HETATM   45  H   UNL    10     -10.802  14.508  70.577  1.00  0.00     0.000 HD 
HETATM   46  C   UNL     8     -10.979  15.303  65.410  1.00  0.00    -0.372 C  
HETATM   47  O   UNL     7     -13.791   7.953  65.467  1.00  0.00    16.024 OA 
HETATM   48  O   UNL     7     -13.375   9.897  64.063  1.00  0.00     8.532 OA 
HETATM   49  O   UNL     7     -13.589   9.780  66.823  1.00  0.00    15.107 OA 
HETATM   50  C   UNL     8      -5.760  16.095  64.839  1.00  0.00     8.337 C  
HETATM   51  O   UNL     9     -13.672   4.513  67.898  1.00  0.00    22.504 OA 
HETATM   52  C   UNL    10     -11.410  12.152  69.569  1.00  0.00    -0.277 C  
HETATM   53  C   UNL    10      -9.305  13.291  68.830  1.00  0.00     0.117 C  
HETATM   54  O   UNL     9     -12.862   6.504  68.674  1.00  0.00     4.381 OA 
HETATM   55  C   UNL     9     -10.965   3.308  70.113  1.00  0.00     4.370 C  
HETATM   56  C   UNL    10      -9.160  11.690  70.690  1.00  0.00     5.874 C  
HETATM   57  O   UNL     8     -12.002  15.952  65.620  1.00  0.00     0.588 OA 
HETATM   58  O   UNL     8      -5.143  15.066  64.403  1.00  0.00    13.331 OA 
HETATM   59  O   UNL     8      -5.406  17.295  64.851  1.00  0.00     0.559 OA 
HETATM   60  O   UNL     8     -10.780  13.976  65.458  1.00  0.00    -0.290 OA 
HETATM   61  O   UNL    10     -13.049  10.361  69.493  1.00  0.00     0.118 OA 
HETATM   62  C   UNL    10     -12.335  11.148  70.278  1.00  0.00    -0.315 C  
HETATM   63  O   UNL    10     -10.044  13.927  68.001  1.00  0.00    -0.231 OA 
HETATM   64  O   UNL    10     -12.075  10.922  71.478  1.00  0.00    -0.225 OA 
HETATM   65  O   UNL    10      -8.367  12.670  68.194  1.00  0.00    -0.162 OA 
HETATM   66  O   UNL     9     -11.219   2.215  70.644  1.00  0.00     3.327 OA 
HETATM   67  O   UNL     9     -10.629   4.385  70.627  1.00  0.00     0.133 OA 
ENDROOT
BRANCH  39  68
HETATM   68  C   UNL     9      -8.632   5.352  67.935  1.00  0.00    -0.104 C  
HETATM   69  O   UNL     9      -7.657   6.148  68.261  1.00  0.00    -0.094 OA 
HETATM   70  H   UNL     9      -7.183   4.040  67.910  1.00  0.00     0.000 HD 
HETATM   71  O   UNL     9      -8.081   4.186  68.184  1.00  0.00    -0.084 OA 
HETATM   72  H   UNL     9      -6.759   6.002  67.987  1.00  0.00     0.000 HD 
ENDBRANCH  39  68
BRANCH  56  73
HETATM   73  C   UNL    10      -8.343  11.313  71.831  1.00  0.00    12.170 C  
HETATM   74  O   UNL    10      -7.049  11.404  71.842  1.00  0.00     3.761 OA 
HETATM   75  O   UNL    10      -8.478  10.087  72.298  1.00  0.00     2.238 OA 
HETATM   76  H   UNL    10      -7.944   9.841  73.044  1.00  0.00     0.000 HD 
HETATM   77  H   UNL    10      -6.514  11.158  72.588  1.00  0.00     0.000 HD 
ENDBRANCH  56  73
TORSDOF 2
ENDMDL
