MODEL        1
REMARK 921   NORMALIZED FREE ENERGY PREDICTED BY IDOCK:   -4.60 KCAL/MOL
REMARK 922        TOTAL FREE ENERGY PREDICTED BY IDOCK:   -5.02 KCAL/MOL
REMARK 923 INTER-LIGAND FREE ENERGY PREDICTED BY IDOCK:   -4.87 KCAL/MOL
REMARK 924 INTRA-LIGAND FREE ENERGY PREDICTED BY IDOCK:   -0.15 KCAL/MOL
REMARK 927      BINDING AFFINITY PREDICTED BY RF-SCORE:    0.00 PKD
ROOT
HETATM    1 FE   UNL     1     -12.250  12.959  62.670  1.00  0.00    -0.542 Fe 
HETATM    2  O   UNL     2     -13.353  12.313  64.252  1.00  0.00    -0.777 OA 
HETATM    3  C   UNL     2     -12.302  12.566  64.938  1.00  0.00    -0.470 C  
HETATM    4  O   UNL     2     -11.224  12.297  64.315  1.00  0.00    -0.310 OA 
HETATM    5  C   UNL     2     -12.360  13.702  65.919  1.00  0.00    -0.516 C  
ENDROOT
BRANCH   5   6
HETATM    6  C   UNL     2     -11.354  14.801  65.561  1.00  0.00    -0.343 C  
HETATM    7  C   UNL     2     -11.762  15.830  64.487  1.00  0.00    -0.191 C  
HETATM    8  O   UNL     2     -11.057  16.854  64.373  1.00  0.00    -1.128 OA 
HETATM    9  O   UNL     2     -12.753  15.498  63.731  1.00  0.00    -0.596 OA 
ENDBRANCH   5   6
TORSDOF 1
ENDMDL
MODEL        2
REMARK 921   NORMALIZED FREE ENERGY PREDICTED BY IDOCK:   -4.51 KCAL/MOL
REMARK 922        TOTAL FREE ENERGY PREDICTED BY IDOCK:   -4.93 KCAL/MOL
REMARK 923 INTER-LIGAND FREE ENERGY PREDICTED BY IDOCK:   -4.79 KCAL/MOL
REMARK 924 INTRA-LIGAND FREE ENERGY PREDICTED BY IDOCK:   -0.14 KCAL/MOL
REMARK 927      BINDING AFFINITY PREDICTED BY RF-SCORE:    0.00 PKD
ROOT
HETATM    1 FE   UNL     1     -13.888  13.188  64.849  1.00  0.00    -0.701 Fe 
HETATM    2  O   UNL     2     -12.976  12.025  63.451  1.00  0.00    -0.772 OA 
HETATM    3  C   UNL     2     -12.125  12.979  63.383  1.00  0.00    -0.515 C  
HETATM    4  O   UNL     2     -12.655  14.130  63.512  1.00  0.00    -0.834 OA 
HETATM    5  C   UNL     2     -10.732  12.715  63.881  1.00  0.00    -0.465 C  
ENDROOT
BRANCH   5   6
HETATM    6  C   UNL     2     -10.379  13.625  65.062  1.00  0.00    -0.393 C  
HETATM    7  C   UNL     2     -10.962  13.271  66.445  1.00  0.00    -0.289 C  
HETATM    8  O   UNL     2     -10.484  13.858  67.438  1.00  0.00    -0.260 OA 
HETATM    9  O   UNL     2     -11.964  12.459  66.447  1.00  0.00    -0.559 OA 
ENDBRANCH   5   6
TORSDOF 1
ENDMDL
MODEL        3
REMARK 921   NORMALIZED FREE ENERGY PREDICTED BY IDOCK:   -4.43 KCAL/MOL
REMARK 922        TOTAL FREE ENERGY PREDICTED BY IDOCK:   -4.84 KCAL/MOL
REMARK 923 INTER-LIGAND FREE ENERGY PREDICTED BY IDOCK:   -4.76 KCAL/MOL
REMARK 924 INTRA-LIGAND FREE ENERGY PREDICTED BY IDOCK:   -0.08 KCAL/MOL
REMARK 927      BINDING AFFINITY PREDICTED BY RF-SCORE:    0.00 PKD
ROOT
HETATM    1 FE   UNL     1     -11.019  12.356  62.892  1.00  0.00    -0.450 Fe 
HETATM    2  O   UNL     2     -12.952  12.362  63.524  1.00  0.00    -0.750 OA 
HETATM    3  C   UNL     2     -12.449  12.556  64.685  1.00  0.00    -0.463 C  
HETATM    4  O   UNL     2     -11.356  11.927  64.867  1.00  0.00    -0.316 OA 
HETATM    5  C   UNL     2     -12.687  13.887  65.341  1.00  0.00    -0.525 C  
ENDROOT
BRANCH   5   6
HETATM    6  C   UNL     2     -11.371  14.633  65.583  1.00  0.00    -0.338 C  
HETATM    7  C   UNL     2     -11.170  15.990  64.878  1.00  0.00    -0.312 C  
HETATM    8  O   UNL     2     -10.221  16.704  65.262  1.00  0.00    -0.600 OA 
HETATM    9  O   UNL     2     -11.953  16.232  63.882  1.00  0.00    -1.003 OA 
ENDBRANCH   5   6
TORSDOF 1
ENDMDL
MODEL        4
REMARK 921   NORMALIZED FREE ENERGY PREDICTED BY IDOCK:   -4.27 KCAL/MOL
REMARK 922        TOTAL FREE ENERGY PREDICTED BY IDOCK:   -4.67 KCAL/MOL
REMARK 923 INTER-LIGAND FREE ENERGY PREDICTED BY IDOCK:   -4.62 KCAL/MOL
REMARK 924 INTRA-LIGAND FREE ENERGY PREDICTED BY IDOCK:   -0.05 KCAL/MOL
REMARK 927      BINDING AFFINITY PREDICTED BY RF-SCORE:    0.00 PKD
ROOT
HETATM    1 FE   UNL     1     -13.962  14.218  65.149  1.00  0.00    -0.724 Fe 
HETATM    2  O   UNL     2     -12.825  12.541  64.974  1.00  0.00    -0.742 OA 
HETATM    3  C   UNL     2     -12.093  13.259  64.208  1.00  0.00    -0.416 C  
HETATM    4  O   UNL     2     -12.765  14.070  63.493  1.00  0.00    -0.805 OA 
HETATM    5  C   UNL     2     -10.715  13.618  64.686  1.00  0.00    -0.433 C  
ENDROOT
BRANCH   5   6
HETATM    6  C   UNL     2     -10.553  15.133  64.840  1.00  0.00    -0.392 C  
HETATM    7  C   UNL     2      -9.502  15.649  65.843  1.00  0.00    -0.341 C  
HETATM    8  O   UNL     2      -9.201  16.859  65.790  1.00  0.00    -0.527 OA 
HETATM    9  O   UNL     2      -9.088  14.797  66.718  1.00  0.00    -0.239 OA 
ENDBRANCH   5   6
TORSDOF 1
ENDMDL
MODEL        5
REMARK 921   NORMALIZED FREE ENERGY PREDICTED BY IDOCK:   -4.13 KCAL/MOL
REMARK 922        TOTAL FREE ENERGY PREDICTED BY IDOCK:   -4.52 KCAL/MOL
REMARK 923 INTER-LIGAND FREE ENERGY PREDICTED BY IDOCK:   -4.43 KCAL/MOL
REMARK 924 INTRA-LIGAND FREE ENERGY PREDICTED BY IDOCK:   -0.10 KCAL/MOL
REMARK 927      BINDING AFFINITY PREDICTED BY RF-SCORE:    0.00 PKD
ROOT
HETATM    1 FE   UNL     1     -10.862  16.990  66.254  1.00  0.00    -0.312 Fe 
HETATM    2  O   UNL     2     -11.401  16.804  64.302  1.00  0.00    -1.170 OA 
HETATM    3  C   UNL     2     -11.183  15.556  64.481  1.00  0.00    -0.315 C  
HETATM    4  O   UNL     2     -10.198  15.328  65.256  1.00  0.00    -0.360 OA 
HETATM    5  C   UNL     2     -12.361  14.624  64.443  1.00  0.00    -0.420 C  
ENDROOT
BRANCH   5   6
HETATM    6  C   UNL     2     -12.554  13.912  65.786  1.00  0.00    -0.533 C  
HETATM    7  C   UNL     2     -12.029  12.468  65.919  1.00  0.00    -0.409 C  
HETATM    8  O   UNL     2     -11.964  11.983  67.067  1.00  0.00    -0.609 OA 
HETATM    9  O   UNL     2     -11.785  11.850  64.814  1.00  0.00    -0.298 OA 
ENDBRANCH   5   6
TORSDOF 1
ENDMDL
MODEL        6
REMARK 921   NORMALIZED FREE ENERGY PREDICTED BY IDOCK:   -4.12 KCAL/MOL
REMARK 922        TOTAL FREE ENERGY PREDICTED BY IDOCK:   -4.51 KCAL/MOL
REMARK 923 INTER-LIGAND FREE ENERGY PREDICTED BY IDOCK:   -4.35 KCAL/MOL
REMARK 924 INTRA-LIGAND FREE ENERGY PREDICTED BY IDOCK:   -0.16 KCAL/MOL
REMARK 927      BINDING AFFINITY PREDICTED BY RF-SCORE:    0.00 PKD
ROOT
HETATM    1 FE   UNL     1     -13.444  12.398  63.492  1.00  0.00    -0.660 Fe 
HETATM    2  O   UNL     2     -12.504  14.190  63.296  1.00  0.00    -0.758 OA 
HETATM    3  C   UNL     2     -12.204  14.037  64.531  1.00  0.00    -0.434 C  
HETATM    4  O   UNL     2     -13.133  13.481  65.203  1.00  0.00    -0.737 OA 
HETATM    5  C   UNL     2     -10.761  13.810  64.882  1.00  0.00    -0.410 C  
ENDROOT
BRANCH   5   6
HETATM    6  C   UNL     2     -10.555  12.443  65.543  1.00  0.00    -0.307 C  
HETATM    7  C   UNL     2     -10.502  11.201  64.630  1.00  0.00    -0.335 C  
HETATM    8  O   UNL     2     -10.094  10.134  65.133  1.00  0.00    -0.326 OA 
HETATM    9  O   UNL     2     -10.975  11.352  63.440  1.00  0.00    -0.383 OA 
ENDBRANCH   5   6
TORSDOF 1
ENDMDL
MODEL        7
REMARK 921   NORMALIZED FREE ENERGY PREDICTED BY IDOCK:   -4.08 KCAL/MOL
REMARK 922        TOTAL FREE ENERGY PREDICTED BY IDOCK:   -4.47 KCAL/MOL
REMARK 923 INTER-LIGAND FREE ENERGY PREDICTED BY IDOCK:   -4.39 KCAL/MOL
REMARK 924 INTRA-LIGAND FREE ENERGY PREDICTED BY IDOCK:   -0.08 KCAL/MOL
REMARK 927      BINDING AFFINITY PREDICTED BY RF-SCORE:    0.00 PKD
ROOT
HETATM    1 FE   UNL     1     -11.299  15.432  63.611  1.00  0.00    -0.595 Fe 
HETATM    2  O   UNL     2     -12.468  13.845  63.110  1.00  0.00    -0.766 OA 
HETATM    3  C   UNL     2     -11.861  13.245  64.064  1.00  0.00    -0.455 C  
HETATM    4  O   UNL     2     -10.633  13.573  64.156  1.00  0.00    -0.365 OA 
HETATM    5  C   UNL     2     -12.655  12.887  65.288  1.00  0.00    -0.502 C  
ENDROOT
BRANCH   5   6
HETATM    6  C   UNL     2     -12.114  13.599  66.532  1.00  0.00    -0.469 C  
HETATM    7  C   UNL     2     -11.581  12.728  67.688  1.00  0.00    -0.358 C  
HETATM    8  O   UNL     2     -10.924  13.298  68.583  1.00  0.00    -0.248 OA 
HETATM    9  O   UNL     2     -11.941  11.490  67.676  1.00  0.00    -0.630 OA 
ENDBRANCH   5   6
TORSDOF 1
ENDMDL
MODEL        8
REMARK 921   NORMALIZED FREE ENERGY PREDICTED BY IDOCK:   -4.07 KCAL/MOL
REMARK 922        TOTAL FREE ENERGY PREDICTED BY IDOCK:   -4.46 KCAL/MOL
REMARK 923 INTER-LIGAND FREE ENERGY PREDICTED BY IDOCK:   -4.36 KCAL/MOL
REMARK 924 INTRA-LIGAND FREE ENERGY PREDICTED BY IDOCK:   -0.09 KCAL/MOL
REMARK 927      BINDING AFFINITY PREDICTED BY RF-SCORE:    0.00 PKD
ROOT
HETATM    1 FE   UNL     1     -11.807  13.378  62.703  1.00  0.00    -0.706 Fe 
HETATM    2  O   UNL     2     -12.592  14.768  63.963  1.00  0.00    -0.822 OA 
HETATM    3  C   UNL     2     -12.638  13.807  64.807  1.00  0.00    -0.290 C  
HETATM    4  O   UNL     2     -12.929  12.688  64.273  1.00  0.00    -0.730 OA 
HETATM    5  C   UNL     2     -11.727  13.874  66.000  1.00  0.00    -0.381 C  
ENDROOT
BRANCH   5   6
HETATM    6  C   UNL     2     -10.736  12.706  66.013  1.00  0.00    -0.295 C  
HETATM    7  C   UNL     2     -11.062  11.493  66.909  1.00  0.00    -0.307 C  
HETATM    8  O   UNL     2     -10.394  10.454  66.735  1.00  0.00    -0.223 OA 
HETATM    9  O   UNL     2     -11.944  11.690  67.830  1.00  0.00    -0.608 OA 
ENDBRANCH   5   6
TORSDOF 1
ENDMDL
MODEL        9
REMARK 921   NORMALIZED FREE ENERGY PREDICTED BY IDOCK:   -4.06 KCAL/MOL
REMARK 922        TOTAL FREE ENERGY PREDICTED BY IDOCK:   -4.45 KCAL/MOL
REMARK 923 INTER-LIGAND FREE ENERGY PREDICTED BY IDOCK:   -4.40 KCAL/MOL
REMARK 924 INTRA-LIGAND FREE ENERGY PREDICTED BY IDOCK:   -0.05 KCAL/MOL
REMARK 927      BINDING AFFINITY PREDICTED BY RF-SCORE:    0.00 PKD
ROOT
HETATM    1 FE   UNL     1     -12.284  13.886  62.417  1.00  0.00    -0.896 Fe 
HETATM    2  O   UNL     2     -13.036  12.263  63.386  1.00  0.00    -0.753 OA 
HETATM    3  C   UNL     2     -12.050  12.430  64.185  1.00  0.00    -0.453 C  
HETATM    4  O   UNL     2     -10.991  12.820  63.596  1.00  0.00    -0.425 OA 
HETATM    5  C   UNL     2     -12.351  12.865  65.591  1.00  0.00    -0.482 C  
ENDROOT
BRANCH   5   6
HETATM    6  C   UNL     2     -11.727  14.230  65.899  1.00  0.00    -0.375 C  
HETATM    7  C   UNL     2     -11.552  14.625  67.380  1.00  0.00    -0.389 C  
HETATM    8  O   UNL     2     -10.830  15.612  67.630  1.00  0.00    -0.296 OA 
HETATM    9  O   UNL     2     -12.245  13.951  68.232  1.00  0.00    -0.332 OA 
ENDBRANCH   5   6
TORSDOF 1
ENDMDL
MODEL       10
REMARK 921   NORMALIZED FREE ENERGY PREDICTED BY IDOCK:   -3.90 KCAL/MOL
REMARK 922        TOTAL FREE ENERGY PREDICTED BY IDOCK:   -4.28 KCAL/MOL
REMARK 923 INTER-LIGAND FREE ENERGY PREDICTED BY IDOCK:   -4.15 KCAL/MOL
REMARK 924 INTRA-LIGAND FREE ENERGY PREDICTED BY IDOCK:   -0.13 KCAL/MOL
REMARK 927      BINDING AFFINITY PREDICTED BY RF-SCORE:    0.00 PKD
ROOT
HETATM    1 FE   UNL     1     -11.173  10.953  65.842  1.00  0.00    -0.251 Fe 
HETATM    2  O   UNL     2     -11.870  11.289  67.723  1.00  0.00    -0.610 OA 
HETATM    3  C   UNL     2     -11.238  12.398  67.634  1.00  0.00    -0.288 C  
HETATM    4  O   UNL     2     -10.141  12.296  66.995  1.00  0.00    -0.211 OA 
HETATM    5  C   UNL     2     -12.044  13.665  67.577  1.00  0.00    -0.352 C  
ENDROOT
BRANCH   5   6
HETATM    6  C   UNL     2     -11.820  14.411  66.258  1.00  0.00    -0.391 C  
HETATM    7  C   UNL     2     -12.519  13.869  64.995  1.00  0.00    -0.419 C  
HETATM    8  O   UNL     2     -12.537  14.605  63.987  1.00  0.00    -0.819 OA 
HETATM    9  O   UNL     2     -12.947  12.655  65.061  1.00  0.00    -0.812 OA 
ENDBRANCH   5   6
TORSDOF 1
ENDMDL
MODEL       11
REMARK 921   NORMALIZED FREE ENERGY PREDICTED BY IDOCK:   -3.89 KCAL/MOL
REMARK 922        TOTAL FREE ENERGY PREDICTED BY IDOCK:   -4.26 KCAL/MOL
REMARK 923 INTER-LIGAND FREE ENERGY PREDICTED BY IDOCK:   -4.22 KCAL/MOL
REMARK 924 INTRA-LIGAND FREE ENERGY PREDICTED BY IDOCK:   -0.05 KCAL/MOL
REMARK 927      BINDING AFFINITY PREDICTED BY RF-SCORE:    0.00 PKD
ROOT
HETATM    1 FE   UNL     1     -12.332  16.500  71.676  1.00  0.00    -0.415 Fe 
HETATM    2  O   UNL     2     -13.814  15.848  72.907  1.00  0.00    -0.605 OA 
HETATM    3  C   UNL     2     -14.067  15.014  71.969  1.00  0.00    -0.535 C  
HETATM    4  O   UNL     2     -13.899  15.506  70.807  1.00  0.00    -0.457 OA 
HETATM    5  C   UNL     2     -13.803  13.559  72.233  1.00  0.00    -0.680 C  
ENDROOT
BRANCH   5   6
HETATM    6  C   UNL     2     -12.739  13.002  71.281  1.00  0.00    -0.385 C  
HETATM    7  C   UNL     2     -12.640  11.471  71.126  1.00  0.00    -0.359 C  
HETATM    8  O   UNL     2     -11.954  11.031  70.181  1.00  0.00    -0.297 OA 
HETATM    9  O   UNL     2     -13.207  10.770  72.049  1.00  0.00    -0.484 OA 
ENDBRANCH   5   6
TORSDOF 1
ENDMDL
MODEL       12
REMARK 921   NORMALIZED FREE ENERGY PREDICTED BY IDOCK:   -3.87 KCAL/MOL
REMARK 922        TOTAL FREE ENERGY PREDICTED BY IDOCK:   -4.25 KCAL/MOL
REMARK 923 INTER-LIGAND FREE ENERGY PREDICTED BY IDOCK:   -4.10 KCAL/MOL
REMARK 924 INTRA-LIGAND FREE ENERGY PREDICTED BY IDOCK:   -0.15 KCAL/MOL
REMARK 927      BINDING AFFINITY PREDICTED BY RF-SCORE:    0.00 PKD
ROOT
HETATM    1 FE   UNL     1     -13.153  14.524  67.237  1.00  0.00    -0.608 Fe 
HETATM    2  O   UNL     2     -11.156  14.910  67.253  1.00  0.00    -0.317 OA 
HETATM    3  C   UNL     2     -11.028  13.639  67.176  1.00  0.00    -0.288 C  
HETATM    4  O   UNL     2     -11.913  13.008  67.839  1.00  0.00    -0.347 OA 
HETATM    5  C   UNL     2     -10.465  13.065  65.906  1.00  0.00    -0.293 C  
ENDROOT
BRANCH   5   6
HETATM    6  C   UNL     2     -11.477  12.149  65.211  1.00  0.00    -0.388 C  
HETATM    7  C   UNL     2     -12.357  12.758  64.101  1.00  0.00    -0.407 C  
HETATM    8  O   UNL     2     -12.997  11.969  63.375  1.00  0.00    -0.772 OA 
HETATM    9  O   UNL     2     -12.428  14.045  64.076  1.00  0.00    -0.682 OA 
ENDBRANCH   5   6
TORSDOF 1
ENDMDL
MODEL       13
REMARK 921   NORMALIZED FREE ENERGY PREDICTED BY IDOCK:   -3.87 KCAL/MOL
REMARK 922        TOTAL FREE ENERGY PREDICTED BY IDOCK:   -4.24 KCAL/MOL
REMARK 923 INTER-LIGAND FREE ENERGY PREDICTED BY IDOCK:   -4.17 KCAL/MOL
REMARK 924 INTRA-LIGAND FREE ENERGY PREDICTED BY IDOCK:   -0.08 KCAL/MOL
REMARK 927      BINDING AFFINITY PREDICTED BY RF-SCORE:    0.00 PKD
ROOT
HETATM    1 FE   UNL     1     -12.368  14.204  62.864  1.00  0.00    -0.808 Fe 
HETATM    2  O   UNL     2     -12.703  13.842  64.837  1.00  0.00    -0.637 OA 
HETATM    3  C   UNL     2     -12.398  12.633  64.547  1.00  0.00    -0.464 C  
HETATM    4  O   UNL     2     -12.813  12.277  63.397  1.00  0.00    -0.754 OA 
HETATM    5  C   UNL     2     -11.121  12.076  65.109  1.00  0.00    -0.369 C  
ENDROOT
BRANCH   5   6
HETATM    6  C   UNL     2     -10.142  11.691  63.996  1.00  0.00    -0.362 C  
HETATM    7  C   UNL     2      -9.616  10.241  63.968  1.00  0.00    -0.304 C  
HETATM    8  O   UNL     2      -9.022   9.864  62.937  1.00  0.00    -0.222 OA 
HETATM    9  O   UNL     2      -9.756   9.567  65.058  1.00  0.00    -0.248 OA 
ENDBRANCH   5   6
TORSDOF 1
ENDMDL
MODEL       14
REMARK 921   NORMALIZED FREE ENERGY PREDICTED BY IDOCK:   -3.85 KCAL/MOL
REMARK 922        TOTAL FREE ENERGY PREDICTED BY IDOCK:   -4.23 KCAL/MOL
REMARK 923 INTER-LIGAND FREE ENERGY PREDICTED BY IDOCK:   -4.13 KCAL/MOL
REMARK 924 INTRA-LIGAND FREE ENERGY PREDICTED BY IDOCK:   -0.10 KCAL/MOL
REMARK 927      BINDING AFFINITY PREDICTED BY RF-SCORE:    0.00 PKD
ROOT
HETATM    1 FE   UNL     1     -12.674  14.520  62.601  1.00  0.00    -0.802 Fe 
HETATM    2  O   UNL     2     -12.056  16.023  63.823  1.00  0.00    -0.882 OA 
HETATM    3  C   UNL     2     -11.928  15.100  64.701  1.00  0.00    -0.298 C  
HETATM    4  O   UNL     2     -12.832  14.206  64.619  1.00  0.00    -0.663 OA 
HETATM    5  C   UNL     2     -10.539  14.748  65.153  1.00  0.00    -0.439 C  
ENDROOT
BRANCH   5   6
HETATM    6  C   UNL     2     -10.192  13.295  64.813  1.00  0.00    -0.323 C  
HETATM    7  C   UNL     2     -10.236  12.257  65.953  1.00  0.00    -0.249 C  
HETATM    8  O   UNL     2     -10.197  11.050  65.635  1.00  0.00    -0.243 OA 
HETATM    9  O   UNL     2     -10.219  12.731  67.152  1.00  0.00    -0.231 OA 
ENDBRANCH   5   6
TORSDOF 1
ENDMDL
MODEL       15
REMARK 921   NORMALIZED FREE ENERGY PREDICTED BY IDOCK:   -3.83 KCAL/MOL
REMARK 922        TOTAL FREE ENERGY PREDICTED BY IDOCK:   -4.20 KCAL/MOL
REMARK 923 INTER-LIGAND FREE ENERGY PREDICTED BY IDOCK:   -4.04 KCAL/MOL
REMARK 924 INTRA-LIGAND FREE ENERGY PREDICTED BY IDOCK:   -0.16 KCAL/MOL
REMARK 927      BINDING AFFINITY PREDICTED BY RF-SCORE:    0.00 PKD
ROOT
HETATM    1 FE   UNL     1      -9.485  14.079  64.208  1.00  0.00    -0.531 Fe 
HETATM    2  O   UNL     2      -9.443  14.502  66.197  1.00  0.00    -0.294 OA 
HETATM    3  C   UNL     2     -10.598  15.015  65.993  1.00  0.00    -0.322 C  
HETATM    4  O   UNL     2     -10.692  15.598  64.865  1.00  0.00    -0.434 OA 
HETATM    5  C   UNL     2     -11.788  14.334  66.607  1.00  0.00    -0.442 C  
ENDROOT
BRANCH   5   6
HETATM    6  C   UNL     2     -12.762  13.836  65.534  1.00  0.00    -0.530 C  
HETATM    7  C   UNL     2     -12.433  12.509  64.820  1.00  0.00    -0.457 C  
HETATM    8  O   UNL     2     -13.334  11.986  64.134  1.00  0.00    -0.725 OA 
HETATM    9  O   UNL     2     -11.215  12.099  64.922  1.00  0.00    -0.309 OA 
ENDBRANCH   5   6
TORSDOF 1
ENDMDL
MODEL       16
REMARK 921   NORMALIZED FREE ENERGY PREDICTED BY IDOCK:   -3.83 KCAL/MOL
REMARK 922        TOTAL FREE ENERGY PREDICTED BY IDOCK:   -4.20 KCAL/MOL
REMARK 923 INTER-LIGAND FREE ENERGY PREDICTED BY IDOCK:   -4.05 KCAL/MOL
REMARK 924 INTRA-LIGAND FREE ENERGY PREDICTED BY IDOCK:   -0.15 KCAL/MOL
REMARK 927      BINDING AFFINITY PREDICTED BY RF-SCORE:    0.00 PKD
ROOT
HETATM    1 FE   UNL     1     -11.105  10.620  62.795  1.00  0.00    -0.638 Fe 
HETATM    2  O   UNL     2     -10.346  10.262  64.647  1.00  0.00    -0.266 OA 
HETATM    3  C   UNL     2      -9.725  11.369  64.479  1.00  0.00    -0.233 C  
HETATM    4  O   UNL     2      -9.343  11.548  63.277  1.00  0.00    -0.274 OA 
HETATM    5  C   UNL     2     -10.119  12.534  65.342  1.00  0.00    -0.284 C  
ENDROOT
BRANCH   5   6
HETATM    6  C   UNL     2     -10.661  13.694  64.501  1.00  0.00    -0.420 C  
HETATM    7  C   UNL     2     -12.190  13.810  64.333  1.00  0.00    -0.399 C  
HETATM    8  O   UNL     2     -12.638  14.876  63.863  1.00  0.00    -0.831 OA 
HETATM    9  O   UNL     2     -12.872  12.751  64.610  1.00  0.00    -0.705 OA 
ENDBRANCH   5   6
TORSDOF 1
ENDMDL
MODEL       17
REMARK 921   NORMALIZED FREE ENERGY PREDICTED BY IDOCK:   -3.82 KCAL/MOL
REMARK 922        TOTAL FREE ENERGY PREDICTED BY IDOCK:   -4.20 KCAL/MOL
REMARK 923 INTER-LIGAND FREE ENERGY PREDICTED BY IDOCK:   -4.15 KCAL/MOL
REMARK 924 INTRA-LIGAND FREE ENERGY PREDICTED BY IDOCK:   -0.05 KCAL/MOL
REMARK 927      BINDING AFFINITY PREDICTED BY RF-SCORE:    0.00 PKD
ROOT
HETATM    1 FE   UNL     1     -13.000  14.115  68.607  1.00  0.00    -0.556 Fe 
HETATM    2  O   UNL     2     -11.026  13.645  68.745  1.00  0.00    -0.251 OA 
HETATM    3  C   UNL     2     -11.152  13.260  67.531  1.00  0.00    -0.270 C  
HETATM    4  O   UNL     2     -12.279  12.715  67.296  1.00  0.00    -0.425 OA 
HETATM    5  C   UNL     2     -10.443  14.048  66.466  1.00  0.00    -0.281 C  
ENDROOT
BRANCH   5   6
HETATM    6  C   UNL     2     -11.435  14.667  65.476  1.00  0.00    -0.341 C  
HETATM    7  C   UNL     2     -11.117  16.070  64.919  1.00  0.00    -0.370 C  
HETATM    8  O   UNL     2     -11.784  16.465  63.941  1.00  0.00    -1.085 OA 
HETATM    9  O   UNL     2     -10.243  16.755  65.574  1.00  0.00    -0.567 OA 
ENDBRANCH   5   6
TORSDOF 1
ENDMDL
MODEL       18
REMARK 921   NORMALIZED FREE ENERGY PREDICTED BY IDOCK:   -3.82 KCAL/MOL
REMARK 922        TOTAL FREE ENERGY PREDICTED BY IDOCK:   -4.19 KCAL/MOL
REMARK 923 INTER-LIGAND FREE ENERGY PREDICTED BY IDOCK:   -4.15 KCAL/MOL
REMARK 924 INTRA-LIGAND FREE ENERGY PREDICTED BY IDOCK:   -0.04 KCAL/MOL
REMARK 927      BINDING AFFINITY PREDICTED BY RF-SCORE:    0.00 PKD
ROOT
HETATM    1 FE   UNL     1     -12.448  14.262  74.037  1.00  0.00    -0.473 Fe 
HETATM    2  O   UNL     2     -14.052  13.941  72.830  1.00  0.00    -0.668 OA 
HETATM    3  C   UNL     2     -13.814  15.121  72.395  1.00  0.00    -0.515 C  
HETATM    4  O   UNL     2     -13.412  15.915  73.306  1.00  0.00    -0.576 OA 
HETATM    5  C   UNL     2     -13.328  15.265  70.981  1.00  0.00    -0.537 C  
ENDROOT
BRANCH   5   6
HETATM    6  C   UNL     2     -11.929  15.887  70.931  1.00  0.00    -0.432 C  
HETATM    7  C   UNL     2     -11.262  16.052  69.551  1.00  0.00    -0.348 C  
HETATM    8  O   UNL     2     -10.244  16.772  69.486  1.00  0.00    -0.248 OA 
HETATM    9  O   UNL     2     -11.764  15.353  68.591  1.00  0.00    -0.353 OA 
ENDBRANCH   5   6
TORSDOF 1
ENDMDL
MODEL       19
REMARK 921   NORMALIZED FREE ENERGY PREDICTED BY IDOCK:   -3.81 KCAL/MOL
REMARK 922        TOTAL FREE ENERGY PREDICTED BY IDOCK:   -4.19 KCAL/MOL
REMARK 923 INTER-LIGAND FREE ENERGY PREDICTED BY IDOCK:   -4.14 KCAL/MOL
REMARK 924 INTRA-LIGAND FREE ENERGY PREDICTED BY IDOCK:   -0.04 KCAL/MOL
REMARK 927      BINDING AFFINITY PREDICTED BY RF-SCORE:    0.00 PKD
ROOT
HETATM    1 FE   UNL     1      -9.678  11.957  66.847  1.00  0.00    -0.182 Fe 
HETATM    2  O   UNL     2     -11.674  11.571  66.910  1.00  0.00    -0.533 OA 
HETATM    3  C   UNL     2     -11.785  12.811  67.206  1.00  0.00    -0.378 C  
HETATM    4  O   UNL     2     -10.841  13.234  67.949  1.00  0.00    -0.234 OA 
HETATM    5  C   UNL     2     -12.435  13.718  66.199  1.00  0.00    -0.466 C  
ENDROOT
BRANCH   5   6
HETATM    6  C   UNL     2     -11.464  14.799  65.713  1.00  0.00    -0.322 C  
HETATM    7  C   UNL     2     -11.848  15.599  64.451  1.00  0.00    -0.182 C  
HETATM    8  O   UNL     2     -11.190  16.629  64.201  1.00  0.00    -1.103 OA 
HETATM    9  O   UNL     2     -12.766  15.080  63.709  1.00  0.00    -0.741 OA 
ENDBRANCH   5   6
TORSDOF 1
ENDMDL
MODEL       20
REMARK 921   NORMALIZED FREE ENERGY PREDICTED BY IDOCK:   -3.81 KCAL/MOL
REMARK 922        TOTAL FREE ENERGY PREDICTED BY IDOCK:   -4.18 KCAL/MOL
REMARK 923 INTER-LIGAND FREE ENERGY PREDICTED BY IDOCK:   -4.10 KCAL/MOL
REMARK 924 INTRA-LIGAND FREE ENERGY PREDICTED BY IDOCK:   -0.08 KCAL/MOL
REMARK 927      BINDING AFFINITY PREDICTED BY RF-SCORE:    0.00 PKD
ROOT
HETATM    1 FE   UNL     1     -10.808  12.408  67.962  1.00  0.00    -0.188 Fe 
HETATM    2  O   UNL     2     -11.971  12.122  66.318  1.00  0.00    -0.605 OA 
HETATM    3  C   UNL     2     -12.055  13.399  66.300  1.00  0.00    -0.422 C  
HETATM    4  O   UNL     2     -12.107  13.912  67.464  1.00  0.00    -0.389 OA 
HETATM    5  C   UNL     2     -11.393  14.130  65.167  1.00  0.00    -0.336 C  
ENDROOT
BRANCH   5   6
HETATM    6  C   UNL     2     -10.288  15.063  65.674  1.00  0.00    -0.374 C  
HETATM    7  C   UNL     2     -10.428  16.571  65.385  1.00  0.00    -0.269 C  
HETATM    8  O   UNL     2      -9.669  17.348  66.001  1.00  0.00    -0.459 OA 
HETATM    9  O   UNL     2     -11.263  16.895  64.457  1.00  0.00    -1.057 OA 
ENDBRANCH   5   6
TORSDOF 1
ENDMDL
MODEL       21
REMARK 921   NORMALIZED FREE ENERGY PREDICTED BY IDOCK:   -3.72 KCAL/MOL
REMARK 922        TOTAL FREE ENERGY PREDICTED BY IDOCK:   -4.08 KCAL/MOL
REMARK 923 INTER-LIGAND FREE ENERGY PREDICTED BY IDOCK:   -3.94 KCAL/MOL
REMARK 924 INTRA-LIGAND FREE ENERGY PREDICTED BY IDOCK:   -0.15 KCAL/MOL
REMARK 927      BINDING AFFINITY PREDICTED BY RF-SCORE:    0.00 PKD
ROOT
HETATM    1 FE   UNL     1      -9.751  12.206  63.537  1.00  0.00    -0.281 Fe 
HETATM    2  O   UNL     2     -11.022  11.098  64.675  1.00  0.00    -0.281 OA 
HETATM    3  C   UNL     2     -10.870  12.028  65.542  1.00  0.00    -0.292 C  
HETATM    4  O   UNL     2      -9.688  12.500  65.564  1.00  0.00    -0.220 OA 
HETATM    5  C   UNL     2     -12.052  12.903  65.849  1.00  0.00    -0.503 C  
ENDROOT
BRANCH   5   6
HETATM    6  C   UNL     2     -11.774  14.366  65.487  1.00  0.00    -0.352 C  
HETATM    7  C   UNL     2     -12.218  14.862  64.095  1.00  0.00    -0.255 C  
HETATM    8  O   UNL     2     -12.215  16.094  63.896  1.00  0.00    -0.935 OA 
HETATM    9  O   UNL     2     -12.469  13.948  63.222  1.00  0.00    -0.817 OA 
ENDBRANCH   5   6
TORSDOF 1
ENDMDL
MODEL       22
REMARK 921   NORMALIZED FREE ENERGY PREDICTED BY IDOCK:   -3.69 KCAL/MOL
REMARK 922        TOTAL FREE ENERGY PREDICTED BY IDOCK:   -4.06 KCAL/MOL
REMARK 923 INTER-LIGAND FREE ENERGY PREDICTED BY IDOCK:   -3.97 KCAL/MOL
REMARK 924 INTRA-LIGAND FREE ENERGY PREDICTED BY IDOCK:   -0.09 KCAL/MOL
REMARK 927      BINDING AFFINITY PREDICTED BY RF-SCORE:    0.00 PKD
ROOT
HETATM    1 FE   UNL     1      -8.028  12.141  65.823  1.00  0.00    -0.363 Fe 
HETATM    2  O   UNL     2      -8.646  10.315  65.173  1.00  0.00    -0.157 OA 
HETATM    3  C   UNL     2      -9.816  10.833  65.196  1.00  0.00    -0.277 C  
HETATM    4  O   UNL     2      -9.985  11.641  66.165  1.00  0.00    -0.209 OA 
HETATM    5  C   UNL     2     -10.513  11.052  63.883  1.00  0.00    -0.422 C  
ENDROOT
BRANCH   5   6
HETATM    6  C   UNL     2     -10.790  12.539  63.639  1.00  0.00    -0.486 C  
HETATM    7  C   UNL     2     -12.261  13.001  63.592  1.00  0.00    -0.491 C  
HETATM    8  O   UNL     2     -12.480  14.229  63.640  1.00  0.00    -0.816 OA 
HETATM    9  O   UNL     2     -13.140  12.075  63.415  1.00  0.00    -0.747 OA 
ENDBRANCH   5   6
TORSDOF 1
ENDMDL
MODEL       23
REMARK 921   NORMALIZED FREE ENERGY PREDICTED BY IDOCK:   -3.68 KCAL/MOL
REMARK 922        TOTAL FREE ENERGY PREDICTED BY IDOCK:   -4.05 KCAL/MOL
REMARK 923 INTER-LIGAND FREE ENERGY PREDICTED BY IDOCK:   -4.01 KCAL/MOL
REMARK 924 INTRA-LIGAND FREE ENERGY PREDICTED BY IDOCK:   -0.05 KCAL/MOL
REMARK 927      BINDING AFFINITY PREDICTED BY RF-SCORE:    0.00 PKD
ROOT
HETATM    1 FE   UNL     1     -11.903   9.317  67.750  1.00  0.00    -0.512 Fe 
HETATM    2  O   UNL     2     -12.212  10.961  68.907  1.00  0.00    -0.494 OA 
HETATM    3  C   UNL     2     -11.294  11.493  68.191  1.00  0.00    -0.298 C  
HETATM    4  O   UNL     2     -10.373  10.674  67.872  1.00  0.00    -0.182 OA 
HETATM    5  C   UNL     2     -11.684  12.609  67.263  1.00  0.00    -0.435 C  
ENDROOT
BRANCH   5   6
HETATM    6  C   UNL     2     -11.424  12.237  65.800  1.00  0.00    -0.417 C  
HETATM    7  C   UNL     2     -12.182  13.022  64.710  1.00  0.00    -0.435 C  
HETATM    8  O   UNL     2     -11.793  12.891  63.531  1.00  0.00    -0.493 OA 
HETATM    9  O   UNL     2     -13.218  13.681  65.104  1.00  0.00    -0.739 OA 
ENDBRANCH   5   6
TORSDOF 1
ENDMDL
MODEL       24
REMARK 921   NORMALIZED FREE ENERGY PREDICTED BY IDOCK:   -3.68 KCAL/MOL
REMARK 922        TOTAL FREE ENERGY PREDICTED BY IDOCK:   -4.05 KCAL/MOL
REMARK 923 INTER-LIGAND FREE ENERGY PREDICTED BY IDOCK:   -3.91 KCAL/MOL
REMARK 924 INTRA-LIGAND FREE ENERGY PREDICTED BY IDOCK:   -0.13 KCAL/MOL
REMARK 927      BINDING AFFINITY PREDICTED BY RF-SCORE:    0.00 PKD
ROOT
HETATM    1 FE   UNL     1     -10.455  14.378  67.485  1.00  0.00    -0.233 Fe 
HETATM    2  O   UNL     2     -10.375  12.533  66.634  1.00  0.00    -0.225 OA 
HETATM    3  C   UNL     2     -11.569  12.788  66.247  1.00  0.00    -0.379 C  
HETATM    4  O   UNL     2     -12.240  13.448  67.104  1.00  0.00    -0.348 OA 
HETATM    5  C   UNL     2     -11.805  12.978  64.775  1.00  0.00    -0.409 C  
ENDROOT
BRANCH   5   6
HETATM    6  C   UNL     2     -12.316  14.390  64.469  1.00  0.00    -0.440 C  
HETATM    7  C   UNL     2     -11.295  15.546  64.484  1.00  0.00    -0.314 C  
HETATM    8  O   UNL     2     -11.655  16.638  64.001  1.00  0.00    -1.197 OA 
HETATM    9  O   UNL     2     -10.178  15.307  65.082  1.00  0.00    -0.368 OA 
ENDBRANCH   5   6
TORSDOF 1
ENDMDL
MODEL       25
REMARK 921   NORMALIZED FREE ENERGY PREDICTED BY IDOCK:   -3.68 KCAL/MOL
REMARK 922        TOTAL FREE ENERGY PREDICTED BY IDOCK:   -4.05 KCAL/MOL
REMARK 923 INTER-LIGAND FREE ENERGY PREDICTED BY IDOCK:   -4.00 KCAL/MOL
REMARK 924 INTRA-LIGAND FREE ENERGY PREDICTED BY IDOCK:   -0.04 KCAL/MOL
REMARK 927      BINDING AFFINITY PREDICTED BY RF-SCORE:    0.00 PKD
ROOT
HETATM    1 FE   UNL     1      -8.335  11.897  64.967  1.00  0.00    -0.369 Fe 
HETATM    2  O   UNL     2     -10.178  11.068  65.196  1.00  0.00    -0.260 OA 
HETATM    3  C   UNL     2     -10.451  12.139  65.841  1.00  0.00    -0.254 C  
HETATM    4  O   UNL     2      -9.472  12.567  66.534  1.00  0.00    -0.232 OA 
HETATM    5  C   UNL     2     -11.435  13.096  65.230  1.00  0.00    -0.328 C  
ENDROOT
BRANCH   5   6
HETATM    6  C   UNL     2     -10.788  14.453  64.937  1.00  0.00    -0.430 C  
HETATM    7  C   UNL     2     -11.676  15.562  64.336  1.00  0.00    -0.242 C  
HETATM    8  O   UNL     2     -11.219  16.723  64.327  1.00  0.00    -1.163 OA 
HETATM    9  O   UNL     2     -12.785  15.173  63.807  1.00  0.00    -0.722 OA 
ENDBRANCH   5   6
TORSDOF 1
ENDMDL
MODEL       26
REMARK 921   NORMALIZED FREE ENERGY PREDICTED BY IDOCK:   -3.67 KCAL/MOL
REMARK 922        TOTAL FREE ENERGY PREDICTED BY IDOCK:   -4.03 KCAL/MOL
REMARK 923 INTER-LIGAND FREE ENERGY PREDICTED BY IDOCK:   -3.96 KCAL/MOL
REMARK 924 INTRA-LIGAND FREE ENERGY PREDICTED BY IDOCK:   -0.07 KCAL/MOL
REMARK 927      BINDING AFFINITY PREDICTED BY RF-SCORE:    0.00 PKD
ROOT
HETATM    1 FE   UNL     1     -10.598  17.447  69.529  1.00  0.00    -0.286 Fe 
HETATM    2  O   UNL     2     -11.861  16.161  68.587  1.00  0.00    -0.321 OA 
HETATM    3  C   UNL     2     -11.691  15.423  69.619  1.00  0.00    -0.338 C  
HETATM    4  O   UNL     2     -10.505  15.476  70.081  1.00  0.00    -0.302 OA 
HETATM    5  C   UNL     2     -12.863  15.216  70.537  1.00  0.00    -0.395 C  
ENDROOT
BRANCH   5   6
HETATM    6  C   UNL     2     -12.580  15.766  71.938  1.00  0.00    -0.522 C  
HETATM    7  C   UNL     2     -12.859  14.847  73.144  1.00  0.00    -0.512 C  
HETATM    8  O   UNL     2     -12.404  15.196  74.252  1.00  0.00    -0.608 OA 
HETATM    9  O   UNL     2     -13.624  13.833  72.918  1.00  0.00    -0.681 OA 
ENDBRANCH   5   6
TORSDOF 1
ENDMDL
MODEL       27
REMARK 921   NORMALIZED FREE ENERGY PREDICTED BY IDOCK:   -3.66 KCAL/MOL
REMARK 922        TOTAL FREE ENERGY PREDICTED BY IDOCK:   -4.03 KCAL/MOL
REMARK 923 INTER-LIGAND FREE ENERGY PREDICTED BY IDOCK:   -3.97 KCAL/MOL
REMARK 924 INTRA-LIGAND FREE ENERGY PREDICTED BY IDOCK:   -0.05 KCAL/MOL
REMARK 927      BINDING AFFINITY PREDICTED BY RF-SCORE:    0.00 PKD
ROOT
HETATM    1 FE   UNL     1      -7.955  16.691  65.545  1.00  0.00    -0.279 Fe 
HETATM    2  O   UNL     2      -8.913  16.420  67.318  1.00  0.00    -0.192 OA 
HETATM    3  C   UNL     2      -9.983  16.531  66.624  1.00  0.00    -0.276 C  
HETATM    4  O   UNL     2      -9.879  17.382  65.682  1.00  0.00    -0.544 OA 
HETATM    5  C   UNL     2     -10.849  15.314  66.466  1.00  0.00    -0.311 C  
ENDROOT
BRANCH   5   6
HETATM    6  C   UNL     2     -10.957  14.891  64.998  1.00  0.00    -0.432 C  
HETATM    7  C   UNL     2     -12.285  14.266  64.523  1.00  0.00    -0.455 C  
HETATM    8  O   UNL     2     -12.459  14.150  63.292  1.00  0.00    -0.758 OA 
HETATM    9  O   UNL     2     -13.068  13.829  65.449  1.00  0.00    -0.727 OA 
ENDBRANCH   5   6
TORSDOF 1
ENDMDL
MODEL       28
REMARK 921   NORMALIZED FREE ENERGY PREDICTED BY IDOCK:   -3.64 KCAL/MOL
REMARK 922        TOTAL FREE ENERGY PREDICTED BY IDOCK:   -4.00 KCAL/MOL
REMARK 923 INTER-LIGAND FREE ENERGY PREDICTED BY IDOCK:   -3.90 KCAL/MOL
REMARK 924 INTRA-LIGAND FREE ENERGY PREDICTED BY IDOCK:   -0.10 KCAL/MOL
REMARK 927      BINDING AFFINITY PREDICTED BY RF-SCORE:    0.00 PKD
ROOT
HETATM    1 FE   UNL     1      -7.590  18.780  67.820  1.00  0.00    -0.210 Fe 
HETATM    2  O   UNL     2      -8.979  20.112  67.161  1.00  0.00    -0.332 OA 
HETATM    3  C   UNL     2      -9.186  19.258  66.230  1.00  0.00    -0.331 C  
HETATM    4  O   UNL     2      -8.122  18.673  65.845  1.00  0.00    -0.483 OA 
HETATM    5  C   UNL     2     -10.505  18.539  66.217  1.00  0.00    -0.441 C  
ENDROOT
BRANCH   5   6
HETATM    6  C   UNL     2     -10.320  17.028  66.393  1.00  0.00    -0.304 C  
HETATM    7  C   UNL     2     -10.553  16.125  65.165  1.00  0.00    -0.343 C  
HETATM    8  O   UNL     2     -10.168  14.939  65.241  1.00  0.00    -0.353 OA 
HETATM    9  O   UNL     2     -11.213  16.652  64.191  1.00  0.00    -1.103 OA 
ENDBRANCH   5   6
TORSDOF 1
ENDMDL
MODEL       29
REMARK 921   NORMALIZED FREE ENERGY PREDICTED BY IDOCK:   -3.63 KCAL/MOL
REMARK 922        TOTAL FREE ENERGY PREDICTED BY IDOCK:   -4.00 KCAL/MOL
REMARK 923 INTER-LIGAND FREE ENERGY PREDICTED BY IDOCK:   -3.84 KCAL/MOL
REMARK 924 INTRA-LIGAND FREE ENERGY PREDICTED BY IDOCK:   -0.16 KCAL/MOL
REMARK 927      BINDING AFFINITY PREDICTED BY RF-SCORE:    0.00 PKD
ROOT
HETATM    1 FE   UNL     1      -8.924  12.020  64.854  1.00  0.00    -0.379 Fe 
HETATM    2  O   UNL     2      -9.667  11.834  62.970  1.00  0.00    -0.394 OA 
HETATM    3  C   UNL     2     -10.710  11.374  63.552  1.00  0.00    -0.381 C  
HETATM    4  O   UNL     2     -10.437  10.668  64.577  1.00  0.00    -0.345 OA 
HETATM    5  C   UNL     2     -11.966  12.196  63.499  1.00  0.00    -0.619 C  
ENDROOT
BRANCH   5   6
HETATM    6  C   UNL     2     -12.415  12.622  64.900  1.00  0.00    -0.564 C  
HETATM    7  C   UNL     2     -11.706  13.829  65.549  1.00  0.00    -0.346 C  
HETATM    8  O   UNL     2     -12.229  14.323  66.569  1.00  0.00    -0.441 OA 
HETATM    9  O   UNL     2     -10.576  14.168  65.030  1.00  0.00    -0.368 OA 
ENDBRANCH   5   6
TORSDOF 1
ENDMDL
MODEL       30
REMARK 921   NORMALIZED FREE ENERGY PREDICTED BY IDOCK:   -3.63 KCAL/MOL
REMARK 922        TOTAL FREE ENERGY PREDICTED BY IDOCK:   -3.99 KCAL/MOL
REMARK 923 INTER-LIGAND FREE ENERGY PREDICTED BY IDOCK:   -3.94 KCAL/MOL
REMARK 924 INTRA-LIGAND FREE ENERGY PREDICTED BY IDOCK:   -0.04 KCAL/MOL
REMARK 927      BINDING AFFINITY PREDICTED BY RF-SCORE:    0.00 PKD
ROOT
HETATM    1 FE   UNL     1     -11.334  16.835  68.011  1.00  0.00    -0.330 Fe 
HETATM    2  O   UNL     2     -10.423  17.450  66.299  1.00  0.00    -0.336 OA 
HETATM    3  C   UNL     2     -10.133  16.212  66.147  1.00  0.00    -0.338 C  
HETATM    4  O   UNL     2      -9.869  15.624  67.245  1.00  0.00    -0.223 OA 
HETATM    5  C   UNL     2     -10.788  15.470  65.016  1.00  0.00    -0.468 C  
ENDROOT
BRANCH   5   6
HETATM    6  C   UNL     2     -11.661  14.323  65.533  1.00  0.00    -0.353 C  
HETATM    7  C   UNL     2     -12.460  13.503  64.499  1.00  0.00    -0.291 C  
HETATM    8  O   UNL     2     -12.969  12.430  64.885  1.00  0.00    -0.762 OA 
HETATM    9  O   UNL     2     -12.611  14.046  63.340  1.00  0.00    -0.845 OA 
ENDBRANCH   5   6
TORSDOF 1
ENDMDL
MODEL       31
REMARK 921   NORMALIZED FREE ENERGY PREDICTED BY IDOCK:   -3.59 KCAL/MOL
REMARK 922        TOTAL FREE ENERGY PREDICTED BY IDOCK:   -3.95 KCAL/MOL
REMARK 923 INTER-LIGAND FREE ENERGY PREDICTED BY IDOCK:   -3.86 KCAL/MOL
REMARK 924 INTRA-LIGAND FREE ENERGY PREDICTED BY IDOCK:   -0.10 KCAL/MOL
REMARK 927      BINDING AFFINITY PREDICTED BY RF-SCORE:    0.00 PKD
ROOT
HETATM    1 FE   UNL     1     -10.769  12.259  69.792  1.00  0.00    -0.378 Fe 
HETATM    2  O   UNL     2     -10.404  10.556  68.740  1.00  0.00    -0.171 OA 
HETATM    3  C   UNL     2     -11.382  10.938  68.008  1.00  0.00    -0.312 C  
HETATM    4  O   UNL     2     -12.310  11.505  68.671  1.00  0.00    -0.445 OA 
HETATM    5  C   UNL     2     -11.082  11.356  66.596  1.00  0.00    -0.333 C  
ENDROOT
BRANCH   5   6
HETATM    6  C   UNL     2     -11.444  12.826  66.360  1.00  0.00    -0.409 C  
HETATM    7  C   UNL     2     -12.646  13.134  65.444  1.00  0.00    -0.454 C  
HETATM    8  O   UNL     2     -13.088  14.302  65.448  1.00  0.00    -0.685 OA 
HETATM    9  O   UNL     2     -13.036  12.173  64.678  1.00  0.00    -0.673 OA 
ENDBRANCH   5   6
TORSDOF 1
ENDMDL
MODEL       32
REMARK 921   NORMALIZED FREE ENERGY PREDICTED BY IDOCK:   -3.50 KCAL/MOL
REMARK 922        TOTAL FREE ENERGY PREDICTED BY IDOCK:   -3.86 KCAL/MOL
REMARK 923 INTER-LIGAND FREE ENERGY PREDICTED BY IDOCK:   -3.70 KCAL/MOL
REMARK 924 INTRA-LIGAND FREE ENERGY PREDICTED BY IDOCK:   -0.16 KCAL/MOL
REMARK 927      BINDING AFFINITY PREDICTED BY RF-SCORE:    0.00 PKD
ROOT
HETATM    1 FE   UNL     1     -10.566  15.403  63.870  1.00  0.00    -0.593 Fe 
HETATM    2  O   UNL     2     -12.548  14.962  63.751  1.00  0.00    -0.791 OA 
HETATM    3  C   UNL     2     -12.238  13.921  64.428  1.00  0.00    -0.413 C  
HETATM    4  O   UNL     2     -11.103  13.440  64.109  1.00  0.00    -0.378 OA 
HETATM    5  C   UNL     2     -12.745  13.822  65.839  1.00  0.00    -0.452 C  
ENDROOT
BRANCH   5   6
HETATM    6  C   UNL     2     -11.591  13.775  66.845  1.00  0.00    -0.394 C  
HETATM    7  C   UNL     2     -10.902  15.104  67.216  1.00  0.00    -0.316 C  
HETATM    8  O   UNL     2     -10.140  15.102  68.204  1.00  0.00    -0.219 OA 
HETATM    9  O   UNL     2     -11.105  16.091  66.410  1.00  0.00    -0.145 OA 
ENDBRANCH   5   6
TORSDOF 1
ENDMDL
MODEL       33
REMARK 921   NORMALIZED FREE ENERGY PREDICTED BY IDOCK:   -3.50 KCAL/MOL
REMARK 922        TOTAL FREE ENERGY PREDICTED BY IDOCK:   -3.86 KCAL/MOL
REMARK 923 INTER-LIGAND FREE ENERGY PREDICTED BY IDOCK:   -3.81 KCAL/MOL
REMARK 924 INTRA-LIGAND FREE ENERGY PREDICTED BY IDOCK:   -0.05 KCAL/MOL
REMARK 927      BINDING AFFINITY PREDICTED BY RF-SCORE:    0.00 PKD
ROOT
HETATM    1 FE   UNL     1     -10.483  15.055  63.790  1.00  0.00    -0.468 Fe 
HETATM    2  O   UNL     2     -11.287  16.877  64.201  1.00  0.00    -1.208 OA 
HETATM    3  C   UNL     2     -10.905  16.645  65.400  1.00  0.00    -0.173 C  
HETATM    4  O   UNL     2     -11.020  15.421  65.733  1.00  0.00    -0.330 OA 
HETATM    5  C   UNL     2      -9.797  17.492  65.961  1.00  0.00    -0.195 C  
ENDROOT
BRANCH   5   6
HETATM    6  C   UNL     2      -8.570  16.645  66.313  1.00  0.00    -0.359 C  
HETATM    7  C   UNL     2      -7.177  17.283  66.135  1.00  0.00    -0.269 C  
HETATM    8  O   UNL     2      -6.204  16.693  66.646  1.00  0.00    -0.269 OA 
HETATM    9  O   UNL     2      -7.127  18.334  65.388  1.00  0.00    -0.537 OA 
ENDBRANCH   5   6
TORSDOF 1
ENDMDL
MODEL       34
REMARK 921   NORMALIZED FREE ENERGY PREDICTED BY IDOCK:   -3.50 KCAL/MOL
REMARK 922        TOTAL FREE ENERGY PREDICTED BY IDOCK:   -3.85 KCAL/MOL
REMARK 923 INTER-LIGAND FREE ENERGY PREDICTED BY IDOCK:   -3.80 KCAL/MOL
REMARK 924 INTRA-LIGAND FREE ENERGY PREDICTED BY IDOCK:   -0.05 KCAL/MOL
REMARK 927      BINDING AFFINITY PREDICTED BY RF-SCORE:    0.00 PKD
ROOT
HETATM    1 FE   UNL     1     -13.116   6.953  69.876  1.00  0.00    -0.637 Fe 
HETATM    2  O   UNL     2     -14.068   7.146  71.664  1.00  0.00    -0.400 OA 
HETATM    3  C   UNL     2     -13.144   7.990  71.932  1.00  0.00    -0.311 C  
HETATM    4  O   UNL     2     -12.012   7.660  71.451  1.00  0.00    -0.292 OA 
HETATM    5  C   UNL     2     -13.529   9.436  72.064  1.00  0.00    -0.522 C  
ENDROOT
BRANCH   5   6
HETATM    6  C   UNL     2     -12.832  10.299  71.007  1.00  0.00    -0.490 C  
HETATM    7  C   UNL     2     -12.729  11.816  71.268  1.00  0.00    -0.316 C  
HETATM    8  O   UNL     2     -11.958  12.473  70.540  1.00  0.00    -0.326 OA 
HETATM    9  O   UNL     2     -13.524  12.292  72.165  1.00  0.00    -0.509 OA 
ENDBRANCH   5   6
TORSDOF 1
ENDMDL
MODEL       35
REMARK 921   NORMALIZED FREE ENERGY PREDICTED BY IDOCK:   -3.50 KCAL/MOL
REMARK 922        TOTAL FREE ENERGY PREDICTED BY IDOCK:   -3.85 KCAL/MOL
REMARK 923 INTER-LIGAND FREE ENERGY PREDICTED BY IDOCK:   -3.78 KCAL/MOL
REMARK 924 INTRA-LIGAND FREE ENERGY PREDICTED BY IDOCK:   -0.07 KCAL/MOL
REMARK 927      BINDING AFFINITY PREDICTED BY RF-SCORE:    0.00 PKD
ROOT
HETATM    1 FE   UNL     1     -10.624  13.045  68.700  1.00  0.00    -0.205 Fe 
HETATM    2  O   UNL     2     -12.190  14.325  68.488  1.00  0.00    -0.289 OA 
HETATM    3  C   UNL     2     -11.760  14.467  67.290  1.00  0.00    -0.406 C  
HETATM    4  O   UNL     2     -10.489  14.446  67.211  1.00  0.00    -0.266 OA 
HETATM    5  C   UNL     2     -12.609  13.933  66.171  1.00  0.00    -0.426 C  
ENDROOT
BRANCH   5   6
HETATM    6  C   UNL     2     -11.879  12.833  65.393  1.00  0.00    -0.456 C  
HETATM    7  C   UNL     2     -11.778  12.979  63.861  1.00  0.00    -0.468 C  
HETATM    8  O   UNL     2     -10.984  12.224  63.263  1.00  0.00    -0.432 OA 
HETATM    9  O   UNL     2     -12.596  13.813  63.316  1.00  0.00    -0.830 OA 
ENDBRANCH   5   6
TORSDOF 1
ENDMDL
MODEL       36
REMARK 921   NORMALIZED FREE ENERGY PREDICTED BY IDOCK:   -3.46 KCAL/MOL
REMARK 922        TOTAL FREE ENERGY PREDICTED BY IDOCK:   -3.82 KCAL/MOL
REMARK 923 INTER-LIGAND FREE ENERGY PREDICTED BY IDOCK:   -3.77 KCAL/MOL
REMARK 924 INTRA-LIGAND FREE ENERGY PREDICTED BY IDOCK:   -0.05 KCAL/MOL
REMARK 927      BINDING AFFINITY PREDICTED BY RF-SCORE:    0.00 PKD
ROOT
HETATM    1 FE   UNL     1     -13.637  10.955  72.729  1.00  0.00    -0.626 Fe 
HETATM    2  O   UNL     2     -14.344   9.056  72.554  1.00  0.00    -0.570 OA 
HETATM    3  C   UNL     2     -13.435   8.925  71.663  1.00  0.00    -0.378 C  
HETATM    4  O   UNL     2     -13.262   9.978  70.968  1.00  0.00    -0.386 OA 
HETATM    5  C   UNL     2     -12.286   8.005  71.961  1.00  0.00    -0.374 C  
ENDROOT
BRANCH   5   6
HETATM    6  C   UNL     2     -10.955   8.763  71.986  1.00  0.00    -0.438 C  
HETATM    7  C   UNL     2      -9.828   8.214  72.885  1.00  0.00    -0.268 C  
HETATM    8  O   UNL     2      -8.682   8.680  72.719  1.00  0.00    -0.387 OA 
HETATM    9  O   UNL     2     -10.189   7.380  73.799  1.00  0.00    -0.342 OA 
ENDBRANCH   5   6
TORSDOF 1
ENDMDL
MODEL       37
REMARK 921   NORMALIZED FREE ENERGY PREDICTED BY IDOCK:   -3.46 KCAL/MOL
REMARK 922        TOTAL FREE ENERGY PREDICTED BY IDOCK:   -3.82 KCAL/MOL
REMARK 923 INTER-LIGAND FREE ENERGY PREDICTED BY IDOCK:   -3.67 KCAL/MOL
REMARK 924 INTRA-LIGAND FREE ENERGY PREDICTED BY IDOCK:   -0.15 KCAL/MOL
REMARK 927      BINDING AFFINITY PREDICTED BY RF-SCORE:    0.00 PKD
ROOT
HETATM    1 FE   UNL     1     -13.647   7.059  70.288  1.00  0.00    -0.635 Fe 
HETATM    2  O   UNL     2     -12.732   6.382  71.974  1.00  0.00    -0.281 OA 
HETATM    3  C   UNL     2     -11.711   7.014  71.533  1.00  0.00    -0.300 C  
HETATM    4  O   UNL     2     -11.601   6.961  70.265  1.00  0.00    -0.324 OA 
HETATM    5  C   UNL     2     -11.251   8.226  72.293  1.00  0.00    -0.443 C  
ENDROOT
BRANCH   5   6
HETATM    6  C   UNL     2     -11.340   9.491  71.434  1.00  0.00    -0.462 C  
HETATM    7  C   UNL     2     -12.630  10.332  71.519  1.00  0.00    -0.440 C  
HETATM    8  O   UNL     2     -12.607  11.475  71.019  1.00  0.00    -0.383 OA 
HETATM    9  O   UNL     2     -13.659   9.741  72.025  1.00  0.00    -0.399 OA 
ENDBRANCH   5   6
TORSDOF 1
ENDMDL
MODEL       38
REMARK 921   NORMALIZED FREE ENERGY PREDICTED BY IDOCK:   -3.43 KCAL/MOL
REMARK 922        TOTAL FREE ENERGY PREDICTED BY IDOCK:   -3.79 KCAL/MOL
REMARK 923 INTER-LIGAND FREE ENERGY PREDICTED BY IDOCK:   -3.65 KCAL/MOL
REMARK 924 INTRA-LIGAND FREE ENERGY PREDICTED BY IDOCK:   -0.14 KCAL/MOL
REMARK 927      BINDING AFFINITY PREDICTED BY RF-SCORE:    0.00 PKD
ROOT
HETATM    1 FE   UNL     1     -13.800   9.842  70.073  1.00  0.00    -0.632 Fe 
HETATM    2  O   UNL     2     -12.856  10.318  71.811  1.00  0.00    -0.411 OA 
HETATM    3  C   UNL     2     -13.170   9.130  72.171  1.00  0.00    -0.458 C  
HETATM    4  O   UNL     2     -14.311   8.764  71.739  1.00  0.00    -0.387 OA 
HETATM    5  C   UNL     2     -12.060   8.133  72.348  1.00  0.00    -0.406 C  
ENDROOT
BRANCH   5   6
HETATM    6  C   UNL     2     -12.202   6.960  71.374  1.00  0.00    -0.418 C  
HETATM    7  C   UNL     2     -11.325   6.966  70.105  1.00  0.00    -0.314 C  
HETATM    8  O   UNL     2     -11.259   5.908  69.446  1.00  0.00    -0.375 OA 
HETATM    9  O   UNL     2     -10.802   8.099  69.783  1.00  0.00    -0.245 OA 
ENDBRANCH   5   6
TORSDOF 1
ENDMDL
MODEL       39
REMARK 921   NORMALIZED FREE ENERGY PREDICTED BY IDOCK:   -3.40 KCAL/MOL
REMARK 922        TOTAL FREE ENERGY PREDICTED BY IDOCK:   -3.75 KCAL/MOL
REMARK 923 INTER-LIGAND FREE ENERGY PREDICTED BY IDOCK:   -3.62 KCAL/MOL
REMARK 924 INTRA-LIGAND FREE ENERGY PREDICTED BY IDOCK:   -0.13 KCAL/MOL
REMARK 927      BINDING AFFINITY PREDICTED BY RF-SCORE:    0.00 PKD
ROOT
HETATM    1 FE   UNL     1     -14.009   8.948  73.727  1.00  0.00    -0.855 Fe 
HETATM    2  O   UNL     2     -14.284   8.318  71.813  1.00  0.00    -0.414 OA 
HETATM    3  C   UNL     2     -13.320   9.114  71.536  1.00  0.00    -0.355 C  
HETATM    4  O   UNL     2     -13.337  10.179  72.233  1.00  0.00    -0.415 OA 
HETATM    5  C   UNL     2     -12.019   8.511  71.086  1.00  0.00    -0.306 C  
ENDROOT
BRANCH   5   6
HETATM    6  C   UNL     2     -10.884   8.842  72.060  1.00  0.00    -0.404 C  
HETATM    7  C   UNL     2     -10.426   7.739  73.036  1.00  0.00    -0.369 C  
HETATM    8  O   UNL     2      -9.355   7.922  73.650  1.00  0.00    -0.278 OA 
HETATM    9  O   UNL     2     -11.244   6.756  73.203  1.00  0.00    -0.218 OA 
ENDBRANCH   5   6
TORSDOF 1
ENDMDL
MODEL       40
REMARK 921   NORMALIZED FREE ENERGY PREDICTED BY IDOCK:   -3.39 KCAL/MOL
REMARK 922        TOTAL FREE ENERGY PREDICTED BY IDOCK:   -3.74 KCAL/MOL
REMARK 923 INTER-LIGAND FREE ENERGY PREDICTED BY IDOCK:   -3.58 KCAL/MOL
REMARK 924 INTRA-LIGAND FREE ENERGY PREDICTED BY IDOCK:   -0.16 KCAL/MOL
REMARK 927      BINDING AFFINITY PREDICTED BY RF-SCORE:    0.00 PKD
ROOT
HETATM    1 FE   UNL     1      -8.117  17.838  67.972  1.00  0.00    -0.200 Fe 
HETATM    2  O   UNL     2      -9.195  19.179  69.056  1.00  0.00    -0.339 OA 
HETATM    3  C   UNL     2      -9.277  19.827  67.956  1.00  0.00    -0.341 C  
HETATM    4  O   UNL     2      -8.216  19.754  67.255  1.00  0.00    -0.284 OA 
HETATM    5  C   UNL     2     -10.624  19.932  67.300  1.00  0.00    -0.519 C  
ENDROOT
BRANCH   5   6
HETATM    6  C   UNL     2     -10.628  19.267  65.920  1.00  0.00    -0.521 C  
HETATM    7  C   UNL     2     -10.785  17.734  65.858  1.00  0.00    -0.116 C  
HETATM    8  O   UNL     2     -11.032  17.225  64.745  1.00  0.00    -0.950 OA 
HETATM    9  O   UNL     2     -10.555  17.096  66.955  1.00  0.00    -0.306 OA 
ENDBRANCH   5   6
TORSDOF 1
ENDMDL
MODEL       41
REMARK 921   NORMALIZED FREE ENERGY PREDICTED BY IDOCK:   -3.37 KCAL/MOL
REMARK 922        TOTAL FREE ENERGY PREDICTED BY IDOCK:   -3.72 KCAL/MOL
REMARK 923 INTER-LIGAND FREE ENERGY PREDICTED BY IDOCK:   -3.59 KCAL/MOL
REMARK 924 INTRA-LIGAND FREE ENERGY PREDICTED BY IDOCK:   -0.13 KCAL/MOL
REMARK 927      BINDING AFFINITY PREDICTED BY RF-SCORE:    0.00 PKD
ROOT
HETATM    1 FE   UNL     1     -11.876  19.633  66.727  1.00  0.00    -0.233 Fe 
HETATM    2  O   UNL     2      -9.967  20.029  66.147  1.00  0.00    -0.445 OA 
HETATM    3  C   UNL     2      -9.658  19.038  66.895  1.00  0.00    -0.321 C  
HETATM    4  O   UNL     2     -10.371  18.966  67.948  1.00  0.00    -0.374 OA 
HETATM    5  C   UNL     2      -9.138  17.793  66.234  1.00  0.00    -0.198 C  
ENDROOT
BRANCH   5   6
HETATM    6  C   UNL     2     -10.063  16.598  66.487  1.00  0.00    -0.313 C  
HETATM    7  C   UNL     2     -10.989  16.146  65.340  1.00  0.00    -0.227 C  
HETATM    8  O   UNL     2     -11.554  15.039  65.458  1.00  0.00    -0.311 OA 
HETATM    9  O   UNL     2     -11.172  16.998  64.390  1.00  0.00    -1.167 OA 
ENDBRANCH   5   6
TORSDOF 1
ENDMDL
MODEL       42
REMARK 921   NORMALIZED FREE ENERGY PREDICTED BY IDOCK:   -3.37 KCAL/MOL
REMARK 922        TOTAL FREE ENERGY PREDICTED BY IDOCK:   -3.71 KCAL/MOL
REMARK 923 INTER-LIGAND FREE ENERGY PREDICTED BY IDOCK:   -3.60 KCAL/MOL
REMARK 924 INTRA-LIGAND FREE ENERGY PREDICTED BY IDOCK:   -0.11 KCAL/MOL
REMARK 927      BINDING AFFINITY PREDICTED BY RF-SCORE:    0.00 PKD
ROOT
HETATM    1 FE   UNL     1     -14.144   9.704  70.103  1.00  0.00    -0.646 Fe 
HETATM    2  O   UNL     2     -12.349  10.624  69.839  1.00  0.00    -0.309 OA 
HETATM    3  C   UNL     2     -12.193  10.421  71.093  1.00  0.00    -0.394 C  
HETATM    4  O   UNL     2     -13.273  10.544  71.757  1.00  0.00    -0.425 OA 
HETATM    5  C   UNL     2     -11.137   9.442  71.521  1.00  0.00    -0.446 C  
ENDROOT
BRANCH   5   6
HETATM    6  C   UNL     2     -11.746   8.255  72.273  1.00  0.00    -0.453 C  
HETATM    7  C   UNL     2     -11.768   6.886  71.563  1.00  0.00    -0.311 C  
HETATM    8  O   UNL     2     -12.034   5.882  72.256  1.00  0.00    -0.295 OA 
HETATM    9  O   UNL     2     -11.596   6.908  70.285  1.00  0.00    -0.324 OA 
ENDBRANCH   5   6
TORSDOF 1
ENDMDL
MODEL       43
REMARK 921   NORMALIZED FREE ENERGY PREDICTED BY IDOCK:   -3.35 KCAL/MOL
REMARK 922        TOTAL FREE ENERGY PREDICTED BY IDOCK:   -3.70 KCAL/MOL
REMARK 923 INTER-LIGAND FREE ENERGY PREDICTED BY IDOCK:   -3.63 KCAL/MOL
REMARK 924 INTRA-LIGAND FREE ENERGY PREDICTED BY IDOCK:   -0.07 KCAL/MOL
REMARK 927      BINDING AFFINITY PREDICTED BY RF-SCORE:    0.00 PKD
ROOT
HETATM    1 FE   UNL     1     -13.358   7.081  70.364  1.00  0.00    -0.590 Fe 
HETATM    2  O   UNL     2     -14.408   8.490  71.388  1.00  0.00    -0.405 OA 
HETATM    3  C   UNL     2     -13.267   8.828  71.861  1.00  0.00    -0.381 C  
HETATM    4  O   UNL     2     -12.497   7.835  72.064  1.00  0.00    -0.304 OA 
HETATM    5  C   UNL     2     -12.708  10.164  71.459  1.00  0.00    -0.541 C  
ENDROOT
BRANCH   5   6
HETATM    6  C   UNL     2     -11.391  10.010  70.693  1.00  0.00    -0.425 C  
HETATM    7  C   UNL     2     -11.282  10.674  69.305  1.00  0.00    -0.273 C  
HETATM    8  O   UNL     2     -10.146  10.759  68.795  1.00  0.00    -0.175 OA 
HETATM    9  O   UNL     2     -12.396  11.006  68.747  1.00  0.00    -0.533 OA 
ENDBRANCH   5   6
TORSDOF 1
ENDMDL
MODEL       44
REMARK 921   NORMALIZED FREE ENERGY PREDICTED BY IDOCK:   -3.35 KCAL/MOL
REMARK 922        TOTAL FREE ENERGY PREDICTED BY IDOCK:   -3.69 KCAL/MOL
REMARK 923 INTER-LIGAND FREE ENERGY PREDICTED BY IDOCK:   -3.56 KCAL/MOL
REMARK 924 INTRA-LIGAND FREE ENERGY PREDICTED BY IDOCK:   -0.14 KCAL/MOL
REMARK 927      BINDING AFFINITY PREDICTED BY RF-SCORE:    0.00 PKD
ROOT
HETATM    1 FE   UNL     1      -8.562  20.423  65.488  1.00  0.00    -0.446 Fe 
HETATM    2  O   UNL     2      -7.993  20.283  67.436  1.00  0.00    -0.309 OA 
HETATM    3  C   UNL     2      -9.230  20.042  67.659  1.00  0.00    -0.349 C  
HETATM    4  O   UNL     2     -10.011  20.711  66.908  1.00  0.00    -0.418 OA 
HETATM    5  C   UNL     2      -9.605  18.662  68.122  1.00  0.00    -0.364 C  
ENDROOT
BRANCH   5   6
HETATM    6  C   UNL     2     -10.530  17.968  67.118  1.00  0.00    -0.377 C  
HETATM    7  C   UNL     2      -9.879  17.156  65.979  1.00  0.00    -0.219 C  
HETATM    8  O   UNL     2     -10.618  16.399  65.317  1.00  0.00    -0.548 OA 
HETATM    9  O   UNL     2      -8.634  17.400  65.749  1.00  0.00    -0.526 OA 
ENDBRANCH   5   6
TORSDOF 1
ENDMDL
MODEL       45
REMARK 921   NORMALIZED FREE ENERGY PREDICTED BY IDOCK:   -3.34 KCAL/MOL
REMARK 922        TOTAL FREE ENERGY PREDICTED BY IDOCK:   -3.68 KCAL/MOL
REMARK 923 INTER-LIGAND FREE ENERGY PREDICTED BY IDOCK:   -3.63 KCAL/MOL
REMARK 924 INTRA-LIGAND FREE ENERGY PREDICTED BY IDOCK:   -0.05 KCAL/MOL
REMARK 927      BINDING AFFINITY PREDICTED BY RF-SCORE:    0.00 PKD
ROOT
HETATM    1 FE   UNL     1     -13.670   8.901  73.773  1.00  0.00    -0.819 Fe 
HETATM    2  O   UNL     2     -12.344   8.405  72.313  1.00  0.00    -0.349 OA 
HETATM    3  C   UNL     2     -12.974   9.268  71.609  1.00  0.00    -0.374 C  
HETATM    4  O   UNL     2     -14.227   9.279  71.838  1.00  0.00    -0.266 OA 
HETATM    5  C   UNL     2     -12.252  10.531  71.232  1.00  0.00    -0.472 C  
ENDROOT
BRANCH   5   6
HETATM    6  C   UNL     2     -12.942  11.766  71.820  1.00  0.00    -0.466 C  
HETATM    7  C   UNL     2     -12.733  13.117  71.106  1.00  0.00    -0.300 C  
HETATM    8  O   UNL     2     -13.480  14.062  71.432  1.00  0.00    -0.335 OA 
HETATM    9  O   UNL     2     -11.735  13.179  70.291  1.00  0.00    -0.250 OA 
ENDBRANCH   5   6
TORSDOF 1
ENDMDL
MODEL       46
REMARK 921   NORMALIZED FREE ENERGY PREDICTED BY IDOCK:   -3.30 KCAL/MOL
REMARK 922        TOTAL FREE ENERGY PREDICTED BY IDOCK:   -3.64 KCAL/MOL
REMARK 923 INTER-LIGAND FREE ENERGY PREDICTED BY IDOCK:   -3.50 KCAL/MOL
REMARK 924 INTRA-LIGAND FREE ENERGY PREDICTED BY IDOCK:   -0.15 KCAL/MOL
REMARK 927      BINDING AFFINITY PREDICTED BY RF-SCORE:    0.00 PKD
ROOT
HETATM    1 FE   UNL     1     -13.248  14.122  68.841  1.00  0.00    -0.476 Fe 
HETATM    2  O   UNL     2     -11.322  13.587  69.214  1.00  0.00    -0.259 OA 
HETATM    3  C   UNL     2     -11.174  14.809  69.566  1.00  0.00    -0.278 C  
HETATM    4  O   UNL     2     -11.849  15.619  68.852  1.00  0.00    -0.379 OA 
HETATM    5  C   UNL     2     -10.917  15.096  71.018  1.00  0.00    -0.216 C  
ENDROOT
BRANCH   5   6
HETATM    6  C   UNL     2     -12.037  15.947  71.626  1.00  0.00    -0.554 C  
HETATM    7  C   UNL     2     -13.193  15.216  72.339  1.00  0.00    -0.395 C  
HETATM    8  O   UNL     2     -13.965  15.905  73.038  1.00  0.00    -0.573 OA 
HETATM    9  O   UNL     2     -13.316  13.960  72.077  1.00  0.00    -0.365 OA 
ENDBRANCH   5   6
TORSDOF 1
ENDMDL
MODEL       47
REMARK 921   NORMALIZED FREE ENERGY PREDICTED BY IDOCK:   -3.28 KCAL/MOL
REMARK 922        TOTAL FREE ENERGY PREDICTED BY IDOCK:   -3.62 KCAL/MOL
REMARK 923 INTER-LIGAND FREE ENERGY PREDICTED BY IDOCK:   -3.57 KCAL/MOL
REMARK 924 INTRA-LIGAND FREE ENERGY PREDICTED BY IDOCK:   -0.06 KCAL/MOL
REMARK 927      BINDING AFFINITY PREDICTED BY RF-SCORE:    0.00 PKD
ROOT
HETATM    1 FE   UNL     1     -13.023  14.477  67.346  1.00  0.00    -0.616 Fe 
HETATM    2  O   UNL     2     -13.277  14.226  65.344  1.00  0.00    -0.688 OA 
HETATM    3  C   UNL     2     -12.068  13.807  65.361  1.00  0.00    -0.407 C  
HETATM    4  O   UNL     2     -11.333  14.439  66.188  1.00  0.00    -0.336 OA 
HETATM    5  C   UNL     2     -11.823  12.354  65.071  1.00  0.00    -0.440 C  
ENDROOT
BRANCH   5   6
HETATM    6  C   UNL     2     -11.185  11.645  66.270  1.00  0.00    -0.332 C  
HETATM    7  C   UNL     2     -10.099  10.586  65.988  1.00  0.00    -0.256 C  
HETATM    8  O   UNL     2      -9.415  10.192  66.955  1.00  0.00    -0.161 OA 
HETATM    9  O   UNL     2     -10.053  10.129  64.784  1.00  0.00    -0.331 OA 
ENDBRANCH   5   6
TORSDOF 1
ENDMDL
MODEL       48
REMARK 921   NORMALIZED FREE ENERGY PREDICTED BY IDOCK:   -3.28 KCAL/MOL
REMARK 922        TOTAL FREE ENERGY PREDICTED BY IDOCK:   -3.62 KCAL/MOL
REMARK 923 INTER-LIGAND FREE ENERGY PREDICTED BY IDOCK:   -3.48 KCAL/MOL
REMARK 924 INTRA-LIGAND FREE ENERGY PREDICTED BY IDOCK:   -0.15 KCAL/MOL
REMARK 927      BINDING AFFINITY PREDICTED BY RF-SCORE:    0.00 PKD
ROOT
HETATM    1 FE   UNL     1     -11.029  17.300  67.042  1.00  0.00    -0.316 Fe 
HETATM    2  O   UNL     2      -9.626  15.995  67.725  1.00  0.00    -0.217 OA 
HETATM    3  C   UNL     2     -10.607  15.180  67.837  1.00  0.00    -0.257 C  
HETATM    4  O   UNL     2     -11.686  15.747  68.206  1.00  0.00    -0.345 OA 
HETATM    5  C   UNL     2     -10.640  13.990  66.921  1.00  0.00    -0.280 C  
ENDROOT
BRANCH   5   6
HETATM    6  C   UNL     2     -11.874  14.016  66.014  1.00  0.00    -0.401 C  
HETATM    7  C   UNL     2     -11.854  14.960  64.795  1.00  0.00    -0.384 C  
HETATM    8  O   UNL     2     -12.741  14.804  63.931  1.00  0.00    -0.794 OA 
HETATM    9  O   UNL     2     -10.967  15.896  64.818  1.00  0.00    -0.480 OA 
ENDBRANCH   5   6
TORSDOF 1
ENDMDL
MODEL       49
REMARK 921   NORMALIZED FREE ENERGY PREDICTED BY IDOCK:   -3.28 KCAL/MOL
REMARK 922        TOTAL FREE ENERGY PREDICTED BY IDOCK:   -3.62 KCAL/MOL
REMARK 923 INTER-LIGAND FREE ENERGY PREDICTED BY IDOCK:   -3.52 KCAL/MOL
REMARK 924 INTRA-LIGAND FREE ENERGY PREDICTED BY IDOCK:   -0.10 KCAL/MOL
REMARK 927      BINDING AFFINITY PREDICTED BY RF-SCORE:    0.00 PKD
ROOT
HETATM    1 FE   UNL     1     -14.137   9.009  73.827  1.00  0.00    -0.838 Fe 
HETATM    2  O   UNL     2     -14.380   8.188  71.982  1.00  0.00    -0.417 OA 
HETATM    3  C   UNL     2     -13.179   8.579  71.777  1.00  0.00    -0.364 C  
HETATM    4  O   UNL     2     -12.918   9.696  72.330  1.00  0.00    -0.395 OA 
HETATM    5  C   UNL     2     -12.114   7.530  71.625  1.00  0.00    -0.341 C  
ENDROOT
BRANCH   5   6
HETATM    6  C   UNL     2     -11.057   7.644  72.729  1.00  0.00    -0.437 C  
HETATM    7  C   UNL     2      -9.682   8.232  72.352  1.00  0.00    -0.303 C  
HETATM    8  O   UNL     2      -8.916   8.549  73.286  1.00  0.00    -0.275 OA 
HETATM    9  O   UNL     2      -9.403   8.260  71.094  1.00  0.00    -0.150 OA 
ENDBRANCH   5   6
TORSDOF 1
ENDMDL
MODEL       50
REMARK 921   NORMALIZED FREE ENERGY PREDICTED BY IDOCK:   -3.27 KCAL/MOL
REMARK 922        TOTAL FREE ENERGY PREDICTED BY IDOCK:   -3.62 KCAL/MOL
REMARK 923 INTER-LIGAND FREE ENERGY PREDICTED BY IDOCK:   -3.57 KCAL/MOL
REMARK 924 INTRA-LIGAND FREE ENERGY PREDICTED BY IDOCK:   -0.05 KCAL/MOL
REMARK 927      BINDING AFFINITY PREDICTED BY RF-SCORE:    0.00 PKD
ROOT
HETATM    1 FE   UNL     1      -7.699  14.071  66.400  1.00  0.00    -0.350 Fe 
HETATM    2  O   UNL     2      -8.735  12.827  67.631  1.00  0.00    -0.159 OA 
HETATM    3  C   UNL     2      -9.717  13.618  67.411  1.00  0.00    -0.228 C  
HETATM    4  O   UNL     2      -9.363  14.838  67.317  1.00  0.00    -0.196 OA 
HETATM    5  C   UNL     2     -10.880  13.093  66.618  1.00  0.00    -0.292 C  
ENDROOT
BRANCH   5   6
HETATM    6  C   UNL     2     -11.066  13.876  65.314  1.00  0.00    -0.318 C  
HETATM    7  C   UNL     2     -12.369  13.653  64.519  1.00  0.00    -0.356 C  
HETATM    8  O   UNL     2     -12.628  14.459  63.602  1.00  0.00    -0.817 OA 
HETATM    9  O   UNL     2     -13.037  12.591  64.813  1.00  0.00    -0.853 OA 
ENDBRANCH   5   6
TORSDOF 1
ENDMDL
MODEL       51
REMARK 921   NORMALIZED FREE ENERGY PREDICTED BY IDOCK:   -3.25 KCAL/MOL
REMARK 922        TOTAL FREE ENERGY PREDICTED BY IDOCK:   -3.59 KCAL/MOL
REMARK 923 INTER-LIGAND FREE ENERGY PREDICTED BY IDOCK:   -3.53 KCAL/MOL
REMARK 924 INTRA-LIGAND FREE ENERGY PREDICTED BY IDOCK:   -0.06 KCAL/MOL
REMARK 927      BINDING AFFINITY PREDICTED BY RF-SCORE:    0.00 PKD
ROOT
HETATM    1 FE   UNL     1     -12.677  16.741  71.842  1.00  0.00    -0.516 Fe 
HETATM    2  O   UNL     2     -12.446  14.874  72.614  1.00  0.00    -0.338 OA 
HETATM    3  C   UNL     2     -12.946  14.480  71.503  1.00  0.00    -0.336 C  
HETATM    4  O   UNL     2     -13.854  15.256  71.062  1.00  0.00    -0.436 OA 
HETATM    5  C   UNL     2     -12.053  13.727  70.558  1.00  0.00    -0.416 C  
ENDROOT
BRANCH   5   6
HETATM    6  C   UNL     2     -11.881  14.479  69.234  1.00  0.00    -0.361 C  
HETATM    7  C   UNL     2     -11.960  13.664  67.926  1.00  0.00    -0.347 C  
HETATM    8  O   UNL     2     -12.066  14.300  66.857  1.00  0.00    -0.431 OA 
HETATM    9  O   UNL     2     -11.817  12.388  68.044  1.00  0.00    -0.348 OA 
ENDBRANCH   5   6
TORSDOF 1
ENDMDL
MODEL       52
REMARK 921   NORMALIZED FREE ENERGY PREDICTED BY IDOCK:   -3.25 KCAL/MOL
REMARK 922        TOTAL FREE ENERGY PREDICTED BY IDOCK:   -3.59 KCAL/MOL
REMARK 923 INTER-LIGAND FREE ENERGY PREDICTED BY IDOCK:   -3.54 KCAL/MOL
REMARK 924 INTRA-LIGAND FREE ENERGY PREDICTED BY IDOCK:   -0.05 KCAL/MOL
REMARK 927      BINDING AFFINITY PREDICTED BY RF-SCORE:    0.00 PKD
ROOT
HETATM    1 FE   UNL     1     -10.983  12.380  62.577  1.00  0.00    -0.642 Fe 
HETATM    2  O   UNL     2     -12.668  13.218  63.350  1.00  0.00    -0.695 OA 
HETATM    3  C   UNL     2     -12.237  12.769  64.468  1.00  0.00    -0.433 C  
HETATM    4  O   UNL     2     -11.660  11.639  64.363  1.00  0.00    -0.287 OA 
HETATM    5  C   UNL     2     -11.791  13.765  65.501  1.00  0.00    -0.378 C  
ENDROOT
BRANCH   5   6
HETATM    6  C   UNL     2     -10.305  13.597  65.835  1.00  0.00    -0.304 C  
HETATM    7  C   UNL     2      -9.542  14.826  66.369  1.00  0.00    -0.301 C  
HETATM    8  O   UNL     2      -8.414  14.632  66.867  1.00  0.00    -0.217 OA 
HETATM    9  O   UNL     2     -10.102  15.970  66.171  1.00  0.00    -0.285 OA 
ENDBRANCH   5   6
TORSDOF 1
ENDMDL
MODEL       53
REMARK 921   NORMALIZED FREE ENERGY PREDICTED BY IDOCK:   -3.23 KCAL/MOL
REMARK 922        TOTAL FREE ENERGY PREDICTED BY IDOCK:   -3.57 KCAL/MOL
REMARK 923 INTER-LIGAND FREE ENERGY PREDICTED BY IDOCK:   -3.49 KCAL/MOL
REMARK 924 INTRA-LIGAND FREE ENERGY PREDICTED BY IDOCK:   -0.08 KCAL/MOL
REMARK 927      BINDING AFFINITY PREDICTED BY RF-SCORE:    0.00 PKD
ROOT
HETATM    1 FE   UNL     1     -14.229  10.258  72.927  1.00  0.00    -0.637 Fe 
HETATM    2  O   UNL     2     -12.815   8.795  72.951  1.00  0.00    -0.313 OA 
HETATM    3  C   UNL     2     -12.835   8.917  71.677  1.00  0.00    -0.349 C  
HETATM    4  O   UNL     2     -13.999   9.153  71.217  1.00  0.00    -0.302 OA 
HETATM    5  C   UNL     2     -11.615   9.482  71.006  1.00  0.00    -0.419 C  
ENDROOT
BRANCH   5   6
HETATM    6  C   UNL     2     -11.932  10.795  70.283  1.00  0.00    -0.438 C  
HETATM    7  C   UNL     2     -11.688  10.857  68.761  1.00  0.00    -0.286 C  
HETATM    8  O   UNL     2     -12.170  11.826  68.140  1.00  0.00    -0.507 OA 
HETATM    9  O   UNL     2     -10.923   9.941  68.272  1.00  0.00    -0.240 OA 
ENDBRANCH   5   6
TORSDOF 1
ENDMDL
MODEL       54
REMARK 921   NORMALIZED FREE ENERGY PREDICTED BY IDOCK:   -3.23 KCAL/MOL
REMARK 922        TOTAL FREE ENERGY PREDICTED BY IDOCK:   -3.56 KCAL/MOL
REMARK 923 INTER-LIGAND FREE ENERGY PREDICTED BY IDOCK:   -3.41 KCAL/MOL
REMARK 924 INTRA-LIGAND FREE ENERGY PREDICTED BY IDOCK:   -0.16 KCAL/MOL
REMARK 927      BINDING AFFINITY PREDICTED BY RF-SCORE:    0.00 PKD
ROOT
HETATM    1 FE   UNL     1      -7.119  18.594  67.647  1.00  0.00    -0.192 Fe 
HETATM    2  O   UNL     2      -7.617  20.506  67.163  1.00  0.00    -0.309 OA 
HETATM    3  C   UNL     2      -8.368  19.963  66.280  1.00  0.00    -0.340 C  
HETATM    4  O   UNL     2      -7.853  18.919  65.762  1.00  0.00    -0.471 OA 
HETATM    5  C   UNL     2      -9.856  20.079  66.453  1.00  0.00    -0.578 C  
ENDROOT
BRANCH   5   6
HETATM    6  C   UNL     2     -10.509  18.704  66.622  1.00  0.00    -0.459 C  
HETATM    7  C   UNL     2     -10.429  18.033  68.008  1.00  0.00    -0.375 C  
HETATM    8  O   UNL     2     -11.161  17.042  68.211  1.00  0.00    -0.337 OA 
HETATM    9  O   UNL     2      -9.539  18.502  68.815  1.00  0.00    -0.345 OA 
ENDBRANCH   5   6
TORSDOF 1
ENDMDL
MODEL       55
REMARK 921   NORMALIZED FREE ENERGY PREDICTED BY IDOCK:   -3.23 KCAL/MOL
REMARK 922        TOTAL FREE ENERGY PREDICTED BY IDOCK:   -3.56 KCAL/MOL
REMARK 923 INTER-LIGAND FREE ENERGY PREDICTED BY IDOCK:   -3.49 KCAL/MOL
REMARK 924 INTRA-LIGAND FREE ENERGY PREDICTED BY IDOCK:   -0.07 KCAL/MOL
REMARK 927      BINDING AFFINITY PREDICTED BY RF-SCORE:    0.00 PKD
ROOT
HETATM    1 FE   UNL     1     -14.144   9.868  70.203  1.00  0.00    -0.643 Fe 
HETATM    2  O   UNL     2     -13.512  10.177  72.112  1.00  0.00    -0.411 OA 
HETATM    3  C   UNL     2     -13.175   8.943  72.076  1.00  0.00    -0.409 C  
HETATM    4  O   UNL     2     -13.990   8.223  71.414  1.00  0.00    -0.339 OA 
HETATM    5  C   UNL     2     -11.709   8.614  72.107  1.00  0.00    -0.442 C  
ENDROOT
BRANCH   5   6
HETATM    6  C   UNL     2     -11.273   7.888  70.830  1.00  0.00    -0.284 C  
HETATM    7  C   UNL     2     -11.268   6.346  70.843  1.00  0.00    -0.326 C  
HETATM    8  O   UNL     2     -11.153   5.762  69.745  1.00  0.00    -0.369 OA 
HETATM    9  O   UNL     2     -11.292   5.789  72.005  1.00  0.00    -0.271 OA 
ENDBRANCH   5   6
TORSDOF 1
ENDMDL
MODEL       56
REMARK 921   NORMALIZED FREE ENERGY PREDICTED BY IDOCK:   -3.22 KCAL/MOL
REMARK 922        TOTAL FREE ENERGY PREDICTED BY IDOCK:   -3.56 KCAL/MOL
REMARK 923 INTER-LIGAND FREE ENERGY PREDICTED BY IDOCK:   -3.50 KCAL/MOL
REMARK 924 INTRA-LIGAND FREE ENERGY PREDICTED BY IDOCK:   -0.05 KCAL/MOL
REMARK 927      BINDING AFFINITY PREDICTED BY RF-SCORE:    0.00 PKD
ROOT
HETATM    1 FE   UNL     1     -14.323   9.570  70.442  1.00  0.00    -0.607 Fe 
HETATM    2  O   UNL     2     -12.754  10.795  70.022  1.00  0.00    -0.283 OA 
HETATM    3  C   UNL     2     -12.375  10.525  71.215  1.00  0.00    -0.397 C  
HETATM    4  O   UNL     2     -13.345  10.414  72.032  1.00  0.00    -0.433 OA 
HETATM    5  C   UNL     2     -11.127   9.707  71.388  1.00  0.00    -0.397 C  
ENDROOT
BRANCH   5   6
HETATM    6  C   UNL     2     -11.423   8.380  72.094  1.00  0.00    -0.442 C  
HETATM    7  C   UNL     2     -10.350   7.816  73.048  1.00  0.00    -0.347 C  
HETATM    8  O   UNL     2     -10.686   6.879  73.802  1.00  0.00    -0.347 OA 
HETATM    9  O   UNL     2      -9.164   8.305  72.920  1.00  0.00    -0.253 OA 
ENDBRANCH   5   6
TORSDOF 1
ENDMDL
MODEL       57
REMARK 921   NORMALIZED FREE ENERGY PREDICTED BY IDOCK:   -3.22 KCAL/MOL
REMARK 922        TOTAL FREE ENERGY PREDICTED BY IDOCK:   -3.56 KCAL/MOL
REMARK 923 INTER-LIGAND FREE ENERGY PREDICTED BY IDOCK:   -3.41 KCAL/MOL
REMARK 924 INTRA-LIGAND FREE ENERGY PREDICTED BY IDOCK:   -0.15 KCAL/MOL
REMARK 927      BINDING AFFINITY PREDICTED BY RF-SCORE:    0.00 PKD
ROOT
HETATM    1 FE   UNL     1      -8.853  13.033  65.570  1.00  0.00    -0.415 Fe 
HETATM    2  O   UNL     2      -9.748  14.847  65.362  1.00  0.00    -0.313 OA 
HETATM    3  C   UNL     2     -10.771  14.170  64.998  1.00  0.00    -0.416 C  
HETATM    4  O   UNL     2     -10.469  13.138  64.315  1.00  0.00    -0.414 OA 
HETATM    5  C   UNL     2     -11.971  14.168  65.902  1.00  0.00    -0.420 C  
ENDROOT
BRANCH   5   6
HETATM    6  C   UNL     2     -12.283  12.758  66.413  1.00  0.00    -0.242 C  
HETATM    7  C   UNL     2     -11.714  12.345  67.785  1.00  0.00    -0.350 C  
HETATM    8  O   UNL     2     -12.164  11.304  68.306  1.00  0.00    -0.611 OA 
HETATM    9  O   UNL     2     -10.747  13.068  68.238  1.00  0.00    -0.230 OA 
ENDBRANCH   5   6
TORSDOF 1
ENDMDL
MODEL       58
REMARK 921   NORMALIZED FREE ENERGY PREDICTED BY IDOCK:   -3.22 KCAL/MOL
REMARK 922        TOTAL FREE ENERGY PREDICTED BY IDOCK:   -3.56 KCAL/MOL
REMARK 923 INTER-LIGAND FREE ENERGY PREDICTED BY IDOCK:   -3.48 KCAL/MOL
REMARK 924 INTRA-LIGAND FREE ENERGY PREDICTED BY IDOCK:   -0.07 KCAL/MOL
REMARK 927      BINDING AFFINITY PREDICTED BY RF-SCORE:    0.00 PKD
ROOT
HETATM    1 FE   UNL     1     -11.099  17.768  67.058  1.00  0.00    -0.326 Fe 
HETATM    2  O   UNL     2     -10.652  18.757  65.338  1.00  0.00    -0.552 OA 
HETATM    3  C   UNL     2     -10.115  19.623  66.113  1.00  0.00    -0.480 C  
HETATM    4  O   UNL     2     -10.756  19.783  67.202  1.00  0.00    -0.466 OA 
HETATM    5  C   UNL     2      -8.620  19.771  66.074  1.00  0.00    -0.292 C  
ENDROOT
BRANCH   5   6
HETATM    6  C   UNL     2      -7.988  19.425  67.426  1.00  0.00    -0.299 C  
HETATM    7  C   UNL     2      -7.028  20.454  68.058  1.00  0.00    -0.282 C  
HETATM    8  O   UNL     2      -6.712  20.287  69.254  1.00  0.00    -0.264 OA 
HETATM    9  O   UNL     2      -6.560  21.354  67.263  1.00  0.00    -0.522 OA 
ENDBRANCH   5   6
TORSDOF 1
ENDMDL
MODEL       59
REMARK 921   NORMALIZED FREE ENERGY PREDICTED BY IDOCK:   -3.21 KCAL/MOL
REMARK 922        TOTAL FREE ENERGY PREDICTED BY IDOCK:   -3.55 KCAL/MOL
REMARK 923 INTER-LIGAND FREE ENERGY PREDICTED BY IDOCK:   -3.40 KCAL/MOL
REMARK 924 INTRA-LIGAND FREE ENERGY PREDICTED BY IDOCK:   -0.15 KCAL/MOL
REMARK 927      BINDING AFFINITY PREDICTED BY RF-SCORE:    0.00 PKD
ROOT
HETATM    1 FE   UNL     1     -11.247  18.036  67.563  1.00  0.00    -0.378 Fe 
HETATM    2  O   UNL     2     -10.524  18.163  65.666  1.00  0.00    -0.626 OA 
HETATM    3  C   UNL     2     -10.222  19.365  65.986  1.00  0.00    -0.457 C  
HETATM    4  O   UNL     2     -11.085  19.909  66.748  1.00  0.00    -0.286 OA 
HETATM    5  C   UNL     2      -8.766  19.718  66.099  1.00  0.00    -0.368 C  
ENDROOT
BRANCH   5   6
HETATM    6  C   UNL     2      -8.406  20.153  67.523  1.00  0.00    -0.383 C  
HETATM    7  C   UNL     2      -7.798  19.097  68.469  1.00  0.00    -0.345 C  
HETATM    8  O   UNL     2      -7.284  19.504  69.531  1.00  0.00    -0.309 OA 
HETATM    9  O   UNL     2      -7.957  17.866  68.119  1.00  0.00    -0.248 OA 
ENDBRANCH   5   6
TORSDOF 1
ENDMDL
MODEL       60
REMARK 921   NORMALIZED FREE ENERGY PREDICTED BY IDOCK:   -3.20 KCAL/MOL
REMARK 922        TOTAL FREE ENERGY PREDICTED BY IDOCK:   -3.54 KCAL/MOL
REMARK 923 INTER-LIGAND FREE ENERGY PREDICTED BY IDOCK:   -3.41 KCAL/MOL
REMARK 924 INTRA-LIGAND FREE ENERGY PREDICTED BY IDOCK:   -0.13 KCAL/MOL
REMARK 927      BINDING AFFINITY PREDICTED BY RF-SCORE:    0.00 PKD
ROOT
HETATM    1 FE   UNL     1      -9.281  13.215  64.779  1.00  0.00    -0.458 Fe 
HETATM    2  O   UNL     2     -11.107  12.653  65.477  1.00  0.00    -0.281 OA 
HETATM    3  C   UNL     2     -10.770  13.291  66.534  1.00  0.00    -0.285 C  
HETATM    4  O   UNL     2      -9.533  13.177  66.812  1.00  0.00    -0.239 OA 
HETATM    5  C   UNL     2     -11.518  14.553  66.861  1.00  0.00    -0.375 C  
ENDROOT
BRANCH   5   6
HETATM    6  C   UNL     2     -10.587  15.770  66.858  1.00  0.00    -0.317 C  
HETATM    7  C   UNL     2     -10.630  16.709  65.635  1.00  0.00    -0.270 C  
HETATM    8  O   UNL     2     -10.063  17.816  65.739  1.00  0.00    -0.555 OA 
HETATM    9  O   UNL     2     -11.175  16.228  64.571  1.00  0.00    -0.626 OA 
ENDBRANCH   5   6
TORSDOF 1
ENDMDL
MODEL       61
REMARK 921   NORMALIZED FREE ENERGY PREDICTED BY IDOCK:   -3.20 KCAL/MOL
REMARK 922        TOTAL FREE ENERGY PREDICTED BY IDOCK:   -3.54 KCAL/MOL
REMARK 923 INTER-LIGAND FREE ENERGY PREDICTED BY IDOCK:   -3.45 KCAL/MOL
REMARK 924 INTRA-LIGAND FREE ENERGY PREDICTED BY IDOCK:   -0.09 KCAL/MOL
REMARK 927      BINDING AFFINITY PREDICTED BY RF-SCORE:    0.00 PKD
ROOT
HETATM    1 FE   UNL     1     -12.497   6.147  72.977  1.00  0.00    -0.476 Fe 
HETATM    2  O   UNL     2     -11.418   5.987  71.259  1.00  0.00    -0.274 OA 
HETATM    3  C   UNL     2     -12.078   7.019  70.887  1.00  0.00    -0.357 C  
HETATM    4  O   UNL     2     -13.284   7.013  71.295  1.00  0.00    -0.358 OA 
HETATM    5  C   UNL     2     -11.328   8.310  70.723  1.00  0.00    -0.285 C  
ENDROOT
BRANCH   5   6
HETATM    6  C   UNL     2     -11.845   9.383  71.687  1.00  0.00    -0.464 C  
HETATM    7  C   UNL     2     -12.580  10.599  71.087  1.00  0.00    -0.423 C  
HETATM    8  O   UNL     2     -13.209  11.337  71.873  1.00  0.00    -0.482 OA 
HETATM    9  O   UNL     2     -12.405  10.800  69.825  1.00  0.00    -0.327 OA 
ENDBRANCH   5   6
TORSDOF 1
ENDMDL
MODEL       62
REMARK 921   NORMALIZED FREE ENERGY PREDICTED BY IDOCK:   -3.20 KCAL/MOL
REMARK 922        TOTAL FREE ENERGY PREDICTED BY IDOCK:   -3.54 KCAL/MOL
REMARK 923 INTER-LIGAND FREE ENERGY PREDICTED BY IDOCK:   -3.40 KCAL/MOL
REMARK 924 INTRA-LIGAND FREE ENERGY PREDICTED BY IDOCK:   -0.14 KCAL/MOL
REMARK 927      BINDING AFFINITY PREDICTED BY RF-SCORE:    0.00 PKD
ROOT
HETATM    1 FE   UNL     1     -10.638  17.883  65.436  1.00  0.00    -0.352 Fe 
HETATM    2  O   UNL     2     -10.762  19.912  65.516  1.00  0.00    -0.461 OA 
HETATM    3  C   UNL     2     -10.469  19.764  66.754  1.00  0.00    -0.489 C  
HETATM    4  O   UNL     2     -10.996  18.725  67.269  1.00  0.00    -0.412 OA 
HETATM    5  C   UNL     2      -9.132  20.262  67.225  1.00  0.00    -0.504 C  
ENDROOT
BRANCH   5   6
HETATM    6  C   UNL     2      -8.268  19.117  67.764  1.00  0.00    -0.319 C  
HETATM    7  C   UNL     2      -7.354  18.374  66.769  1.00  0.00    -0.212 C  
HETATM    8  O   UNL     2      -6.481  17.618  67.243  1.00  0.00    -0.148 OA 
HETATM    9  O   UNL     2      -7.632  18.529  65.519  1.00  0.00    -0.499 OA 
ENDBRANCH   5   6
TORSDOF 1
ENDMDL
MODEL       63
REMARK 921   NORMALIZED FREE ENERGY PREDICTED BY IDOCK:   -3.20 KCAL/MOL
REMARK 922        TOTAL FREE ENERGY PREDICTED BY IDOCK:   -3.53 KCAL/MOL
REMARK 923 INTER-LIGAND FREE ENERGY PREDICTED BY IDOCK:   -3.49 KCAL/MOL
REMARK 924 INTRA-LIGAND FREE ENERGY PREDICTED BY IDOCK:   -0.05 KCAL/MOL
REMARK 927      BINDING AFFINITY PREDICTED BY RF-SCORE:    0.00 PKD
ROOT
HETATM    1 FE   UNL     1     -11.118  17.230  66.962  1.00  0.00    -0.299 Fe 
HETATM    2  O   UNL     2      -9.736  15.982  67.781  1.00  0.00    -0.219 OA 
HETATM    3  C   UNL     2     -10.740  15.233  68.045  1.00  0.00    -0.268 C  
HETATM    4  O   UNL     2     -11.783  15.892  68.364  1.00  0.00    -0.358 OA 
HETATM    5  C   UNL     2     -10.852  13.924  67.316  1.00  0.00    -0.292 C  
ENDROOT
BRANCH   5   6
HETATM    6  C   UNL     2     -12.120  13.869  66.458  1.00  0.00    -0.484 C  
HETATM    7  C   UNL     2     -12.182  12.820  65.329  1.00  0.00    -0.483 C  
HETATM    8  O   UNL     2     -13.292  12.611  64.798  1.00  0.00    -0.787 OA 
HETATM    9  O   UNL     2     -11.054  12.312  64.966  1.00  0.00    -0.299 OA 
ENDBRANCH   5   6
TORSDOF 1
ENDMDL
MODEL       64
REMARK 921   NORMALIZED FREE ENERGY PREDICTED BY IDOCK:   -3.19 KCAL/MOL
REMARK 922        TOTAL FREE ENERGY PREDICTED BY IDOCK:   -3.52 KCAL/MOL
REMARK 923 INTER-LIGAND FREE ENERGY PREDICTED BY IDOCK:   -3.48 KCAL/MOL
REMARK 924 INTRA-LIGAND FREE ENERGY PREDICTED BY IDOCK:   -0.04 KCAL/MOL
REMARK 927      BINDING AFFINITY PREDICTED BY RF-SCORE:    0.00 PKD
ROOT
HETATM    1 FE   UNL     1     -13.927  10.039  70.121  1.00  0.00    -0.608 Fe 
HETATM    2  O   UNL     2     -12.996  11.561  71.098  1.00  0.00    -0.340 OA 
HETATM    3  C   UNL     2     -12.031  11.334  70.289  1.00  0.00    -0.379 C  
HETATM    4  O   UNL     2     -11.881  10.097  70.025  1.00  0.00    -0.240 OA 
HETATM    5  C   UNL     2     -11.715  12.382  69.259  1.00  0.00    -0.386 C  
ENDROOT
BRANCH   5   6
HETATM    6  C   UNL     2     -11.906  11.844  67.838  1.00  0.00    -0.308 C  
HETATM    7  C   UNL     2     -11.885  12.856  66.674  1.00  0.00    -0.395 C  
HETATM    8  O   UNL     2     -11.793  12.399  65.516  1.00  0.00    -0.397 OA 
HETATM    9  O   UNL     2     -12.056  14.093  66.996  1.00  0.00    -0.427 OA 
ENDBRANCH   5   6
TORSDOF 1
ENDMDL
MODEL       65
REMARK 921   NORMALIZED FREE ENERGY PREDICTED BY IDOCK:   -3.19 KCAL/MOL
REMARK 922        TOTAL FREE ENERGY PREDICTED BY IDOCK:   -3.52 KCAL/MOL
REMARK 923 INTER-LIGAND FREE ENERGY PREDICTED BY IDOCK:   -3.43 KCAL/MOL
REMARK 924 INTRA-LIGAND FREE ENERGY PREDICTED BY IDOCK:   -0.09 KCAL/MOL
REMARK 927      BINDING AFFINITY PREDICTED BY RF-SCORE:    0.00 PKD
ROOT
HETATM    1 FE   UNL     1     -10.915  11.759  70.457  1.00  0.00    -0.467 Fe 
HETATM    2  O   UNL     2     -12.766  12.132  71.211  1.00  0.00    -0.366 OA 
HETATM    3  C   UNL     2     -13.030  10.935  70.844  1.00  0.00    -0.257 C  
HETATM    4  O   UNL     2     -12.459  10.611  69.753  1.00  0.00    -0.280 OA 
HETATM    5  C   UNL     2     -13.277   9.910  71.915  1.00  0.00    -0.558 C  
ENDROOT
BRANCH   5   6
HETATM    6  C   UNL     2     -12.235   8.787  71.865  1.00  0.00    -0.429 C  
HETATM    7  C   UNL     2     -12.721   7.367  71.513  1.00  0.00    -0.372 C  
HETATM    8  O   UNL     2     -11.854   6.514  71.234  1.00  0.00    -0.326 OA 
HETATM    9  O   UNL     2     -13.988   7.157  71.627  1.00  0.00    -0.380 OA 
ENDBRANCH   5   6
TORSDOF 1
ENDMDL
MODEL       66
REMARK 921   NORMALIZED FREE ENERGY PREDICTED BY IDOCK:   -3.15 KCAL/MOL
REMARK 922        TOTAL FREE ENERGY PREDICTED BY IDOCK:   -3.48 KCAL/MOL
REMARK 923 INTER-LIGAND FREE ENERGY PREDICTED BY IDOCK:   -3.44 KCAL/MOL
REMARK 924 INTRA-LIGAND FREE ENERGY PREDICTED BY IDOCK:   -0.05 KCAL/MOL
REMARK 927      BINDING AFFINITY PREDICTED BY RF-SCORE:    0.00 PKD
ROOT
HETATM    1 FE   UNL     1     -12.688   8.710  70.107  1.00  0.00    -0.475 Fe 
HETATM    2  O   UNL     2     -13.682   9.184  71.818  1.00  0.00    -0.392 OA 
HETATM    3  C   UNL     2     -12.734  10.025  71.996  1.00  0.00    -0.347 C  
HETATM    4  O   UNL     2     -11.602   9.593  71.604  1.00  0.00    -0.382 OA 
HETATM    5  C   UNL     2     -13.068  11.488  71.913  1.00  0.00    -0.492 C  
ENDROOT
BRANCH   5   6
HETATM    6  C   UNL     2     -12.310  12.170  70.770  1.00  0.00    -0.391 C  
HETATM    7  C   UNL     2     -12.315  13.712  70.719  1.00  0.00    -0.371 C  
HETATM    8  O   UNL     2     -11.507  14.265  69.945  1.00  0.00    -0.261 OA 
HETATM    9  O   UNL     2     -13.225  14.298  71.420  1.00  0.00    -0.325 OA 
ENDBRANCH   5   6
TORSDOF 1
ENDMDL
MODEL       67
REMARK 921   NORMALIZED FREE ENERGY PREDICTED BY IDOCK:   -3.14 KCAL/MOL
REMARK 922        TOTAL FREE ENERGY PREDICTED BY IDOCK:   -3.48 KCAL/MOL
REMARK 923 INTER-LIGAND FREE ENERGY PREDICTED BY IDOCK:   -3.35 KCAL/MOL
REMARK 924 INTRA-LIGAND FREE ENERGY PREDICTED BY IDOCK:   -0.13 KCAL/MOL
REMARK 927      BINDING AFFINITY PREDICTED BY RF-SCORE:    0.00 PKD
ROOT
HETATM    1 FE   UNL     1     -10.554   7.948  70.999  1.00  0.00    -0.203 Fe 
HETATM    2  O   UNL     2     -11.955   6.650  70.301  1.00  0.00    -0.387 OA 
HETATM    3  C   UNL     2     -12.511   6.817  71.442  1.00  0.00    -0.329 C  
HETATM    4  O   UNL     2     -11.671   6.941  72.391  1.00  0.00    -0.270 OA 
HETATM    5  C   UNL     2     -13.828   7.537  71.484  1.00  0.00    -0.487 C  
ENDROOT
BRANCH   5   6
HETATM    6  C   UNL     2     -13.731   8.833  72.295  1.00  0.00    -0.494 C  
HETATM    7  C   UNL     2     -13.049  10.048  71.634  1.00  0.00    -0.445 C  
HETATM    8  O   UNL     2     -13.187  11.158  72.188  1.00  0.00    -0.481 OA 
HETATM    9  O   UNL     2     -12.313   9.795  70.606  1.00  0.00    -0.253 OA 
ENDBRANCH   5   6
TORSDOF 1
ENDMDL
MODEL       68
REMARK 921   NORMALIZED FREE ENERGY PREDICTED BY IDOCK:   -3.14 KCAL/MOL
REMARK 922        TOTAL FREE ENERGY PREDICTED BY IDOCK:   -3.48 KCAL/MOL
REMARK 923 INTER-LIGAND FREE ENERGY PREDICTED BY IDOCK:   -3.41 KCAL/MOL
REMARK 924 INTRA-LIGAND FREE ENERGY PREDICTED BY IDOCK:   -0.06 KCAL/MOL
REMARK 927      BINDING AFFINITY PREDICTED BY RF-SCORE:    0.00 PKD
ROOT
HETATM    1 FE   UNL     1     -10.550  14.804  72.168  1.00  0.00    -0.533 Fe 
HETATM    2  O   UNL     2     -11.906  14.255  70.756  1.00  0.00    -0.307 OA 
HETATM    3  C   UNL     2     -11.944  15.504  70.475  1.00  0.00    -0.371 C  
HETATM    4  O   UNL     2     -11.840  16.249  71.502  1.00  0.00    -0.458 OA 
HETATM    5  C   UNL     2     -11.391  15.943  69.148  1.00  0.00    -0.366 C  
ENDROOT
BRANCH   5   6
HETATM    6  C   UNL     2     -10.200  16.890  69.326  1.00  0.00    -0.262 C  
HETATM    7  C   UNL     2     -10.120  18.127  68.408  1.00  0.00    -0.388 C  
HETATM    8  O   UNL     2      -9.298  19.017  68.711  1.00  0.00    -0.355 OA 
HETATM    9  O   UNL     2     -10.851  18.093  67.346  1.00  0.00    -0.374 OA 
ENDBRANCH   5   6
TORSDOF 1
ENDMDL
MODEL       69
REMARK 921   NORMALIZED FREE ENERGY PREDICTED BY IDOCK:   -3.11 KCAL/MOL
REMARK 922        TOTAL FREE ENERGY PREDICTED BY IDOCK:   -3.44 KCAL/MOL
REMARK 923 INTER-LIGAND FREE ENERGY PREDICTED BY IDOCK:   -3.40 KCAL/MOL
REMARK 924 INTRA-LIGAND FREE ENERGY PREDICTED BY IDOCK:   -0.05 KCAL/MOL
REMARK 927      BINDING AFFINITY PREDICTED BY RF-SCORE:    0.00 PKD
ROOT
HETATM    1 FE   UNL     1     -11.613  19.535  67.200  1.00  0.00    -0.444 Fe 
HETATM    2  O   UNL     2     -10.713  18.731  65.564  1.00  0.00    -0.569 OA 
HETATM    3  C   UNL     2     -10.095  17.995  66.410  1.00  0.00    -0.384 C  
HETATM    4  O   UNL     2      -9.809  18.609  67.488  1.00  0.00    -0.303 OA 
HETATM    5  C   UNL     2     -10.406  16.525  66.423  1.00  0.00    -0.316 C  
ENDROOT
BRANCH   5   6
HETATM    6  C   UNL     2     -11.001  16.092  67.766  1.00  0.00    -0.307 C  
HETATM    7  C   UNL     2     -11.793  14.769  67.811  1.00  0.00    -0.294 C  
HETATM    8  O   UNL     2     -12.063  14.297  68.935  1.00  0.00    -0.330 OA 
HETATM    9  O   UNL     2     -12.190  14.308  66.674  1.00  0.00    -0.449 OA 
ENDBRANCH   5   6
TORSDOF 1
ENDMDL
MODEL       70
REMARK 921   NORMALIZED FREE ENERGY PREDICTED BY IDOCK:   -3.10 KCAL/MOL
REMARK 922        TOTAL FREE ENERGY PREDICTED BY IDOCK:   -3.43 KCAL/MOL
REMARK 923 INTER-LIGAND FREE ENERGY PREDICTED BY IDOCK:   -3.37 KCAL/MOL
REMARK 924 INTRA-LIGAND FREE ENERGY PREDICTED BY IDOCK:   -0.07 KCAL/MOL
REMARK 927      BINDING AFFINITY PREDICTED BY RF-SCORE:    0.00 PKD
ROOT
HETATM    1 FE   UNL     1     -12.654  13.127  65.898  1.00  0.00    -0.372 Fe 
HETATM    2  O   UNL     2     -11.150  13.164  64.529  1.00  0.00    -0.323 OA 
HETATM    3  C   UNL     2     -11.268  14.436  64.607  1.00  0.00    -0.360 C  
HETATM    4  O   UNL     2     -12.474  14.817  64.754  1.00  0.00    -0.401 OA 
HETATM    5  C   UNL     2     -10.138  15.210  65.225  1.00  0.00    -0.365 C  
ENDROOT
BRANCH   5   6
HETATM    6  C   UNL     2     -10.591  15.946  66.491  1.00  0.00    -0.297 C  
HETATM    7  C   UNL     2     -10.188  17.426  66.648  1.00  0.00    -0.324 C  
HETATM    8  O   UNL     2     -10.755  18.085  67.544  1.00  0.00    -0.404 OA 
HETATM    9  O   UNL     2      -9.226  17.835  65.893  1.00  0.00    -0.519 OA 
ENDBRANCH   5   6
TORSDOF 1
ENDMDL
MODEL       71
REMARK 921   NORMALIZED FREE ENERGY PREDICTED BY IDOCK:   -3.09 KCAL/MOL
REMARK 922        TOTAL FREE ENERGY PREDICTED BY IDOCK:   -3.42 KCAL/MOL
REMARK 923 INTER-LIGAND FREE ENERGY PREDICTED BY IDOCK:   -3.27 KCAL/MOL
REMARK 924 INTRA-LIGAND FREE ENERGY PREDICTED BY IDOCK:   -0.15 KCAL/MOL
REMARK 927      BINDING AFFINITY PREDICTED BY RF-SCORE:    0.00 PKD
ROOT
HETATM    1 FE   UNL     1      -7.243  18.246  67.187  1.00  0.00    -0.181 Fe 
HETATM    2  O   UNL     2      -8.250  17.186  68.600  1.00  0.00    -0.245 OA 
HETATM    3  C   UNL     2      -8.821  18.300  68.863  1.00  0.00    -0.121 C  
HETATM    4  O   UNL     2      -8.038  19.299  68.754  1.00  0.00    -0.356 OA 
HETATM    5  C   UNL     2     -10.283  18.433  68.545  1.00  0.00    -0.394 C  
ENDROOT
BRANCH   5   6
HETATM    6  C   UNL     2     -10.531  19.528  67.502  1.00  0.00    -0.596 C  
HETATM    7  C   UNL     2     -10.640  19.103  66.023  1.00  0.00    -0.442 C  
HETATM    8  O   UNL     2     -11.081  19.945  65.213  1.00  0.00    -0.360 OA 
HETATM    9  O   UNL     2     -10.177  17.935  65.733  1.00  0.00    -0.577 OA 
ENDBRANCH   5   6
TORSDOF 1
ENDMDL
MODEL       72
REMARK 921   NORMALIZED FREE ENERGY PREDICTED BY IDOCK:   -3.08 KCAL/MOL
REMARK 922        TOTAL FREE ENERGY PREDICTED BY IDOCK:   -3.41 KCAL/MOL
REMARK 923 INTER-LIGAND FREE ENERGY PREDICTED BY IDOCK:   -3.25 KCAL/MOL
REMARK 924 INTRA-LIGAND FREE ENERGY PREDICTED BY IDOCK:   -0.16 KCAL/MOL
REMARK 927      BINDING AFFINITY PREDICTED BY RF-SCORE:    0.00 PKD
ROOT
HETATM    1 FE   UNL     1     -10.816   9.636  68.720  1.00  0.00    -0.192 Fe 
HETATM    2  O   UNL     2     -10.456  11.611  69.046  1.00  0.00    -0.201 OA 
HETATM    3  C   UNL     2     -11.716  11.686  69.257  1.00  0.00    -0.331 C  
HETATM    4  O   UNL     2     -12.395  10.923  68.497  1.00  0.00    -0.490 OA 
HETATM    5  C   UNL     2     -12.178  11.986  70.655  1.00  0.00    -0.409 C  
ENDROOT
BRANCH   5   6
HETATM    6  C   UNL     2     -13.015  10.837  71.225  1.00  0.00    -0.502 C  
HETATM    7  C   UNL     2     -12.268   9.603  71.772  1.00  0.00    -0.384 C  
HETATM    8  O   UNL     2     -12.924   8.788  72.452  1.00  0.00    -0.392 OA 
HETATM    9  O   UNL     2     -11.040   9.474  71.401  1.00  0.00    -0.351 OA 
ENDBRANCH   5   6
TORSDOF 1
ENDMDL
MODEL       73
REMARK 921   NORMALIZED FREE ENERGY PREDICTED BY IDOCK:   -3.07 KCAL/MOL
REMARK 922        TOTAL FREE ENERGY PREDICTED BY IDOCK:   -3.40 KCAL/MOL
REMARK 923 INTER-LIGAND FREE ENERGY PREDICTED BY IDOCK:   -3.32 KCAL/MOL
REMARK 924 INTRA-LIGAND FREE ENERGY PREDICTED BY IDOCK:   -0.08 KCAL/MOL
REMARK 927      BINDING AFFINITY PREDICTED BY RF-SCORE:    0.00 PKD
ROOT
HETATM    1 FE   UNL     1      -8.661  19.372  65.451  1.00  0.00    -0.243 Fe 
HETATM    2  O   UNL     2      -9.630  19.414  67.239  1.00  0.00    -0.312 OA 
HETATM    3  C   UNL     2     -10.363  18.496  66.731  1.00  0.00    -0.401 C  
HETATM    4  O   UNL     2     -10.584  18.666  65.488  1.00  0.00    -0.608 OA 
HETATM    5  C   UNL     2     -10.263  17.114  67.311  1.00  0.00    -0.316 C  
ENDROOT
BRANCH   5   6
HETATM    6  C   UNL     2      -9.764  16.106  66.270  1.00  0.00    -0.332 C  
HETATM    7  C   UNL     2     -10.683  14.918  65.919  1.00  0.00    -0.323 C  
HETATM    8  O   UNL     2     -10.391  14.245  64.909  1.00  0.00    -0.418 OA 
HETATM    9  O   UNL     2     -11.629  14.666  66.757  1.00  0.00    -0.365 OA 
ENDBRANCH   5   6
TORSDOF 1
ENDMDL
MODEL       74
REMARK 921   NORMALIZED FREE ENERGY PREDICTED BY IDOCK:   -3.06 KCAL/MOL
REMARK 922        TOTAL FREE ENERGY PREDICTED BY IDOCK:   -3.39 KCAL/MOL
REMARK 923 INTER-LIGAND FREE ENERGY PREDICTED BY IDOCK:   -3.31 KCAL/MOL
REMARK 924 INTRA-LIGAND FREE ENERGY PREDICTED BY IDOCK:   -0.08 KCAL/MOL
REMARK 927      BINDING AFFINITY PREDICTED BY RF-SCORE:    0.00 PKD
ROOT
HETATM    1 FE   UNL     1     -12.023   9.649  67.924  1.00  0.00    -0.545 Fe 
HETATM    2  O   UNL     2     -10.330   9.870  69.029  1.00  0.00    -0.188 OA 
HETATM    3  C   UNL     2     -11.098  10.445  69.876  1.00  0.00    -0.305 C  
HETATM    4  O   UNL     2     -12.012  11.141  69.328  1.00  0.00    -0.322 OA 
HETATM    5  C   UNL     2     -11.342   9.753  71.187  1.00  0.00    -0.459 C  
ENDROOT
BRANCH   5   6
HETATM    6  C   UNL     2     -12.823   9.403  71.367  1.00  0.00    -0.423 C  
HETATM    7  C   UNL     2     -13.199   7.915  71.520  1.00  0.00    -0.306 C  
HETATM    8  O   UNL     2     -14.356   7.651  71.908  1.00  0.00    -0.399 OA 
HETATM    9  O   UNL     2     -12.307   7.064  71.145  1.00  0.00    -0.359 OA 
ENDBRANCH   5   6
TORSDOF 1
ENDMDL
MODEL       75
REMARK 921   NORMALIZED FREE ENERGY PREDICTED BY IDOCK:   -3.05 KCAL/MOL
REMARK 922        TOTAL FREE ENERGY PREDICTED BY IDOCK:   -3.38 KCAL/MOL
REMARK 923 INTER-LIGAND FREE ENERGY PREDICTED BY IDOCK:   -3.29 KCAL/MOL
REMARK 924 INTRA-LIGAND FREE ENERGY PREDICTED BY IDOCK:   -0.09 KCAL/MOL
REMARK 927      BINDING AFFINITY PREDICTED BY RF-SCORE:    0.00 PKD
ROOT
HETATM    1 FE   UNL     1     -11.266  17.940  67.228  1.00  0.00    -0.342 Fe 
HETATM    2  O   UNL     2     -10.579  17.577  65.348  1.00  0.00    -0.648 OA 
HETATM    3  C   UNL     2     -10.309  16.410  65.798  1.00  0.00    -0.369 C  
HETATM    4  O   UNL     2      -9.908  16.422  67.007  1.00  0.00    -0.240 OA 
HETATM    5  C   UNL     2     -11.100  15.250  65.263  1.00  0.00    -0.382 C  
ENDROOT
BRANCH   5   6
HETATM    6  C   UNL     2     -11.900  14.560  66.372  1.00  0.00    -0.361 C  
HETATM    7  C   UNL     2     -11.527  13.108  66.734  1.00  0.00    -0.343 C  
HETATM    8  O   UNL     2     -12.004  12.636  67.787  1.00  0.00    -0.347 OA 
HETATM    9  O   UNL     2     -10.822  12.470  65.863  1.00  0.00    -0.259 OA 
ENDBRANCH   5   6
TORSDOF 1
ENDMDL
MODEL       76
REMARK 921   NORMALIZED FREE ENERGY PREDICTED BY IDOCK:   -3.05 KCAL/MOL
REMARK 922        TOTAL FREE ENERGY PREDICTED BY IDOCK:   -3.38 KCAL/MOL
REMARK 923 INTER-LIGAND FREE ENERGY PREDICTED BY IDOCK:   -3.23 KCAL/MOL
REMARK 924 INTRA-LIGAND FREE ENERGY PREDICTED BY IDOCK:   -0.15 KCAL/MOL
REMARK 927      BINDING AFFINITY PREDICTED BY RF-SCORE:    0.00 PKD
ROOT
HETATM    1 FE   UNL     1      -8.992  11.731  64.604  1.00  0.00    -0.340 Fe 
HETATM    2  O   UNL     2      -9.552  10.174  65.787  1.00  0.00    -0.195 OA 
HETATM    3  C   UNL     2      -9.803  11.078  66.658  1.00  0.00    -0.200 C  
HETATM    4  O   UNL     2      -8.972  12.043  66.629  1.00  0.00    -0.199 OA 
HETATM    5  C   UNL     2     -11.239  11.312  67.033  1.00  0.00    -0.324 C  
ENDROOT
BRANCH   5   6
HETATM    6  C   UNL     2     -11.684  12.734  66.678  1.00  0.00    -0.459 C  
HETATM    7  C   UNL     2     -12.431  12.945  65.345  1.00  0.00    -0.454 C  
HETATM    8  O   UNL     2     -13.003  14.041  65.173  1.00  0.00    -0.744 OA 
HETATM    9  O   UNL     2     -12.322  11.996  64.479  1.00  0.00    -0.318 OA 
ENDBRANCH   5   6
TORSDOF 1
ENDMDL
MODEL       77
REMARK 921   NORMALIZED FREE ENERGY PREDICTED BY IDOCK:   -3.05 KCAL/MOL
REMARK 922        TOTAL FREE ENERGY PREDICTED BY IDOCK:   -3.38 KCAL/MOL
REMARK 923 INTER-LIGAND FREE ENERGY PREDICTED BY IDOCK:   -3.25 KCAL/MOL
REMARK 924 INTRA-LIGAND FREE ENERGY PREDICTED BY IDOCK:   -0.13 KCAL/MOL
REMARK 927      BINDING AFFINITY PREDICTED BY RF-SCORE:    0.00 PKD
ROOT
HETATM    1 FE   UNL     1     -14.046   9.759  70.074  1.00  0.00    -0.661 Fe 
HETATM    2  O   UNL     2     -13.633  10.166  72.024  1.00  0.00    -0.358 OA 
HETATM    3  C   UNL     2     -13.481   8.900  72.135  1.00  0.00    -0.448 C  
HETATM    4  O   UNL     2     -14.300   8.235  71.421  1.00  0.00    -0.412 OA 
HETATM    5  C   UNL     2     -12.098   8.379  72.404  1.00  0.00    -0.443 C  
ENDROOT
BRANCH   5   6
HETATM    6  C   UNL     2     -11.609   7.478  71.265  1.00  0.00    -0.305 C  
HETATM    7  C   UNL     2     -10.974   8.154  70.032  1.00  0.00    -0.199 C  
HETATM    8  O   UNL     2     -10.361   7.424  69.227  1.00  0.00    -0.195 OA 
HETATM    9  O   UNL     2     -11.211   9.414  69.892  1.00  0.00    -0.230 OA 
ENDBRANCH   5   6
TORSDOF 1
ENDMDL
MODEL       78
REMARK 921   NORMALIZED FREE ENERGY PREDICTED BY IDOCK:   -3.00 KCAL/MOL
REMARK 922        TOTAL FREE ENERGY PREDICTED BY IDOCK:   -3.32 KCAL/MOL
REMARK 923 INTER-LIGAND FREE ENERGY PREDICTED BY IDOCK:   -3.19 KCAL/MOL
REMARK 924 INTRA-LIGAND FREE ENERGY PREDICTED BY IDOCK:   -0.13 KCAL/MOL
REMARK 927      BINDING AFFINITY PREDICTED BY RF-SCORE:    0.00 PKD
ROOT
HETATM    1 FE   UNL     1     -12.641  14.728  67.959  1.00  0.00    -0.517 Fe 
HETATM    2  O   UNL     2     -12.890  14.163  66.021  1.00  0.00    -0.425 OA 
HETATM    3  C   UNL     2     -11.614  14.057  66.010  1.00  0.00    -0.357 C  
HETATM    4  O   UNL     2     -11.034  14.951  66.707  1.00  0.00    -0.314 OA 
HETATM    5  C   UNL     2     -11.024  12.681  65.880  1.00  0.00    -0.310 C  
ENDROOT
BRANCH   5   6
HETATM    6  C   UNL     2     -10.191  12.312  67.112  1.00  0.00    -0.224 C  
HETATM    7  C   UNL     2     -10.798  11.316  68.122  1.00  0.00    -0.217 C  
HETATM    8  O   UNL     2     -10.035  10.832  68.982  1.00  0.00    -0.196 OA 
HETATM    9  O   UNL     2     -12.073  11.138  68.045  1.00  0.00    -0.635 OA 
ENDBRANCH   5   6
TORSDOF 1
ENDMDL
MODEL       79
REMARK 921   NORMALIZED FREE ENERGY PREDICTED BY IDOCK:   -2.97 KCAL/MOL
REMARK 922        TOTAL FREE ENERGY PREDICTED BY IDOCK:   -3.29 KCAL/MOL
REMARK 923 INTER-LIGAND FREE ENERGY PREDICTED BY IDOCK:   -3.21 KCAL/MOL
REMARK 924 INTRA-LIGAND FREE ENERGY PREDICTED BY IDOCK:   -0.08 KCAL/MOL
REMARK 927      BINDING AFFINITY PREDICTED BY RF-SCORE:    0.00 PKD
ROOT
HETATM    1 FE   UNL     1     -10.405  14.727  69.481  1.00  0.00    -0.192 Fe 
HETATM    2  O   UNL     2     -10.916  12.769  69.283  1.00  0.00    -0.184 OA 
HETATM    3  C   UNL     2     -11.711  13.189  68.373  1.00  0.00    -0.351 C  
HETATM    4  O   UNL     2     -12.231  14.319  68.648  1.00  0.00    -0.291 OA 
HETATM    5  C   UNL     2     -11.417  12.805  66.950  1.00  0.00    -0.396 C  
ENDROOT
BRANCH   5   6
HETATM    6  C   UNL     2     -11.142  14.039  66.084  1.00  0.00    -0.302 C  
HETATM    7  C   UNL     2     -12.089  14.314  64.899  1.00  0.00    -0.435 C  
HETATM    8  O   UNL     2     -12.017  15.434  64.352  1.00  0.00    -0.396 OA 
HETATM    9  O   UNL     2     -12.818  13.323  64.515  1.00  0.00    -0.665 OA 
ENDBRANCH   5   6
TORSDOF 1
ENDMDL
MODEL       80
REMARK 921   NORMALIZED FREE ENERGY PREDICTED BY IDOCK:   -2.97 KCAL/MOL
REMARK 922        TOTAL FREE ENERGY PREDICTED BY IDOCK:   -3.29 KCAL/MOL
REMARK 923 INTER-LIGAND FREE ENERGY PREDICTED BY IDOCK:   -3.13 KCAL/MOL
REMARK 924 INTRA-LIGAND FREE ENERGY PREDICTED BY IDOCK:   -0.16 KCAL/MOL
REMARK 927      BINDING AFFINITY PREDICTED BY RF-SCORE:    0.00 PKD
ROOT
HETATM    1 FE   UNL     1     -12.444  12.899  65.842  1.00  0.00    -0.367 Fe 
HETATM    2  O   UNL     2     -10.555  12.772  65.098  1.00  0.00    -0.287 OA 
HETATM    3  C   UNL     2     -10.660  14.037  64.934  1.00  0.00    -0.424 C  
HETATM    4  O   UNL     2     -11.831  14.399  64.589  1.00  0.00    -0.405 OA 
HETATM    5  C   UNL     2      -9.799  14.929  65.783  1.00  0.00    -0.380 C  
ENDROOT
BRANCH   5   6
HETATM    6  C   UNL     2     -10.648  15.835  66.681  1.00  0.00    -0.307 C  
HETATM    7  C   UNL     2     -11.215  15.234  67.983  1.00  0.00    -0.326 C  
HETATM    8  O   UNL     2     -11.690  16.025  68.823  1.00  0.00    -0.385 OA 
HETATM    9  O   UNL     2     -11.231  13.947  68.052  1.00  0.00    -0.252 OA 
ENDBRANCH   5   6
TORSDOF 1
ENDMDL
MODEL       81
REMARK 921   NORMALIZED FREE ENERGY PREDICTED BY IDOCK:   -2.96 KCAL/MOL
REMARK 922        TOTAL FREE ENERGY PREDICTED BY IDOCK:   -3.28 KCAL/MOL
REMARK 923 INTER-LIGAND FREE ENERGY PREDICTED BY IDOCK:   -3.15 KCAL/MOL
REMARK 924 INTRA-LIGAND FREE ENERGY PREDICTED BY IDOCK:   -0.14 KCAL/MOL
REMARK 927      BINDING AFFINITY PREDICTED BY RF-SCORE:    0.00 PKD
ROOT
HETATM    1 FE   UNL     1     -12.841  13.835  67.931  1.00  0.00    -0.376 Fe 
HETATM    2  O   UNL     2     -12.085  12.298  66.833  1.00  0.00    -0.583 OA 
HETATM    3  C   UNL     2     -11.926  13.182  65.921  1.00  0.00    -0.427 C  
HETATM    4  O   UNL     2     -12.864  14.043  65.893  1.00  0.00    -0.484 OA 
HETATM    5  C   UNL     2     -10.521  13.564  65.549  1.00  0.00    -0.304 C  
ENDROOT
BRANCH   5   6
HETATM    6  C   UNL     2     -10.250  15.044  65.838  1.00  0.00    -0.335 C  
HETATM    7  C   UNL     2      -9.718  15.421  67.236  1.00  0.00    -0.212 C  
HETATM    8  O   UNL     2      -9.269  16.575  67.389  1.00  0.00    -0.213 OA 
HETATM    9  O   UNL     2      -9.868  14.532  68.157  1.00  0.00    -0.213 OA 
ENDBRANCH   5   6
TORSDOF 1
ENDMDL
MODEL       82
REMARK 921   NORMALIZED FREE ENERGY PREDICTED BY IDOCK:   -2.93 KCAL/MOL
REMARK 922        TOTAL FREE ENERGY PREDICTED BY IDOCK:   -3.25 KCAL/MOL
REMARK 923 INTER-LIGAND FREE ENERGY PREDICTED BY IDOCK:   -3.21 KCAL/MOL
REMARK 924 INTRA-LIGAND FREE ENERGY PREDICTED BY IDOCK:   -0.04 KCAL/MOL
REMARK 927      BINDING AFFINITY PREDICTED BY RF-SCORE:    0.00 PKD
ROOT
HETATM    1 FE   UNL     1     -11.454  14.971  66.418  1.00  0.00    -0.321 Fe 
HETATM    2  O   UNL     2      -9.438  14.900  66.159  1.00  0.00    -0.284 OA 
HETATM    3  C   UNL     2      -9.567  16.103  65.742  1.00  0.00    -0.257 C  
HETATM    4  O   UNL     2     -10.638  16.289  65.078  1.00  0.00    -0.620 OA 
HETATM    5  C   UNL     2      -8.983  17.204  66.581  1.00  0.00    -0.278 C  
ENDROOT
BRANCH   5   6
HETATM    6  C   UNL     2     -10.069  18.165  67.077  1.00  0.00    -0.357 C  
HETATM    7  C   UNL     2      -9.670  19.225  68.123  1.00  0.00    -0.363 C  
HETATM    8  O   UNL     2     -10.479  20.151  68.341  1.00  0.00    -0.373 OA 
HETATM    9  O   UNL     2      -8.566  19.012  68.754  1.00  0.00    -0.354 OA 
ENDBRANCH   5   6
TORSDOF 1
ENDMDL
MODEL       83
REMARK 921   NORMALIZED FREE ENERGY PREDICTED BY IDOCK:   -2.92 KCAL/MOL
REMARK 922        TOTAL FREE ENERGY PREDICTED BY IDOCK:   -3.24 KCAL/MOL
REMARK 923 INTER-LIGAND FREE ENERGY PREDICTED BY IDOCK:   -3.19 KCAL/MOL
REMARK 924 INTRA-LIGAND FREE ENERGY PREDICTED BY IDOCK:   -0.05 KCAL/MOL
REMARK 927      BINDING AFFINITY PREDICTED BY RF-SCORE:    0.00 PKD
ROOT
HETATM    1 FE   UNL     1     -14.317   7.436  70.697  1.00  0.00    -0.590 Fe 
HETATM    2  O   UNL     2     -14.391   8.745  72.252  1.00  0.00    -0.456 OA 
HETATM    3  C   UNL     2     -13.119   8.612  72.273  1.00  0.00    -0.372 C  
HETATM    4  O   UNL     2     -12.737   7.427  72.001  1.00  0.00    -0.284 OA 
HETATM    5  C   UNL     2     -12.281   9.796  71.883  1.00  0.00    -0.378 C  
ENDROOT
BRANCH   5   6
HETATM    6  C   UNL     2     -11.436   9.499  70.640  1.00  0.00    -0.362 C  
HETATM    7  C   UNL     2     -10.021   8.923  70.850  1.00  0.00    -0.242 C  
HETATM    8  O   UNL     2      -9.435   8.455  69.852  1.00  0.00    -0.164 OA 
HETATM    9  O   UNL     2      -9.525   9.057  72.033  1.00  0.00    -0.339 OA 
ENDBRANCH   5   6
TORSDOF 1
ENDMDL
MODEL       84
REMARK 921   NORMALIZED FREE ENERGY PREDICTED BY IDOCK:   -2.89 KCAL/MOL
REMARK 922        TOTAL FREE ENERGY PREDICTED BY IDOCK:   -3.21 KCAL/MOL
REMARK 923 INTER-LIGAND FREE ENERGY PREDICTED BY IDOCK:   -3.15 KCAL/MOL
REMARK 924 INTRA-LIGAND FREE ENERGY PREDICTED BY IDOCK:   -0.06 KCAL/MOL
REMARK 927      BINDING AFFINITY PREDICTED BY RF-SCORE:    0.00 PKD
ROOT
HETATM    1 FE   UNL     1     -10.252  16.406  70.024  1.00  0.00    -0.237 Fe 
HETATM    2  O   UNL     2     -11.724  15.532  71.123  1.00  0.00    -0.316 OA 
HETATM    3  C   UNL     2     -12.086  15.013  70.011  1.00  0.00    -0.337 C  
HETATM    4  O   UNL     2     -11.933  15.799  69.021  1.00  0.00    -0.385 OA 
HETATM    5  C   UNL     2     -11.929  13.528  69.844  1.00  0.00    -0.416 C  
ENDROOT
BRANCH   5   6
HETATM    6  C   UNL     2     -10.959  13.193  68.706  1.00  0.00    -0.298 C  
HETATM    7  C   UNL     2     -11.338  12.045  67.749  1.00  0.00    -0.303 C  
HETATM    8  O   UNL     2     -10.682  11.935  66.693  1.00  0.00    -0.236 OA 
HETATM    9  O   UNL     2     -12.250  11.235  68.170  1.00  0.00    -0.622 OA 
ENDBRANCH   5   6
TORSDOF 1
ENDMDL
MODEL       85
REMARK 921   NORMALIZED FREE ENERGY PREDICTED BY IDOCK:   -2.89 KCAL/MOL
REMARK 922        TOTAL FREE ENERGY PREDICTED BY IDOCK:   -3.21 KCAL/MOL
REMARK 923 INTER-LIGAND FREE ENERGY PREDICTED BY IDOCK:   -3.07 KCAL/MOL
REMARK 924 INTRA-LIGAND FREE ENERGY PREDICTED BY IDOCK:   -0.14 KCAL/MOL
REMARK 927      BINDING AFFINITY PREDICTED BY RF-SCORE:    0.00 PKD
ROOT
HETATM    1 FE   UNL     1     -11.757  19.514  67.266  1.00  0.00    -0.438 Fe 
HETATM    2  O   UNL     2     -10.667  19.669  65.556  1.00  0.00    -0.473 OA 
HETATM    3  C   UNL     2      -9.694  19.949  66.340  1.00  0.00    -0.447 C  
HETATM    4  O   UNL     2     -10.049  20.643  67.346  1.00  0.00    -0.392 OA 
HETATM    5  C   UNL     2      -8.572  18.956  66.449  1.00  0.00    -0.301 C  
ENDROOT
BRANCH   5   6
HETATM    6  C   UNL     2      -8.446  18.410  67.875  1.00  0.00    -0.274 C  
HETATM    7  C   UNL     2      -9.241  17.138  68.234  1.00  0.00    -0.262 C  
HETATM    8  O   UNL     2      -8.951  16.561  69.302  1.00  0.00    -0.205 OA 
HETATM    9  O   UNL     2     -10.206  16.830  67.437  1.00  0.00    -0.275 OA 
ENDBRANCH   5   6
TORSDOF 1
ENDMDL
MODEL       86
REMARK 921   NORMALIZED FREE ENERGY PREDICTED BY IDOCK:   -2.89 KCAL/MOL
REMARK 922        TOTAL FREE ENERGY PREDICTED BY IDOCK:   -3.21 KCAL/MOL
REMARK 923 INTER-LIGAND FREE ENERGY PREDICTED BY IDOCK:   -3.16 KCAL/MOL
REMARK 924 INTRA-LIGAND FREE ENERGY PREDICTED BY IDOCK:   -0.05 KCAL/MOL
REMARK 927      BINDING AFFINITY PREDICTED BY RF-SCORE:    0.00 PKD
ROOT
HETATM    1 FE   UNL     1     -12.288  10.264  68.662  1.00  0.00    -0.506 Fe 
HETATM    2  O   UNL     2     -10.476  11.016  68.125  1.00  0.00    -0.175 OA 
HETATM    3  C   UNL     2     -11.110  12.116  67.967  1.00  0.00    -0.244 C  
HETATM    4  O   UNL     2     -12.284  11.953  67.503  1.00  0.00    -0.510 OA 
HETATM    5  C   UNL     2     -10.809  13.243  68.915  1.00  0.00    -0.245 C  
ENDROOT
BRANCH   5   6
HETATM    6  C   UNL     2     -12.046  13.635  69.729  1.00  0.00    -0.396 C  
HETATM    7  C   UNL     2     -12.125  15.075  70.275  1.00  0.00    -0.329 C  
HETATM    8  O   UNL     2     -13.225  15.463  70.718  1.00  0.00    -0.451 OA 
HETATM    9  O   UNL     2     -11.014  15.728  70.309  1.00  0.00    -0.303 OA 
ENDBRANCH   5   6
TORSDOF 1
ENDMDL
MODEL       87
REMARK 921   NORMALIZED FREE ENERGY PREDICTED BY IDOCK:   -2.88 KCAL/MOL
REMARK 922        TOTAL FREE ENERGY PREDICTED BY IDOCK:   -3.19 KCAL/MOL
REMARK 923 INTER-LIGAND FREE ENERGY PREDICTED BY IDOCK:   -3.10 KCAL/MOL
REMARK 924 INTRA-LIGAND FREE ENERGY PREDICTED BY IDOCK:   -0.09 KCAL/MOL
REMARK 927      BINDING AFFINITY PREDICTED BY RF-SCORE:    0.00 PKD
ROOT
HETATM    1 FE   UNL     1     -10.640  20.464  67.010  1.00  0.00    -0.394 Fe 
HETATM    2  O   UNL     2      -8.703  20.048  67.470  1.00  0.00    -0.326 OA 
HETATM    3  C   UNL     2      -9.203  19.252  68.339  1.00  0.00    -0.356 C  
HETATM    4  O   UNL     2     -10.266  19.704  68.875  1.00  0.00    -0.438 OA 
HETATM    5  C   UNL     2      -9.015  17.776  68.132  1.00  0.00    -0.271 C  
ENDROOT
BRANCH   5   6
HETATM    6  C   UNL     2     -10.358  17.061  67.956  1.00  0.00    -0.341 C  
HETATM    7  C   UNL     2     -10.818  16.105  69.076  1.00  0.00    -0.299 C  
HETATM    8  O   UNL     2     -12.005  15.719  69.051  1.00  0.00    -0.385 OA 
HETATM    9  O   UNL     2      -9.904  15.712  69.896  1.00  0.00    -0.290 OA 
ENDBRANCH   5   6
TORSDOF 1
ENDMDL
MODEL       88
REMARK 921   NORMALIZED FREE ENERGY PREDICTED BY IDOCK:   -2.87 KCAL/MOL
REMARK 922        TOTAL FREE ENERGY PREDICTED BY IDOCK:   -3.18 KCAL/MOL
REMARK 923 INTER-LIGAND FREE ENERGY PREDICTED BY IDOCK:   -3.10 KCAL/MOL
REMARK 924 INTRA-LIGAND FREE ENERGY PREDICTED BY IDOCK:   -0.08 KCAL/MOL
REMARK 927      BINDING AFFINITY PREDICTED BY RF-SCORE:    0.00 PKD
ROOT
HETATM    1 FE   UNL     1     -11.985   6.963  67.447  1.00  0.00    -0.561 Fe 
HETATM    2  O   UNL     2     -10.632   5.737  68.345  1.00  0.00    -0.218 OA 
HETATM    3  C   UNL     2     -10.569   6.653  69.237  1.00  0.00    -0.238 C  
HETATM    4  O   UNL     2     -10.664   7.827  68.753  1.00  0.00    -0.170 OA 
HETATM    5  C   UNL     2     -11.108   6.340  70.604  1.00  0.00    -0.389 C  
ENDROOT
BRANCH   5   6
HETATM    6  C   UNL     2     -12.281   7.256  70.966  1.00  0.00    -0.350 C  
HETATM    7  C   UNL     2     -12.148   8.135  72.226  1.00  0.00    -0.364 C  
HETATM    8  O   UNL     2     -12.985   9.048  72.382  1.00  0.00    -0.408 OA 
HETATM    9  O   UNL     2     -11.230   7.790  73.063  1.00  0.00    -0.405 OA 
ENDBRANCH   5   6
TORSDOF 1
ENDMDL
MODEL       89
REMARK 921   NORMALIZED FREE ENERGY PREDICTED BY IDOCK:   -2.84 KCAL/MOL
REMARK 922        TOTAL FREE ENERGY PREDICTED BY IDOCK:   -3.16 KCAL/MOL
REMARK 923 INTER-LIGAND FREE ENERGY PREDICTED BY IDOCK:   -3.11 KCAL/MOL
REMARK 924 INTRA-LIGAND FREE ENERGY PREDICTED BY IDOCK:   -0.05 KCAL/MOL
REMARK 927      BINDING AFFINITY PREDICTED BY RF-SCORE:    0.00 PKD
ROOT
HETATM    1 FE   UNL     1     -12.503  15.896  72.621  1.00  0.00    -0.307 Fe 
HETATM    2  O   UNL     2     -12.492  14.050  71.767  1.00  0.00    -0.313 OA 
HETATM    3  C   UNL     2     -12.824  14.671  70.698  1.00  0.00    -0.342 C  
HETATM    4  O   UNL     2     -13.608  15.651  70.913  1.00  0.00    -0.568 OA 
HETATM    5  C   UNL     2     -11.827  14.719  69.574  1.00  0.00    -0.366 C  
ENDROOT
BRANCH   5   6
HETATM    6  C   UNL     2     -11.405  16.158  69.262  1.00  0.00    -0.328 C  
HETATM    7  C   UNL     2     -10.583  16.408  67.981  1.00  0.00    -0.314 C  
HETATM    8  O   UNL     2     -10.453  17.590  67.601  1.00  0.00    -0.349 OA 
HETATM    9  O   UNL     2     -10.021  15.372  67.458  1.00  0.00    -0.224 OA 
ENDBRANCH   5   6
TORSDOF 1
ENDMDL
MODEL       90
REMARK 921   NORMALIZED FREE ENERGY PREDICTED BY IDOCK:   -2.84 KCAL/MOL
REMARK 922        TOTAL FREE ENERGY PREDICTED BY IDOCK:   -3.15 KCAL/MOL
REMARK 923 INTER-LIGAND FREE ENERGY PREDICTED BY IDOCK:   -3.06 KCAL/MOL
REMARK 924 INTRA-LIGAND FREE ENERGY PREDICTED BY IDOCK:   -0.09 KCAL/MOL
REMARK 927      BINDING AFFINITY PREDICTED BY RF-SCORE:    0.00 PKD
ROOT
HETATM    1 FE   UNL     1      -9.634  13.252  64.515  1.00  0.00    -0.469 Fe 
HETATM    2  O   UNL     2     -10.637  11.568  65.060  1.00  0.00    -0.277 OA 
HETATM    3  C   UNL     2     -10.690  12.115  66.216  1.00  0.00    -0.261 C  
HETATM    4  O   UNL     2      -9.637  12.770  66.506  1.00  0.00    -0.247 OA 
HETATM    5  C   UNL     2     -12.033  12.555  66.725  1.00  0.00    -0.327 C  
ENDROOT
BRANCH   5   6
HETATM    6  C   UNL     2     -12.077  14.071  66.948  1.00  0.00    -0.465 C  
HETATM    7  C   UNL     2     -11.882  14.594  68.385  1.00  0.00    -0.295 C  
HETATM    8  O   UNL     2     -11.673  15.816  68.530  1.00  0.00    -0.383 OA 
HETATM    9  O   UNL     2     -12.043  13.730  69.329  1.00  0.00    -0.334 OA 
ENDBRANCH   5   6
TORSDOF 1
ENDMDL
MODEL       91
REMARK 921   NORMALIZED FREE ENERGY PREDICTED BY IDOCK:   -2.84 KCAL/MOL
REMARK 922        TOTAL FREE ENERGY PREDICTED BY IDOCK:   -3.15 KCAL/MOL
REMARK 923 INTER-LIGAND FREE ENERGY PREDICTED BY IDOCK:   -3.01 KCAL/MOL
REMARK 924 INTRA-LIGAND FREE ENERGY PREDICTED BY IDOCK:   -0.15 KCAL/MOL
REMARK 927      BINDING AFFINITY PREDICTED BY RF-SCORE:    0.00 PKD
ROOT
HETATM    1 FE   UNL     1      -8.184  15.622  66.802  1.00  0.00    -0.142 Fe 
HETATM    2  O   UNL     2      -9.776  14.897  67.840  1.00  0.00    -0.204 OA 
HETATM    3  C   UNL     2      -9.730  16.014  68.463  1.00  0.00    -0.214 C  
HETATM    4  O   UNL     2      -8.542  16.432  68.649  1.00  0.00    -0.213 OA 
HETATM    5  C   UNL     2     -10.861  16.982  68.255  1.00  0.00    -0.341 C  
ENDROOT
BRANCH   5   6
HETATM    6  C   UNL     2     -10.369  18.288  67.623  1.00  0.00    -0.414 C  
HETATM    7  C   UNL     2     -10.393  18.398  66.084  1.00  0.00    -0.407 C  
HETATM    8  O   UNL     2     -10.229  19.531  65.586  1.00  0.00    -0.437 OA 
HETATM    9  O   UNL     2     -10.490  17.287  65.438  1.00  0.00    -0.635 OA 
ENDBRANCH   5   6
TORSDOF 1
ENDMDL
MODEL       92
REMARK 921   NORMALIZED FREE ENERGY PREDICTED BY IDOCK:   -2.82 KCAL/MOL
REMARK 922        TOTAL FREE ENERGY PREDICTED BY IDOCK:   -3.14 KCAL/MOL
REMARK 923 INTER-LIGAND FREE ENERGY PREDICTED BY IDOCK:   -2.98 KCAL/MOL
REMARK 924 INTRA-LIGAND FREE ENERGY PREDICTED BY IDOCK:   -0.16 KCAL/MOL
REMARK 927      BINDING AFFINITY PREDICTED BY RF-SCORE:    0.00 PKD
ROOT
HETATM    1 FE   UNL     1     -10.790   6.754  74.078  1.00  0.00    -0.275 Fe 
HETATM    2  O   UNL     2      -9.845   6.188  72.369  1.00  0.00    -0.165 OA 
HETATM    3  C   UNL     2     -11.000   5.773  72.006  1.00  0.00    -0.260 C  
HETATM    4  O   UNL     2     -11.676   5.279  72.966  1.00  0.00    -0.294 OA 
HETATM    5  C   UNL     2     -11.682   6.490  70.875  1.00  0.00    -0.416 C  
ENDROOT
BRANCH   5   6
HETATM    6  C   UNL     2     -12.997   7.129  71.332  1.00  0.00    -0.419 C  
HETATM    7  C   UNL     2     -12.924   8.477  72.078  1.00  0.00    -0.371 C  
HETATM    8  O   UNL     2     -13.989   9.109  72.229  1.00  0.00    -0.450 OA 
HETATM    9  O   UNL     2     -11.772   8.793  72.564  1.00  0.00    -0.326 OA 
ENDBRANCH   5   6
TORSDOF 1
ENDMDL
MODEL       93
REMARK 921   NORMALIZED FREE ENERGY PREDICTED BY IDOCK:   -2.80 KCAL/MOL
REMARK 922        TOTAL FREE ENERGY PREDICTED BY IDOCK:   -3.12 KCAL/MOL
REMARK 923 INTER-LIGAND FREE ENERGY PREDICTED BY IDOCK:   -2.98 KCAL/MOL
REMARK 924 INTRA-LIGAND FREE ENERGY PREDICTED BY IDOCK:   -0.13 KCAL/MOL
REMARK 927      BINDING AFFINITY PREDICTED BY RF-SCORE:    0.00 PKD
ROOT
HETATM    1 FE   UNL     1     -12.122   8.428  69.588  1.00  0.00    -0.444 Fe 
HETATM    2  O   UNL     2     -13.280   8.377  71.260  1.00  0.00    -0.252 OA 
HETATM    3  C   UNL     2     -12.442   7.501  71.672  1.00  0.00    -0.342 C  
HETATM    4  O   UNL     2     -12.022   6.738  70.743  1.00  0.00    -0.374 OA 
HETATM    5  C   UNL     2     -11.553   7.867  72.826  1.00  0.00    -0.387 C  
ENDROOT
BRANCH   5   6
HETATM    6  C   UNL     2     -10.076   7.847  72.422  1.00  0.00    -0.310 C  
HETATM    7  C   UNL     2      -9.538   9.033  71.595  1.00  0.00    -0.248 C  
HETATM    8  O   UNL     2      -8.300   9.139  71.479  1.00  0.00    -0.336 OA 
HETATM    9  O   UNL     2     -10.425   9.768  71.016  1.00  0.00    -0.290 OA 
ENDBRANCH   5   6
TORSDOF 1
ENDMDL
MODEL       94
REMARK 921   NORMALIZED FREE ENERGY PREDICTED BY IDOCK:   -2.79 KCAL/MOL
REMARK 922        TOTAL FREE ENERGY PREDICTED BY IDOCK:   -3.10 KCAL/MOL
REMARK 923 INTER-LIGAND FREE ENERGY PREDICTED BY IDOCK:   -3.00 KCAL/MOL
REMARK 924 INTRA-LIGAND FREE ENERGY PREDICTED BY IDOCK:   -0.10 KCAL/MOL
REMARK 927      BINDING AFFINITY PREDICTED BY RF-SCORE:    0.00 PKD
ROOT
HETATM    1 FE   UNL     1     -10.977   7.240  70.826  1.00  0.00    -0.222 Fe 
HETATM    2  O   UNL     2     -11.490   8.308  72.479  1.00  0.00    -0.378 OA 
HETATM    3  C   UNL     2     -11.218   9.331  71.759  1.00  0.00    -0.343 C  
HETATM    4  O   UNL     2     -10.230   9.142  70.977  1.00  0.00    -0.251 OA 
HETATM    5  C   UNL     2     -12.352  10.231  71.359  1.00  0.00    -0.502 C  
ENDROOT
BRANCH   5   6
HETATM    6  C   UNL     2     -12.525  10.270  69.837  1.00  0.00    -0.042 C  
HETATM    7  C   UNL     2     -12.017  11.517  69.085  1.00  0.00    -0.320 C  
HETATM    8  O   UNL     2     -11.933  11.444  67.841  1.00  0.00    -0.626 OA 
HETATM    9  O   UNL     2     -11.807  12.566  69.804  1.00  0.00    -0.315 OA 
ENDBRANCH   5   6
TORSDOF 1
ENDMDL
MODEL       95
REMARK 921   NORMALIZED FREE ENERGY PREDICTED BY IDOCK:   -2.78 KCAL/MOL
REMARK 922        TOTAL FREE ENERGY PREDICTED BY IDOCK:   -3.09 KCAL/MOL
REMARK 923 INTER-LIGAND FREE ENERGY PREDICTED BY IDOCK:   -3.05 KCAL/MOL
REMARK 924 INTRA-LIGAND FREE ENERGY PREDICTED BY IDOCK:   -0.05 KCAL/MOL
REMARK 927      BINDING AFFINITY PREDICTED BY RF-SCORE:    0.00 PKD
ROOT
HETATM    1 FE   UNL     1     -10.634  10.143  71.171  1.00  0.00    -0.273 Fe 
HETATM    2  O   UNL     2     -10.200  11.315  69.567  1.00  0.00    -0.043 OA 
HETATM    3  C   UNL     2     -11.450  11.594  69.580  1.00  0.00    -0.304 C  
HETATM    4  O   UNL     2     -12.178  10.601  69.905  1.00  0.00    -0.307 OA 
HETATM    5  C   UNL     2     -11.854  12.994  69.943  1.00  0.00    -0.377 C  
ENDROOT
BRANCH   5   6
HETATM    6  C   UNL     2     -12.707  13.017  71.216  1.00  0.00    -0.385 C  
HETATM    7  C   UNL     2     -13.462  14.319  71.555  1.00  0.00    -0.351 C  
HETATM    8  O   UNL     2     -14.338  14.261  72.442  1.00  0.00    -0.551 OA 
HETATM    9  O   UNL     2     -13.057  15.383  70.950  1.00  0.00    -0.455 OA 
ENDBRANCH   5   6
TORSDOF 1
ENDMDL
MODEL       96
REMARK 921   NORMALIZED FREE ENERGY PREDICTED BY IDOCK:   -2.75 KCAL/MOL
REMARK 922        TOTAL FREE ENERGY PREDICTED BY IDOCK:   -3.06 KCAL/MOL
REMARK 923 INTER-LIGAND FREE ENERGY PREDICTED BY IDOCK:   -2.96 KCAL/MOL
REMARK 924 INTRA-LIGAND FREE ENERGY PREDICTED BY IDOCK:   -0.10 KCAL/MOL
REMARK 927      BINDING AFFINITY PREDICTED BY RF-SCORE:    0.00 PKD
ROOT
HETATM    1 FE   UNL     1      -6.331  16.540  66.315  1.00  0.00    -0.174 Fe 
HETATM    2  O   UNL     2      -5.837  18.220  65.280  1.00  0.00    -0.208 OA 
HETATM    3  C   UNL     2      -7.011  18.620  65.598  1.00  0.00    -0.220 C  
HETATM    4  O   UNL     2      -7.873  17.683  65.598  1.00  0.00    -0.533 OA 
HETATM    5  C   UNL     2      -7.126  19.770  66.557  1.00  0.00    -0.247 C  
ENDROOT
BRANCH   5   6
HETATM    6  C   UNL     2      -7.847  19.354  67.844  1.00  0.00    -0.325 C  
HETATM    7  C   UNL     2      -9.298  19.835  68.045  1.00  0.00    -0.352 C  
HETATM    8  O   UNL     2      -9.960  19.302  68.959  1.00  0.00    -0.424 OA 
HETATM    9  O   UNL     2      -9.677  20.820  67.303  1.00  0.00    -0.479 OA 
ENDBRANCH   5   6
TORSDOF 1
ENDMDL
MODEL       97
REMARK 921   NORMALIZED FREE ENERGY PREDICTED BY IDOCK:   -2.75 KCAL/MOL
REMARK 922        TOTAL FREE ENERGY PREDICTED BY IDOCK:   -3.06 KCAL/MOL
REMARK 923 INTER-LIGAND FREE ENERGY PREDICTED BY IDOCK:   -2.92 KCAL/MOL
REMARK 924 INTRA-LIGAND FREE ENERGY PREDICTED BY IDOCK:   -0.14 KCAL/MOL
REMARK 927      BINDING AFFINITY PREDICTED BY RF-SCORE:    0.00 PKD
ROOT
HETATM    1 FE   UNL     1      -9.989  18.311  69.391  1.00  0.00    -0.307 Fe 
HETATM    2  O   UNL     2      -9.627  16.825  68.050  1.00  0.00    -0.228 OA 
HETATM    3  C   UNL     2      -9.965  17.694  67.173  1.00  0.00    -0.316 C  
HETATM    4  O   UNL     2     -10.905  18.458  67.564  1.00  0.00    -0.408 OA 
HETATM    5  C   UNL     2      -8.901  18.201  66.240  1.00  0.00    -0.196 C  
ENDROOT
BRANCH   5   6
HETATM    6  C   UNL     2      -8.683  19.708  66.408  1.00  0.00    -0.404 C  
HETATM    7  C   UNL     2      -7.473  20.173  67.243  1.00  0.00    -0.286 C  
HETATM    8  O   UNL     2      -7.156  21.378  67.176  1.00  0.00    -0.534 OA 
HETATM    9  O   UNL     2      -6.944  19.287  68.016  1.00  0.00    -0.241 OA 
ENDBRANCH   5   6
TORSDOF 1
ENDMDL
MODEL       98
REMARK 921   NORMALIZED FREE ENERGY PREDICTED BY IDOCK:   -2.75 KCAL/MOL
REMARK 922        TOTAL FREE ENERGY PREDICTED BY IDOCK:   -3.06 KCAL/MOL
REMARK 923 INTER-LIGAND FREE ENERGY PREDICTED BY IDOCK:   -2.97 KCAL/MOL
REMARK 924 INTRA-LIGAND FREE ENERGY PREDICTED BY IDOCK:   -0.09 KCAL/MOL
REMARK 927      BINDING AFFINITY PREDICTED BY RF-SCORE:    0.00 PKD
ROOT
HETATM    1 FE   UNL     1      -9.333  13.120  64.434  1.00  0.00    -0.504 Fe 
HETATM    2  O   UNL     2     -11.220  13.862  64.286  1.00  0.00    -0.354 OA 
HETATM    3  C   UNL     2     -10.986  14.368  65.438  1.00  0.00    -0.339 C  
HETATM    4  O   UNL     2     -10.283  13.609  66.182  1.00  0.00    -0.289 OA 
HETATM    5  C   UNL     2     -10.874  15.862  65.541  1.00  0.00    -0.325 C  
ENDROOT
BRANCH   5   6
HETATM    6  C   UNL     2      -9.480  16.286  66.016  1.00  0.00    -0.369 C  
HETATM    7  C   UNL     2      -9.368  16.993  67.383  1.00  0.00    -0.239 C  
HETATM    8  O   UNL     2      -8.228  17.114  67.876  1.00  0.00    -0.195 OA 
HETATM    9  O   UNL     2     -10.462  17.481  67.860  1.00  0.00    -0.355 OA 
ENDBRANCH   5   6
TORSDOF 1
ENDMDL
MODEL       99
REMARK 921   NORMALIZED FREE ENERGY PREDICTED BY IDOCK:   -2.74 KCAL/MOL
REMARK 922        TOTAL FREE ENERGY PREDICTED BY IDOCK:   -3.06 KCAL/MOL
REMARK 923 INTER-LIGAND FREE ENERGY PREDICTED BY IDOCK:   -3.00 KCAL/MOL
REMARK 924 INTRA-LIGAND FREE ENERGY PREDICTED BY IDOCK:   -0.05 KCAL/MOL
REMARK 927      BINDING AFFINITY PREDICTED BY RF-SCORE:    0.00 PKD
ROOT
HETATM    1 FE   UNL     1     -10.830  17.711  67.849  1.00  0.00    -0.316 Fe 
HETATM    2  O   UNL     2     -10.297  19.390  68.865  1.00  0.00    -0.334 OA 
HETATM    3  C   UNL     2      -9.107  19.093  68.499  1.00  0.00    -0.371 C  
HETATM    4  O   UNL     2      -8.888  17.838  68.488  1.00  0.00    -0.282 OA 
HETATM    5  C   UNL     2      -8.427  19.999  67.512  1.00  0.00    -0.393 C  
ENDROOT
BRANCH   5   6
HETATM    6  C   UNL     2      -8.097  19.261  66.211  1.00  0.00    -0.322 C  
HETATM    7  C   UNL     2      -6.895  19.760  65.383  1.00  0.00    -0.291 C  
HETATM    8  O   UNL     2      -6.480  19.020  64.467  1.00  0.00    -0.465 OA 
HETATM    9  O   UNL     2      -6.476  20.949  65.653  1.00  0.00    -0.232 OA 
ENDBRANCH   5   6
TORSDOF 1
ENDMDL
MODEL      100
REMARK 921   NORMALIZED FREE ENERGY PREDICTED BY IDOCK:   -2.74 KCAL/MOL
REMARK 922        TOTAL FREE ENERGY PREDICTED BY IDOCK:   -3.05 KCAL/MOL
REMARK 923 INTER-LIGAND FREE ENERGY PREDICTED BY IDOCK:   -2.95 KCAL/MOL
REMARK 924 INTRA-LIGAND FREE ENERGY PREDICTED BY IDOCK:   -0.09 KCAL/MOL
REMARK 927      BINDING AFFINITY PREDICTED BY RF-SCORE:    0.00 PKD
ROOT
HETATM    1 FE   UNL     1     -12.755  12.219  63.642  1.00  0.00    -0.381 Fe 
HETATM    2  O   UNL     2     -10.758  12.482  63.361  1.00  0.00    -0.426 OA 
HETATM    3  C   UNL     2     -10.790  13.049  64.508  1.00  0.00    -0.372 C  
HETATM    4  O   UNL     2     -11.854  13.722  64.702  1.00  0.00    -0.366 OA 
HETATM    5  C   UNL     2     -10.097  12.362  65.651  1.00  0.00    -0.277 C  
ENDROOT
BRANCH   5   6
HETATM    6  C   UNL     2     -11.086  11.985  66.759  1.00  0.00    -0.353 C  
HETATM    7  C   UNL     2     -10.992  12.742  68.099  1.00  0.00    -0.247 C  
HETATM    8  O   UNL     2     -11.938  12.611  68.902  1.00  0.00    -0.302 OA 
HETATM    9  O   UNL     2      -9.891  13.378  68.314  1.00  0.00    -0.228 OA 
ENDBRANCH   5   6
TORSDOF 1
ENDMDL
MODEL      101
REMARK 921   NORMALIZED FREE ENERGY PREDICTED BY IDOCK:   -2.71 KCAL/MOL
REMARK 922        TOTAL FREE ENERGY PREDICTED BY IDOCK:   -3.02 KCAL/MOL
REMARK 923 INTER-LIGAND FREE ENERGY PREDICTED BY IDOCK:   -2.86 KCAL/MOL
REMARK 924 INTRA-LIGAND FREE ENERGY PREDICTED BY IDOCK:   -0.16 KCAL/MOL
REMARK 927      BINDING AFFINITY PREDICTED BY RF-SCORE:    0.00 PKD
ROOT
HETATM    1 FE   UNL     1     -12.286   7.362  73.425  1.00  0.00    -0.501 Fe 
HETATM    2  O   UNL     2     -13.033   7.345  71.533  1.00  0.00    -0.355 OA 
HETATM    3  C   UNL     2     -12.593   8.545  71.474  1.00  0.00    -0.316 C  
HETATM    4  O   UNL     2     -12.715   9.176  72.574  1.00  0.00    -0.367 OA 
HETATM    5  C   UNL     2     -11.442   8.827  70.550  1.00  0.00    -0.222 C  
ENDROOT
BRANCH   5   6
HETATM    6  C   UNL     2     -10.215   9.323  71.322  1.00  0.00    -0.383 C  
HETATM    7  C   UNL     2      -9.334   8.271  72.029  1.00  0.00    -0.230 C  
HETATM    8  O   UNL     2      -8.216   8.641  72.443  1.00  0.00    -0.332 OA 
HETATM    9  O   UNL     2      -9.872   7.114  72.212  1.00  0.00    -0.153 OA 
ENDBRANCH   5   6
TORSDOF 1
ENDMDL
MODEL      102
REMARK 921   NORMALIZED FREE ENERGY PREDICTED BY IDOCK:   -2.71 KCAL/MOL
REMARK 922        TOTAL FREE ENERGY PREDICTED BY IDOCK:   -3.02 KCAL/MOL
REMARK 923 INTER-LIGAND FREE ENERGY PREDICTED BY IDOCK:   -2.89 KCAL/MOL
REMARK 924 INTRA-LIGAND FREE ENERGY PREDICTED BY IDOCK:   -0.13 KCAL/MOL
REMARK 927      BINDING AFFINITY PREDICTED BY RF-SCORE:    0.00 PKD
ROOT
HETATM    1 FE   UNL     1     -13.378   9.991  69.418  1.00  0.00    -0.509 Fe 
HETATM    2  O   UNL     2     -12.203  11.094  68.178  1.00  0.00    -0.612 OA 
HETATM    3  C   UNL     2     -11.474  11.270  69.215  1.00  0.00    -0.301 C  
HETATM    4  O   UNL     2     -12.152  11.383  70.287  1.00  0.00    -0.331 OA 
HETATM    5  C   UNL     2     -10.111  10.638  69.232  1.00  0.00    -0.227 C  
ENDROOT
BRANCH   5   6
HETATM    6  C   UNL     2      -9.984   9.614  70.365  1.00  0.00    -0.330 C  
HETATM    7  C   UNL     2     -10.038   8.118  69.994  1.00  0.00    -0.196 C  
HETATM    8  O   UNL     2      -9.692   7.296  70.868  1.00  0.00    -0.171 OA 
HETATM    9  O   UNL     2     -10.527   7.839  68.834  1.00  0.00    -0.213 OA 
ENDBRANCH   5   6
TORSDOF 1
ENDMDL
MODEL      103
REMARK 921   NORMALIZED FREE ENERGY PREDICTED BY IDOCK:   -2.69 KCAL/MOL
REMARK 922        TOTAL FREE ENERGY PREDICTED BY IDOCK:   -3.00 KCAL/MOL
REMARK 923 INTER-LIGAND FREE ENERGY PREDICTED BY IDOCK:   -2.85 KCAL/MOL
REMARK 924 INTRA-LIGAND FREE ENERGY PREDICTED BY IDOCK:   -0.15 KCAL/MOL
REMARK 927      BINDING AFFINITY PREDICTED BY RF-SCORE:    0.00 PKD
ROOT
HETATM    1 FE   UNL     1     -10.420  11.359  66.237  1.00  0.00    -0.206 Fe 
HETATM    2  O   UNL     2     -11.242  12.362  64.670  1.00  0.00    -0.292 OA 
HETATM    3  C   UNL     2     -12.045  12.837  65.547  1.00  0.00    -0.465 C  
HETATM    4  O   UNL     2     -12.357  11.991  66.447  1.00  0.00    -0.403 OA 
HETATM    5  C   UNL     2     -11.947  14.301  65.870  1.00  0.00    -0.400 C  
ENDROOT
BRANCH   5   6
HETATM    6  C   UNL     2     -11.568  14.525  67.337  1.00  0.00    -0.406 C  
HETATM    7  C   UNL     2     -10.079  14.748  67.671  1.00  0.00    -0.227 C  
HETATM    8  O   UNL     2      -9.802  15.170  68.813  1.00  0.00    -0.208 OA 
HETATM    9  O   UNL     2      -9.235  14.390  66.765  1.00  0.00    -0.247 OA 
ENDBRANCH   5   6
TORSDOF 1
ENDMDL
MODEL      104
REMARK 921   NORMALIZED FREE ENERGY PREDICTED BY IDOCK:   -2.69 KCAL/MOL
REMARK 922        TOTAL FREE ENERGY PREDICTED BY IDOCK:   -3.00 KCAL/MOL
REMARK 923 INTER-LIGAND FREE ENERGY PREDICTED BY IDOCK:   -2.95 KCAL/MOL
REMARK 924 INTRA-LIGAND FREE ENERGY PREDICTED BY IDOCK:   -0.05 KCAL/MOL
REMARK 927      BINDING AFFINITY PREDICTED BY RF-SCORE:    0.00 PKD
ROOT
HETATM    1 FE   UNL     1     -11.694  13.744  67.146  1.00  0.00    -0.274 Fe 
HETATM    2  O   UNL     2      -9.729  13.599  67.654  1.00  0.00    -0.218 OA 
HETATM    3  C   UNL     2      -9.516  14.161  66.524  1.00  0.00    -0.285 C  
HETATM    4  O   UNL     2     -10.329  13.784  65.619  1.00  0.00    -0.292 OA 
HETATM    5  C   UNL     2      -8.964  15.559  66.528  1.00  0.00    -0.348 C  
ENDROOT
BRANCH   5   6
HETATM    6  C   UNL     2      -9.937  16.545  65.872  1.00  0.00    -0.342 C  
HETATM    7  C   UNL     2      -9.933  18.003  66.375  1.00  0.00    -0.362 C  
HETATM    8  O   UNL     2     -10.537  18.851  65.685  1.00  0.00    -0.575 OA 
HETATM    9  O   UNL     2      -9.378  18.206  67.521  1.00  0.00    -0.256 OA 
ENDBRANCH   5   6
TORSDOF 1
ENDMDL
MODEL      105
REMARK 921   NORMALIZED FREE ENERGY PREDICTED BY IDOCK:   -2.69 KCAL/MOL
REMARK 922        TOTAL FREE ENERGY PREDICTED BY IDOCK:   -2.99 KCAL/MOL
REMARK 923 INTER-LIGAND FREE ENERGY PREDICTED BY IDOCK:   -2.95 KCAL/MOL
REMARK 924 INTRA-LIGAND FREE ENERGY PREDICTED BY IDOCK:   -0.05 KCAL/MOL
REMARK 927      BINDING AFFINITY PREDICTED BY RF-SCORE:    0.00 PKD
ROOT
HETATM    1 FE   UNL     1      -9.029   6.699  71.834  1.00  0.00    -0.131 Fe 
HETATM    2  O   UNL     2     -10.742   6.226  72.823  1.00  0.00    -0.220 OA 
HETATM    3  C   UNL     2     -10.807   7.480  73.071  1.00  0.00    -0.392 C  
HETATM    4  O   UNL     2      -9.666   8.006  73.276  1.00  0.00    -0.286 OA 
HETATM    5  C   UNL     2     -11.911   8.268  72.426  1.00  0.00    -0.447 C  
ENDROOT
BRANCH   5   6
HETATM    6  C   UNL     2     -11.355   9.349  71.493  1.00  0.00    -0.464 C  
HETATM    7  C   UNL     2     -12.325  10.439  70.994  1.00  0.00    -0.387 C  
HETATM    8  O   UNL     2     -11.828  11.444  70.444  1.00  0.00    -0.336 OA 
HETATM    9  O   UNL     2     -13.582  10.175  71.108  1.00  0.00    -0.284 OA 
ENDBRANCH   5   6
TORSDOF 1
ENDMDL
MODEL      106
REMARK 921   NORMALIZED FREE ENERGY PREDICTED BY IDOCK:   -2.68 KCAL/MOL
REMARK 922        TOTAL FREE ENERGY PREDICTED BY IDOCK:   -2.99 KCAL/MOL
REMARK 923 INTER-LIGAND FREE ENERGY PREDICTED BY IDOCK:   -2.89 KCAL/MOL
REMARK 924 INTRA-LIGAND FREE ENERGY PREDICTED BY IDOCK:   -0.10 KCAL/MOL
REMARK 927      BINDING AFFINITY PREDICTED BY RF-SCORE:    0.00 PKD
ROOT
HETATM    1 FE   UNL     1     -11.014  13.408  70.353  1.00  0.00    -0.464 Fe 
HETATM    2  O   UNL     2     -11.219  15.267  69.553  1.00  0.00    -0.246 OA 
HETATM    3  C   UNL     2     -10.676  14.753  68.514  1.00  0.00    -0.247 C  
HETATM    4  O   UNL     2      -9.776  13.897  68.795  1.00  0.00    -0.192 OA 
HETATM    5  C   UNL     2     -11.520  14.603  67.280  1.00  0.00    -0.386 C  
ENDROOT
BRANCH   5   6
HETATM    6  C   UNL     2     -11.671  13.131  66.882  1.00  0.00    -0.441 C  
HETATM    7  C   UNL     2     -10.807  12.607  65.717  1.00  0.00    -0.274 C  
HETATM    8  O   UNL     2     -10.747  11.370  65.556  1.00  0.00    -0.276 OA 
HETATM    9  O   UNL     2     -10.288  13.503  64.948  1.00  0.00    -0.366 OA 
ENDBRANCH   5   6
TORSDOF 1
ENDMDL
MODEL      107
REMARK 921   NORMALIZED FREE ENERGY PREDICTED BY IDOCK:   -2.68 KCAL/MOL
REMARK 922        TOTAL FREE ENERGY PREDICTED BY IDOCK:   -2.98 KCAL/MOL
REMARK 923 INTER-LIGAND FREE ENERGY PREDICTED BY IDOCK:   -2.82 KCAL/MOL
REMARK 924 INTRA-LIGAND FREE ENERGY PREDICTED BY IDOCK:   -0.16 KCAL/MOL
REMARK 927      BINDING AFFINITY PREDICTED BY RF-SCORE:    0.00 PKD
ROOT
HETATM    1 FE   UNL     1     -11.953   7.636  73.597  1.00  0.00    -0.584 Fe 
HETATM    2  O   UNL     2     -10.752   6.056  73.152  1.00  0.00    -0.234 OA 
HETATM    3  C   UNL     2     -11.287   6.126  71.991  1.00  0.00    -0.297 C  
HETATM    4  O   UNL     2     -12.519   6.444  72.028  1.00  0.00    -0.333 OA 
HETATM    5  C   UNL     2     -10.418   6.551  70.841  1.00  0.00    -0.263 C  
ENDROOT
BRANCH   5   6
HETATM    6  C   UNL     2     -10.921   7.856  70.214  1.00  0.00    -0.249 C  
HETATM    7  C   UNL     2     -10.561   9.180  70.918  1.00  0.00    -0.273 C  
HETATM    8  O   UNL     2     -10.755  10.239  70.285  1.00  0.00    -0.288 OA 
HETATM    9  O   UNL     2     -10.172   9.083  72.143  1.00  0.00    -0.300 OA 
ENDBRANCH   5   6
TORSDOF 1
ENDMDL
MODEL      108
REMARK 921   NORMALIZED FREE ENERGY PREDICTED BY IDOCK:   -2.67 KCAL/MOL
REMARK 922        TOTAL FREE ENERGY PREDICTED BY IDOCK:   -2.98 KCAL/MOL
REMARK 923 INTER-LIGAND FREE ENERGY PREDICTED BY IDOCK:   -2.93 KCAL/MOL
REMARK 924 INTRA-LIGAND FREE ENERGY PREDICTED BY IDOCK:   -0.04 KCAL/MOL
REMARK 927      BINDING AFFINITY PREDICTED BY RF-SCORE:    0.00 PKD
ROOT
HETATM    1 FE   UNL     1      -6.358  18.379  70.446  1.00  0.00    -0.234 Fe 
HETATM    2  O   UNL     2      -6.231  20.349  69.957  1.00  0.00    -0.349 OA 
HETATM    3  C   UNL     2      -6.232  19.929  68.748  1.00  0.00    -0.277 C  
HETATM    4  O   UNL     2      -5.596  18.836  68.599  1.00  0.00    -0.193 OA 
HETATM    5  C   UNL     2      -7.430  20.242  67.896  1.00  0.00    -0.291 C  
ENDROOT
BRANCH   5   6
HETATM    6  C   UNL     2      -8.142  18.964  67.441  1.00  0.00    -0.280 C  
HETATM    7  C   UNL     2      -9.365  19.111  66.512  1.00  0.00    -0.348 C  
HETATM    8  O   UNL     2      -9.788  18.080  65.950  1.00  0.00    -0.535 OA 
HETATM    9  O   UNL     2      -9.904  20.281  66.468  1.00  0.00    -0.428 OA 
ENDBRANCH   5   6
TORSDOF 1
ENDMDL
MODEL      109
REMARK 921   NORMALIZED FREE ENERGY PREDICTED BY IDOCK:   -2.66 KCAL/MOL
REMARK 922        TOTAL FREE ENERGY PREDICTED BY IDOCK:   -2.97 KCAL/MOL
REMARK 923 INTER-LIGAND FREE ENERGY PREDICTED BY IDOCK:   -2.90 KCAL/MOL
REMARK 924 INTRA-LIGAND FREE ENERGY PREDICTED BY IDOCK:   -0.06 KCAL/MOL
REMARK 927      BINDING AFFINITY PREDICTED BY RF-SCORE:    0.00 PKD
ROOT
HETATM    1 FE   UNL     1     -11.711   7.684  66.959  1.00  0.00    -0.489 Fe 
HETATM    2  O   UNL     2     -10.428   8.264  68.427  1.00  0.00    -0.207 OA 
HETATM    3  C   UNL     2      -9.814   8.878  67.487  1.00  0.00    -0.184 C  
HETATM    4  O   UNL     2      -9.824   8.240  66.385  1.00  0.00    -0.243 OA 
HETATM    5  C   UNL     2      -9.825  10.380  67.504  1.00  0.00    -0.202 C  
ENDROOT
BRANCH   5   6
HETATM    6  C   UNL     2     -10.521  10.948  66.263  1.00  0.00    -0.304 C  
HETATM    7  C   UNL     2     -11.633  11.996  66.476  1.00  0.00    -0.314 C  
HETATM    8  O   UNL     2     -12.023  12.632  65.475  1.00  0.00    -0.413 OA 
HETATM    9  O   UNL     2     -12.130  12.061  67.663  1.00  0.00    -0.547 OA 
ENDBRANCH   5   6
TORSDOF 1
ENDMDL
MODEL      110
REMARK 921   NORMALIZED FREE ENERGY PREDICTED BY IDOCK:   -2.64 KCAL/MOL
REMARK 922        TOTAL FREE ENERGY PREDICTED BY IDOCK:   -2.95 KCAL/MOL
REMARK 923 INTER-LIGAND FREE ENERGY PREDICTED BY IDOCK:   -2.85 KCAL/MOL
REMARK 924 INTRA-LIGAND FREE ENERGY PREDICTED BY IDOCK:   -0.10 KCAL/MOL
REMARK 927      BINDING AFFINITY PREDICTED BY RF-SCORE:    0.00 PKD
ROOT
HETATM    1 FE   UNL     1     -13.464   9.072  70.679  1.00  0.00    -0.499 Fe 
HETATM    2  O   UNL     2     -12.312   8.519  72.262  1.00  0.00    -0.355 OA 
HETATM    3  C   UNL     2     -12.362   7.351  71.740  1.00  0.00    -0.333 C  
HETATM    4  O   UNL     2     -13.489   7.092  71.205  1.00  0.00    -0.362 OA 
HETATM    5  C   UNL     2     -11.094   6.779  71.174  1.00  0.00    -0.313 C  
ENDROOT
BRANCH   5   6
HETATM    6  C   UNL     2     -11.218   6.524  69.669  1.00  0.00    -0.446 C  
HETATM    7  C   UNL     2     -10.371   7.393  68.718  1.00  0.00    -0.199 C  
HETATM    8  O   UNL     2     -10.285   7.028  67.527  1.00  0.00    -0.164 OA 
HETATM    9  O   UNL     2      -9.894   8.482  69.219  1.00  0.00    -0.178 OA 
ENDBRANCH   5   6
TORSDOF 1
ENDMDL
MODEL      111
REMARK 921   NORMALIZED FREE ENERGY PREDICTED BY IDOCK:   -2.63 KCAL/MOL
REMARK 922        TOTAL FREE ENERGY PREDICTED BY IDOCK:   -2.93 KCAL/MOL
REMARK 923 INTER-LIGAND FREE ENERGY PREDICTED BY IDOCK:   -2.77 KCAL/MOL
REMARK 924 INTRA-LIGAND FREE ENERGY PREDICTED BY IDOCK:   -0.16 KCAL/MOL
REMARK 927      BINDING AFFINITY PREDICTED BY RF-SCORE:    0.00 PKD
ROOT
HETATM    1 FE   UNL     1     -11.595  17.059  68.404  1.00  0.00    -0.332 Fe 
HETATM    2  O   UNL     2     -10.089  16.255  69.509  1.00  0.00    -0.252 OA 
HETATM    3  C   UNL     2      -9.373  16.461  68.468  1.00  0.00    -0.225 C  
HETATM    4  O   UNL     2     -10.007  16.267  67.380  1.00  0.00    -0.241 OA 
HETATM    5  C   UNL     2      -8.293  17.502  68.552  1.00  0.00    -0.274 C  
ENDROOT
BRANCH   5   6
HETATM    6  C   UNL     2      -8.541  18.645  67.562  1.00  0.00    -0.284 C  
HETATM    7  C   UNL     2      -9.564  19.730  67.954  1.00  0.00    -0.373 C  
HETATM    8  O   UNL     2      -9.585  20.775  67.272  1.00  0.00    -0.457 OA 
HETATM    9  O   UNL     2     -10.378  19.424  68.906  1.00  0.00    -0.334 OA 
ENDBRANCH   5   6
TORSDOF 1
ENDMDL
MODEL      112
REMARK 921   NORMALIZED FREE ENERGY PREDICTED BY IDOCK:   -2.62 KCAL/MOL
REMARK 922        TOTAL FREE ENERGY PREDICTED BY IDOCK:   -2.92 KCAL/MOL
REMARK 923 INTER-LIGAND FREE ENERGY PREDICTED BY IDOCK:   -2.88 KCAL/MOL
REMARK 924 INTRA-LIGAND FREE ENERGY PREDICTED BY IDOCK:   -0.04 KCAL/MOL
REMARK 927      BINDING AFFINITY PREDICTED BY RF-SCORE:    0.00 PKD
ROOT
HETATM    1 FE   UNL     1     -12.324  16.680  70.790  1.00  0.00    -0.504 Fe 
HETATM    2  O   UNL     2     -11.101  15.055  70.821  1.00  0.00    -0.260 OA 
HETATM    3  C   UNL     2     -10.932  15.304  69.576  1.00  0.00    -0.277 C  
HETATM    4  O   UNL     2     -11.988  15.730  69.006  1.00  0.00    -0.385 OA 
HETATM    5  C   UNL     2      -9.576  15.774  69.131  1.00  0.00    -0.255 C  
ENDROOT
BRANCH   5   6
HETATM    6  C   UNL     2      -9.642  17.181  68.529  1.00  0.00    -0.288 C  
HETATM    7  C   UNL     2      -9.914  17.306  67.016  1.00  0.00    -0.289 C  
HETATM    8  O   UNL     2     -10.209  18.437  66.576  1.00  0.00    -0.358 OA 
HETATM    9  O   UNL     2      -9.723  16.241  66.316  1.00  0.00    -0.265 OA 
ENDBRANCH   5   6
TORSDOF 1
ENDMDL
MODEL      113
REMARK 921   NORMALIZED FREE ENERGY PREDICTED BY IDOCK:   -2.61 KCAL/MOL
REMARK 922        TOTAL FREE ENERGY PREDICTED BY IDOCK:   -2.92 KCAL/MOL
REMARK 923 INTER-LIGAND FREE ENERGY PREDICTED BY IDOCK:   -2.77 KCAL/MOL
REMARK 924 INTRA-LIGAND FREE ENERGY PREDICTED BY IDOCK:   -0.15 KCAL/MOL
REMARK 927      BINDING AFFINITY PREDICTED BY RF-SCORE:    0.00 PKD
ROOT
HETATM    1 FE   UNL     1      -7.646  16.915  65.853  1.00  0.00    -0.221 Fe 
HETATM    2  O   UNL     2      -9.501  16.679  66.653  1.00  0.00    -0.230 OA 
HETATM    3  C   UNL     2      -8.955  17.080  67.740  1.00  0.00    -0.224 C  
HETATM    4  O   UNL     2      -7.761  16.660  67.882  1.00  0.00    -0.156 OA 
HETATM    5  C   UNL     2      -9.368  18.420  68.280  1.00  0.00    -0.342 C  
ENDROOT
BRANCH   5   6
HETATM    6  C   UNL     2      -8.184  19.392  68.329  1.00  0.00    -0.372 C  
HETATM    7  C   UNL     2      -7.951  20.307  67.109  1.00  0.00    -0.339 C  
HETATM    8  O   UNL     2      -7.151  21.255  67.246  1.00  0.00    -0.522 OA 
HETATM    9  O   UNL     2      -8.539  19.955  66.017  1.00  0.00    -0.364 OA 
ENDBRANCH   5   6
TORSDOF 1
ENDMDL
MODEL      114
REMARK 921   NORMALIZED FREE ENERGY PREDICTED BY IDOCK:   -2.61 KCAL/MOL
REMARK 922        TOTAL FREE ENERGY PREDICTED BY IDOCK:   -2.91 KCAL/MOL
REMARK 923 INTER-LIGAND FREE ENERGY PREDICTED BY IDOCK:   -2.77 KCAL/MOL
REMARK 924 INTRA-LIGAND FREE ENERGY PREDICTED BY IDOCK:   -0.14 KCAL/MOL
REMARK 927      BINDING AFFINITY PREDICTED BY RF-SCORE:    0.00 PKD
ROOT
HETATM    1 FE   UNL     1     -10.113  11.091  68.278  1.00  0.00    -0.151 Fe 
HETATM    2  O   UNL     2     -12.099  11.516  68.169  1.00  0.00    -0.604 OA 
HETATM    3  C   UNL     2     -11.728  12.512  67.456  1.00  0.00    -0.374 C  
HETATM    4  O   UNL     2     -10.632  13.027  67.851  1.00  0.00    -0.221 OA 
HETATM    5  C   UNL     2     -12.093  12.509  65.998  1.00  0.00    -0.390 C  
ENDROOT
BRANCH   5   6
HETATM    6  C   UNL     2     -10.845  12.500  65.110  1.00  0.00    -0.323 C  
HETATM    7  C   UNL     2     -10.085  11.168  64.947  1.00  0.00    -0.289 C  
HETATM    8  O   UNL     2      -9.227  11.101  64.043  1.00  0.00    -0.184 OA 
HETATM    9  O   UNL     2     -10.339  10.259  65.826  1.00  0.00    -0.239 OA 
ENDBRANCH   5   6
TORSDOF 1
ENDMDL
MODEL      115
REMARK 921   NORMALIZED FREE ENERGY PREDICTED BY IDOCK:   -2.61 KCAL/MOL
REMARK 922        TOTAL FREE ENERGY PREDICTED BY IDOCK:   -2.91 KCAL/MOL
REMARK 923 INTER-LIGAND FREE ENERGY PREDICTED BY IDOCK:   -2.82 KCAL/MOL
REMARK 924 INTRA-LIGAND FREE ENERGY PREDICTED BY IDOCK:   -0.09 KCAL/MOL
REMARK 927      BINDING AFFINITY PREDICTED BY RF-SCORE:    0.00 PKD
ROOT
HETATM    1 FE   UNL     1      -8.754  15.518  67.424  1.00  0.00    -0.151 Fe 
HETATM    2  O   UNL     2      -9.593  16.269  69.117  1.00  0.00    -0.244 OA 
HETATM    3  C   UNL     2     -10.687  16.228  68.454  1.00  0.00    -0.311 C  
HETATM    4  O   UNL     2     -10.534  16.512  67.222  1.00  0.00    -0.304 OA 
HETATM    5  C   UNL     2     -11.737  15.246  68.890  1.00  0.00    -0.362 C  
ENDROOT
BRANCH   5   6
HETATM    6  C   UNL     2     -12.028  14.215  67.795  1.00  0.00    -0.389 C  
HETATM    7  C   UNL     2     -11.742  12.732  68.105  1.00  0.00    -0.345 C  
HETATM    8  O   UNL     2     -12.203  11.880  67.318  1.00  0.00    -0.495 OA 
HETATM    9  O   UNL     2     -10.968  12.503  69.111  1.00  0.00    -0.222 OA 
ENDBRANCH   5   6
TORSDOF 1
ENDMDL
MODEL      116
REMARK 921   NORMALIZED FREE ENERGY PREDICTED BY IDOCK:   -2.60 KCAL/MOL
REMARK 922        TOTAL FREE ENERGY PREDICTED BY IDOCK:   -2.91 KCAL/MOL
REMARK 923 INTER-LIGAND FREE ENERGY PREDICTED BY IDOCK:   -2.84 KCAL/MOL
REMARK 924 INTRA-LIGAND FREE ENERGY PREDICTED BY IDOCK:   -0.07 KCAL/MOL
REMARK 927      BINDING AFFINITY PREDICTED BY RF-SCORE:    0.00 PKD
ROOT
HETATM    1 FE   UNL     1      -8.899  14.359  69.689  1.00  0.00    -0.324 Fe 
HETATM    2  O   UNL     2     -10.127  15.059  68.227  1.00  0.00    -0.216 OA 
HETATM    3  C   UNL     2     -10.800  13.992  68.442  1.00  0.00    -0.249 C  
HETATM    4  O   UNL     2     -10.067  12.986  68.713  1.00  0.00    -0.175 OA 
HETATM    5  C   UNL     2     -12.166  14.133  69.053  1.00  0.00    -0.274 C  
ENDROOT
BRANCH   5   6
HETATM    6  C   UNL     2     -12.243  13.437  70.415  1.00  0.00    -0.415 C  
HETATM    7  C   UNL     2     -12.783  14.249  71.610  1.00  0.00    -0.352 C  
HETATM    8  O   UNL     2     -13.074  13.620  72.648  1.00  0.00    -0.447 OA 
HETATM    9  O   UNL     2     -12.802  15.529  71.463  1.00  0.00    -0.389 OA 
ENDBRANCH   5   6
TORSDOF 1
ENDMDL
MODEL      117
REMARK 921   NORMALIZED FREE ENERGY PREDICTED BY IDOCK:   -2.60 KCAL/MOL
REMARK 922        TOTAL FREE ENERGY PREDICTED BY IDOCK:   -2.91 KCAL/MOL
REMARK 923 INTER-LIGAND FREE ENERGY PREDICTED BY IDOCK:   -2.83 KCAL/MOL
REMARK 924 INTRA-LIGAND FREE ENERGY PREDICTED BY IDOCK:   -0.07 KCAL/MOL
REMARK 927      BINDING AFFINITY PREDICTED BY RF-SCORE:    0.00 PKD
ROOT
HETATM    1 FE   UNL     1     -10.008  10.397  68.931  1.00  0.00    -0.150 Fe 
HETATM    2  O   UNL     2     -11.743  10.719  67.919  1.00  0.00    -0.543 OA 
HETATM    3  C   UNL     2     -11.844  11.760  68.657  1.00  0.00    -0.310 C  
HETATM    4  O   UNL     2     -11.416  11.574  69.843  1.00  0.00    -0.289 OA 
HETATM    5  C   UNL     2     -11.718  13.104  67.998  1.00  0.00    -0.394 C  
ENDROOT
BRANCH   5   6
HETATM    6  C   UNL     2     -10.515  13.882  68.540  1.00  0.00    -0.253 C  
HETATM    7  C   UNL     2     -10.756  15.315  69.057  1.00  0.00    -0.244 C  
HETATM    8  O   UNL     2      -9.841  15.851  69.716  1.00  0.00    -0.262 OA 
HETATM    9  O   UNL     2     -11.855  15.875  68.683  1.00  0.00    -0.388 OA 
ENDBRANCH   5   6
TORSDOF 1
ENDMDL
MODEL      118
REMARK 921   NORMALIZED FREE ENERGY PREDICTED BY IDOCK:   -2.59 KCAL/MOL
REMARK 922        TOTAL FREE ENERGY PREDICTED BY IDOCK:   -2.89 KCAL/MOL
REMARK 923 INTER-LIGAND FREE ENERGY PREDICTED BY IDOCK:   -2.85 KCAL/MOL
REMARK 924 INTRA-LIGAND FREE ENERGY PREDICTED BY IDOCK:   -0.04 KCAL/MOL
REMARK 927      BINDING AFFINITY PREDICTED BY RF-SCORE:    0.00 PKD
ROOT
HETATM    1 FE   UNL     1      -9.155   8.849  69.274  1.00  0.00    -0.129 Fe 
HETATM    2  O   UNL     2      -9.722   7.241  70.384  1.00  0.00    -0.173 OA 
HETATM    3  C   UNL     2      -9.892   8.096  71.321  1.00  0.00    -0.164 C  
HETATM    4  O   UNL     2      -9.022   9.027  71.311  1.00  0.00    -0.225 OA 
HETATM    5  C   UNL     2     -11.296   8.363  71.784  1.00  0.00    -0.366 C  
ENDROOT
BRANCH   5   6
HETATM    6  C   UNL     2     -11.696   9.822  71.542  1.00  0.00    -0.450 C  
HETATM    7  C   UNL     2     -13.101  10.269  71.995  1.00  0.00    -0.425 C  
HETATM    8  O   UNL     2     -13.334  11.495  72.024  1.00  0.00    -0.476 OA 
HETATM    9  O   UNL     2     -13.951   9.326  72.219  1.00  0.00    -0.440 OA 
ENDBRANCH   5   6
TORSDOF 1
ENDMDL
MODEL      119
REMARK 921   NORMALIZED FREE ENERGY PREDICTED BY IDOCK:   -2.58 KCAL/MOL
REMARK 922        TOTAL FREE ENERGY PREDICTED BY IDOCK:   -2.88 KCAL/MOL
REMARK 923 INTER-LIGAND FREE ENERGY PREDICTED BY IDOCK:   -2.73 KCAL/MOL
REMARK 924 INTRA-LIGAND FREE ENERGY PREDICTED BY IDOCK:   -0.15 KCAL/MOL
REMARK 927      BINDING AFFINITY PREDICTED BY RF-SCORE:    0.00 PKD
ROOT
HETATM    1 FE   UNL     1     -12.739   6.310  72.801  1.00  0.00    -0.475 Fe 
HETATM    2  O   UNL     2     -13.335   8.158  72.196  1.00  0.00    -0.292 OA 
HETATM    3  C   UNL     2     -12.094   8.459  72.282  1.00  0.00    -0.392 C  
HETATM    4  O   UNL     2     -11.508   7.884  73.256  1.00  0.00    -0.290 OA 
HETATM    5  C   UNL     2     -11.353   8.758  71.010  1.00  0.00    -0.332 C  
ENDROOT
BRANCH   5   6
HETATM    6  C   UNL     2     -10.218   7.757  70.775  1.00  0.00    -0.200 C  
HETATM    7  C   UNL     2     -10.517   6.518  69.906  1.00  0.00    -0.213 C  
HETATM    8  O   UNL     2      -9.544   5.841  69.515  1.00  0.00    -0.134 OA 
HETATM    9  O   UNL     2     -11.763   6.236  69.732  1.00  0.00    -0.403 OA 
ENDBRANCH   5   6
TORSDOF 1
ENDMDL
MODEL      120
REMARK 921   NORMALIZED FREE ENERGY PREDICTED BY IDOCK:   -2.57 KCAL/MOL
REMARK 922        TOTAL FREE ENERGY PREDICTED BY IDOCK:   -2.87 KCAL/MOL
REMARK 923 INTER-LIGAND FREE ENERGY PREDICTED BY IDOCK:   -2.73 KCAL/MOL
REMARK 924 INTRA-LIGAND FREE ENERGY PREDICTED BY IDOCK:   -0.14 KCAL/MOL
REMARK 927      BINDING AFFINITY PREDICTED BY RF-SCORE:    0.00 PKD
ROOT
HETATM    1 FE   UNL     1      -9.183  13.514  67.933  1.00  0.00    -0.163 Fe 
HETATM    2  O   UNL     2     -10.954  13.544  68.934  1.00  0.00    -0.251 OA 
HETATM    3  C   UNL     2     -10.655  14.762  69.190  1.00  0.00    -0.248 C  
HETATM    4  O   UNL     2      -9.409  14.938  69.389  1.00  0.00    -0.151 OA 
HETATM    5  C   UNL     2     -11.491  15.839  68.559  1.00  0.00    -0.381 C  
ENDROOT
BRANCH   5   6
HETATM    6  C   UNL     2     -10.655  16.722  67.628  1.00  0.00    -0.325 C  
HETATM    7  C   UNL     2     -10.531  16.298  66.150  1.00  0.00    -0.322 C  
HETATM    8  O   UNL     2     -10.064  17.134  65.349  1.00  0.00    -0.571 OA 
HETATM    9  O   UNL     2     -10.839  15.075  65.884  1.00  0.00    -0.318 OA 
ENDBRANCH   5   6
TORSDOF 1
ENDMDL
MODEL      121
REMARK 921   NORMALIZED FREE ENERGY PREDICTED BY IDOCK:   -2.55 KCAL/MOL
REMARK 922        TOTAL FREE ENERGY PREDICTED BY IDOCK:   -2.85 KCAL/MOL
REMARK 923 INTER-LIGAND FREE ENERGY PREDICTED BY IDOCK:   -2.81 KCAL/MOL
REMARK 924 INTRA-LIGAND FREE ENERGY PREDICTED BY IDOCK:   -0.04 KCAL/MOL
REMARK 927      BINDING AFFINITY PREDICTED BY RF-SCORE:    0.00 PKD
ROOT
HETATM    1 FE   UNL     1     -12.173  13.287  68.543  1.00  0.00    -0.283 Fe 
HETATM    2  O   UNL     2     -12.028  11.911  67.052  1.00  0.00    -0.615 OA 
HETATM    3  C   UNL     2     -10.971  11.530  67.665  1.00  0.00    -0.242 C  
HETATM    4  O   UNL     2     -10.319  12.494  68.180  1.00  0.00    -0.218 OA 
HETATM    5  C   UNL     2     -10.987  10.177  68.319  1.00  0.00    -0.299 C  
ENDROOT
BRANCH   5   6
HETATM    6  C   UNL     2     -10.797  10.288  69.836  1.00  0.00    -0.355 C  
HETATM    7  C   UNL     2     -10.749   8.981  70.654  1.00  0.00    -0.239 C  
HETATM    8  O   UNL     2     -10.353   9.056  71.835  1.00  0.00    -0.341 OA 
HETATM    9  O   UNL     2     -11.212   7.929  70.069  1.00  0.00    -0.214 OA 
ENDBRANCH   5   6
TORSDOF 1
ENDMDL
MODEL      122
REMARK 921   NORMALIZED FREE ENERGY PREDICTED BY IDOCK:   -2.54 KCAL/MOL
REMARK 922        TOTAL FREE ENERGY PREDICTED BY IDOCK:   -2.84 KCAL/MOL
REMARK 923 INTER-LIGAND FREE ENERGY PREDICTED BY IDOCK:   -2.71 KCAL/MOL
REMARK 924 INTRA-LIGAND FREE ENERGY PREDICTED BY IDOCK:   -0.14 KCAL/MOL
REMARK 927      BINDING AFFINITY PREDICTED BY RF-SCORE:    0.00 PKD
ROOT
HETATM    1 FE   UNL     1     -13.133   9.160  70.260  1.00  0.00    -0.497 Fe 
HETATM    2  O   UNL     2     -11.818   9.881  71.634  1.00  0.00    -0.379 OA 
HETATM    3  C   UNL     2     -10.997   9.050  71.111  1.00  0.00    -0.301 C  
HETATM    4  O   UNL     2     -11.549   7.959  70.756  1.00  0.00    -0.285 OA 
HETATM    5  C   UNL     2      -9.829   9.604  70.345  1.00  0.00    -0.315 C  
ENDROOT
BRANCH   5   6
HETATM    6  C   UNL     2      -9.872   9.177  68.874  1.00  0.00    -0.179 C  
HETATM    7  C   UNL     2     -10.644  10.074  67.885  1.00  0.00    -0.250 C  
HETATM    8  O   UNL     2     -10.475   9.864  66.666  1.00  0.00    -0.221 OA 
HETATM    9  O   UNL     2     -11.474  10.910  68.408  1.00  0.00    -0.278 OA 
ENDBRANCH   5   6
TORSDOF 1
ENDMDL
MODEL      123
REMARK 921   NORMALIZED FREE ENERGY PREDICTED BY IDOCK:   -2.53 KCAL/MOL
REMARK 922        TOTAL FREE ENERGY PREDICTED BY IDOCK:   -2.83 KCAL/MOL
REMARK 923 INTER-LIGAND FREE ENERGY PREDICTED BY IDOCK:   -2.69 KCAL/MOL
REMARK 924 INTRA-LIGAND FREE ENERGY PREDICTED BY IDOCK:   -0.14 KCAL/MOL
REMARK 927      BINDING AFFINITY PREDICTED BY RF-SCORE:    0.00 PKD
ROOT
HETATM    1 FE   UNL     1     -12.751   6.649  69.527  1.00  0.00    -0.638 Fe 
HETATM    2  O   UNL     2     -11.048   5.827  70.275  1.00  0.00    -0.311 OA 
HETATM    3  C   UNL     2     -10.468   6.442  69.314  1.00  0.00    -0.231 C  
HETATM    4  O   UNL     2     -11.162   6.466  68.246  1.00  0.00    -0.309 OA 
HETATM    5  C   UNL     2      -9.552   7.582  69.659  1.00  0.00    -0.159 C  
ENDROOT
BRANCH   5   6
HETATM    6  C   UNL     2     -10.055   8.903  69.068  1.00  0.00    -0.205 C  
HETATM    7  C   UNL     2     -10.771   9.889  70.014  1.00  0.00    -0.292 C  
HETATM    8  O   UNL     2     -10.959  11.051  69.598  1.00  0.00    -0.251 OA 
HETATM    9  O   UNL     2     -11.198   9.398  71.127  1.00  0.00    -0.296 OA 
ENDBRANCH   5   6
TORSDOF 1
ENDMDL
MODEL      124
REMARK 921   NORMALIZED FREE ENERGY PREDICTED BY IDOCK:   -2.52 KCAL/MOL
REMARK 922        TOTAL FREE ENERGY PREDICTED BY IDOCK:   -2.81 KCAL/MOL
REMARK 923 INTER-LIGAND FREE ENERGY PREDICTED BY IDOCK:   -2.67 KCAL/MOL
REMARK 924 INTRA-LIGAND FREE ENERGY PREDICTED BY IDOCK:   -0.15 KCAL/MOL
REMARK 927      BINDING AFFINITY PREDICTED BY RF-SCORE:    0.00 PKD
ROOT
HETATM    1 FE   UNL     1      -9.403   7.385  69.785  1.00  0.00    -0.142 Fe 
HETATM    2  O   UNL     2     -10.838   8.826  69.804  1.00  0.00    -0.235 OA 
HETATM    3  C   UNL     2     -11.435   8.057  70.635  1.00  0.00    -0.232 C  
HETATM    4  O   UNL     2     -11.285   6.821  70.367  1.00  0.00    -0.282 OA 
HETATM    5  C   UNL     2     -11.562   8.524  72.058  1.00  0.00    -0.432 C  
ENDROOT
BRANCH   5   6
HETATM    6  C   UNL     2     -10.831   7.584  73.022  1.00  0.00    -0.445 C  
HETATM    7  C   UNL     2      -9.367   7.913  73.377  1.00  0.00    -0.282 C  
HETATM    8  O   UNL     2      -8.856   7.300  74.338  1.00  0.00    -0.208 OA 
HETATM    9  O   UNL     2      -8.762   8.733  72.587  1.00  0.00    -0.408 OA 
ENDBRANCH   5   6
TORSDOF 1
ENDMDL
MODEL      125
REMARK 921   NORMALIZED FREE ENERGY PREDICTED BY IDOCK:   -2.51 KCAL/MOL
REMARK 922        TOTAL FREE ENERGY PREDICTED BY IDOCK:   -2.81 KCAL/MOL
REMARK 923 INTER-LIGAND FREE ENERGY PREDICTED BY IDOCK:   -2.71 KCAL/MOL
REMARK 924 INTRA-LIGAND FREE ENERGY PREDICTED BY IDOCK:   -0.10 KCAL/MOL
REMARK 927      BINDING AFFINITY PREDICTED BY RF-SCORE:    0.00 PKD
ROOT
HETATM    1 FE   UNL     1     -12.006   6.094  66.360  1.00  0.00    -0.551 Fe 
HETATM    2  O   UNL     2     -10.375   5.007  66.904  1.00  0.00    -0.228 OA 
HETATM    3  C   UNL     2     -10.197   5.929  67.774  1.00  0.00    -0.182 C  
HETATM    4  O   UNL     2     -10.509   7.087  67.345  1.00  0.00    -0.210 OA 
HETATM    5  C   UNL     2     -10.377   5.572  69.223  1.00  0.00    -0.335 C  
ENDROOT
BRANCH   5   6
HETATM    6  C   UNL     2     -11.517   6.375  69.858  1.00  0.00    -0.483 C  
HETATM    7  C   UNL     2     -11.146   7.605  70.711  1.00  0.00    -0.264 C  
HETATM    8  O   UNL     2     -12.066   8.390  71.019  1.00  0.00    -0.279 OA 
HETATM    9  O   UNL     2      -9.922   7.668  71.111  1.00  0.00    -0.178 OA 
ENDBRANCH   5   6
TORSDOF 1
ENDMDL
MODEL      126
REMARK 921   NORMALIZED FREE ENERGY PREDICTED BY IDOCK:   -2.50 KCAL/MOL
REMARK 922        TOTAL FREE ENERGY PREDICTED BY IDOCK:   -2.80 KCAL/MOL
REMARK 923 INTER-LIGAND FREE ENERGY PREDICTED BY IDOCK:   -2.75 KCAL/MOL
REMARK 924 INTRA-LIGAND FREE ENERGY PREDICTED BY IDOCK:   -0.05 KCAL/MOL
REMARK 927      BINDING AFFINITY PREDICTED BY RF-SCORE:    0.00 PKD
ROOT
HETATM    1 FE   UNL     1      -6.353  18.384  70.442  1.00  0.00    -0.234 Fe 
HETATM    2  O   UNL     2      -6.150  20.359  70.003  1.00  0.00    -0.354 OA 
HETATM    3  C   UNL     2      -6.126  19.966  68.785  1.00  0.00    -0.266 C  
HETATM    4  O   UNL     2      -5.519  18.857  68.631  1.00  0.00    -0.193 OA 
HETATM    5  C   UNL     2      -7.285  20.336  67.903  1.00  0.00    -0.319 C  
ENDROOT
BRANCH   5   6
HETATM    6  C   UNL     2      -8.021  19.091  67.397  1.00  0.00    -0.272 C  
HETATM    7  C   UNL     2      -7.563  18.476  66.058  1.00  0.00    -0.197 C  
HETATM    8  O   UNL     2      -7.989  17.339  65.772  1.00  0.00    -0.511 OA 
HETATM    9  O   UNL     2      -6.845  19.236  65.303  1.00  0.00    -0.400 OA 
ENDBRANCH   5   6
TORSDOF 1
ENDMDL
MODEL      127
REMARK 921   NORMALIZED FREE ENERGY PREDICTED BY IDOCK:   -2.50 KCAL/MOL
REMARK 922        TOTAL FREE ENERGY PREDICTED BY IDOCK:   -2.80 KCAL/MOL
REMARK 923 INTER-LIGAND FREE ENERGY PREDICTED BY IDOCK:   -2.75 KCAL/MOL
REMARK 924 INTRA-LIGAND FREE ENERGY PREDICTED BY IDOCK:   -0.04 KCAL/MOL
REMARK 927      BINDING AFFINITY PREDICTED BY RF-SCORE:    0.00 PKD
ROOT
HETATM    1 FE   UNL     1     -10.340  15.151  67.048  1.00  0.00    -0.243 Fe 
HETATM    2  O   UNL     2     -11.432  14.579  68.666  1.00  0.00    -0.264 OA 
HETATM    3  C   UNL     2     -11.953  13.726  67.866  1.00  0.00    -0.356 C  
HETATM    4  O   UNL     2     -12.106  14.179  66.685  1.00  0.00    -0.429 OA 
HETATM    5  C   UNL     2     -11.656  12.272  68.098  1.00  0.00    -0.396 C  
ENDROOT
BRANCH   5   6
HETATM    6  C   UNL     2     -10.912  11.657  66.908  1.00  0.00    -0.342 C  
HETATM    7  C   UNL     2     -10.489  10.177  67.008  1.00  0.00    -0.240 C  
HETATM    8  O   UNL     2     -10.109   9.615  65.960  1.00  0.00    -0.283 OA 
HETATM    9  O   UNL     2     -10.478   9.671  68.194  1.00  0.00    -0.199 OA 
ENDBRANCH   5   6
TORSDOF 1
ENDMDL
MODEL      128
REMARK 921   NORMALIZED FREE ENERGY PREDICTED BY IDOCK:   -2.49 KCAL/MOL
REMARK 922        TOTAL FREE ENERGY PREDICTED BY IDOCK:   -2.79 KCAL/MOL
REMARK 923 INTER-LIGAND FREE ENERGY PREDICTED BY IDOCK:   -2.77 KCAL/MOL
REMARK 924 INTRA-LIGAND FREE ENERGY PREDICTED BY IDOCK:   -0.02 KCAL/MOL
REMARK 927      BINDING AFFINITY PREDICTED BY RF-SCORE:    0.00 PKD
ROOT
HETATM    1 FE   UNL     1      -9.218  19.491  65.380  1.00  0.00    -0.258 Fe 
HETATM    2  O   UNL     2     -10.652  19.829  66.782  1.00  0.00    -0.457 OA 
HETATM    3  C   UNL     2     -10.202  18.764  67.331  1.00  0.00    -0.395 C  
HETATM    4  O   UNL     2      -9.841  17.882  66.485  1.00  0.00    -0.312 OA 
HETATM    5  C   UNL     2      -9.495  18.897  68.650  1.00  0.00    -0.427 C  
ENDROOT
BRANCH   5   6
HETATM    6  C   UNL     2      -8.036  18.441  68.551  1.00  0.00    -0.340 C  
HETATM    7  C   UNL     2      -7.731  16.945  68.769  1.00  0.00    -0.247 C  
HETATM    8  O   UNL     2      -6.596  16.536  68.450  1.00  0.00    -0.132 OA 
HETATM    9  O   UNL     2      -8.654  16.258  69.353  1.00  0.00    -0.202 OA 
ENDBRANCH   5   6
TORSDOF 1
ENDMDL
MODEL      129
REMARK 921   NORMALIZED FREE ENERGY PREDICTED BY IDOCK:   -2.49 KCAL/MOL
REMARK 922        TOTAL FREE ENERGY PREDICTED BY IDOCK:   -2.78 KCAL/MOL
REMARK 923 INTER-LIGAND FREE ENERGY PREDICTED BY IDOCK:   -2.65 KCAL/MOL
REMARK 924 INTRA-LIGAND FREE ENERGY PREDICTED BY IDOCK:   -0.13 KCAL/MOL
REMARK 927      BINDING AFFINITY PREDICTED BY RF-SCORE:    0.00 PKD
ROOT
HETATM    1 FE   UNL     1     -11.289  12.958  69.356  1.00  0.00    -0.213 Fe 
HETATM    2  O   UNL     2     -11.978  11.763  67.860  1.00  0.00    -0.575 OA 
HETATM    3  C   UNL     2     -11.841  12.802  67.126  1.00  0.00    -0.350 C  
HETATM    4  O   UNL     2     -12.131  13.884  67.733  1.00  0.00    -0.371 OA 
HETATM    5  C   UNL     2     -10.778  12.779  66.065  1.00  0.00    -0.295 C  
ENDROOT
BRANCH   5   6
HETATM    6  C   UNL     2      -9.720  13.860  66.309  1.00  0.00    -0.304 C  
HETATM    7  C   UNL     2      -8.528  13.509  67.223  1.00  0.00    -0.193 C  
HETATM    8  O   UNL     2      -7.555  14.291  67.224  1.00  0.00    -0.183 OA 
HETATM    9  O   UNL     2      -8.679  12.477  67.980  1.00  0.00    -0.171 OA 
ENDBRANCH   5   6
TORSDOF 1
ENDMDL
MODEL      130
REMARK 921   NORMALIZED FREE ENERGY PREDICTED BY IDOCK:   -2.48 KCAL/MOL
REMARK 922        TOTAL FREE ENERGY PREDICTED BY IDOCK:   -2.78 KCAL/MOL
REMARK 923 INTER-LIGAND FREE ENERGY PREDICTED BY IDOCK:   -2.73 KCAL/MOL
REMARK 924 INTRA-LIGAND FREE ENERGY PREDICTED BY IDOCK:   -0.05 KCAL/MOL
REMARK 927      BINDING AFFINITY PREDICTED BY RF-SCORE:    0.00 PKD
ROOT
HETATM    1 FE   UNL     1      -7.114  18.329  69.829  1.00  0.00    -0.229 Fe 
HETATM    2  O   UNL     2      -7.519  19.925  68.635  1.00  0.00    -0.308 OA 
HETATM    3  C   UNL     2      -7.358  19.097  67.672  1.00  0.00    -0.228 C  
HETATM    4  O   UNL     2      -6.439  18.244  67.896  1.00  0.00    -0.190 OA 
HETATM    5  C   UNL     2      -8.563  18.731  66.852  1.00  0.00    -0.290 C  
ENDROOT
BRANCH   5   6
HETATM    6  C   UNL     2      -8.875  17.235  66.956  1.00  0.00    -0.243 C  
HETATM    7  C   UNL     2      -9.845  16.627  65.922  1.00  0.00    -0.273 C  
HETATM    8  O   UNL     2      -9.907  15.382  65.854  1.00  0.00    -0.303 OA 
HETATM    9  O   UNL     2     -10.580  17.464  65.274  1.00  0.00    -0.667 OA 
ENDBRANCH   5   6
TORSDOF 1
ENDMDL
MODEL      131
REMARK 921   NORMALIZED FREE ENERGY PREDICTED BY IDOCK:   -2.47 KCAL/MOL
REMARK 922        TOTAL FREE ENERGY PREDICTED BY IDOCK:   -2.77 KCAL/MOL
REMARK 923 INTER-LIGAND FREE ENERGY PREDICTED BY IDOCK:   -2.61 KCAL/MOL
REMARK 924 INTRA-LIGAND FREE ENERGY PREDICTED BY IDOCK:   -0.16 KCAL/MOL
REMARK 927      BINDING AFFINITY PREDICTED BY RF-SCORE:    0.00 PKD
ROOT
HETATM    1 FE   UNL     1      -9.647  12.430  69.487  1.00  0.00    -0.378 Fe 
HETATM    2  O   UNL     2     -10.799  11.595  68.034  1.00  0.00    -0.195 OA 
HETATM    3  C   UNL     2     -11.649  12.498  68.352  1.00  0.00    -0.322 C  
HETATM    4  O   UNL     2     -11.668  12.746  69.600  1.00  0.00    -0.304 OA 
HETATM    5  C   UNL     2     -11.934  13.580  67.349  1.00  0.00    -0.398 C  
ENDROOT
BRANCH   5   6
HETATM    6  C   UNL     2     -11.546  14.959  67.890  1.00  0.00    -0.364 C  
HETATM    7  C   UNL     2     -10.061  15.371  67.821  1.00  0.00    -0.227 C  
HETATM    8  O   UNL     2      -9.786  16.570  68.029  1.00  0.00    -0.233 OA 
HETATM    9  O   UNL     2      -9.216  14.413  67.641  1.00  0.00    -0.187 OA 
ENDBRANCH   5   6
TORSDOF 1
ENDMDL
MODEL      132
REMARK 921   NORMALIZED FREE ENERGY PREDICTED BY IDOCK:   -2.45 KCAL/MOL
REMARK 922        TOTAL FREE ENERGY PREDICTED BY IDOCK:   -2.75 KCAL/MOL
REMARK 923 INTER-LIGAND FREE ENERGY PREDICTED BY IDOCK:   -2.70 KCAL/MOL
REMARK 924 INTRA-LIGAND FREE ENERGY PREDICTED BY IDOCK:   -0.05 KCAL/MOL
REMARK 927      BINDING AFFINITY PREDICTED BY RF-SCORE:    0.00 PKD
ROOT
HETATM    1 FE   UNL     1      -9.772  14.220  66.179  1.00  0.00    -0.234 Fe 
HETATM    2  O   UNL     2     -11.537  14.722  67.056  1.00  0.00    -0.362 OA 
HETATM    3  C   UNL     2     -10.806  15.343  67.903  1.00  0.00    -0.300 C  
HETATM    4  O   UNL     2      -9.717  14.735  68.161  1.00  0.00    -0.209 OA 
HETATM    5  C   UNL     2     -10.870  16.844  67.921  1.00  0.00    -0.310 C  
ENDROOT
BRANCH   5   6
HETATM    6  C   UNL     2      -9.513  17.466  67.577  1.00  0.00    -0.250 C  
HETATM    7  C   UNL     2      -9.184  18.852  68.168  1.00  0.00    -0.320 C  
HETATM    8  O   UNL     2      -8.001  19.244  68.093  1.00  0.00    -0.285 OA 
HETATM    9  O   UNL     2     -10.187  19.531  68.610  1.00  0.00    -0.428 OA 
ENDBRANCH   5   6
TORSDOF 1
ENDMDL
MODEL      133
REMARK 921   NORMALIZED FREE ENERGY PREDICTED BY IDOCK:   -2.44 KCAL/MOL
REMARK 922        TOTAL FREE ENERGY PREDICTED BY IDOCK:   -2.74 KCAL/MOL
REMARK 923 INTER-LIGAND FREE ENERGY PREDICTED BY IDOCK:   -2.64 KCAL/MOL
REMARK 924 INTRA-LIGAND FREE ENERGY PREDICTED BY IDOCK:   -0.10 KCAL/MOL
REMARK 927      BINDING AFFINITY PREDICTED BY RF-SCORE:    0.00 PKD
ROOT
HETATM    1 FE   UNL     1      -7.085  17.831  67.995  1.00  0.00    -0.173 Fe 
HETATM    2  O   UNL     2      -7.687  17.870  66.053  1.00  0.00    -0.437 OA 
HETATM    3  C   UNL     2      -8.480  16.928  66.401  1.00  0.00    -0.290 C  
HETATM    4  O   UNL     2      -7.967  16.136  67.257  1.00  0.00    -0.148 OA 
HETATM    5  C   UNL     2      -9.954  17.217  66.410  1.00  0.00    -0.319 C  
ENDROOT
BRANCH   5   6
HETATM    6  C   UNL     2     -10.543  17.079  67.818  1.00  0.00    -0.350 C  
HETATM    7  C   UNL     2     -11.355  15.808  68.138  1.00  0.00    -0.337 C  
HETATM    8  O   UNL     2     -11.621  15.582  69.337  1.00  0.00    -0.308 OA 
HETATM    9  O   UNL     2     -11.771  15.131  67.123  1.00  0.00    -0.275 OA 
ENDBRANCH   5   6
TORSDOF 1
ENDMDL
MODEL      134
REMARK 921   NORMALIZED FREE ENERGY PREDICTED BY IDOCK:   -2.42 KCAL/MOL
REMARK 922        TOTAL FREE ENERGY PREDICTED BY IDOCK:   -2.71 KCAL/MOL
REMARK 923 INTER-LIGAND FREE ENERGY PREDICTED BY IDOCK:   -2.61 KCAL/MOL
REMARK 924 INTRA-LIGAND FREE ENERGY PREDICTED BY IDOCK:   -0.10 KCAL/MOL
REMARK 927      BINDING AFFINITY PREDICTED BY RF-SCORE:    0.00 PKD
ROOT
HETATM    1 FE   UNL     1      -8.800   8.077  68.607  1.00  0.00    -0.125 Fe 
HETATM    2  O   UNL     2      -9.995   9.693  68.295  1.00  0.00    -0.147 OA 
HETATM    3  C   UNL     2     -10.748   9.162  69.183  1.00  0.00    -0.172 C  
HETATM    4  O   UNL     2     -10.776   7.891  69.117  1.00  0.00    -0.204 OA 
HETATM    5  C   UNL     2     -10.881   9.865  70.504  1.00  0.00    -0.391 C  
ENDROOT
BRANCH   5   6
HETATM    6  C   UNL     2     -10.358   8.998  71.654  1.00  0.00    -0.420 C  
HETATM    7  C   UNL     2     -11.393   8.274  72.539  1.00  0.00    -0.385 C  
HETATM    8  O   UNL     2     -10.972   7.385  73.307  1.00  0.00    -0.376 OA 
HETATM    9  O   UNL     2     -12.603   8.715  72.473  1.00  0.00    -0.392 OA 
ENDBRANCH   5   6
TORSDOF 1
ENDMDL
MODEL      135
REMARK 921   NORMALIZED FREE ENERGY PREDICTED BY IDOCK:   -2.41 KCAL/MOL
REMARK 922        TOTAL FREE ENERGY PREDICTED BY IDOCK:   -2.70 KCAL/MOL
REMARK 923 INTER-LIGAND FREE ENERGY PREDICTED BY IDOCK:   -2.60 KCAL/MOL
REMARK 924 INTRA-LIGAND FREE ENERGY PREDICTED BY IDOCK:   -0.10 KCAL/MOL
REMARK 927      BINDING AFFINITY PREDICTED BY RF-SCORE:    0.00 PKD
ROOT
HETATM    1 FE   UNL     1      -9.211   6.089  68.770  1.00  0.00    -0.119 Fe 
HETATM    2  O   UNL     2     -11.207   6.459  68.658  1.00  0.00    -0.329 OA 
HETATM    3  C   UNL     2     -11.236   6.030  69.863  1.00  0.00    -0.368 C  
HETATM    4  O   UNL     2     -10.423   5.072  70.071  1.00  0.00    -0.276 OA 
HETATM    5  C   UNL     2     -11.557   7.014  70.952  1.00  0.00    -0.370 C  
ENDROOT
BRANCH   5   6
HETATM    6  C   UNL     2     -10.391   7.161  71.935  1.00  0.00    -0.212 C  
HETATM    7  C   UNL     2      -9.640   8.507  71.967  1.00  0.00    -0.301 C  
HETATM    8  O   UNL     2      -8.863   8.710  72.923  1.00  0.00    -0.367 OA 
HETATM    9  O   UNL     2      -9.812   9.277  70.948  1.00  0.00    -0.262 OA 
ENDBRANCH   5   6
TORSDOF 1
ENDMDL
MODEL      136
REMARK 921   NORMALIZED FREE ENERGY PREDICTED BY IDOCK:   -2.40 KCAL/MOL
REMARK 922        TOTAL FREE ENERGY PREDICTED BY IDOCK:   -2.69 KCAL/MOL
REMARK 923 INTER-LIGAND FREE ENERGY PREDICTED BY IDOCK:   -2.56 KCAL/MOL
REMARK 924 INTRA-LIGAND FREE ENERGY PREDICTED BY IDOCK:   -0.13 KCAL/MOL
REMARK 927      BINDING AFFINITY PREDICTED BY RF-SCORE:    0.00 PKD
ROOT
HETATM    1 FE   UNL     1      -8.845  18.934  66.714  1.00  0.00    -0.254 Fe 
HETATM    2  O   UNL     2     -10.459  18.402  67.830  1.00  0.00    -0.388 OA 
HETATM    3  C   UNL     2     -10.518  17.388  67.051  1.00  0.00    -0.284 C  
HETATM    4  O   UNL     2     -10.201  17.665  65.849  1.00  0.00    -0.517 OA 
HETATM    5  C   UNL     2     -10.216  16.036  67.632  1.00  0.00    -0.262 C  
ENDROOT
BRANCH   5   6
HETATM    6  C   UNL     2      -8.990  15.403  66.968  1.00  0.00    -0.253 C  
HETATM    7  C   UNL     2      -7.657  15.426  67.743  1.00  0.00    -0.150 C  
HETATM    8  O   UNL     2      -6.731  14.705  67.318  1.00  0.00    -0.280 OA 
HETATM    9  O   UNL     2      -7.584  16.266  68.719  1.00  0.00    -0.173 OA 
ENDBRANCH   5   6
TORSDOF 1
ENDMDL
MODEL      137
REMARK 921   NORMALIZED FREE ENERGY PREDICTED BY IDOCK:   -2.39 KCAL/MOL
REMARK 922        TOTAL FREE ENERGY PREDICTED BY IDOCK:   -2.68 KCAL/MOL
REMARK 923 INTER-LIGAND FREE ENERGY PREDICTED BY IDOCK:   -2.54 KCAL/MOL
REMARK 924 INTRA-LIGAND FREE ENERGY PREDICTED BY IDOCK:   -0.15 KCAL/MOL
REMARK 927      BINDING AFFINITY PREDICTED BY RF-SCORE:    0.00 PKD
ROOT
HETATM    1 FE   UNL     1      -8.817  12.257  69.241  1.00  0.00    -0.346 Fe 
HETATM    2  O   UNL     2      -8.490  10.840  67.820  1.00  0.00    -0.118 OA 
HETATM    3  C   UNL     2      -9.743  10.607  67.930  1.00  0.00    -0.161 C  
HETATM    4  O   UNL     2     -10.168  10.722  69.125  1.00  0.00    -0.208 OA 
HETATM    5  C   UNL     2     -10.627  10.949  66.764  1.00  0.00    -0.313 C  
ENDROOT
BRANCH   5   6
HETATM    6  C   UNL     2     -11.661  12.016  67.141  1.00  0.00    -0.387 C  
HETATM    7  C   UNL     2     -11.290  13.494  66.906  1.00  0.00    -0.326 C  
HETATM    8  O   UNL     2     -12.208  14.336  66.979  1.00  0.00    -0.424 OA 
HETATM    9  O   UNL     2     -10.035  13.744  66.742  1.00  0.00    -0.256 OA 
ENDBRANCH   5   6
TORSDOF 1
ENDMDL
MODEL      138
REMARK 921   NORMALIZED FREE ENERGY PREDICTED BY IDOCK:   -2.39 KCAL/MOL
REMARK 922        TOTAL FREE ENERGY PREDICTED BY IDOCK:   -2.68 KCAL/MOL
REMARK 923 INTER-LIGAND FREE ENERGY PREDICTED BY IDOCK:   -2.54 KCAL/MOL
REMARK 924 INTRA-LIGAND FREE ENERGY PREDICTED BY IDOCK:   -0.14 KCAL/MOL
REMARK 927      BINDING AFFINITY PREDICTED BY RF-SCORE:    0.00 PKD
ROOT
HETATM    1 FE   UNL     1     -12.115  13.988  69.080  1.00  0.00    -0.253 Fe 
HETATM    2  O   UNL     2     -10.446  13.163  68.261  1.00  0.00    -0.237 OA 
HETATM    3  C   UNL     2     -10.671  13.962  67.287  1.00  0.00    -0.284 C  
HETATM    4  O   UNL     2     -11.911  14.117  67.045  1.00  0.00    -0.408 OA 
HETATM    5  C   UNL     2      -9.698  15.085  67.059  1.00  0.00    -0.241 C  
ENDROOT
BRANCH   5   6
HETATM    6  C   UNL     2     -10.374  16.450  67.218  1.00  0.00    -0.287 C  
HETATM    7  C   UNL     2     -10.189  17.196  68.556  1.00  0.00    -0.346 C  
HETATM    8  O   UNL     2     -10.527  18.397  68.597  1.00  0.00    -0.306 OA 
HETATM    9  O   UNL     2      -9.783  16.483  69.550  1.00  0.00    -0.179 OA 
ENDBRANCH   5   6
TORSDOF 1
ENDMDL
MODEL      139
REMARK 921   NORMALIZED FREE ENERGY PREDICTED BY IDOCK:   -2.38 KCAL/MOL
REMARK 922        TOTAL FREE ENERGY PREDICTED BY IDOCK:   -2.67 KCAL/MOL
REMARK 923 INTER-LIGAND FREE ENERGY PREDICTED BY IDOCK:   -2.54 KCAL/MOL
REMARK 924 INTRA-LIGAND FREE ENERGY PREDICTED BY IDOCK:   -0.13 KCAL/MOL
REMARK 927      BINDING AFFINITY PREDICTED BY RF-SCORE:    0.00 PKD
ROOT
HETATM    1 FE   UNL     1      -8.805   7.926  69.661  1.00  0.00    -0.126 Fe 
HETATM    2  O   UNL     2     -10.649   7.836  68.808  1.00  0.00    -0.202 OA 
HETATM    3  C   UNL     2     -10.727   6.691  69.374  1.00  0.00    -0.259 C  
HETATM    4  O   UNL     2      -9.618   6.065  69.387  1.00  0.00    -0.132 OA 
HETATM    5  C   UNL     2     -11.715   6.526  70.494  1.00  0.00    -0.438 C  
ENDROOT
BRANCH   5   6
HETATM    6  C   UNL     2     -11.014   6.180  71.811  1.00  0.00    -0.315 C  
HETATM    7  C   UNL     2     -10.856   7.299  72.861  1.00  0.00    -0.337 C  
HETATM    8  O   UNL     2     -10.513   6.963  74.013  1.00  0.00    -0.374 OA 
HETATM    9  O   UNL     2     -11.005   8.505  72.429  1.00  0.00    -0.357 OA 
ENDBRANCH   5   6
TORSDOF 1
ENDMDL
MODEL      140
REMARK 921   NORMALIZED FREE ENERGY PREDICTED BY IDOCK:   -2.37 KCAL/MOL
REMARK 922        TOTAL FREE ENERGY PREDICTED BY IDOCK:   -2.66 KCAL/MOL
REMARK 923 INTER-LIGAND FREE ENERGY PREDICTED BY IDOCK:   -2.51 KCAL/MOL
REMARK 924 INTRA-LIGAND FREE ENERGY PREDICTED BY IDOCK:   -0.14 KCAL/MOL
REMARK 927      BINDING AFFINITY PREDICTED BY RF-SCORE:    0.00 PKD
ROOT
HETATM    1 FE   UNL     1     -10.548  11.473  70.122  1.00  0.00    -0.418 Fe 
HETATM    2  O   UNL     2     -12.192  11.173  68.963  1.00  0.00    -0.469 OA 
HETATM    3  C   UNL     2     -11.747  12.160  68.280  1.00  0.00    -0.342 C  
HETATM    4  O   UNL     2     -11.201  13.058  69.000  1.00  0.00    -0.254 OA 
HETATM    5  C   UNL     2     -11.253  11.886  66.888  1.00  0.00    -0.382 C  
ENDROOT
BRANCH   5   6
HETATM    6  C   UNL     2      -9.765  12.221  66.748  1.00  0.00    -0.219 C  
HETATM    7  C   UNL     2      -8.744  11.097  67.019  1.00  0.00    -0.148 C  
HETATM    8  O   UNL     2      -7.562  11.296  66.670  1.00  0.00    -0.146 OA 
HETATM    9  O   UNL     2      -9.186  10.075  67.670  1.00  0.00    -0.136 OA 
ENDBRANCH   5   6
TORSDOF 1
ENDMDL
MODEL      141
REMARK 921   NORMALIZED FREE ENERGY PREDICTED BY IDOCK:   -2.37 KCAL/MOL
REMARK 922        TOTAL FREE ENERGY PREDICTED BY IDOCK:   -2.66 KCAL/MOL
REMARK 923 INTER-LIGAND FREE ENERGY PREDICTED BY IDOCK:   -2.61 KCAL/MOL
REMARK 924 INTRA-LIGAND FREE ENERGY PREDICTED BY IDOCK:   -0.05 KCAL/MOL
REMARK 927      BINDING AFFINITY PREDICTED BY RF-SCORE:    0.00 PKD
ROOT
HETATM    1 FE   UNL     1     -11.910   9.067  69.374  1.00  0.00    -0.444 Fe 
HETATM    2  O   UNL     2     -12.728   8.795  71.216  1.00  0.00    -0.305 OA 
HETATM    3  C   UNL     2     -11.762   7.974  71.395  1.00  0.00    -0.287 C  
HETATM    4  O   UNL     2     -11.464   7.319  70.345  1.00  0.00    -0.284 OA 
HETATM    5  C   UNL     2     -10.705   8.341  72.398  1.00  0.00    -0.411 C  
ENDROOT
BRANCH   5   6
HETATM    6  C   UNL     2      -9.332   8.486  71.734  1.00  0.00    -0.323 C  
HETATM    7  C   UNL     2      -8.082   8.362  72.628  1.00  0.00    -0.110 C  
HETATM    8  O   UNL     2      -6.978   8.234  72.060  1.00  0.00    -0.075 OA 
HETATM    9  O   UNL     2      -8.277   8.492  73.896  1.00  0.00    -0.369 OA 
ENDBRANCH   5   6
TORSDOF 1
ENDMDL
MODEL      142
REMARK 921   NORMALIZED FREE ENERGY PREDICTED BY IDOCK:   -2.36 KCAL/MOL
REMARK 922        TOTAL FREE ENERGY PREDICTED BY IDOCK:   -2.65 KCAL/MOL
REMARK 923 INTER-LIGAND FREE ENERGY PREDICTED BY IDOCK:   -2.60 KCAL/MOL
REMARK 924 INTRA-LIGAND FREE ENERGY PREDICTED BY IDOCK:   -0.05 KCAL/MOL
REMARK 927      BINDING AFFINITY PREDICTED BY RF-SCORE:    0.00 PKD
ROOT
HETATM    1 FE   UNL     1     -11.148  18.165  67.265  1.00  0.00    -0.374 Fe 
HETATM    2  O   UNL     2     -10.008  19.744  66.678  1.00  0.00    -0.372 OA 
HETATM    3  C   UNL     2      -9.101  19.210  67.408  1.00  0.00    -0.292 C  
HETATM    4  O   UNL     2      -9.566  18.671  68.464  1.00  0.00    -0.328 OA 
HETATM    5  C   UNL     2      -7.892  18.641  66.723  1.00  0.00    -0.258 C  
ENDROOT
BRANCH   5   6
HETATM    6  C   UNL     2      -7.772  17.132  66.963  1.00  0.00    -0.221 C  
HETATM    7  C   UNL     2      -6.369  16.498  66.883  1.00  0.00    -0.131 C  
HETATM    8  O   UNL     2      -6.238  15.334  67.315  1.00  0.00    -0.321 OA 
HETATM    9  O   UNL     2      -5.464  17.198  66.288  1.00  0.00    -0.302 OA 
ENDBRANCH   5   6
TORSDOF 1
ENDMDL
MODEL      143
REMARK 921   NORMALIZED FREE ENERGY PREDICTED BY IDOCK:   -2.36 KCAL/MOL
REMARK 922        TOTAL FREE ENERGY PREDICTED BY IDOCK:   -2.65 KCAL/MOL
REMARK 923 INTER-LIGAND FREE ENERGY PREDICTED BY IDOCK:   -2.60 KCAL/MOL
REMARK 924 INTRA-LIGAND FREE ENERGY PREDICTED BY IDOCK:   -0.05 KCAL/MOL
REMARK 927      BINDING AFFINITY PREDICTED BY RF-SCORE:    0.00 PKD
ROOT
HETATM    1 FE   UNL     1      -6.237  16.815  66.494  1.00  0.00    -0.128 Fe 
HETATM    2  O   UNL     2      -7.220  18.290  67.492  1.00  0.00    -0.202 OA 
HETATM    3  C   UNL     2      -8.052  18.232  66.521  1.00  0.00    -0.269 C  
HETATM    4  O   UNL     2      -7.493  18.007  65.399  1.00  0.00    -0.482 OA 
HETATM    5  C   UNL     2      -9.433  17.715  66.809  1.00  0.00    -0.285 C  
ENDROOT
BRANCH   5   6
HETATM    6  C   UNL     2      -9.728  16.437  66.016  1.00  0.00    -0.356 C  
HETATM    7  C   UNL     2     -10.577  15.345  66.699  1.00  0.00    -0.306 C  
HETATM    8  O   UNL     2     -11.019  14.426  65.979  1.00  0.00    -0.305 OA 
HETATM    9  O   UNL     2     -10.681  15.428  67.981  1.00  0.00    -0.263 OA 
ENDBRANCH   5   6
TORSDOF 1
ENDMDL
MODEL      144
REMARK 921   NORMALIZED FREE ENERGY PREDICTED BY IDOCK:   -2.36 KCAL/MOL
REMARK 922        TOTAL FREE ENERGY PREDICTED BY IDOCK:   -2.64 KCAL/MOL
REMARK 923 INTER-LIGAND FREE ENERGY PREDICTED BY IDOCK:   -2.60 KCAL/MOL
REMARK 924 INTRA-LIGAND FREE ENERGY PREDICTED BY IDOCK:   -0.05 KCAL/MOL
REMARK 927      BINDING AFFINITY PREDICTED BY RF-SCORE:    0.00 PKD
ROOT
HETATM    1 FE   UNL     1     -11.670   5.837  65.895  1.00  0.00    -0.646 Fe 
HETATM    2  O   UNL     2     -11.395   6.159  67.884  1.00  0.00    -0.208 OA 
HETATM    3  C   UNL     2     -10.303   6.721  67.523  1.00  0.00    -0.210 C  
HETATM    4  O   UNL     2      -9.748   6.142  66.534  1.00  0.00    -0.159 OA 
HETATM    5  C   UNL     2     -10.183   8.207  67.709  1.00  0.00    -0.288 C  
ENDROOT
BRANCH   5   6
HETATM    6  C   UNL     2      -9.999   8.925  66.368  1.00  0.00    -0.354 C  
HETATM    7  C   UNL     2     -10.394  10.414  66.288  1.00  0.00    -0.203 C  
HETATM    8  O   UNL     2     -10.020  11.055  65.284  1.00  0.00    -0.234 OA 
HETATM    9  O   UNL     2     -11.160  10.849  67.229  1.00  0.00    -0.296 OA 
ENDBRANCH   5   6
TORSDOF 1
ENDMDL
MODEL      145
REMARK 921   NORMALIZED FREE ENERGY PREDICTED BY IDOCK:   -2.35 KCAL/MOL
REMARK 922        TOTAL FREE ENERGY PREDICTED BY IDOCK:   -2.64 KCAL/MOL
REMARK 923 INTER-LIGAND FREE ENERGY PREDICTED BY IDOCK:   -2.54 KCAL/MOL
REMARK 924 INTRA-LIGAND FREE ENERGY PREDICTED BY IDOCK:   -0.10 KCAL/MOL
REMARK 927      BINDING AFFINITY PREDICTED BY RF-SCORE:    0.00 PKD
ROOT
HETATM    1 FE   UNL     1      -8.707  11.643  64.189  1.00  0.00    -0.370 Fe 
HETATM    2  O   UNL     2     -10.654  11.057  64.231  1.00  0.00    -0.357 OA 
HETATM    3  C   UNL     2     -10.576  11.293  65.486  1.00  0.00    -0.246 C  
HETATM    4  O   UNL     2      -9.445  10.983  65.982  1.00  0.00    -0.192 OA 
HETATM    5  C   UNL     2     -11.365  12.448  66.036  1.00  0.00    -0.397 C  
ENDROOT
BRANCH   5   6
HETATM    6  C   UNL     2     -10.446  13.511  66.646  1.00  0.00    -0.274 C  
HETATM    7  C   UNL     2     -10.411  13.639  68.183  1.00  0.00    -0.247 C  
HETATM    8  O   UNL     2      -9.495  14.323  68.682  1.00  0.00    -0.204 OA 
HETATM    9  O   UNL     2     -11.393  13.096  68.818  1.00  0.00    -0.254 OA 
ENDBRANCH   5   6
TORSDOF 1
ENDMDL
MODEL      146
REMARK 921   NORMALIZED FREE ENERGY PREDICTED BY IDOCK:   -2.31 KCAL/MOL
REMARK 922        TOTAL FREE ENERGY PREDICTED BY IDOCK:   -2.60 KCAL/MOL
REMARK 923 INTER-LIGAND FREE ENERGY PREDICTED BY IDOCK:   -2.54 KCAL/MOL
REMARK 924 INTRA-LIGAND FREE ENERGY PREDICTED BY IDOCK:   -0.05 KCAL/MOL
REMARK 927      BINDING AFFINITY PREDICTED BY RF-SCORE:    0.00 PKD
ROOT
HETATM    1 FE   UNL     1      -5.584  19.441  66.870  1.00  0.00    -0.160 Fe 
HETATM    2  O   UNL     2      -6.358  20.200  68.591  1.00  0.00    -0.273 OA 
HETATM    3  C   UNL     2      -7.487  20.078  67.999  1.00  0.00    -0.289 C  
HETATM    4  O   UNL     2      -7.426  20.331  66.752  1.00  0.00    -0.272 OA 
HETATM    5  C   UNL     2      -8.452  19.055  68.529  1.00  0.00    -0.387 C  
ENDROOT
BRANCH   5   6
HETATM    6  C   UNL     2      -8.752  17.976  67.484  1.00  0.00    -0.248 C  
HETATM    7  C   UNL     2     -10.173  17.378  67.453  1.00  0.00    -0.326 C  
HETATM    8  O   UNL     2     -10.486  16.690  66.459  1.00  0.00    -0.302 OA 
HETATM    9  O   UNL     2     -10.891  17.567  68.507  1.00  0.00    -0.284 OA 
ENDBRANCH   5   6
TORSDOF 1
ENDMDL
MODEL      147
REMARK 921   NORMALIZED FREE ENERGY PREDICTED BY IDOCK:   -2.28 KCAL/MOL
REMARK 922        TOTAL FREE ENERGY PREDICTED BY IDOCK:   -2.57 KCAL/MOL
REMARK 923 INTER-LIGAND FREE ENERGY PREDICTED BY IDOCK:   -2.47 KCAL/MOL
REMARK 924 INTRA-LIGAND FREE ENERGY PREDICTED BY IDOCK:   -0.10 KCAL/MOL
REMARK 927      BINDING AFFINITY PREDICTED BY RF-SCORE:    0.00 PKD
ROOT
HETATM    1 FE   UNL     1      -8.062   5.995  69.943  1.00  0.00    -0.094 Fe 
HETATM    2  O   UNL     2      -9.456   5.030  68.821  1.00  0.00    -0.123 OA 
HETATM    3  C   UNL     2     -10.251   5.301  69.787  1.00  0.00    -0.294 C  
HETATM    4  O   UNL     2      -9.690   5.235  70.928  1.00  0.00    -0.166 OA 
HETATM    5  C   UNL     2     -11.359   6.284  69.531  1.00  0.00    -0.475 C  
ENDROOT
BRANCH   5   6
HETATM    6  C   UNL     2     -11.223   7.522  70.423  1.00  0.00    -0.270 C  
HETATM    7  C   UNL     2     -12.155   7.637  71.646  1.00  0.00    -0.306 C  
HETATM    8  O   UNL     2     -11.882   8.507  72.498  1.00  0.00    -0.384 OA 
HETATM    9  O   UNL     2     -13.196   6.876  71.638  1.00  0.00    -0.354 OA 
ENDBRANCH   5   6
TORSDOF 1
ENDMDL
MODEL      148
REMARK 921   NORMALIZED FREE ENERGY PREDICTED BY IDOCK:   -2.28 KCAL/MOL
REMARK 922        TOTAL FREE ENERGY PREDICTED BY IDOCK:   -2.57 KCAL/MOL
REMARK 923 INTER-LIGAND FREE ENERGY PREDICTED BY IDOCK:   -2.45 KCAL/MOL
REMARK 924 INTRA-LIGAND FREE ENERGY PREDICTED BY IDOCK:   -0.12 KCAL/MOL
REMARK 927      BINDING AFFINITY PREDICTED BY RF-SCORE:    0.00 PKD
ROOT
HETATM    1 FE   UNL     1     -11.439   6.826  66.341  1.00  0.00    -0.407 Fe 
HETATM    2  O   UNL     2      -9.417   6.815  66.554  1.00  0.00    -0.164 OA 
HETATM    3  C   UNL     2      -9.608   7.828  67.313  1.00  0.00    -0.161 C  
HETATM    4  O   UNL     2     -10.551   8.583  66.908  1.00  0.00    -0.298 OA 
HETATM    5  C   UNL     2      -9.327   7.670  68.780  1.00  0.00    -0.148 C  
ENDROOT
BRANCH   5   6
HETATM    6  C   UNL     2     -10.593   7.878  69.617  1.00  0.00    -0.234 C  
HETATM    7  C   UNL     2     -11.249   6.636  70.254  1.00  0.00    -0.353 C  
HETATM    8  O   UNL     2     -12.122   6.829  71.125  1.00  0.00    -0.353 OA 
HETATM    9  O   UNL     2     -10.900   5.496  69.763  1.00  0.00    -0.331 OA 
ENDBRANCH   5   6
TORSDOF 1
ENDMDL
MODEL      149
REMARK 921   NORMALIZED FREE ENERGY PREDICTED BY IDOCK:   -2.27 KCAL/MOL
REMARK 922        TOTAL FREE ENERGY PREDICTED BY IDOCK:   -2.56 KCAL/MOL
REMARK 923 INTER-LIGAND FREE ENERGY PREDICTED BY IDOCK:   -2.50 KCAL/MOL
REMARK 924 INTRA-LIGAND FREE ENERGY PREDICTED BY IDOCK:   -0.05 KCAL/MOL
REMARK 927      BINDING AFFINITY PREDICTED BY RF-SCORE:    0.00 PKD
ROOT
HETATM    1 FE   UNL     1     -12.399   7.899  73.270  1.00  0.00    -0.561 Fe 
HETATM    2  O   UNL     2     -13.153   7.083  71.567  1.00  0.00    -0.380 OA 
HETATM    3  C   UNL     2     -12.001   7.340  71.072  1.00  0.00    -0.327 C  
HETATM    4  O   UNL     2     -11.505   8.430  71.505  1.00  0.00    -0.255 OA 
HETATM    5  C   UNL     2     -11.114   6.180  70.717  1.00  0.00    -0.375 C  
ENDROOT
BRANCH   5   6
HETATM    6  C   UNL     2      -9.821   6.193  71.537  1.00  0.00    -0.190 C  
HETATM    7  C   UNL     2      -9.296   4.848  72.079  1.00  0.00    -0.141 C  
HETATM    8  O   UNL     2      -8.132   4.823  72.529  1.00  0.00    -0.107 OA 
HETATM    9  O   UNL     2     -10.145   3.878  72.104  1.00  0.00    -0.168 OA 
ENDBRANCH   5   6
TORSDOF 1
ENDMDL
MODEL      150
REMARK 921   NORMALIZED FREE ENERGY PREDICTED BY IDOCK:   -2.27 KCAL/MOL
REMARK 922        TOTAL FREE ENERGY PREDICTED BY IDOCK:   -2.55 KCAL/MOL
REMARK 923 INTER-LIGAND FREE ENERGY PREDICTED BY IDOCK:   -2.40 KCAL/MOL
REMARK 924 INTRA-LIGAND FREE ENERGY PREDICTED BY IDOCK:   -0.15 KCAL/MOL
REMARK 927      BINDING AFFINITY PREDICTED BY RF-SCORE:    0.00 PKD
ROOT
HETATM    1 FE   UNL     1      -9.087   6.414  72.569  1.00  0.00    -0.133 Fe 
HETATM    2  O   UNL     2     -10.882   6.711  73.478  1.00  0.00    -0.282 OA 
HETATM    3  C   UNL     2     -10.892   7.819  72.838  1.00  0.00    -0.392 C  
HETATM    4  O   UNL     2      -9.738   8.349  72.743  1.00  0.00    -0.273 OA 
HETATM    5  C   UNL     2     -11.908   7.991  71.745  1.00  0.00    -0.339 C  
ENDROOT
BRANCH   5   6
HETATM    6  C   UNL     2     -11.236   8.192  70.384  1.00  0.00    -0.221 C  
HETATM    7  C   UNL     2     -11.088   6.963  69.464  1.00  0.00    -0.228 C  
HETATM    8  O   UNL     2     -10.770   7.169  68.274  1.00  0.00    -0.201 OA 
HETATM    9  O   UNL     2     -11.217   5.812  70.031  1.00  0.00    -0.335 OA 
ENDBRANCH   5   6
TORSDOF 1
ENDMDL
MODEL      151
REMARK 921   NORMALIZED FREE ENERGY PREDICTED BY IDOCK:   -2.24 KCAL/MOL
REMARK 922        TOTAL FREE ENERGY PREDICTED BY IDOCK:   -2.52 KCAL/MOL
REMARK 923 INTER-LIGAND FREE ENERGY PREDICTED BY IDOCK:   -2.37 KCAL/MOL
REMARK 924 INTRA-LIGAND FREE ENERGY PREDICTED BY IDOCK:   -0.15 KCAL/MOL
REMARK 927      BINDING AFFINITY PREDICTED BY RF-SCORE:    0.00 PKD
ROOT
HETATM    1 FE   UNL     1      -8.849   6.383  71.057  1.00  0.00    -0.126 Fe 
HETATM    2  O   UNL     2     -10.344   5.005  71.112  1.00  0.00    -0.220 OA 
HETATM    3  C   UNL     2     -10.705   5.611  72.180  1.00  0.00    -0.234 C  
HETATM    4  O   UNL     2      -9.720   6.023  72.876  1.00  0.00    -0.155 OA 
HETATM    5  C   UNL     2     -11.999   6.374  72.154  1.00  0.00    -0.346 C  
ENDROOT
BRANCH   5   6
HETATM    6  C   UNL     2     -11.771   7.869  72.402  1.00  0.00    -0.423 C  
HETATM    7  C   UNL     2     -11.346   8.742  71.204  1.00  0.00    -0.285 C  
HETATM    8  O   UNL     2     -11.400   9.981  71.347  1.00  0.00    -0.339 OA 
HETATM    9  O   UNL     2     -10.882   8.112  70.180  1.00  0.00    -0.243 OA 
ENDBRANCH   5   6
TORSDOF 1
ENDMDL
MODEL      152
REMARK 921   NORMALIZED FREE ENERGY PREDICTED BY IDOCK:   -2.23 KCAL/MOL
REMARK 922        TOTAL FREE ENERGY PREDICTED BY IDOCK:   -2.52 KCAL/MOL
REMARK 923 INTER-LIGAND FREE ENERGY PREDICTED BY IDOCK:   -2.41 KCAL/MOL
REMARK 924 INTRA-LIGAND FREE ENERGY PREDICTED BY IDOCK:   -0.10 KCAL/MOL
REMARK 927      BINDING AFFINITY PREDICTED BY RF-SCORE:    0.00 PKD
ROOT
HETATM    1 FE   UNL     1     -12.843  10.435  68.735  1.00  0.00    -0.485 Fe 
HETATM    2  O   UNL     2     -11.412  11.627  69.553  1.00  0.00    -0.270 OA 
HETATM    3  C   UNL     2     -10.673  11.195  68.601  1.00  0.00    -0.198 C  
HETATM    4  O   UNL     2     -10.891   9.972  68.317  1.00  0.00    -0.230 OA 
HETATM    5  C   UNL     2     -10.258  12.168  67.535  1.00  0.00    -0.209 C  
ENDROOT
BRANCH   5   6
HETATM    6  C   UNL     2     -10.796  11.755  66.161  1.00  0.00    -0.336 C  
HETATM    7  C   UNL     2      -9.805  11.135  65.155  1.00  0.00    -0.259 C  
HETATM    8  O   UNL     2     -10.283  10.580  64.144  1.00  0.00    -0.342 OA 
HETATM    9  O   UNL     2      -8.554  11.325  65.402  1.00  0.00    -0.083 OA 
ENDBRANCH   5   6
TORSDOF 1
ENDMDL
MODEL      153
REMARK 921   NORMALIZED FREE ENERGY PREDICTED BY IDOCK:   -2.22 KCAL/MOL
REMARK 922        TOTAL FREE ENERGY PREDICTED BY IDOCK:   -2.50 KCAL/MOL
REMARK 923 INTER-LIGAND FREE ENERGY PREDICTED BY IDOCK:   -2.46 KCAL/MOL
REMARK 924 INTRA-LIGAND FREE ENERGY PREDICTED BY IDOCK:   -0.05 KCAL/MOL
REMARK 927      BINDING AFFINITY PREDICTED BY RF-SCORE:    0.00 PKD
ROOT
HETATM    1 FE   UNL     1     -10.228   6.586  69.324  1.00  0.00    -0.155 Fe 
HETATM    2  O   UNL     2     -10.880   8.251  70.293  1.00  0.00    -0.237 OA 
HETATM    3  C   UNL     2     -11.729   7.461  70.835  1.00  0.00    -0.296 C  
HETATM    4  O   UNL     2     -12.148   6.558  70.040  1.00  0.00    -0.282 OA 
HETATM    5  C   UNL     2     -11.596   7.187  72.306  1.00  0.00    -0.309 C  
ENDROOT
BRANCH   5   6
HETATM    6  C   UNL     2     -11.325   5.703  72.575  1.00  0.00    -0.349 C  
HETATM    7  C   UNL     2     -10.642   5.325  73.905  1.00  0.00    -0.292 C  
HETATM    8  O   UNL     2     -10.646   4.120  74.231  1.00  0.00    -0.222 OA 
HETATM    9  O   UNL     2     -10.043   6.282  74.527  1.00  0.00    -0.313 OA 
ENDBRANCH   5   6
TORSDOF 1
ENDMDL
MODEL      154
REMARK 921   NORMALIZED FREE ENERGY PREDICTED BY IDOCK:   -2.20 KCAL/MOL
REMARK 922        TOTAL FREE ENERGY PREDICTED BY IDOCK:   -2.48 KCAL/MOL
REMARK 923 INTER-LIGAND FREE ENERGY PREDICTED BY IDOCK:   -2.44 KCAL/MOL
REMARK 924 INTRA-LIGAND FREE ENERGY PREDICTED BY IDOCK:   -0.04 KCAL/MOL
REMARK 927      BINDING AFFINITY PREDICTED BY RF-SCORE:    0.00 PKD
ROOT
HETATM    1 FE   UNL     1     -10.543  12.410  69.075  1.00  0.00    -0.196 Fe 
HETATM    2  O   UNL     2     -10.545  10.530  69.852  1.00  0.00    -0.259 OA 
HETATM    3  C   UNL     2     -11.208  10.222  68.802  1.00  0.00    -0.206 C  
HETATM    4  O   UNL     2     -12.016  11.137  68.436  1.00  0.00    -0.561 OA 
HETATM    5  C   UNL     2     -10.546   9.333  67.788  1.00  0.00    -0.307 C  
ENDROOT
BRANCH   5   6
HETATM    6  C   UNL     2     -10.383  10.045  66.441  1.00  0.00    -0.249 C  
HETATM    7  C   UNL     2      -9.393   9.445  65.423  1.00  0.00    -0.247 C  
HETATM    8  O   UNL     2      -9.441   9.874  64.251  1.00  0.00    -0.284 OA 
HETATM    9  O   UNL     2      -8.531   8.610  65.895  1.00  0.00    -0.129 OA 
ENDBRANCH   5   6
TORSDOF 1
ENDMDL
MODEL      155
REMARK 921   NORMALIZED FREE ENERGY PREDICTED BY IDOCK:   -2.20 KCAL/MOL
REMARK 922        TOTAL FREE ENERGY PREDICTED BY IDOCK:   -2.48 KCAL/MOL
REMARK 923 INTER-LIGAND FREE ENERGY PREDICTED BY IDOCK:   -2.44 KCAL/MOL
REMARK 924 INTRA-LIGAND FREE ENERGY PREDICTED BY IDOCK:   -0.05 KCAL/MOL
REMARK 927      BINDING AFFINITY PREDICTED BY RF-SCORE:    0.00 PKD
ROOT
HETATM    1 FE   UNL     1      -9.560   7.403  72.618  1.00  0.00    -0.137 Fe 
HETATM    2  O   UNL     2     -10.741   5.777  72.303  1.00  0.00    -0.215 OA 
HETATM    3  C   UNL     2     -11.371   6.538  71.489  1.00  0.00    -0.291 C  
HETATM    4  O   UNL     2     -11.445   7.744  71.890  1.00  0.00    -0.255 OA 
HETATM    5  C   UNL     2     -11.289   6.220  70.022  1.00  0.00    -0.486 C  
ENDROOT
BRANCH   5   6
HETATM    6  C   UNL     2     -10.628   7.360  69.240  1.00  0.00    -0.220 C  
HETATM    7  C   UNL     2     -10.624   7.270  67.700  1.00  0.00    -0.246 C  
HETATM    8  O   UNL     2     -10.313   8.298  67.064  1.00  0.00    -0.280 OA 
HETATM    9  O   UNL     2     -10.857   6.104  67.200  1.00  0.00    -0.308 OA 
ENDBRANCH   5   6
TORSDOF 1
ENDMDL
MODEL      156
REMARK 921   NORMALIZED FREE ENERGY PREDICTED BY IDOCK:   -2.18 KCAL/MOL
REMARK 922        TOTAL FREE ENERGY PREDICTED BY IDOCK:   -2.46 KCAL/MOL
REMARK 923 INTER-LIGAND FREE ENERGY PREDICTED BY IDOCK:   -2.31 KCAL/MOL
REMARK 924 INTRA-LIGAND FREE ENERGY PREDICTED BY IDOCK:   -0.15 KCAL/MOL
REMARK 927      BINDING AFFINITY PREDICTED BY RF-SCORE:    0.00 PKD
ROOT
HETATM    1 FE   UNL     1      -9.147  11.833  68.339  1.00  0.00    -0.144 Fe 
HETATM    2  O   UNL     2      -8.876  12.788  66.563  1.00  0.00    -0.158 OA 
HETATM    3  C   UNL     2     -10.138  12.631  66.419  1.00  0.00    -0.253 C  
HETATM    4  O   UNL     2     -10.559  11.523  66.887  1.00  0.00    -0.225 OA 
HETATM    5  C   UNL     2     -11.007  13.856  66.449  1.00  0.00    -0.303 C  
ENDROOT
BRANCH   5   6
HETATM    6  C   UNL     2     -11.997  13.811  67.617  1.00  0.00    -0.392 C  
HETATM    7  C   UNL     2     -11.600  14.524  68.926  1.00  0.00    -0.309 C  
HETATM    8  O   UNL     2     -12.493  14.698  69.780  1.00  0.00    -0.291 OA 
HETATM    9  O   UNL     2     -10.348  14.800  69.064  1.00  0.00    -0.234 OA 
ENDBRANCH   5   6
TORSDOF 1
ENDMDL
MODEL      157
REMARK 921   NORMALIZED FREE ENERGY PREDICTED BY IDOCK:   -2.17 KCAL/MOL
REMARK 922        TOTAL FREE ENERGY PREDICTED BY IDOCK:   -2.44 KCAL/MOL
REMARK 923 INTER-LIGAND FREE ENERGY PREDICTED BY IDOCK:   -2.38 KCAL/MOL
REMARK 924 INTRA-LIGAND FREE ENERGY PREDICTED BY IDOCK:   -0.06 KCAL/MOL
REMARK 927      BINDING AFFINITY PREDICTED BY RF-SCORE:    0.00 PKD
ROOT
HETATM    1 FE   UNL     1      -7.301  14.984  67.683  1.00  0.00    -0.099 Fe 
HETATM    2  O   UNL     2      -8.862  14.848  68.980  1.00  0.00    -0.196 OA 
HETATM    3  C   UNL     2      -8.611  16.079  69.227  1.00  0.00    -0.224 C  
HETATM    4  O   UNL     2      -7.367  16.347  69.211  1.00  0.00    -0.228 OA 
HETATM    5  C   UNL     2      -9.623  17.103  68.797  1.00  0.00    -0.269 C  
ENDROOT
BRANCH   5   6
HETATM    6  C   UNL     2      -9.033  18.074  67.769  1.00  0.00    -0.255 C  
HETATM    7  C   UNL     2      -9.314  19.579  67.955  1.00  0.00    -0.333 C  
HETATM    8  O   UNL     2      -8.641  20.378  67.272  1.00  0.00    -0.341 OA 
HETATM    9  O   UNL     2     -10.292  19.880  68.739  1.00  0.00    -0.433 OA 
ENDBRANCH   5   6
TORSDOF 1
ENDMDL
MODEL      158
REMARK 921   NORMALIZED FREE ENERGY PREDICTED BY IDOCK:   -2.16 KCAL/MOL
REMARK 922        TOTAL FREE ENERGY PREDICTED BY IDOCK:   -2.44 KCAL/MOL
REMARK 923 INTER-LIGAND FREE ENERGY PREDICTED BY IDOCK:   -2.30 KCAL/MOL
REMARK 924 INTRA-LIGAND FREE ENERGY PREDICTED BY IDOCK:   -0.14 KCAL/MOL
REMARK 927      BINDING AFFINITY PREDICTED BY RF-SCORE:    0.00 PKD
ROOT
HETATM    1 FE   UNL     1      -8.284  11.915  64.928  1.00  0.00    -0.332 Fe 
HETATM    2  O   UNL     2      -9.913  11.489  66.069  1.00  0.00    -0.209 OA 
HETATM    3  C   UNL     2      -9.263  12.071  67.006  1.00  0.00    -0.195 C  
HETATM    4  O   UNL     2      -8.010  11.847  66.957  1.00  0.00    -0.158 OA 
HETATM    5  C   UNL     2      -9.789  13.382  67.518  1.00  0.00    -0.227 C  
ENDROOT
BRANCH   5   6
HETATM    6  C   UNL     2      -8.788  14.517  67.280  1.00  0.00    -0.221 C  
HETATM    7  C   UNL     2      -9.041  15.466  66.091  1.00  0.00    -0.304 C  
HETATM    8  O   UNL     2      -8.376  16.521  66.044  1.00  0.00    -0.365 OA 
HETATM    9  O   UNL     2      -9.861  15.040  65.191  1.00  0.00    -0.293 OA 
ENDBRANCH   5   6
TORSDOF 1
ENDMDL
MODEL      159
REMARK 921   NORMALIZED FREE ENERGY PREDICTED BY IDOCK:   -2.15 KCAL/MOL
REMARK 922        TOTAL FREE ENERGY PREDICTED BY IDOCK:   -2.43 KCAL/MOL
REMARK 923 INTER-LIGAND FREE ENERGY PREDICTED BY IDOCK:   -2.36 KCAL/MOL
REMARK 924 INTRA-LIGAND FREE ENERGY PREDICTED BY IDOCK:   -0.07 KCAL/MOL
REMARK 927      BINDING AFFINITY PREDICTED BY RF-SCORE:    0.00 PKD
ROOT
HETATM    1 FE   UNL     1     -10.787  17.317  69.883  1.00  0.00    -0.305 Fe 
HETATM    2  O   UNL     2     -12.146  15.830  69.603  1.00  0.00    -0.355 OA 
HETATM    3  C   UNL     2     -11.433  15.529  68.583  1.00  0.00    -0.359 C  
HETATM    4  O   UNL     2     -10.956  16.550  67.991  1.00  0.00    -0.352 OA 
HETATM    5  C   UNL     2     -10.671  14.234  68.615  1.00  0.00    -0.256 C  
ENDROOT
BRANCH   5   6
HETATM    6  C   UNL     2      -9.160  14.473  68.534  1.00  0.00    -0.190 C  
HETATM    7  C   UNL     2      -8.364  13.703  67.460  1.00  0.00    -0.188 C  
HETATM    8  O   UNL     2      -7.195  14.075  67.234  1.00  0.00    -0.143 OA 
HETATM    9  O   UNL     2      -8.951  12.675  66.949  1.00  0.00    -0.209 OA 
ENDBRANCH   5   6
TORSDOF 1
ENDMDL
MODEL      160
REMARK 921   NORMALIZED FREE ENERGY PREDICTED BY IDOCK:   -2.14 KCAL/MOL
REMARK 922        TOTAL FREE ENERGY PREDICTED BY IDOCK:   -2.41 KCAL/MOL
REMARK 923 INTER-LIGAND FREE ENERGY PREDICTED BY IDOCK:   -2.33 KCAL/MOL
REMARK 924 INTRA-LIGAND FREE ENERGY PREDICTED BY IDOCK:   -0.08 KCAL/MOL
REMARK 927      BINDING AFFINITY PREDICTED BY RF-SCORE:    0.00 PKD
ROOT
HETATM    1 FE   UNL     1      -7.232  11.873  65.958  1.00  0.00    -0.330 Fe 
HETATM    2  O   UNL     2      -6.872  10.673  64.355  1.00  0.00     0.039 OA 
HETATM    3  C   UNL     2      -7.877  10.004  64.778  1.00  0.00    -0.145 C  
HETATM    4  O   UNL     2      -7.944   9.954  66.049  1.00  0.00    -0.109 OA 
HETATM    5  C   UNL     2      -9.126  10.008  63.944  1.00  0.00    -0.296 C  
ENDROOT
BRANCH   5   6
HETATM    6  C   UNL     2     -10.303  10.629  64.702  1.00  0.00    -0.353 C  
HETATM    7  C   UNL     2     -10.957  11.894  64.109  1.00  0.00    -0.369 C  
HETATM    8  O   UNL     2     -12.054  12.252  64.585  1.00  0.00    -0.395 OA 
HETATM    9  O   UNL     2     -10.264  12.529  63.226  1.00  0.00    -0.370 OA 
ENDBRANCH   5   6
TORSDOF 1
ENDMDL
MODEL      161
REMARK 921   NORMALIZED FREE ENERGY PREDICTED BY IDOCK:   -2.10 KCAL/MOL
REMARK 922        TOTAL FREE ENERGY PREDICTED BY IDOCK:   -2.37 KCAL/MOL
REMARK 923 INTER-LIGAND FREE ENERGY PREDICTED BY IDOCK:   -2.28 KCAL/MOL
REMARK 924 INTRA-LIGAND FREE ENERGY PREDICTED BY IDOCK:   -0.10 KCAL/MOL
REMARK 927      BINDING AFFINITY PREDICTED BY RF-SCORE:    0.00 PKD
ROOT
HETATM    1 FE   UNL     1      -9.809  14.989  66.552  1.00  0.00    -0.214 Fe 
HETATM    2  O   UNL     2      -9.788  16.680  65.422  1.00  0.00    -0.538 OA 
HETATM    3  C   UNL     2      -9.081  17.166  66.371  1.00  0.00    -0.256 C  
HETATM    4  O   UNL     2      -9.442  16.757  67.522  1.00  0.00    -0.233 OA 
HETATM    5  C   UNL     2      -7.639  17.479  66.084  1.00  0.00    -0.320 C  
ENDROOT
BRANCH   5   6
HETATM    6  C   UNL     2      -6.701  16.642  66.960  1.00  0.00    -0.242 C  
HETATM    7  C   UNL     2      -6.101  17.308  68.215  1.00  0.00    -0.149 C  
HETATM    8  O   UNL     2      -5.544  16.565  69.050  1.00  0.00    -0.125 OA 
HETATM    9  O   UNL     2      -6.147  18.596  68.250  1.00  0.00    -0.201 OA 
ENDBRANCH   5   6
TORSDOF 1
ENDMDL
MODEL      162
REMARK 921   NORMALIZED FREE ENERGY PREDICTED BY IDOCK:   -2.08 KCAL/MOL
REMARK 922        TOTAL FREE ENERGY PREDICTED BY IDOCK:   -2.35 KCAL/MOL
REMARK 923 INTER-LIGAND FREE ENERGY PREDICTED BY IDOCK:   -2.29 KCAL/MOL
REMARK 924 INTRA-LIGAND FREE ENERGY PREDICTED BY IDOCK:   -0.06 KCAL/MOL
REMARK 927      BINDING AFFINITY PREDICTED BY RF-SCORE:    0.00 PKD
ROOT
HETATM    1 FE   UNL     1      -7.688  19.969  70.161  1.00  0.00    -0.315 Fe 
HETATM    2  O   UNL     2      -9.454  19.692  69.190  1.00  0.00    -0.351 OA 
HETATM    3  C   UNL     2      -8.748  19.051  68.335  1.00  0.00    -0.346 C  
HETATM    4  O   UNL     2      -7.596  19.563  68.155  1.00  0.00    -0.284 OA 
HETATM    5  C   UNL     2      -8.954  17.567  68.225  1.00  0.00    -0.267 C  
ENDROOT
BRANCH   5   6
HETATM    6  C   UNL     2      -7.678  16.797  68.582  1.00  0.00    -0.232 C  
HETATM    7  C   UNL     2      -7.299  15.584  67.708  1.00  0.00    -0.156 C  
HETATM    8  O   UNL     2      -6.150  15.115  67.842  1.00  0.00    -0.135 OA 
HETATM    9  O   UNL     2      -8.241  15.099  66.974  1.00  0.00    -0.205 OA 
ENDBRANCH   5   6
TORSDOF 1
ENDMDL
MODEL      163
REMARK 921   NORMALIZED FREE ENERGY PREDICTED BY IDOCK:   -2.06 KCAL/MOL
REMARK 922        TOTAL FREE ENERGY PREDICTED BY IDOCK:   -2.33 KCAL/MOL
REMARK 923 INTER-LIGAND FREE ENERGY PREDICTED BY IDOCK:   -2.25 KCAL/MOL
REMARK 924 INTRA-LIGAND FREE ENERGY PREDICTED BY IDOCK:   -0.08 KCAL/MOL
REMARK 927      BINDING AFFINITY PREDICTED BY RF-SCORE:    0.00 PKD
ROOT
HETATM    1 FE   UNL     1     -12.511   9.384  72.474  1.00  0.00    -0.333 Fe 
HETATM    2  O   UNL     2     -11.172   7.955  73.024  1.00  0.00    -0.411 OA 
HETATM    3  C   UNL     2     -10.897   7.898  71.775  1.00  0.00    -0.237 C  
HETATM    4  O   UNL     2     -11.919   8.054  71.032  1.00  0.00    -0.296 OA 
HETATM    5  C   UNL     2      -9.544   8.378  71.331  1.00  0.00    -0.254 C  
ENDROOT
BRANCH   5   6
HETATM    6  C   UNL     2      -9.660   9.573  70.379  1.00  0.00    -0.326 C  
HETATM    7  C   UNL     2      -9.068   9.427  68.962  1.00  0.00    -0.142 C  
HETATM    8  O   UNL     2      -9.375  10.294  68.118  1.00  0.00    -0.137 OA 
HETATM    9  O   UNL     2      -8.227   8.464  68.796  1.00  0.00    -0.116 OA 
ENDBRANCH   5   6
TORSDOF 1
ENDMDL
MODEL      164
REMARK 921   NORMALIZED FREE ENERGY PREDICTED BY IDOCK:   -2.05 KCAL/MOL
REMARK 922        TOTAL FREE ENERGY PREDICTED BY IDOCK:   -2.32 KCAL/MOL
REMARK 923 INTER-LIGAND FREE ENERGY PREDICTED BY IDOCK:   -2.22 KCAL/MOL
REMARK 924 INTRA-LIGAND FREE ENERGY PREDICTED BY IDOCK:   -0.10 KCAL/MOL
REMARK 927      BINDING AFFINITY PREDICTED BY RF-SCORE:    0.00 PKD
ROOT
HETATM    1 FE   UNL     1      -6.729   9.173  65.687  1.00  0.00    -0.064 Fe 
HETATM    2  O   UNL     2      -8.227   8.676  66.970  1.00  0.00    -0.105 OA 
HETATM    3  C   UNL     2      -8.747   9.789  66.609  1.00  0.00    -0.131 C  
HETATM    4  O   UNL     2      -7.882  10.703  66.413  1.00  0.00    -0.131 OA 
HETATM    5  C   UNL     2     -10.013   9.744  65.802  1.00  0.00    -0.349 C  
ENDROOT
BRANCH   5   6
HETATM    6  C   UNL     2      -9.815  10.365  64.415  1.00  0.00    -0.395 C  
HETATM    7  C   UNL     2     -10.484  11.725  64.132  1.00  0.00    -0.346 C  
HETATM    8  O   UNL     2     -10.125  12.340  63.107  1.00  0.00    -0.375 OA 
HETATM    9  O   UNL     2     -11.429  12.070  64.938  1.00  0.00    -0.324 OA 
ENDBRANCH   5   6
TORSDOF 1
ENDMDL
MODEL      165
REMARK 921   NORMALIZED FREE ENERGY PREDICTED BY IDOCK:   -2.04 KCAL/MOL
REMARK 922        TOTAL FREE ENERGY PREDICTED BY IDOCK:   -2.31 KCAL/MOL
REMARK 923 INTER-LIGAND FREE ENERGY PREDICTED BY IDOCK:   -2.18 KCAL/MOL
REMARK 924 INTRA-LIGAND FREE ENERGY PREDICTED BY IDOCK:   -0.13 KCAL/MOL
REMARK 927      BINDING AFFINITY PREDICTED BY RF-SCORE:    0.00 PKD
ROOT
HETATM    1 FE   UNL     1      -8.855   6.805  66.940  1.00  0.00    -0.109 Fe 
HETATM    2  O   UNL     2     -10.705   7.580  67.278  1.00  0.00    -0.307 OA 
HETATM    3  C   UNL     2     -10.979   6.419  67.742  1.00  0.00    -0.332 C  
HETATM    4  O   UNL     2     -10.408   5.479  67.099  1.00  0.00    -0.201 OA 
HETATM    5  C   UNL     2     -11.238   6.294  69.217  1.00  0.00    -0.458 C  
ENDROOT
BRANCH   5   6
HETATM    6  C   UNL     2     -10.207   5.383  69.890  1.00  0.00    -0.351 C  
HETATM    7  C   UNL     2      -9.092   6.047  70.723  1.00  0.00    -0.153 C  
HETATM    8  O   UNL     2      -8.409   5.309  71.463  1.00  0.00    -0.117 OA 
HETATM    9  O   UNL     2      -8.901   7.305  70.513  1.00  0.00    -0.150 OA 
ENDBRANCH   5   6
TORSDOF 1
ENDMDL
MODEL      166
REMARK 921   NORMALIZED FREE ENERGY PREDICTED BY IDOCK:   -2.03 KCAL/MOL
REMARK 922        TOTAL FREE ENERGY PREDICTED BY IDOCK:   -2.29 KCAL/MOL
REMARK 923 INTER-LIGAND FREE ENERGY PREDICTED BY IDOCK:   -2.25 KCAL/MOL
REMARK 924 INTRA-LIGAND FREE ENERGY PREDICTED BY IDOCK:   -0.05 KCAL/MOL
REMARK 927      BINDING AFFINITY PREDICTED BY RF-SCORE:    0.00 PKD
ROOT
HETATM    1 FE   UNL     1      -7.929  11.588  65.258  1.00  0.00    -0.343 Fe 
HETATM    2  O   UNL     2      -9.458  12.041  66.522  1.00  0.00    -0.216 OA 
HETATM    3  C   UNL     2     -10.038  11.028  65.996  1.00  0.00    -0.247 C  
HETATM    4  O   UNL     2      -9.793  10.905  64.752  1.00  0.00    -0.240 OA 
HETATM    5  C   UNL     2     -10.260   9.818  66.858  1.00  0.00    -0.310 C  
ENDROOT
BRANCH   5   6
HETATM    6  C   UNL     2      -9.511   8.598  66.313  1.00  0.00    -0.307 C  
HETATM    7  C   UNL     2      -9.920   7.207  66.839  1.00  0.00    -0.224 C  
HETATM    8  O   UNL     2      -9.489   6.210  66.223  1.00  0.00    -0.159 OA 
HETATM    9  O   UNL     2     -10.604   7.192  67.932  1.00  0.00    -0.202 OA 
ENDBRANCH   5   6
TORSDOF 1
ENDMDL
MODEL      167
REMARK 921   NORMALIZED FREE ENERGY PREDICTED BY IDOCK:   -2.01 KCAL/MOL
REMARK 922        TOTAL FREE ENERGY PREDICTED BY IDOCK:   -2.27 KCAL/MOL
REMARK 923 INTER-LIGAND FREE ENERGY PREDICTED BY IDOCK:   -2.21 KCAL/MOL
REMARK 924 INTRA-LIGAND FREE ENERGY PREDICTED BY IDOCK:   -0.07 KCAL/MOL
REMARK 927      BINDING AFFINITY PREDICTED BY RF-SCORE:    0.00 PKD
ROOT
HETATM    1 FE   UNL     1      -9.305   4.570  70.312  1.00  0.00    -0.094 Fe 
HETATM    2  O   UNL     2     -10.400   4.130  71.969  1.00  0.00    -0.162 OA 
HETATM    3  C   UNL     2     -10.379   5.393  72.176  1.00  0.00    -0.213 C  
HETATM    4  O   UNL     2      -9.276   5.934  71.841  1.00  0.00    -0.147 OA 
HETATM    5  C   UNL     2     -11.673   6.147  72.054  1.00  0.00    -0.354 C  
ENDROOT
BRANCH   5   6
HETATM    6  C   UNL     2     -11.608   7.191  70.934  1.00  0.00    -0.350 C  
HETATM    7  C   UNL     2     -12.094   8.620  71.251  1.00  0.00    -0.290 C  
HETATM    8  O   UNL     2     -11.816   9.518  70.430  1.00  0.00    -0.228 OA 
HETATM    9  O   UNL     2     -12.831   8.747  72.302  1.00  0.00    -0.369 OA 
ENDBRANCH   5   6
TORSDOF 1
ENDMDL
MODEL      168
REMARK 921   NORMALIZED FREE ENERGY PREDICTED BY IDOCK:   -2.00 KCAL/MOL
REMARK 922        TOTAL FREE ENERGY PREDICTED BY IDOCK:   -2.27 KCAL/MOL
REMARK 923 INTER-LIGAND FREE ENERGY PREDICTED BY IDOCK:   -2.17 KCAL/MOL
REMARK 924 INTRA-LIGAND FREE ENERGY PREDICTED BY IDOCK:   -0.10 KCAL/MOL
REMARK 927      BINDING AFFINITY PREDICTED BY RF-SCORE:    0.00 PKD
ROOT
HETATM    1 FE   UNL     1      -8.162  14.703  66.961  1.00  0.00    -0.144 Fe 
HETATM    2  O   UNL     2      -8.461  16.700  67.204  1.00  0.00    -0.177 OA 
HETATM    3  C   UNL     2      -9.608  16.355  67.656  1.00  0.00    -0.227 C  
HETATM    4  O   UNL     2     -10.103  15.353  67.045  1.00  0.00    -0.243 OA 
HETATM    5  C   UNL     2      -9.884  16.578  69.116  1.00  0.00    -0.254 C  
ENDROOT
BRANCH   5   6
HETATM    6  C   UNL     2     -10.149  15.255  69.843  1.00  0.00    -0.204 C  
HETATM    7  C   UNL     2     -11.596  14.949  70.279  1.00  0.00    -0.286 C  
HETATM    8  O   UNL     2     -11.852  13.783  70.644  1.00  0.00    -0.283 OA 
HETATM    9  O   UNL     2     -12.402  15.955  70.316  1.00  0.00    -0.351 OA 
ENDBRANCH   5   6
TORSDOF 1
ENDMDL
MODEL      169
REMARK 921   NORMALIZED FREE ENERGY PREDICTED BY IDOCK:   -1.98 KCAL/MOL
REMARK 922        TOTAL FREE ENERGY PREDICTED BY IDOCK:   -2.25 KCAL/MOL
REMARK 923 INTER-LIGAND FREE ENERGY PREDICTED BY IDOCK:   -2.18 KCAL/MOL
REMARK 924 INTRA-LIGAND FREE ENERGY PREDICTED BY IDOCK:   -0.06 KCAL/MOL
REMARK 927      BINDING AFFINITY PREDICTED BY RF-SCORE:    0.00 PKD
ROOT
HETATM    1 FE   UNL     1      -8.516  11.404  65.374  1.00  0.00    -0.177 Fe 
HETATM    2  O   UNL     2      -9.747  12.826  66.148  1.00  0.00    -0.258 OA 
HETATM    3  C   UNL     2     -10.621  11.891  66.172  1.00  0.00    -0.258 C  
HETATM    4  O   UNL     2     -10.533  11.102  65.176  1.00  0.00    -0.276 OA 
HETATM    5  C   UNL     2     -11.076  11.387  67.512  1.00  0.00    -0.339 C  
ENDROOT
BRANCH   5   6
HETATM    6  C   UNL     2     -10.731   9.906  67.699  1.00  0.00    -0.339 C  
HETATM    7  C   UNL     2      -9.982   9.497  68.984  1.00  0.00    -0.180 C  
HETATM    8  O   UNL     2      -9.920   8.279  69.251  1.00  0.00    -0.182 OA 
HETATM    9  O   UNL     2      -9.402  10.450  69.630  1.00  0.00    -0.174 OA 
ENDBRANCH   5   6
TORSDOF 1
ENDMDL
MODEL      170
REMARK 921   NORMALIZED FREE ENERGY PREDICTED BY IDOCK:   -1.96 KCAL/MOL
REMARK 922        TOTAL FREE ENERGY PREDICTED BY IDOCK:   -2.23 KCAL/MOL
REMARK 923 INTER-LIGAND FREE ENERGY PREDICTED BY IDOCK:   -2.17 KCAL/MOL
REMARK 924 INTRA-LIGAND FREE ENERGY PREDICTED BY IDOCK:   -0.06 KCAL/MOL
REMARK 927      BINDING AFFINITY PREDICTED BY RF-SCORE:    0.00 PKD
ROOT
HETATM    1 FE   UNL     1      -8.123   4.900  66.503  1.00  0.00    -0.098 Fe 
HETATM    2  O   UNL     2     -10.005   4.803  65.736  1.00  0.00    -0.189 OA 
HETATM    3  C   UNL     2     -10.380   5.042  66.936  1.00  0.00    -0.218 C  
HETATM    4  O   UNL     2      -9.644   4.480  67.810  1.00  0.00    -0.150 OA 
HETATM    5  C   UNL     2     -11.033   6.366  67.218  1.00  0.00    -0.474 C  
ENDROOT
BRANCH   5   6
HETATM    6  C   UNL     2     -10.214   7.191  68.216  1.00  0.00    -0.210 C  
HETATM    7  C   UNL     2     -10.548   7.047  69.716  1.00  0.00    -0.233 C  
HETATM    8  O   UNL     2      -9.733   7.520  70.534  1.00  0.00    -0.179 OA 
HETATM    9  O   UNL     2     -11.693   6.525  69.993  1.00  0.00    -0.416 OA 
ENDBRANCH   5   6
TORSDOF 1
ENDMDL
MODEL      171
REMARK 921   NORMALIZED FREE ENERGY PREDICTED BY IDOCK:   -1.92 KCAL/MOL
REMARK 922        TOTAL FREE ENERGY PREDICTED BY IDOCK:   -2.18 KCAL/MOL
REMARK 923 INTER-LIGAND FREE ENERGY PREDICTED BY IDOCK:   -2.13 KCAL/MOL
REMARK 924 INTRA-LIGAND FREE ENERGY PREDICTED BY IDOCK:   -0.05 KCAL/MOL
REMARK 927      BINDING AFFINITY PREDICTED BY RF-SCORE:    0.00 PKD
ROOT
HETATM    1 FE   UNL     1      -8.712   6.149  71.593  1.00  0.00    -0.123 Fe 
HETATM    2  O   UNL     2      -9.022   6.324  69.591  1.00  0.00    -0.134 OA 
HETATM    3  C   UNL     2     -10.262   6.358  69.904  1.00  0.00    -0.183 C  
HETATM    4  O   UNL     2     -10.551   5.593  70.881  1.00  0.00    -0.244 OA 
HETATM    5  C   UNL     2     -11.007   7.646  69.691  1.00  0.00    -0.145 C  
ENDROOT
BRANCH   5   6
HETATM    6  C   UNL     2     -11.535   8.211  71.014  1.00  0.00    -0.301 C  
HETATM    7  C   UNL     2     -11.836   9.722  71.084  1.00  0.00    -0.382 C  
HETATM    8  O   UNL     2     -12.489  10.134  72.065  1.00  0.00    -0.346 OA 
HETATM    9  O   UNL     2     -11.304  10.449  70.161  1.00  0.00    -0.276 OA 
ENDBRANCH   5   6
TORSDOF 1
ENDMDL
MODEL      172
REMARK 921   NORMALIZED FREE ENERGY PREDICTED BY IDOCK:   -1.92 KCAL/MOL
REMARK 922        TOTAL FREE ENERGY PREDICTED BY IDOCK:   -2.18 KCAL/MOL
REMARK 923 INTER-LIGAND FREE ENERGY PREDICTED BY IDOCK:   -2.08 KCAL/MOL
REMARK 924 INTRA-LIGAND FREE ENERGY PREDICTED BY IDOCK:   -0.10 KCAL/MOL
REMARK 927      BINDING AFFINITY PREDICTED BY RF-SCORE:    0.00 PKD
ROOT
HETATM    1 FE   UNL     1     -11.872   8.945  69.441  1.00  0.00    -0.446 Fe 
HETATM    2  O   UNL     2      -9.996   9.055  68.665  1.00  0.00    -0.162 OA 
HETATM    3  C   UNL     2     -10.436  10.089  68.052  1.00  0.00    -0.218 C  
HETATM    4  O   UNL     2     -11.649   9.970  67.681  1.00  0.00    -0.099 OA 
HETATM    5  C   UNL     2      -9.882  11.429  68.446  1.00  0.00    -0.205 C  
ENDROOT
BRANCH   5   6
HETATM    6  C   UNL     2     -10.977  12.345  69.002  1.00  0.00    -0.247 C  
HETATM    7  C   UNL     2     -11.435  13.532  68.131  1.00  0.00    -0.303 C  
HETATM    8  O   UNL     2     -12.481  14.124  68.469  1.00  0.00    -0.126 OA 
HETATM    9  O   UNL     2     -10.641  13.872  67.173  1.00  0.00    -0.274 OA 
ENDBRANCH   5   6
TORSDOF 1
ENDMDL
MODEL      173
REMARK 921   NORMALIZED FREE ENERGY PREDICTED BY IDOCK:   -1.90 KCAL/MOL
REMARK 922        TOTAL FREE ENERGY PREDICTED BY IDOCK:   -2.17 KCAL/MOL
REMARK 923 INTER-LIGAND FREE ENERGY PREDICTED BY IDOCK:   -2.02 KCAL/MOL
REMARK 924 INTRA-LIGAND FREE ENERGY PREDICTED BY IDOCK:   -0.15 KCAL/MOL
REMARK 927      BINDING AFFINITY PREDICTED BY RF-SCORE:    0.00 PKD
ROOT
HETATM    1 FE   UNL     1      -8.652   6.388  67.694  1.00  0.00    -0.111 Fe 
HETATM    2  O   UNL     2     -10.451   5.442  67.623  1.00  0.00    -0.196 OA 
HETATM    3  C   UNL     2     -10.326   5.357  68.894  1.00  0.00    -0.190 C  
HETATM    4  O   UNL     2      -9.124   5.158  69.264  1.00  0.00    -0.101 OA 
HETATM    5  C   UNL     2     -11.270   6.155  69.748  1.00  0.00    -0.494 C  
ENDROOT
BRANCH   5   6
HETATM    6  C   UNL     2     -10.519   7.185  70.599  1.00  0.00    -0.226 C  
HETATM    7  C   UNL     2     -10.387   8.619  70.047  1.00  0.00    -0.207 C  
HETATM    8  O   UNL     2      -9.999   9.505  70.835  1.00  0.00    -0.284 OA 
HETATM    9  O   UNL     2     -10.605   8.762  68.784  1.00  0.00    -0.211 OA 
ENDBRANCH   5   6
TORSDOF 1
ENDMDL
MODEL      174
REMARK 921   NORMALIZED FREE ENERGY PREDICTED BY IDOCK:   -1.88 KCAL/MOL
REMARK 922        TOTAL FREE ENERGY PREDICTED BY IDOCK:   -2.14 KCAL/MOL
REMARK 923 INTER-LIGAND FREE ENERGY PREDICTED BY IDOCK:   -2.06 KCAL/MOL
REMARK 924 INTRA-LIGAND FREE ENERGY PREDICTED BY IDOCK:   -0.08 KCAL/MOL
REMARK 927      BINDING AFFINITY PREDICTED BY RF-SCORE:    0.00 PKD
ROOT
HETATM    1 FE   UNL     1     -11.457  10.878  69.946  1.00  0.00    -0.195 Fe 
HETATM    2  O   UNL     2      -9.550  10.232  69.661  1.00  0.00    -0.215 OA 
HETATM    3  C   UNL     2      -9.834   9.362  70.555  1.00  0.00    -0.270 C  
HETATM    4  O   UNL     2     -10.592   9.819  71.472  1.00  0.00    -0.163 OA 
HETATM    5  C   UNL     2      -9.922   7.923  70.133  1.00  0.00    -0.190 C  
ENDROOT
BRANCH   5   6
HETATM    6  C   UNL     2     -11.330   7.360  70.355  1.00  0.00    -0.273 C  
HETATM    7  C   UNL     2     -11.602   6.593  71.665  1.00  0.00    -0.304 C  
HETATM    8  O   UNL     2     -12.792   6.353  71.955  1.00  0.00    -0.243 OA 
HETATM    9  O   UNL     2     -10.562   6.183  72.308  1.00  0.00    -0.203 OA 
ENDBRANCH   5   6
TORSDOF 1
ENDMDL
MODEL      175
REMARK 921   NORMALIZED FREE ENERGY PREDICTED BY IDOCK:   -1.86 KCAL/MOL
REMARK 922        TOTAL FREE ENERGY PREDICTED BY IDOCK:   -2.12 KCAL/MOL
REMARK 923 INTER-LIGAND FREE ENERGY PREDICTED BY IDOCK:   -2.04 KCAL/MOL
REMARK 924 INTRA-LIGAND FREE ENERGY PREDICTED BY IDOCK:   -0.09 KCAL/MOL
REMARK 927      BINDING AFFINITY PREDICTED BY RF-SCORE:    0.00 PKD
ROOT
HETATM    1 FE   UNL     1     -11.728   6.065  65.825  1.00  0.00    -0.593 Fe 
HETATM    2  O   UNL     2     -10.492   4.466  65.598  1.00  0.00    -0.260 OA 
HETATM    3  C   UNL     2      -9.747   5.069  66.447  1.00  0.00    -0.182 C  
HETATM    4  O   UNL     2      -9.755   6.335  66.306  1.00  0.00    -0.136 OA 
HETATM    5  C   UNL     2      -9.586   4.450  67.806  1.00  0.00    -0.211 C  
ENDROOT
BRANCH   5   6
HETATM    6  C   UNL     2     -10.124   5.369  68.907  1.00  0.00    -0.265 C  
HETATM    7  C   UNL     2      -9.128   5.890  69.963  1.00  0.00    -0.144 C  
HETATM    8  O   UNL     2      -9.508   6.821  70.703  1.00  0.00    -0.168 OA 
HETATM    9  O   UNL     2      -8.011   5.252  70.051  1.00  0.00    -0.078 OA 
ENDBRANCH   5   6
TORSDOF 1
ENDMDL
MODEL      176
REMARK 921   NORMALIZED FREE ENERGY PREDICTED BY IDOCK:   -1.86 KCAL/MOL
REMARK 922        TOTAL FREE ENERGY PREDICTED BY IDOCK:   -2.12 KCAL/MOL
REMARK 923 INTER-LIGAND FREE ENERGY PREDICTED BY IDOCK:   -1.98 KCAL/MOL
REMARK 924 INTRA-LIGAND FREE ENERGY PREDICTED BY IDOCK:   -0.14 KCAL/MOL
REMARK 927      BINDING AFFINITY PREDICTED BY RF-SCORE:    0.00 PKD
ROOT
HETATM    1 FE   UNL     1      -9.692   4.375  68.661  1.00  0.00    -0.116 Fe 
HETATM    2  O   UNL     2      -8.958   6.256  68.414  1.00  0.00    -0.118 OA 
HETATM    3  C   UNL     2     -10.164   6.628  68.622  1.00  0.00    -0.171 C  
HETATM    4  O   UNL     2     -11.025   5.834  68.121  1.00  0.00    -0.230 OA 
HETATM    5  C   UNL     2     -10.459   7.380  69.889  1.00  0.00    -0.238 C  
ENDROOT
BRANCH   5   6
HETATM    6  C   UNL     2     -11.445   6.613  70.777  1.00  0.00    -0.407 C  
HETATM    7  C   UNL     2     -10.871   5.789  71.947  1.00  0.00    -0.252 C  
HETATM    8  O   UNL     2     -11.675   5.371  72.806  1.00  0.00    -0.295 OA 
HETATM    9  O   UNL     2      -9.610   5.523  71.888  1.00  0.00    -0.154 OA 
ENDBRANCH   5   6
TORSDOF 1
ENDMDL
MODEL      177
REMARK 921   NORMALIZED FREE ENERGY PREDICTED BY IDOCK:   -1.84 KCAL/MOL
REMARK 922        TOTAL FREE ENERGY PREDICTED BY IDOCK:   -2.09 KCAL/MOL
REMARK 923 INTER-LIGAND FREE ENERGY PREDICTED BY IDOCK:   -2.05 KCAL/MOL
REMARK 924 INTRA-LIGAND FREE ENERGY PREDICTED BY IDOCK:   -0.04 KCAL/MOL
REMARK 927      BINDING AFFINITY PREDICTED BY RF-SCORE:    0.00 PKD
ROOT
HETATM    1 FE   UNL     1      -8.635   5.415  68.708  1.00  0.00    -0.094 Fe 
HETATM    2  O   UNL     2     -10.149   5.065  67.396  1.00  0.00    -0.179 OA 
HETATM    3  C   UNL     2     -10.672   6.120  67.899  1.00  0.00    -0.296 C  
HETATM    4  O   UNL     2     -10.460   6.233  69.150  1.00  0.00    -0.193 OA 
HETATM    5  C   UNL     2     -10.778   7.337  67.025  1.00  0.00    -0.406 C  
ENDROOT
BRANCH   5   6
HETATM    6  C   UNL     2      -9.962   8.504  67.590  1.00  0.00    -0.253 C  
HETATM    7  C   UNL     2      -9.913   9.812  66.774  1.00  0.00    -0.218 C  
HETATM    8  O   UNL     2      -9.461  10.828  67.342  1.00  0.00    -0.154 OA 
HETATM    9  O   UNL     2     -10.261   9.721  65.536  1.00  0.00    -0.256 OA 
ENDBRANCH   5   6
TORSDOF 1
ENDMDL
MODEL      178
REMARK 921   NORMALIZED FREE ENERGY PREDICTED BY IDOCK:   -1.83 KCAL/MOL
REMARK 922        TOTAL FREE ENERGY PREDICTED BY IDOCK:   -2.08 KCAL/MOL
REMARK 923 INTER-LIGAND FREE ENERGY PREDICTED BY IDOCK:   -1.98 KCAL/MOL
REMARK 924 INTRA-LIGAND FREE ENERGY PREDICTED BY IDOCK:   -0.10 KCAL/MOL
REMARK 927      BINDING AFFINITY PREDICTED BY RF-SCORE:    0.00 PKD
ROOT
HETATM    1 FE   UNL     1     -11.811   2.119  64.091  1.00  0.00    -0.441 Fe 
HETATM    2  O   UNL     2      -9.789   2.002  63.898  1.00  0.00    -0.132 OA 
HETATM    3  C   UNL     2      -9.805   3.245  64.204  1.00  0.00    -0.171 C  
HETATM    4  O   UNL     2     -10.806   3.865  63.717  1.00  0.00    -0.254 OA 
HETATM    5  C   UNL     2      -9.220   3.652  65.526  1.00  0.00    -0.155 C  
ENDROOT
BRANCH   5   6
HETATM    6  C   UNL     2     -10.277   4.292  66.432  1.00  0.00    -0.095 C  
HETATM    7  C   UNL     2     -10.288   5.829  66.554  1.00  0.00    -0.209 C  
HETATM    8  O   UNL     2     -11.286   6.357  67.087  1.00  0.00    -0.370 OA 
HETATM    9  O   UNL     2      -9.215   6.435  66.174  1.00  0.00    -0.158 OA 
ENDBRANCH   5   6
TORSDOF 1
ENDMDL
MODEL      179
REMARK 921   NORMALIZED FREE ENERGY PREDICTED BY IDOCK:   -1.82 KCAL/MOL
REMARK 922        TOTAL FREE ENERGY PREDICTED BY IDOCK:   -2.08 KCAL/MOL
REMARK 923 INTER-LIGAND FREE ENERGY PREDICTED BY IDOCK:   -2.02 KCAL/MOL
REMARK 924 INTRA-LIGAND FREE ENERGY PREDICTED BY IDOCK:   -0.06 KCAL/MOL
REMARK 927      BINDING AFFINITY PREDICTED BY RF-SCORE:    0.00 PKD
ROOT
HETATM    1 FE   UNL     1     -10.903   7.140  68.478  1.00  0.00    -0.183 Fe 
HETATM    2  O   UNL     2      -9.021   6.708  67.840  1.00  0.00    -0.115 OA 
HETATM    3  C   UNL     2      -9.433   7.136  66.706  1.00  0.00    -0.169 C  
HETATM    4  O   UNL     2     -10.647   6.831  66.469  1.00  0.00    -0.157 OA 
HETATM    5  C   UNL     2      -8.847   8.417  66.183  1.00  0.00    -0.198 C  
ENDROOT
BRANCH   5   6
HETATM    6  C   UNL     2      -9.921   9.497  66.021  1.00  0.00    -0.348 C  
HETATM    7  C   UNL     2      -9.813  10.446  64.810  1.00  0.00    -0.340 C  
HETATM    8  O   UNL     2     -10.806  11.155  64.544  1.00  0.00    -0.326 OA 
HETATM    9  O   UNL     2      -8.665  10.491  64.226  1.00  0.00    -0.183 OA 
ENDBRANCH   5   6
TORSDOF 1
ENDMDL
MODEL      180
REMARK 921   NORMALIZED FREE ENERGY PREDICTED BY IDOCK:   -1.81 KCAL/MOL
REMARK 922        TOTAL FREE ENERGY PREDICTED BY IDOCK:   -2.07 KCAL/MOL
REMARK 923 INTER-LIGAND FREE ENERGY PREDICTED BY IDOCK:   -2.02 KCAL/MOL
REMARK 924 INTRA-LIGAND FREE ENERGY PREDICTED BY IDOCK:   -0.05 KCAL/MOL
REMARK 927      BINDING AFFINITY PREDICTED BY RF-SCORE:    0.00 PKD
ROOT
HETATM    1 FE   UNL     1      -9.161   5.079  68.449  1.00  0.00    -0.104 Fe 
HETATM    2  O   UNL     2      -8.131   6.756  68.964  1.00  0.00    -0.114 OA 
HETATM    3  C   UNL     2      -9.262   7.344  68.849  1.00  0.00    -0.142 C  
HETATM    4  O   UNL     2      -9.972   6.878  67.901  1.00  0.00    -0.138 OA 
HETATM    5  C   UNL     2      -9.904   7.882  70.097  1.00  0.00    -0.184 C  
ENDROOT
BRANCH   5   6
HETATM    6  C   UNL     2     -11.248   7.200  70.371  1.00  0.00    -0.320 C  
HETATM    7  C   UNL     2     -12.228   7.900  71.336  1.00  0.00    -0.313 C  
HETATM    8  O   UNL     2     -13.403   7.480  71.368  1.00  0.00    -0.351 OA 
HETATM    9  O   UNL     2     -11.721   8.808  72.098  1.00  0.00    -0.357 OA 
ENDBRANCH   5   6
TORSDOF 1
ENDMDL
MODEL      181
REMARK 921   NORMALIZED FREE ENERGY PREDICTED BY IDOCK:   -1.81 KCAL/MOL
REMARK 922        TOTAL FREE ENERGY PREDICTED BY IDOCK:   -2.07 KCAL/MOL
REMARK 923 INTER-LIGAND FREE ENERGY PREDICTED BY IDOCK:   -2.00 KCAL/MOL
REMARK 924 INTRA-LIGAND FREE ENERGY PREDICTED BY IDOCK:   -0.07 KCAL/MOL
REMARK 927      BINDING AFFINITY PREDICTED BY RF-SCORE:    0.00 PKD
ROOT
HETATM    1 FE   UNL     1     -10.901  10.178  67.307  1.00  0.00    -0.194 Fe 
HETATM    2  O   UNL     2      -9.018   9.710  67.916  1.00  0.00    -0.120 OA 
HETATM    3  C   UNL     2      -9.443  10.025  69.082  1.00  0.00    -0.207 C  
HETATM    4  O   UNL     2     -10.257  11.004  69.068  1.00  0.00    -0.210 OA 
HETATM    5  C   UNL     2      -9.576   8.930  70.101  1.00  0.00    -0.199 C  
ENDROOT
BRANCH   5   6
HETATM    6  C   UNL     2     -11.031   8.759  70.551  1.00  0.00    -0.272 C  
HETATM    7  C   UNL     2     -11.668   7.361  70.419  1.00  0.00    -0.134 C  
HETATM    8  O   UNL     2     -12.753   7.165  71.005  1.00  0.00    -0.352 OA 
HETATM    9  O   UNL     2     -11.064   6.535  69.634  1.00  0.00    -0.309 OA 
ENDBRANCH   5   6
TORSDOF 1
ENDMDL
MODEL      182
REMARK 921   NORMALIZED FREE ENERGY PREDICTED BY IDOCK:   -1.79 KCAL/MOL
REMARK 922        TOTAL FREE ENERGY PREDICTED BY IDOCK:   -2.05 KCAL/MOL
REMARK 923 INTER-LIGAND FREE ENERGY PREDICTED BY IDOCK:   -1.99 KCAL/MOL
REMARK 924 INTRA-LIGAND FREE ENERGY PREDICTED BY IDOCK:   -0.05 KCAL/MOL
REMARK 927      BINDING AFFINITY PREDICTED BY RF-SCORE:    0.00 PKD
ROOT
HETATM    1 FE   UNL     1      -8.723  11.625  64.380  1.00  0.00    -0.363 Fe 
HETATM    2  O   UNL     2      -8.678   9.674  64.953  1.00  0.00    -0.156 OA 
HETATM    3  C   UNL     2      -8.603  10.146  66.140  1.00  0.00    -0.139 C  
HETATM    4  O   UNL     2      -7.904  11.208  66.211  1.00  0.00    -0.158 OA 
HETATM    5  C   UNL     2      -9.775   9.935  67.056  1.00  0.00    -0.230 C  
ENDROOT
BRANCH   5   6
HETATM    6  C   UNL     2     -10.397  11.268  67.482  1.00  0.00    -0.224 C  
HETATM    7  C   UNL     2     -11.020  11.357  68.891  1.00  0.00    -0.226 C  
HETATM    8  O   UNL     2     -11.301  12.492  69.326  1.00  0.00    -0.257 OA 
HETATM    9  O   UNL     2     -11.282  10.232  69.466  1.00  0.00    -0.241 OA 
ENDBRANCH   5   6
TORSDOF 1
ENDMDL
MODEL      183
REMARK 921   NORMALIZED FREE ENERGY PREDICTED BY IDOCK:   -1.78 KCAL/MOL
REMARK 922        TOTAL FREE ENERGY PREDICTED BY IDOCK:   -2.04 KCAL/MOL
REMARK 923 INTER-LIGAND FREE ENERGY PREDICTED BY IDOCK:   -1.90 KCAL/MOL
REMARK 924 INTRA-LIGAND FREE ENERGY PREDICTED BY IDOCK:   -0.14 KCAL/MOL
REMARK 927      BINDING AFFINITY PREDICTED BY RF-SCORE:    0.00 PKD
ROOT
HETATM    1 FE   UNL     1     -10.110   6.856  68.360  1.00  0.00    -0.144 Fe 
HETATM    2  O   UNL     2     -11.129   6.910  70.119  1.00  0.00    -0.266 OA 
HETATM    3  C   UNL     2     -10.047   7.400  70.596  1.00  0.00    -0.190 C  
HETATM    4  O   UNL     2      -8.999   6.890  70.081  1.00  0.00    -0.147 OA 
HETATM    5  C   UNL     2     -10.063   8.834  71.045  1.00  0.00    -0.301 C  
ENDROOT
BRANCH   5   6
HETATM    6  C   UNL     2      -9.083   9.685  70.231  1.00  0.00    -0.272 C  
HETATM    7  C   UNL     2      -9.650  10.520  69.065  1.00  0.00    -0.202 C  
HETATM    8  O   UNL     2      -8.907  11.390  68.565  1.00  0.00    -0.156 OA 
HETATM    9  O   UNL     2     -10.821  10.183  68.643  1.00  0.00    -0.217 OA 
ENDBRANCH   5   6
TORSDOF 1
ENDMDL
MODEL      184
REMARK 921   NORMALIZED FREE ENERGY PREDICTED BY IDOCK:   -1.74 KCAL/MOL
REMARK 922        TOTAL FREE ENERGY PREDICTED BY IDOCK:   -1.99 KCAL/MOL
REMARK 923 INTER-LIGAND FREE ENERGY PREDICTED BY IDOCK:   -1.86 KCAL/MOL
REMARK 924 INTRA-LIGAND FREE ENERGY PREDICTED BY IDOCK:   -0.13 KCAL/MOL
REMARK 927      BINDING AFFINITY PREDICTED BY RF-SCORE:    0.00 PKD
ROOT
HETATM    1 FE   UNL     1      -9.455   7.314  65.419  1.00  0.00    -0.357 Fe 
HETATM    2  O   UNL     2     -10.285   8.968  66.262  1.00  0.00    -0.284 OA 
HETATM    3  C   UNL     2     -10.658   8.166  67.187  1.00  0.00    -0.285 C  
HETATM    4  O   UNL     2     -10.985   7.016  66.748  1.00  0.00    -0.317 OA 
HETATM    5  C   UNL     2     -10.034   8.321  68.545  1.00  0.00    -0.206 C  
ENDROOT
BRANCH   5   6
HETATM    6  C   UNL     2      -9.253   7.065  68.947  1.00  0.00    -0.136 C  
HETATM    7  C   UNL     2      -7.780   6.959  68.504  1.00  0.00    -0.113 C  
HETATM    8  O   UNL     2      -7.083   6.068  69.031  1.00  0.00    -0.069 OA 
HETATM    9  O   UNL     2      -7.417   7.748  67.551  1.00  0.00    -0.092 OA 
ENDBRANCH   5   6
TORSDOF 1
ENDMDL
MODEL      185
REMARK 921   NORMALIZED FREE ENERGY PREDICTED BY IDOCK:   -1.70 KCAL/MOL
REMARK 922        TOTAL FREE ENERGY PREDICTED BY IDOCK:   -1.95 KCAL/MOL
REMARK 923 INTER-LIGAND FREE ENERGY PREDICTED BY IDOCK:   -1.80 KCAL/MOL
REMARK 924 INTRA-LIGAND FREE ENERGY PREDICTED BY IDOCK:   -0.14 KCAL/MOL
REMARK 927      BINDING AFFINITY PREDICTED BY RF-SCORE:    0.00 PKD
ROOT
HETATM    1 FE   UNL     1     -10.764  10.551  70.838  1.00  0.00    -0.277 Fe 
HETATM    2  O   UNL     2     -11.089   8.765  69.921  1.00  0.00    -0.220 OA 
HETATM    3  C   UNL     2     -10.237   9.182  69.062  1.00  0.00    -0.207 C  
HETATM    4  O   UNL     2     -10.326  10.433  68.839  1.00  0.00    -0.186 OA 
HETATM    5  C   UNL     2      -8.909   8.483  68.991  1.00  0.00    -0.145 C  
ENDROOT
BRANCH   5   6
HETATM    6  C   UNL     2      -7.757   9.435  69.330  1.00  0.00    -0.085 C  
HETATM    7  C   UNL     2      -7.317   9.539  70.805  1.00  0.00    -0.084 C  
HETATM    8  O   UNL     2      -6.236  10.115  71.043  1.00  0.00    -0.253 OA 
HETATM    9  O   UNL     2      -8.156   9.097  71.679  1.00  0.00    -0.346 OA 
ENDBRANCH   5   6
TORSDOF 1
ENDMDL
MODEL      186
REMARK 921   NORMALIZED FREE ENERGY PREDICTED BY IDOCK:   -1.67 KCAL/MOL
REMARK 922        TOTAL FREE ENERGY PREDICTED BY IDOCK:   -1.92 KCAL/MOL
REMARK 923 INTER-LIGAND FREE ENERGY PREDICTED BY IDOCK:   -1.88 KCAL/MOL
REMARK 924 INTRA-LIGAND FREE ENERGY PREDICTED BY IDOCK:   -0.05 KCAL/MOL
REMARK 927      BINDING AFFINITY PREDICTED BY RF-SCORE:    0.00 PKD
ROOT
HETATM    1 FE   UNL     1      -9.713   3.983  69.810  1.00  0.00    -0.118 Fe 
HETATM    2  O   UNL     2      -8.096   4.161  71.032  1.00  0.00    -0.069 OA 
HETATM    3  C   UNL     2      -8.202   5.414  70.796  1.00  0.00    -0.115 C  
HETATM    4  O   UNL     2      -8.566   5.668  69.602  1.00  0.00    -0.108 OA 
HETATM    5  C   UNL     2      -8.612   6.310  71.931  1.00  0.00    -0.128 C  
ENDROOT
BRANCH   5   6
HETATM    6  C   UNL     2      -9.943   7.011  71.637  1.00  0.00    -0.187 C  
HETATM    7  C   UNL     2     -10.794   7.475  72.837  1.00  0.00    -0.373 C  
HETATM    8  O   UNL     2     -11.742   8.252  72.603  1.00  0.00    -0.403 OA 
HETATM    9  O   UNL     2     -10.505   6.943  73.976  1.00  0.00    -0.374 OA 
ENDBRANCH   5   6
TORSDOF 1
ENDMDL
MODEL      187
REMARK 921   NORMALIZED FREE ENERGY PREDICTED BY IDOCK:   -1.66 KCAL/MOL
REMARK 922        TOTAL FREE ENERGY PREDICTED BY IDOCK:   -1.90 KCAL/MOL
REMARK 923 INTER-LIGAND FREE ENERGY PREDICTED BY IDOCK:   -1.82 KCAL/MOL
REMARK 924 INTRA-LIGAND FREE ENERGY PREDICTED BY IDOCK:   -0.09 KCAL/MOL
REMARK 927      BINDING AFFINITY PREDICTED BY RF-SCORE:    0.00 PKD
ROOT
HETATM    1 FE   UNL     1     -10.341   3.101  70.546  1.00  0.00    -0.130 Fe 
HETATM    2  O   UNL     2     -10.102   3.983  72.363  1.00  0.00    -0.164 OA 
HETATM    3  C   UNL     2      -9.712   4.999  71.689  1.00  0.00    -0.170 C  
HETATM    4  O   UNL     2      -9.041   4.682  70.653  1.00  0.00    -0.118 OA 
HETATM    5  C   UNL     2     -10.583   6.223  71.695  1.00  0.00    -0.271 C  
ENDROOT
BRANCH   5   6
HETATM    6  C   UNL     2     -11.089   6.555  70.287  1.00  0.00    -0.392 C  
HETATM    7  C   UNL     2     -10.323   7.621  69.477  1.00  0.00    -0.217 C  
HETATM    8  O   UNL     2     -10.581   7.712  68.259  1.00  0.00    -0.190 OA 
HETATM    9  O   UNL     2      -9.542   8.392  70.153  1.00  0.00    -0.163 OA 
ENDBRANCH   5   6
TORSDOF 1
ENDMDL
MODEL      188
REMARK 921   NORMALIZED FREE ENERGY PREDICTED BY IDOCK:   -1.66 KCAL/MOL
REMARK 922        TOTAL FREE ENERGY PREDICTED BY IDOCK:   -1.90 KCAL/MOL
REMARK 923 INTER-LIGAND FREE ENERGY PREDICTED BY IDOCK:   -1.80 KCAL/MOL
REMARK 924 INTRA-LIGAND FREE ENERGY PREDICTED BY IDOCK:   -0.10 KCAL/MOL
REMARK 927      BINDING AFFINITY PREDICTED BY RF-SCORE:    0.00 PKD
ROOT
HETATM    1 FE   UNL     1     -10.281  10.970  70.426  1.00  0.00    -0.419 Fe 
HETATM    2  O   UNL     2     -11.309   9.368  71.144  1.00  0.00    -0.291 OA 
HETATM    3  C   UNL     2     -10.909   8.782  70.078  1.00  0.00    -0.223 C  
HETATM    4  O   UNL     2     -10.873   9.556  69.067  1.00  0.00    -0.219 OA 
HETATM    5  C   UNL     2      -9.920   7.661  70.222  1.00  0.00    -0.189 C  
ENDROOT
BRANCH   5   6
HETATM    6  C   UNL     2      -8.599   7.987  69.517  1.00  0.00    -0.136 C  
HETATM    7  C   UNL     2      -8.326   7.320  68.153  1.00  0.00    -0.124 C  
HETATM    8  O   UNL     2      -7.380   7.768  67.473  1.00  0.00    -0.088 OA 
HETATM    9  O   UNL     2      -9.048   6.290  67.871  1.00  0.00    -0.114 OA 
ENDBRANCH   5   6
TORSDOF 1
ENDMDL
MODEL      189
REMARK 921   NORMALIZED FREE ENERGY PREDICTED BY IDOCK:   -1.64 KCAL/MOL
REMARK 922        TOTAL FREE ENERGY PREDICTED BY IDOCK:   -1.89 KCAL/MOL
REMARK 923 INTER-LIGAND FREE ENERGY PREDICTED BY IDOCK:   -1.75 KCAL/MOL
REMARK 924 INTRA-LIGAND FREE ENERGY PREDICTED BY IDOCK:   -0.15 KCAL/MOL
REMARK 927      BINDING AFFINITY PREDICTED BY RF-SCORE:    0.00 PKD
ROOT
HETATM    1 FE   UNL     1      -9.625   9.583  67.591  1.00  0.00    -0.129 Fe 
HETATM    2  O   UNL     2      -9.214  10.787  69.178  1.00  0.00    -0.184 OA 
HETATM    3  C   UNL     2     -10.179  10.169  69.747  1.00  0.00    -0.247 C  
HETATM    4  O   UNL     2     -11.130   9.885  68.948  1.00  0.00    -0.212 OA 
HETATM    5  C   UNL     2      -9.853   9.267  70.903  1.00  0.00    -0.363 C  
ENDROOT
BRANCH   5   6
HETATM    6  C   UNL     2     -10.228   7.813  70.600  1.00  0.00    -0.199 C  
HETATM    7  C   UNL     2      -9.148   6.903  69.980  1.00  0.00    -0.145 C  
HETATM    8  O   UNL     2      -9.371   5.675  69.962  1.00  0.00    -0.143 OA 
HETATM    9  O   UNL     2      -8.139   7.503  69.447  1.00  0.00    -0.124 OA 
ENDBRANCH   5   6
TORSDOF 1
ENDMDL
MODEL      190
REMARK 921   NORMALIZED FREE ENERGY PREDICTED BY IDOCK:   -1.64 KCAL/MOL
REMARK 922        TOTAL FREE ENERGY PREDICTED BY IDOCK:   -1.88 KCAL/MOL
REMARK 923 INTER-LIGAND FREE ENERGY PREDICTED BY IDOCK:   -1.73 KCAL/MOL
REMARK 924 INTRA-LIGAND FREE ENERGY PREDICTED BY IDOCK:   -0.15 KCAL/MOL
REMARK 927      BINDING AFFINITY PREDICTED BY RF-SCORE:    0.00 PKD
ROOT
HETATM    1 FE   UNL     1     -10.287  10.662  69.386  1.00  0.00    -0.166 Fe 
HETATM    2  O   UNL     2     -10.680  12.256  68.185  1.00  0.00    -0.201 OA 
HETATM    3  C   UNL     2      -9.564  11.965  67.630  1.00  0.00    -0.185 C  
HETATM    4  O   UNL     2      -8.690  11.549  68.458  1.00  0.00    -0.154 OA 
HETATM    5  C   UNL     2      -9.593  11.448  66.220  1.00  0.00    -0.237 C  
ENDROOT
BRANCH   5   6
HETATM    6  C   UNL     2      -9.031  10.025  66.134  1.00  0.00    -0.174 C  
HETATM    7  C   UNL     2      -9.947   8.861  66.565  1.00  0.00    -0.288 C  
HETATM    8  O   UNL     2      -9.585   7.704  66.267  1.00  0.00    -0.170 OA 
HETATM    9  O   UNL     2     -10.970   9.181  67.281  1.00  0.00    -0.151 OA 
ENDBRANCH   5   6
TORSDOF 1
ENDMDL
MODEL      191
REMARK 921   NORMALIZED FREE ENERGY PREDICTED BY IDOCK:   -1.64 KCAL/MOL
REMARK 922        TOTAL FREE ENERGY PREDICTED BY IDOCK:   -1.88 KCAL/MOL
REMARK 923 INTER-LIGAND FREE ENERGY PREDICTED BY IDOCK:   -1.78 KCAL/MOL
REMARK 924 INTRA-LIGAND FREE ENERGY PREDICTED BY IDOCK:   -0.10 KCAL/MOL
REMARK 927      BINDING AFFINITY PREDICTED BY RF-SCORE:    0.00 PKD
ROOT
HETATM    1 FE   UNL     1     -10.939   4.634  65.276  1.00  0.00    -0.227 Fe 
HETATM    2  O   UNL     2      -9.885   3.942  66.872  1.00  0.00    -0.205 OA 
HETATM    3  C   UNL     2      -9.494   5.155  66.992  1.00  0.00    -0.137 C  
HETATM    4  O   UNL     2      -9.316   5.734  65.872  1.00  0.00    -0.152 OA 
HETATM    5  C   UNL     2      -9.963   5.929  68.191  1.00  0.00    -0.173 C  
ENDROOT
BRANCH   5   6
HETATM    6  C   UNL     2     -10.808   7.139  67.778  1.00  0.00    -0.248 C  
HETATM    7  C   UNL     2     -10.189   8.542  67.949  1.00  0.00    -0.218 C  
HETATM    8  O   UNL     2     -10.769   9.498  67.393  1.00  0.00    -0.279 OA 
HETATM    9  O   UNL     2      -9.169   8.620  68.733  1.00  0.00    -0.142 OA 
ENDBRANCH   5   6
TORSDOF 1
ENDMDL
MODEL      192
REMARK 921   NORMALIZED FREE ENERGY PREDICTED BY IDOCK:   -1.62 KCAL/MOL
REMARK 922        TOTAL FREE ENERGY PREDICTED BY IDOCK:   -1.87 KCAL/MOL
REMARK 923 INTER-LIGAND FREE ENERGY PREDICTED BY IDOCK:   -1.73 KCAL/MOL
REMARK 924 INTRA-LIGAND FREE ENERGY PREDICTED BY IDOCK:   -0.14 KCAL/MOL
REMARK 927      BINDING AFFINITY PREDICTED BY RF-SCORE:    0.00 PKD
ROOT
HETATM    1 FE   UNL     1      -8.967   5.759  68.277  1.00  0.00    -0.113 Fe 
HETATM    2  O   UNL     2      -8.767   7.065  66.731  1.00  0.00    -0.115 OA 
HETATM    3  C   UNL     2      -9.948   7.441  67.048  1.00  0.00    -0.231 C  
HETATM    4  O   UNL     2     -10.690   6.480  67.435  1.00  0.00    -0.251 OA 
HETATM    5  C   UNL     2     -10.118   8.820  67.620  1.00  0.00    -0.273 C  
ENDROOT
BRANCH   5   6
HETATM    6  C   UNL     2     -10.672   8.768  69.047  1.00  0.00    -0.134 C  
HETATM    7  C   UNL     2      -9.677   8.939  70.214  1.00  0.00    -0.185 C  
HETATM    8  O   UNL     2     -10.152   9.142  71.350  1.00  0.00    -0.305 OA 
HETATM    9  O   UNL     2      -8.432   8.765  69.927  1.00  0.00    -0.121 OA 
ENDBRANCH   5   6
TORSDOF 1
ENDMDL
MODEL      193
REMARK 921   NORMALIZED FREE ENERGY PREDICTED BY IDOCK:   -1.62 KCAL/MOL
REMARK 922        TOTAL FREE ENERGY PREDICTED BY IDOCK:   -1.86 KCAL/MOL
REMARK 923 INTER-LIGAND FREE ENERGY PREDICTED BY IDOCK:   -1.82 KCAL/MOL
REMARK 924 INTRA-LIGAND FREE ENERGY PREDICTED BY IDOCK:   -0.04 KCAL/MOL
REMARK 927      BINDING AFFINITY PREDICTED BY RF-SCORE:    0.00 PKD
ROOT
HETATM    1 FE   UNL     1      -7.188  12.131  68.071  1.00  0.00    -0.071 Fe 
HETATM    2  O   UNL     2      -8.580  12.545  66.646  1.00  0.00    -0.160 OA 
HETATM    3  C   UNL     2      -9.070  11.405  66.960  1.00  0.00    -0.167 C  
HETATM    4  O   UNL     2      -8.179  10.540  67.243  1.00  0.00    -0.117 OA 
HETATM    5  C   UNL     2     -10.409  11.379  67.641  1.00  0.00    -0.209 C  
ENDROOT
BRANCH   5   6
HETATM    6  C   UNL     2     -10.312  10.768  69.042  1.00  0.00    -0.235 C  
HETATM    7  C   UNL     2     -11.617  10.588  69.844  1.00  0.00    -0.307 C  
HETATM    8  O   UNL     2     -11.571   9.876  70.867  1.00  0.00    -0.313 OA 
HETATM    9  O   UNL     2     -12.632  11.270  69.433  1.00  0.00    -0.239 OA 
ENDBRANCH   5   6
TORSDOF 1
ENDMDL
MODEL      194
REMARK 921   NORMALIZED FREE ENERGY PREDICTED BY IDOCK:   -1.53 KCAL/MOL
REMARK 922        TOTAL FREE ENERGY PREDICTED BY IDOCK:   -1.77 KCAL/MOL
REMARK 923 INTER-LIGAND FREE ENERGY PREDICTED BY IDOCK:   -1.76 KCAL/MOL
REMARK 924 INTRA-LIGAND FREE ENERGY PREDICTED BY IDOCK:   -0.01 KCAL/MOL
REMARK 927      BINDING AFFINITY PREDICTED BY RF-SCORE:    0.00 PKD
ROOT
HETATM    1 FE   UNL     1     -10.284   6.724  68.297  1.00  0.00    -0.141 Fe 
HETATM    2  O   UNL     2     -11.513   6.984  69.896  1.00  0.00    -0.248 OA 
HETATM    3  C   UNL     2     -10.434   7.241  70.535  1.00  0.00    -0.217 C  
HETATM    4  O   UNL     2      -9.448   6.528  70.157  1.00  0.00    -0.157 OA 
HETATM    5  C   UNL     2     -10.223   8.647  71.021  1.00  0.00    -0.278 C  
ENDROOT
BRANCH   5   6
HETATM    6  C   UNL     2      -8.984   9.280  70.378  1.00  0.00    -0.278 C  
HETATM    7  C   UNL     2      -7.618   9.034  71.049  1.00  0.00    -0.115 C  
HETATM    8  O   UNL     2      -6.595   9.337  70.401  1.00  0.00    -0.052 OA 
HETATM    9  O   UNL     2      -7.653   8.618  72.269  1.00  0.00    -0.271 OA 
ENDBRANCH   5   6
TORSDOF 1
ENDMDL
MODEL      195
REMARK 921   NORMALIZED FREE ENERGY PREDICTED BY IDOCK:   -1.52 KCAL/MOL
REMARK 922        TOTAL FREE ENERGY PREDICTED BY IDOCK:   -1.75 KCAL/MOL
REMARK 923 INTER-LIGAND FREE ENERGY PREDICTED BY IDOCK:   -1.64 KCAL/MOL
REMARK 924 INTRA-LIGAND FREE ENERGY PREDICTED BY IDOCK:   -0.12 KCAL/MOL
REMARK 927      BINDING AFFINITY PREDICTED BY RF-SCORE:    0.00 PKD
ROOT
HETATM    1 FE   UNL     1      -9.394   9.068  65.980  1.00  0.00    -0.140 Fe 
HETATM    2  O   UNL     2     -10.058  10.728  65.010  1.00  0.00    -0.272 OA 
HETATM    3  C   UNL     2     -10.475  11.093  66.164  1.00  0.00    -0.253 C  
HETATM    4  O   UNL     2     -10.910  10.124  66.866  1.00  0.00    -0.201 OA 
HETATM    5  C   UNL     2      -9.805  12.272  66.812  1.00  0.00    -0.218 C  
ENDROOT
BRANCH   5   6
HETATM    6  C   UNL     2      -9.125  11.875  68.126  1.00  0.00    -0.190 C  
HETATM    7  C   UNL     2      -7.585  11.799  68.147  1.00  0.00    -0.117 C  
HETATM    8  O   UNL     2      -7.028  11.719  69.261  1.00  0.00    -0.108 OA 
HETATM    9  O   UNL     2      -7.006  11.732  66.997  1.00  0.00    -0.139 OA 
ENDBRANCH   5   6
TORSDOF 1
ENDMDL
MODEL      196
REMARK 921   NORMALIZED FREE ENERGY PREDICTED BY IDOCK:   -1.50 KCAL/MOL
REMARK 922        TOTAL FREE ENERGY PREDICTED BY IDOCK:   -1.74 KCAL/MOL
REMARK 923 INTER-LIGAND FREE ENERGY PREDICTED BY IDOCK:   -1.62 KCAL/MOL
REMARK 924 INTRA-LIGAND FREE ENERGY PREDICTED BY IDOCK:   -0.13 KCAL/MOL
REMARK 927      BINDING AFFINITY PREDICTED BY RF-SCORE:    0.00 PKD
ROOT
HETATM    1 FE   UNL     1      -9.456   7.784  64.988  1.00  0.00    -0.390 Fe 
HETATM    2  O   UNL     2      -8.664   5.951  65.379  1.00  0.00    -0.153 OA 
HETATM    3  C   UNL     2      -7.914   6.580  66.204  1.00  0.00    -0.110 C  
HETATM    4  O   UNL     2      -7.569   7.732  65.785  1.00  0.00    -0.079 OA 
HETATM    5  C   UNL     2      -8.114   6.325  67.671  1.00  0.00    -0.117 C  
ENDROOT
BRANCH   5   6
HETATM    6  C   UNL     2      -8.541   7.599  68.407  1.00  0.00    -0.124 C  
HETATM    7  C   UNL     2     -10.047   7.931  68.460  1.00  0.00    -0.197 C  
HETATM    8  O   UNL     2     -10.412   8.820  69.256  1.00  0.00    -0.219 OA 
HETATM    9  O   UNL     2     -10.792   7.319  67.604  1.00  0.00    -0.228 OA 
ENDBRANCH   5   6
TORSDOF 1
ENDMDL
MODEL      197
REMARK 921   NORMALIZED FREE ENERGY PREDICTED BY IDOCK:   -1.50 KCAL/MOL
REMARK 922        TOTAL FREE ENERGY PREDICTED BY IDOCK:   -1.74 KCAL/MOL
REMARK 923 INTER-LIGAND FREE ENERGY PREDICTED BY IDOCK:   -1.65 KCAL/MOL
REMARK 924 INTRA-LIGAND FREE ENERGY PREDICTED BY IDOCK:   -0.09 KCAL/MOL
REMARK 927      BINDING AFFINITY PREDICTED BY RF-SCORE:    0.00 PKD
ROOT
HETATM    1 FE   UNL     1     -11.444   8.170  68.383  1.00  0.00    -0.428 Fe 
HETATM    2  O   UNL     2     -11.195   6.155  68.263  1.00  0.00    -0.323 OA 
HETATM    3  C   UNL     2      -9.978   6.440  67.987  1.00  0.00    -0.135 C  
HETATM    4  O   UNL     2      -9.860   7.490  67.276  1.00  0.00    -0.152 OA 
HETATM    5  C   UNL     2      -8.924   6.072  68.993  1.00  0.00    -0.124 C  
ENDROOT
BRANCH   5   6
HETATM    6  C   UNL     2      -8.200   7.314  69.523  1.00  0.00    -0.131 C  
HETATM    7  C   UNL     2      -8.352   7.654  71.020  1.00  0.00    -0.112 C  
HETATM    8  O   UNL     2      -7.577   8.508  71.498  1.00  0.00    -0.092 OA 
HETATM    9  O   UNL     2      -9.335   7.087  71.633  1.00  0.00    -0.156 OA 
ENDBRANCH   5   6
TORSDOF 1
ENDMDL
MODEL      198
REMARK 921   NORMALIZED FREE ENERGY PREDICTED BY IDOCK:   -1.50 KCAL/MOL
REMARK 922        TOTAL FREE ENERGY PREDICTED BY IDOCK:   -1.73 KCAL/MOL
REMARK 923 INTER-LIGAND FREE ENERGY PREDICTED BY IDOCK:   -1.61 KCAL/MOL
REMARK 924 INTRA-LIGAND FREE ENERGY PREDICTED BY IDOCK:   -0.12 KCAL/MOL
REMARK 927      BINDING AFFINITY PREDICTED BY RF-SCORE:    0.00 PKD
ROOT
HETATM    1 FE   UNL     1      -9.152   7.121  66.371  1.00  0.00    -0.121 Fe 
HETATM    2  O   UNL     2      -8.586   5.265  66.979  1.00  0.00    -0.107 OA 
HETATM    3  C   UNL     2      -8.090   5.874  67.989  1.00  0.00    -0.105 C  
HETATM    4  O   UNL     2      -7.589   7.006  67.691  1.00  0.00    -0.105 OA 
HETATM    5  C   UNL     2      -8.725   5.644  69.331  1.00  0.00    -0.109 C  
ENDROOT
BRANCH   5   6
HETATM    6  C   UNL     2      -9.299   6.943  69.907  1.00  0.00    -0.150 C  
HETATM    7  C   UNL     2     -10.831   7.119  69.904  1.00  0.00    -0.254 C  
HETATM    8  O   UNL     2     -11.305   8.051  70.586  1.00  0.00    -0.269 OA 
HETATM    9  O   UNL     2     -11.490   6.336  69.119  1.00  0.00    -0.394 OA 
ENDBRANCH   5   6
TORSDOF 1
ENDMDL
MODEL      199
REMARK 921   NORMALIZED FREE ENERGY PREDICTED BY IDOCK:   -1.46 KCAL/MOL
REMARK 922        TOTAL FREE ENERGY PREDICTED BY IDOCK:   -1.70 KCAL/MOL
REMARK 923 INTER-LIGAND FREE ENERGY PREDICTED BY IDOCK:   -1.61 KCAL/MOL
REMARK 924 INTRA-LIGAND FREE ENERGY PREDICTED BY IDOCK:   -0.09 KCAL/MOL
REMARK 927      BINDING AFFINITY PREDICTED BY RF-SCORE:    0.00 PKD
ROOT
HETATM    1 FE   UNL     1      -6.733   8.562  69.916  1.00  0.00    -0.038 Fe 
HETATM    2  O   UNL     2      -8.312   7.441  70.538  1.00  0.00    -0.128 OA 
HETATM    3  C   UNL     2      -8.853   8.568  70.812  1.00  0.00    -0.161 C  
HETATM    4  O   UNL     2      -8.022   9.427  71.252  1.00  0.00    -0.328 OA 
HETATM    5  C   UNL     2     -10.038   8.996  69.993  1.00  0.00    -0.215 C  
ENDROOT
BRANCH   5   6
HETATM    6  C   UNL     2      -9.748  10.288  69.224  1.00  0.00    -0.240 C  
HETATM    7  C   UNL     2      -9.707  10.217  67.683  1.00  0.00    -0.161 C  
HETATM    8  O   UNL     2      -9.716  11.296  67.057  1.00  0.00    -0.183 OA 
HETATM    9  O   UNL     2      -9.573   9.039  67.175  1.00  0.00    -0.151 OA 
ENDBRANCH   5   6
TORSDOF 1
ENDMDL
MODEL      200
REMARK 921   NORMALIZED FREE ENERGY PREDICTED BY IDOCK:   -1.45 KCAL/MOL
REMARK 922        TOTAL FREE ENERGY PREDICTED BY IDOCK:   -1.69 KCAL/MOL
REMARK 923 INTER-LIGAND FREE ENERGY PREDICTED BY IDOCK:   -1.53 KCAL/MOL
REMARK 924 INTRA-LIGAND FREE ENERGY PREDICTED BY IDOCK:   -0.16 KCAL/MOL
REMARK 927      BINDING AFFINITY PREDICTED BY RF-SCORE:    0.00 PKD
ROOT
HETATM    1 FE   UNL     1      -6.113   9.844  64.787  1.00  0.00    -0.064 Fe 
HETATM    2  O   UNL     2      -6.571   8.437  66.182  1.00  0.00    -0.053 OA 
HETATM    3  C   UNL     2      -7.304   9.352  66.695  1.00  0.00    -0.090 C  
HETATM    4  O   UNL     2      -6.790  10.513  66.601  1.00  0.00    -0.094 OA 
HETATM    5  C   UNL     2      -8.795   9.167  66.651  1.00  0.00    -0.147 C  
ENDROOT
BRANCH   5   6
HETATM    6  C   UNL     2      -9.471  10.271  65.833  1.00  0.00    -0.241 C  
HETATM    7  C   UNL     2      -9.478  10.131  64.297  1.00  0.00    -0.305 C  
HETATM    8  O   UNL     2     -10.231  10.890  63.654  1.00  0.00    -0.337 OA 
HETATM    9  O   UNL     2      -8.630   9.296  63.801  1.00  0.00    -0.197 OA 
ENDBRANCH   5   6
TORSDOF 1
ENDMDL
MODEL      201
REMARK 921   NORMALIZED FREE ENERGY PREDICTED BY IDOCK:   -1.44 KCAL/MOL
REMARK 922        TOTAL FREE ENERGY PREDICTED BY IDOCK:   -1.68 KCAL/MOL
REMARK 923 INTER-LIGAND FREE ENERGY PREDICTED BY IDOCK:   -1.52 KCAL/MOL
REMARK 924 INTRA-LIGAND FREE ENERGY PREDICTED BY IDOCK:   -0.16 KCAL/MOL
REMARK 927      BINDING AFFINITY PREDICTED BY RF-SCORE:    0.00 PKD
ROOT
HETATM    1 FE   UNL     1      -9.170   3.519  68.964  1.00  0.00    -0.084 Fe 
HETATM    2  O   UNL     2      -7.520   4.703  69.093  1.00  0.00    -0.055 OA 
HETATM    3  C   UNL     2      -8.154   5.473  68.290  1.00  0.00    -0.096 C  
HETATM    4  O   UNL     2      -8.843   4.836  67.429  1.00  0.00    -0.104 OA 
HETATM    5  C   UNL     2      -8.615   6.804  68.810  1.00  0.00    -0.123 C  
ENDROOT
BRANCH   5   6
HETATM    6  C   UNL     2     -10.142   6.921  68.771  1.00  0.00    -0.168 C  
HETATM    7  C   UNL     2     -10.945   6.275  69.918  1.00  0.00    -0.370 C  
HETATM    8  O   UNL     2     -12.152   6.576  70.017  1.00  0.00    -0.282 OA 
HETATM    9  O   UNL     2     -10.316   5.401  70.628  1.00  0.00    -0.236 OA 
ENDBRANCH   5   6
TORSDOF 1
ENDMDL
MODEL      202
REMARK 921   NORMALIZED FREE ENERGY PREDICTED BY IDOCK:   -1.41 KCAL/MOL
REMARK 922        TOTAL FREE ENERGY PREDICTED BY IDOCK:   -1.65 KCAL/MOL
REMARK 923 INTER-LIGAND FREE ENERGY PREDICTED BY IDOCK:   -1.49 KCAL/MOL
REMARK 924 INTRA-LIGAND FREE ENERGY PREDICTED BY IDOCK:   -0.16 KCAL/MOL
REMARK 927      BINDING AFFINITY PREDICTED BY RF-SCORE:    0.00 PKD
ROOT
HETATM    1 FE   UNL     1      -9.053   9.315  65.833  1.00  0.00    -0.129 Fe 
HETATM    2  O   UNL     2     -10.290  10.806  66.454  1.00  0.00    -0.239 OA 
HETATM    3  C   UNL     2     -10.589  10.003  67.404  1.00  0.00    -0.271 C  
HETATM    4  O   UNL     2     -10.625   8.785  67.035  1.00  0.00    -0.282 OA 
HETATM    5  C   UNL     2     -10.160  10.371  68.797  1.00  0.00    -0.198 C  
ENDROOT
BRANCH   5   6
HETATM    6  C   UNL     2      -9.188   9.337  69.373  1.00  0.00    -0.159 C  
HETATM    7  C   UNL     2      -7.708   9.421  68.947  1.00  0.00    -0.076 C  
HETATM    8  O   UNL     2      -6.882   8.747  69.596  1.00  0.00    -0.045 OA 
HETATM    9  O   UNL     2      -7.462  10.118  67.890  1.00  0.00    -0.087 OA 
ENDBRANCH   5   6
TORSDOF 1
ENDMDL
MODEL      203
REMARK 921   NORMALIZED FREE ENERGY PREDICTED BY IDOCK:   -1.40 KCAL/MOL
REMARK 922        TOTAL FREE ENERGY PREDICTED BY IDOCK:   -1.63 KCAL/MOL
REMARK 923 INTER-LIGAND FREE ENERGY PREDICTED BY IDOCK:   -1.48 KCAL/MOL
REMARK 924 INTRA-LIGAND FREE ENERGY PREDICTED BY IDOCK:   -0.14 KCAL/MOL
REMARK 927      BINDING AFFINITY PREDICTED BY RF-SCORE:    0.00 PKD
ROOT
HETATM    1 FE   UNL     1      -9.789   7.630  71.009  1.00  0.00    -0.167 Fe 
HETATM    2  O   UNL     2      -8.490   6.380  71.951  1.00  0.00    -0.123 OA 
HETATM    3  C   UNL     2      -9.356   5.474  71.691  1.00  0.00    -0.146 C  
HETATM    4  O   UNL     2     -10.556   5.892  71.776  1.00  0.00    -0.219 OA 
HETATM    5  C   UNL     2      -8.983   4.408  70.700  1.00  0.00    -0.158 C  
ENDROOT
BRANCH   5   6
HETATM    6  C   UNL     2      -9.904   4.438  69.475  1.00  0.00    -0.258 C  
HETATM    7  C   UNL     2      -9.476   5.304  68.273  1.00  0.00    -0.124 C  
HETATM    8  O   UNL     2     -10.088   5.137  67.197  1.00  0.00    -0.176 OA 
HETATM    9  O   UNL     2      -8.577   6.196  68.509  1.00  0.00    -0.113 OA 
ENDBRANCH   5   6
TORSDOF 1
ENDMDL
MODEL      204
REMARK 921   NORMALIZED FREE ENERGY PREDICTED BY IDOCK:   -1.33 KCAL/MOL
REMARK 922        TOTAL FREE ENERGY PREDICTED BY IDOCK:   -1.56 KCAL/MOL
REMARK 923 INTER-LIGAND FREE ENERGY PREDICTED BY IDOCK:   -1.62 KCAL/MOL
REMARK 924 INTRA-LIGAND FREE ENERGY PREDICTED BY IDOCK:    0.06 KCAL/MOL
REMARK 927      BINDING AFFINITY PREDICTED BY RF-SCORE:    0.00 PKD
ROOT
HETATM    1 FE   UNL     1      -7.152   5.489  66.822  1.00  0.00    -0.056 Fe 
HETATM    2  O   UNL     2      -8.296   4.371  68.077  1.00  0.00    -0.094 OA 
HETATM    3  C   UNL     2      -8.849   5.485  68.378  1.00  0.00    -0.107 C  
HETATM    4  O   UNL     2      -8.027   6.458  68.401  1.00  0.00    -0.104 OA 
HETATM    5  C   UNL     2     -10.278   5.696  67.966  1.00  0.00    -0.234 C  
ENDROOT
BRANCH   5   6
HETATM    6  C   UNL     2     -10.411   6.870  66.991  1.00  0.00    -0.348 C  
HETATM    7  C   UNL     2     -10.455   8.295  67.579  1.00  0.00    -0.255 C  
HETATM    8  O   UNL     2     -10.315   9.250  66.787  1.00  0.00    -0.246 OA 
HETATM    9  O   UNL     2     -10.725   8.381  68.837  1.00  0.00    -0.179 OA 
ENDBRANCH   5   6
TORSDOF 1
ENDMDL
MODEL      205
REMARK 921   NORMALIZED FREE ENERGY PREDICTED BY IDOCK:   -1.33 KCAL/MOL
REMARK 922        TOTAL FREE ENERGY PREDICTED BY IDOCK:   -1.55 KCAL/MOL
REMARK 923 INTER-LIGAND FREE ENERGY PREDICTED BY IDOCK:   -1.41 KCAL/MOL
REMARK 924 INTRA-LIGAND FREE ENERGY PREDICTED BY IDOCK:   -0.15 KCAL/MOL
REMARK 927      BINDING AFFINITY PREDICTED BY RF-SCORE:    0.00 PKD
ROOT
HETATM    1 FE   UNL     1     -10.964   4.968  65.708  1.00  0.00    -0.223 Fe 
HETATM    2  O   UNL     2     -10.083   4.535  67.489  1.00  0.00    -0.134 OA 
HETATM    3  C   UNL     2      -8.986   4.748  66.865  1.00  0.00    -0.111 C  
HETATM    4  O   UNL     2      -9.013   4.344  65.658  1.00  0.00    -0.123 OA 
HETATM    5  C   UNL     2      -8.178   5.953  67.254  1.00  0.00    -0.105 C  
ENDROOT
BRANCH   5   6
HETATM    6  C   UNL     2      -8.040   6.934  66.085  1.00  0.00    -0.115 C  
HETATM    7  C   UNL     2      -9.011   8.131  66.030  1.00  0.00    -0.171 C  
HETATM    8  O   UNL     2      -8.745   9.051  65.229  1.00  0.00    -0.173 OA 
HETATM    9  O   UNL     2     -10.071   8.035  66.757  1.00  0.00    -0.253 OA 
ENDBRANCH   5   6
TORSDOF 1
ENDMDL
MODEL      206
REMARK 921   NORMALIZED FREE ENERGY PREDICTED BY IDOCK:   -1.27 KCAL/MOL
REMARK 922        TOTAL FREE ENERGY PREDICTED BY IDOCK:   -1.49 KCAL/MOL
REMARK 923 INTER-LIGAND FREE ENERGY PREDICTED BY IDOCK:   -1.45 KCAL/MOL
REMARK 924 INTRA-LIGAND FREE ENERGY PREDICTED BY IDOCK:   -0.05 KCAL/MOL
REMARK 927      BINDING AFFINITY PREDICTED BY RF-SCORE:    0.00 PKD
ROOT
HETATM    1 FE   UNL     1     -10.372   6.618  67.773  1.00  0.00    -0.136 Fe 
HETATM    2  O   UNL     2     -10.562   8.195  69.044  1.00  0.00    -0.215 OA 
HETATM    3  C   UNL     2      -9.360   8.467  68.701  1.00  0.00    -0.143 C  
HETATM    4  O   UNL     2      -8.645   7.428  68.523  1.00  0.00    -0.128 OA 
HETATM    5  C   UNL     2      -9.124   9.709  67.889  1.00  0.00    -0.130 C  
ENDROOT
BRANCH   5   6
HETATM    6  C   UNL     2      -8.536   9.375  66.515  1.00  0.00    -0.142 C  
HETATM    7  C   UNL     2      -8.680  10.426  65.394  1.00  0.00    -0.180 C  
HETATM    8  O   UNL     2      -7.997  10.263  64.362  1.00  0.00    -0.160 OA 
HETATM    9  O   UNL     2      -9.569  11.340  65.586  1.00  0.00    -0.214 OA 
ENDBRANCH   5   6
TORSDOF 1
ENDMDL
MODEL      207
REMARK 921   NORMALIZED FREE ENERGY PREDICTED BY IDOCK:   -1.24 KCAL/MOL
REMARK 922        TOTAL FREE ENERGY PREDICTED BY IDOCK:   -1.46 KCAL/MOL
REMARK 923 INTER-LIGAND FREE ENERGY PREDICTED BY IDOCK:   -1.32 KCAL/MOL
REMARK 924 INTRA-LIGAND FREE ENERGY PREDICTED BY IDOCK:   -0.15 KCAL/MOL
REMARK 927      BINDING AFFINITY PREDICTED BY RF-SCORE:    0.00 PKD
ROOT
HETATM    1 FE   UNL     1      -9.710   8.998  69.098  1.00  0.00    -0.151 Fe 
HETATM    2  O   UNL     2      -8.051   8.139  69.902  1.00  0.00    -0.111 OA 
HETATM    3  C   UNL     2      -8.811   7.128  70.095  1.00  0.00    -0.145 C  
HETATM    4  O   UNL     2     -10.002   7.452  70.410  1.00  0.00    -0.187 OA 
HETATM    5  C   UNL     2      -8.540   5.882  69.301  1.00  0.00    -0.112 C  
ENDROOT
BRANCH   5   6
HETATM    6  C   UNL     2      -9.726   5.524  68.399  1.00  0.00    -0.168 C  
HETATM    7  C   UNL     2      -9.726   6.072  66.957  1.00  0.00    -0.138 C  
HETATM    8  O   UNL     2     -10.553   5.587  66.158  1.00  0.00    -0.182 OA 
HETATM    9  O   UNL     2      -8.926   7.056  66.725  1.00  0.00    -0.123 OA 
ENDBRANCH   5   6
TORSDOF 1
ENDMDL
MODEL      208
REMARK 921   NORMALIZED FREE ENERGY PREDICTED BY IDOCK:   -1.24 KCAL/MOL
REMARK 922        TOTAL FREE ENERGY PREDICTED BY IDOCK:   -1.46 KCAL/MOL
REMARK 923 INTER-LIGAND FREE ENERGY PREDICTED BY IDOCK:   -1.40 KCAL/MOL
REMARK 924 INTRA-LIGAND FREE ENERGY PREDICTED BY IDOCK:   -0.06 KCAL/MOL
REMARK 927      BINDING AFFINITY PREDICTED BY RF-SCORE:    0.00 PKD
ROOT
HETATM    1 FE   UNL     1      -9.721   7.492  65.298  1.00  0.00    -0.389 Fe 
HETATM    2  O   UNL     2     -10.919   7.225  66.920  1.00  0.00    -0.343 OA 
HETATM    3  C   UNL     2     -10.275   6.129  67.070  1.00  0.00    -0.202 C  
HETATM    4  O   UNL     2      -9.977   5.572  65.964  1.00  0.00    -0.126 OA 
HETATM    5  C   UNL     2      -9.370   6.003  68.262  1.00  0.00    -0.116 C  
ENDROOT
BRANCH   5   6
HETATM    6  C   UNL     2      -7.910   5.810  67.837  1.00  0.00    -0.097 C  
HETATM    7  C   UNL     2      -7.046   4.827  68.652  1.00  0.00    -0.057 C  
HETATM    8  O   UNL     2      -5.948   4.486  68.166  1.00  0.00    -0.025 OA 
HETATM    9  O   UNL     2      -7.496   4.509  69.818  1.00  0.00    -0.050 OA 
ENDBRANCH   5   6
TORSDOF 1
ENDMDL
MODEL      209
REMARK 921   NORMALIZED FREE ENERGY PREDICTED BY IDOCK:   -1.22 KCAL/MOL
REMARK 922        TOTAL FREE ENERGY PREDICTED BY IDOCK:   -1.44 KCAL/MOL
REMARK 923 INTER-LIGAND FREE ENERGY PREDICTED BY IDOCK:   -1.40 KCAL/MOL
REMARK 924 INTRA-LIGAND FREE ENERGY PREDICTED BY IDOCK:   -0.04 KCAL/MOL
REMARK 927      BINDING AFFINITY PREDICTED BY RF-SCORE:    0.00 PKD
ROOT
HETATM    1 FE   UNL     1      -8.270  11.467  64.301  1.00  0.00    -0.366 Fe 
HETATM    2  O   UNL     2      -8.119   9.549  63.641  1.00  0.00    -0.133 OA 
HETATM    3  C   UNL     2      -7.498   9.343  64.741  1.00  0.00    -0.107 C  
HETATM    4  O   UNL     2      -6.765  10.324  65.091  1.00  0.00    -0.126 OA 
HETATM    5  C   UNL     2      -8.164   8.476  65.772  1.00  0.00    -0.125 C  
ENDROOT
BRANCH   5   6
HETATM    6  C   UNL     2      -8.440   9.254  67.062  1.00  0.00    -0.124 C  
HETATM    7  C   UNL     2      -9.046   8.483  68.254  1.00  0.00    -0.138 C  
HETATM    8  O   UNL     2      -9.041   9.048  69.367  1.00  0.00    -0.141 OA 
HETATM    9  O   UNL     2      -9.591   7.348  67.976  1.00  0.00    -0.140 OA 
ENDBRANCH   5   6
TORSDOF 1
ENDMDL
MODEL      210
REMARK 921   NORMALIZED FREE ENERGY PREDICTED BY IDOCK:   -1.21 KCAL/MOL
REMARK 922        TOTAL FREE ENERGY PREDICTED BY IDOCK:   -1.43 KCAL/MOL
REMARK 923 INTER-LIGAND FREE ENERGY PREDICTED BY IDOCK:   -1.39 KCAL/MOL
REMARK 924 INTRA-LIGAND FREE ENERGY PREDICTED BY IDOCK:   -0.05 KCAL/MOL
REMARK 927      BINDING AFFINITY PREDICTED BY RF-SCORE:    0.00 PKD
ROOT
HETATM    1 FE   UNL     1     -11.994  11.513  72.312  1.00  0.00     0.106 Fe 
HETATM    2  O   UNL     2     -13.018  10.104  71.262  1.00  0.00    -0.358 OA 
HETATM    3  C   UNL     2     -12.706  10.807  70.239  1.00  0.00    -0.216 C  
HETATM    4  O   UNL     2     -12.715  12.059  70.473  1.00  0.00    -0.139 OA 
HETATM    5  C   UNL     2     -11.742  10.218  69.249  1.00  0.00    -0.141 C  
ENDROOT
BRANCH   5   6
HETATM    6  C   UNL     2     -10.462  11.054  69.150  1.00  0.00    -0.238 C  
HETATM    7  C   UNL     2      -9.212  10.390  68.537  1.00  0.00    -0.145 C  
HETATM    8  O   UNL     2      -8.256  11.134  68.233  1.00  0.00    -0.120 OA 
HETATM    9  O   UNL     2      -9.228   9.103  68.474  1.00  0.00    -0.136 OA 
ENDBRANCH   5   6
TORSDOF 1
ENDMDL
MODEL      211
REMARK 921   NORMALIZED FREE ENERGY PREDICTED BY IDOCK:   -1.20 KCAL/MOL
REMARK 922        TOTAL FREE ENERGY PREDICTED BY IDOCK:   -1.42 KCAL/MOL
REMARK 923 INTER-LIGAND FREE ENERGY PREDICTED BY IDOCK:   -1.27 KCAL/MOL
REMARK 924 INTRA-LIGAND FREE ENERGY PREDICTED BY IDOCK:   -0.15 KCAL/MOL
REMARK 927      BINDING AFFINITY PREDICTED BY RF-SCORE:    0.00 PKD
ROOT
HETATM    1 FE   UNL     1      -7.776   4.952  69.514  1.00  0.00    -0.058 Fe 
HETATM    2  O   UNL     2      -6.915   6.778  69.765  1.00  0.00    -0.059 OA 
HETATM    3  C   UNL     2      -6.948   6.839  68.487  1.00  0.00    -0.076 C  
HETATM    4  O   UNL     2      -6.728   5.716  67.928  1.00  0.00    -0.051 OA 
HETATM    5  C   UNL     2      -7.869   7.844  67.855  1.00  0.00    -0.127 C  
ENDROOT
BRANCH   5   6
HETATM    6  C   UNL     2      -8.939   7.160  66.998  1.00  0.00    -0.137 C  
HETATM    7  C   UNL     2     -10.297   6.844  67.657  1.00  0.00    -0.205 C  
HETATM    8  O   UNL     2     -11.239   6.518  66.905  1.00  0.00    -0.387 OA 
HETATM    9  O   UNL     2     -10.318   6.857  68.946  1.00  0.00    -0.173 OA 
ENDBRANCH   5   6
TORSDOF 1
ENDMDL
MODEL      212
REMARK 921   NORMALIZED FREE ENERGY PREDICTED BY IDOCK:   -1.20 KCAL/MOL
REMARK 922        TOTAL FREE ENERGY PREDICTED BY IDOCK:   -1.42 KCAL/MOL
REMARK 923 INTER-LIGAND FREE ENERGY PREDICTED BY IDOCK:   -1.36 KCAL/MOL
REMARK 924 INTRA-LIGAND FREE ENERGY PREDICTED BY IDOCK:   -0.06 KCAL/MOL
REMARK 927      BINDING AFFINITY PREDICTED BY RF-SCORE:    0.00 PKD
ROOT
HETATM    1 FE   UNL     1     -11.190   5.623  66.545  1.00  0.00    -0.275 Fe 
HETATM    2  O   UNL     2     -10.492   4.414  65.066  1.00  0.00    -0.212 OA 
HETATM    3  C   UNL     2      -9.359   4.558  65.644  1.00  0.00    -0.164 C  
HETATM    4  O   UNL     2      -9.188   5.725  66.123  1.00  0.00    -0.157 OA 
HETATM    5  C   UNL     2      -8.754   3.357  66.314  1.00  0.00    -0.126 C  
ENDROOT
BRANCH   5   6
HETATM    6  C   UNL     2      -8.590   3.581  67.821  1.00  0.00    -0.116 C  
HETATM    7  C   UNL     2      -9.032   2.450  68.771  1.00  0.00    -0.122 C  
HETATM    8  O   UNL     2      -8.677   2.530  69.965  1.00  0.00    -0.058 OA 
HETATM    9  O   UNL     2      -9.815   1.559  68.266  1.00  0.00    -0.129 OA 
ENDBRANCH   5   6
TORSDOF 1
ENDMDL
MODEL      213
REMARK 921   NORMALIZED FREE ENERGY PREDICTED BY IDOCK:   -1.16 KCAL/MOL
REMARK 922        TOTAL FREE ENERGY PREDICTED BY IDOCK:   -1.38 KCAL/MOL
REMARK 923 INTER-LIGAND FREE ENERGY PREDICTED BY IDOCK:   -1.33 KCAL/MOL
REMARK 924 INTRA-LIGAND FREE ENERGY PREDICTED BY IDOCK:   -0.05 KCAL/MOL
REMARK 927      BINDING AFFINITY PREDICTED BY RF-SCORE:    0.00 PKD
ROOT
HETATM    1 FE   UNL     1     -11.545   4.759  64.301  1.00  0.00    -0.508 Fe 
HETATM    2  O   UNL     2     -10.564   3.152  63.533  1.00  0.00    -0.214 OA 
HETATM    3  C   UNL     2      -9.528   3.671  64.076  1.00  0.00    -0.146 C  
HETATM    4  O   UNL     2      -9.523   4.944  64.024  1.00  0.00     0.050 OA 
HETATM    5  C   UNL     2      -8.904   2.948  65.236  1.00  0.00    -0.131 C  
ENDROOT
BRANCH   5   6
HETATM    6  C   UNL     2      -8.948   3.796  66.511  1.00  0.00    -0.143 C  
HETATM    7  C   UNL     2      -7.747   4.718  66.806  1.00  0.00    -0.091 C  
HETATM    8  O   UNL     2      -7.888   5.579  67.699  1.00  0.00    -0.095 OA 
HETATM    9  O   UNL     2      -6.662   4.459  66.160  1.00  0.00    -0.047 OA 
ENDBRANCH   5   6
TORSDOF 1
ENDMDL
MODEL      214
REMARK 921   NORMALIZED FREE ENERGY PREDICTED BY IDOCK:   -1.13 KCAL/MOL
REMARK 922        TOTAL FREE ENERGY PREDICTED BY IDOCK:   -1.34 KCAL/MOL
REMARK 923 INTER-LIGAND FREE ENERGY PREDICTED BY IDOCK:   -1.29 KCAL/MOL
REMARK 924 INTRA-LIGAND FREE ENERGY PREDICTED BY IDOCK:   -0.05 KCAL/MOL
REMARK 927      BINDING AFFINITY PREDICTED BY RF-SCORE:    0.00 PKD
ROOT
HETATM    1 FE   UNL     1      -6.872   6.740  66.875  1.00  0.00    -0.048 Fe 
HETATM    2  O   UNL     2      -8.704   7.456  66.358  1.00  0.00    -0.129 OA 
HETATM    3  C   UNL     2      -8.988   7.292  67.595  1.00  0.00    -0.126 C  
HETATM    4  O   UNL     2      -8.443   6.257  68.099  1.00  0.00    -0.114 OA 
HETATM    5  C   UNL     2      -9.226   8.518  68.431  1.00  0.00    -0.135 C  
ENDROOT
BRANCH   5   6
HETATM    6  C   UNL     2      -8.199   8.632  69.562  1.00  0.00    -0.115 C  
HETATM    7  C   UNL     2      -7.640  10.031  69.891  1.00  0.00    -0.170 C  
HETATM    8  O   UNL     2      -7.001  10.160  70.955  1.00  0.00    -0.320 OA 
HETATM    9  O   UNL     2      -7.806  10.935  68.985  1.00  0.00    -0.132 OA 
ENDBRANCH   5   6
TORSDOF 1
ENDMDL
MODEL      215
REMARK 921   NORMALIZED FREE ENERGY PREDICTED BY IDOCK:   -1.06 KCAL/MOL
REMARK 922        TOTAL FREE ENERGY PREDICTED BY IDOCK:   -1.27 KCAL/MOL
REMARK 923 INTER-LIGAND FREE ENERGY PREDICTED BY IDOCK:   -1.22 KCAL/MOL
REMARK 924 INTRA-LIGAND FREE ENERGY PREDICTED BY IDOCK:   -0.05 KCAL/MOL
REMARK 927      BINDING AFFINITY PREDICTED BY RF-SCORE:    0.00 PKD
ROOT
HETATM    1 FE   UNL     1      -6.763   2.016  67.731  1.00  0.00    -0.030 Fe 
HETATM    2  O   UNL     2      -8.336   2.709  68.819  1.00  0.00    -0.061 OA 
HETATM    3  C   UNL     2      -8.443   3.583  67.890  1.00  0.00    -0.094 C  
HETATM    4  O   UNL     2      -7.317   3.966  67.434  1.00  0.00    -0.066 OA 
HETATM    5  C   UNL     2      -9.650   3.517  66.998  1.00  0.00    -0.155 C  
ENDROOT
BRANCH   5   6
HETATM    6  C   UNL     2      -9.254   3.261  65.540  1.00  0.00    -0.151 C  
HETATM    7  C   UNL     2     -10.148   3.859  64.434  1.00  0.00    -0.215 C  
HETATM    8  O   UNL     2      -9.698   3.862  63.270  1.00  0.00    -0.142 OA 
HETATM    9  O   UNL     2     -11.329   4.226  64.797  1.00  0.00    -0.302 OA 
ENDBRANCH   5   6
TORSDOF 1
ENDMDL
MODEL      216
REMARK 921   NORMALIZED FREE ENERGY PREDICTED BY IDOCK:   -1.06 KCAL/MOL
REMARK 922        TOTAL FREE ENERGY PREDICTED BY IDOCK:   -1.27 KCAL/MOL
REMARK 923 INTER-LIGAND FREE ENERGY PREDICTED BY IDOCK:   -1.23 KCAL/MOL
REMARK 924 INTRA-LIGAND FREE ENERGY PREDICTED BY IDOCK:   -0.05 KCAL/MOL
REMARK 927      BINDING AFFINITY PREDICTED BY RF-SCORE:    0.00 PKD
ROOT
HETATM    1 FE   UNL     1      -9.100   4.200  71.434  1.00  0.00    -0.099 Fe 
HETATM    2  O   UNL     2      -8.300   4.025  73.296  1.00  0.00    -0.088 OA 
HETATM    3  C   UNL     2      -7.292   4.633  72.793  1.00  0.00    -0.084 C  
HETATM    4  O   UNL     2      -7.059   4.297  71.587  1.00  0.00    -0.046 OA 
HETATM    5  C   UNL     2      -6.999   6.026  73.272  1.00  0.00    -0.084 C  
ENDROOT
BRANCH   5   6
HETATM    6  C   UNL     2      -7.102   7.043  72.130  1.00  0.00    -0.072 C  
HETATM    7  C   UNL     2      -7.266   8.531  72.502  1.00  0.00    -0.030 C  
HETATM    8  O   UNL     2      -7.104   9.372  71.594  1.00  0.00    -0.320 OA 
HETATM    9  O   UNL     2      -7.649   8.774  73.709  1.00  0.00    -0.402 OA 
ENDBRANCH   5   6
TORSDOF 1
ENDMDL
MODEL      217
REMARK 921   NORMALIZED FREE ENERGY PREDICTED BY IDOCK:   -1.02 KCAL/MOL
REMARK 922        TOTAL FREE ENERGY PREDICTED BY IDOCK:   -1.23 KCAL/MOL
REMARK 923 INTER-LIGAND FREE ENERGY PREDICTED BY IDOCK:   -1.08 KCAL/MOL
REMARK 924 INTRA-LIGAND FREE ENERGY PREDICTED BY IDOCK:   -0.15 KCAL/MOL
REMARK 927      BINDING AFFINITY PREDICTED BY RF-SCORE:    0.00 PKD
ROOT
HETATM    1 FE   UNL     1      -8.837  10.610  62.766  1.00  0.00    -0.149 Fe 
HETATM    2  O   UNL     2      -8.878   8.621  62.342  1.00  0.00    -0.169 OA 
HETATM    3  C   UNL     2      -7.661   8.630  62.738  1.00  0.00    -0.119 C  
HETATM    4  O   UNL     2      -7.039   9.693  62.412  1.00  0.00    -0.103 OA 
HETATM    5  C   UNL     2      -7.331   7.908  64.013  1.00  0.00    -0.101 C  
ENDROOT
BRANCH   5   6
HETATM    6  C   UNL     2      -6.789   8.870  65.076  1.00  0.00    -0.073 C  
HETATM    7  C   UNL     2      -7.804   9.741  65.844  1.00  0.00    -0.108 C  
HETATM    8  O   UNL     2      -7.397  10.334  66.864  1.00  0.00    -0.093 OA 
HETATM    9  O   UNL     2      -8.972   9.855  65.310  1.00  0.00    -0.164 OA 
ENDBRANCH   5   6
TORSDOF 1
ENDMDL
MODEL      218
REMARK 921   NORMALIZED FREE ENERGY PREDICTED BY IDOCK:   -1.01 KCAL/MOL
REMARK 922        TOTAL FREE ENERGY PREDICTED BY IDOCK:   -1.22 KCAL/MOL
REMARK 923 INTER-LIGAND FREE ENERGY PREDICTED BY IDOCK:   -1.18 KCAL/MOL
REMARK 924 INTRA-LIGAND FREE ENERGY PREDICTED BY IDOCK:   -0.04 KCAL/MOL
REMARK 927      BINDING AFFINITY PREDICTED BY RF-SCORE:    0.00 PKD
ROOT
HETATM    1 FE   UNL     1     -10.701   5.659  67.808  1.00  0.00    -0.165 Fe 
HETATM    2  O   UNL     2     -10.550   6.513  69.647  1.00  0.00    -0.206 OA 
HETATM    3  C   UNL     2      -9.301   6.591  69.380  1.00  0.00    -0.143 C  
HETATM    4  O   UNL     2      -8.869   5.590  68.722  1.00  0.00    -0.107 OA 
HETATM    5  C   UNL     2      -8.709   7.957  69.176  1.00  0.00    -0.138 C  
ENDROOT
BRANCH   5   6
HETATM    6  C   UNL     2      -8.151   8.118  67.759  1.00  0.00    -0.127 C  
HETATM    7  C   UNL     2      -7.778   9.539  67.288  1.00  0.00    -0.091 C  
HETATM    8  O   UNL     2      -7.103   9.640  66.242  1.00  0.00    -0.090 OA 
HETATM    9  O   UNL     2      -8.276  10.512  67.972  1.00  0.00    -0.109 OA 
ENDBRANCH   5   6
TORSDOF 1
ENDMDL
MODEL      219
REMARK 921   NORMALIZED FREE ENERGY PREDICTED BY IDOCK:   -0.99 KCAL/MOL
REMARK 922        TOTAL FREE ENERGY PREDICTED BY IDOCK:   -1.20 KCAL/MOL
REMARK 923 INTER-LIGAND FREE ENERGY PREDICTED BY IDOCK:   -1.15 KCAL/MOL
REMARK 924 INTRA-LIGAND FREE ENERGY PREDICTED BY IDOCK:   -0.05 KCAL/MOL
REMARK 927      BINDING AFFINITY PREDICTED BY RF-SCORE:    0.00 PKD
ROOT
HETATM    1 FE   UNL     1      -6.317   1.761  66.057  1.00  0.00    -0.019 Fe 
HETATM    2  O   UNL     2      -6.699   3.660  66.677  1.00  0.00    -0.044 OA 
HETATM    3  C   UNL     2      -7.086   3.851  65.472  1.00  0.00    -0.063 C  
HETATM    4  O   UNL     2      -6.386   3.218  64.618  1.00  0.00    -0.023 OA 
HETATM    5  C   UNL     2      -8.549   4.099  65.235  1.00  0.00    -0.119 C  
ENDROOT
BRANCH   5   6
HETATM    6  C   UNL     2      -9.165   3.006  64.356  1.00  0.00    -0.137 C  
HETATM    7  C   UNL     2     -10.585   3.242  63.801  1.00  0.00    -0.246 C  
HETATM    8  O   UNL     2     -10.984   2.477  62.899  1.00  0.00    -0.194 OA 
HETATM    9  O   UNL     2     -11.276   4.159  64.386  1.00  0.00    -0.309 OA 
ENDBRANCH   5   6
TORSDOF 1
ENDMDL
MODEL      220
REMARK 921   NORMALIZED FREE ENERGY PREDICTED BY IDOCK:   -0.99 KCAL/MOL
REMARK 922        TOTAL FREE ENERGY PREDICTED BY IDOCK:   -1.20 KCAL/MOL
REMARK 923 INTER-LIGAND FREE ENERGY PREDICTED BY IDOCK:   -1.04 KCAL/MOL
REMARK 924 INTRA-LIGAND FREE ENERGY PREDICTED BY IDOCK:   -0.16 KCAL/MOL
REMARK 927      BINDING AFFINITY PREDICTED BY RF-SCORE:    0.00 PKD
ROOT
HETATM    1 FE   UNL     1      -7.387   3.289  70.275  1.00  0.00    -0.037 Fe 
HETATM    2  O   UNL     2      -8.222   4.838  71.294  1.00  0.00    -0.097 OA 
HETATM    3  C   UNL     2      -7.875   5.539  70.280  1.00  0.00    -0.093 C  
HETATM    4  O   UNL     2      -6.761   5.177  69.781  1.00  0.00    -0.043 OA 
HETATM    5  C   UNL     2      -8.963   6.097  69.407  1.00  0.00    -0.128 C  
ENDROOT
BRANCH   5   6
HETATM    6  C   UNL     2      -8.874   5.544  67.981  1.00  0.00    -0.105 C  
HETATM    7  C   UNL     2      -9.455   4.140  67.715  1.00  0.00    -0.175 C  
HETATM    8  O   UNL     2      -9.604   3.795  66.524  1.00  0.00    -0.198 OA 
HETATM    9  O   UNL     2      -9.654   3.403  68.754  1.00  0.00    -0.158 OA 
ENDBRANCH   5   6
TORSDOF 1
ENDMDL
MODEL      221
REMARK 921   NORMALIZED FREE ENERGY PREDICTED BY IDOCK:    9.58 KCAL/MOL
REMARK 922        TOTAL FREE ENERGY PREDICTED BY IDOCK:    9.99 KCAL/MOL
REMARK 923 INTER-LIGAND FREE ENERGY PREDICTED BY IDOCK:   10.08 KCAL/MOL
REMARK 924 INTRA-LIGAND FREE ENERGY PREDICTED BY IDOCK:   -0.09 KCAL/MOL
REMARK 927      BINDING AFFINITY PREDICTED BY RF-SCORE:    0.00 PKD
ROOT
HETATM    1 FE   UNL     1     -11.101  12.251  73.700  1.00  0.00     6.669 Fe 
HETATM    2  O   UNL     2     -12.568  13.241  72.697  1.00  0.00     0.054 OA 
HETATM    3  C   UNL     2     -12.531  12.244  71.895  1.00  0.00     0.276 C  
HETATM    4  O   UNL     2     -11.354  11.788  71.720  1.00  0.00     2.712 OA 
HETATM    5  C   UNL     2     -13.722  11.329  71.855  1.00  0.00     0.095 C  
ENDROOT
BRANCH   5   6
HETATM    6  C   UNL     2     -13.348   9.906  72.284  1.00  0.00    -0.429 C  
HETATM    7  C   UNL     2     -13.416   8.791  71.221  1.00  0.00    -0.151 C  
HETATM    8  O   UNL     2     -12.884   7.697  71.500  1.00  0.00    -0.332 OA 
HETATM    9  O   UNL     2     -14.102   9.058  70.162  1.00  0.00     1.191 OA 
ENDBRANCH   5   6
TORSDOF 1
ENDMDL
