MODEL        1
REMARK 921   NORMALIZED FREE ENERGY PREDICTED BY IDOCK:   -7.68 KCAL/MOL
REMARK 922        TOTAL FREE ENERGY PREDICTED BY IDOCK:  -12.24 KCAL/MOL
REMARK 923 INTER-LIGAND FREE ENERGY PREDICTED BY IDOCK:  -10.83 KCAL/MOL
REMARK 924 INTRA-LIGAND FREE ENERGY PREDICTED BY IDOCK:   -1.41 KCAL/MOL
REMARK 927      BINDING AFFINITY PREDICTED BY RF-SCORE:    0.00 PKD
ROOT
HETATM    1  C   UNL     1      -7.057  18.386  68.815  1.00  0.00    -0.299 C  
HETATM    2  C   UNL     1      -8.130  17.399  68.294  1.00  0.00    -0.249 C  
HETATM    3  C   UNL     1      -8.048  17.535  66.765  1.00  0.00    -0.275 C  
ENDROOT
BRANCH   2   4
HETATM    4  N   UNL     1      -7.991  16.009  68.849  1.00  0.00    -0.198 NA 
BRANCH   4   5
HETATM    5  C   UNL     1      -9.261  15.483  69.441  1.00  0.00    -0.280 C  
BRANCH   5   6
HETATM    6  C   UNL     1     -10.576  15.851  68.701  1.00  0.00    -0.250 C  
HETATM    7  C   UNL     1     -11.875  15.074  69.119  1.00  0.00    -0.338 C  
HETATM    8  C   UNL     1     -11.749  13.543  68.893  1.00  0.00    -0.379 A  
HETATM    9  C   UNL     1     -12.439  15.461  70.521  1.00  0.00    -0.468 A  
HETATM   10  C   UNL     1     -11.681  16.163  71.465  1.00  0.00    -0.533 A  
HETATM   11  C   UNL     1     -11.501  12.937  67.642  1.00  0.00    -0.334 A  
HETATM   12  C   UNL     1     -11.491  11.535  67.512  1.00  0.00    -0.355 A  
HETATM   13  C   UNL     1     -12.023  16.236  72.815  1.00  0.00    -0.636 A  
HETATM   14  C   UNL     1     -14.045  15.060  72.321  1.00  0.00    -0.612 A  
HETATM   15  C   UNL     1     -11.687  10.708  68.618  1.00  0.00    -0.228 A  
HETATM   16  C   UNL     1     -13.192  15.646  73.254  1.00  0.00    -0.666 A  
HETATM   17  C   UNL     1     -11.930  12.661  69.986  1.00  0.00    -0.377 A  
HETATM   18  C   UNL     1     -11.914  11.263  69.873  1.00  0.00    -0.440 A  
HETATM   19  C   UNL     1     -13.698  15.003  70.961  1.00  0.00    -0.417 A  
BRANCH  11  20
HETATM   20  O   UNL     1     -11.360  13.733  66.472  1.00  0.00    -0.309 OA 
BRANCH  20  21
HETATM   21  C   UNL     1     -12.292  13.607  65.422  1.00  0.00    -0.476 C  
HETATM   22  O   UNL     1     -13.286  14.302  65.253  1.00  0.00    -0.660 OA 
HETATM   23  C   UNL     1     -11.898  12.463  64.497  1.00  0.00    -0.452 C  
HETATM   24  C   UNL     1     -10.931  12.953  63.420  1.00  0.00    -0.090 C  
HETATM   25  C   UNL     1     -13.143  11.866  63.838  1.00  0.00    -0.119 C  
ENDBRANCH  20  21
ENDBRANCH  11  20
BRANCH  18  26
HETATM   26  C   UNL     1     -12.245  10.380  71.053  1.00  0.00    -0.393 C  
HETATM   27  O   UNL     1     -13.361   9.530  70.807  1.00  0.00    -0.584 OA 
HETATM   28  H   UNL     1     -13.569   8.975  71.549  1.00  0.00     0.000 HD 
ENDBRANCH  18  26
ENDBRANCH   5   6
ENDBRANCH   4   5
BRANCH   4  29
HETATM   29  C   UNL     1      -7.337  14.982  67.982  1.00  0.00    -0.127 C  
HETATM   30  C   UNL     1      -5.806  14.897  68.096  1.00  0.00    -0.141 C  
HETATM   31  C   UNL     1      -7.826  13.546  68.295  1.00  0.00    -0.145 C  
ENDBRANCH   4  29
ENDBRANCH   2   4
TORSDOF 7
ENDMDL
MODEL        2
REMARK 921   NORMALIZED FREE ENERGY PREDICTED BY IDOCK:   -7.15 KCAL/MOL
REMARK 922        TOTAL FREE ENERGY PREDICTED BY IDOCK:  -11.48 KCAL/MOL
REMARK 923 INTER-LIGAND FREE ENERGY PREDICTED BY IDOCK:   -9.87 KCAL/MOL
REMARK 924 INTRA-LIGAND FREE ENERGY PREDICTED BY IDOCK:   -1.61 KCAL/MOL
REMARK 927      BINDING AFFINITY PREDICTED BY RF-SCORE:    0.00 PKD
ROOT
HETATM    1  C   UNL     1      -8.152  10.102  69.518  1.00  0.00    -0.176 C  
HETATM    2  C   UNL     1      -9.375   9.157  69.445  1.00  0.00    -0.160 C  
HETATM    3  C   UNL     1      -9.898   9.116  70.890  1.00  0.00    -0.359 C  
ENDROOT
BRANCH   2   4
HETATM    4  N   UNL     1     -10.370   9.539  68.385  1.00  0.00    -0.198 NA 
BRANCH   4   5
HETATM    5  C   UNL     1     -10.380  11.007  68.091  1.00  0.00    -0.182 C  
BRANCH   5   6
HETATM    6  C   UNL     1     -11.718  11.755  68.340  1.00  0.00    -0.389 C  
HETATM    7  C   UNL     1     -11.910  13.137  67.620  1.00  0.00    -0.405 C  
HETATM    8  C   UNL     1     -10.833  14.176  68.031  1.00  0.00    -0.256 A  
HETATM    9  C   UNL     1     -12.137  13.039  66.078  1.00  0.00    -0.493 A  
HETATM   10  C   UNL     1     -11.847  11.878  65.352  1.00  0.00    -0.149 A  
HETATM   11  C   UNL     1     -10.618  14.624  69.352  1.00  0.00    -0.196 A  
HETATM   12  C   UNL     1      -9.678  15.636  69.624  1.00  0.00    -0.276 A  
HETATM   13  C   UNL     1     -11.725  11.860  63.963  1.00  0.00    -0.469 A  
HETATM   14  C   UNL     1     -12.385  14.157  63.918  1.00  0.00    -0.229 A  
HETATM   15  C   UNL     1      -8.908  16.196  68.605  1.00  0.00    -0.218 A  
HETATM   16  C   UNL     1     -11.955  13.017  63.244  1.00  0.00    -0.493 A  
HETATM   17  C   UNL     1     -10.019  14.767  67.034  1.00  0.00    -0.238 A  
HETATM   18  C   UNL     1      -9.072  15.769  67.292  1.00  0.00    -0.219 A  
HETATM   19  C   UNL     1     -12.518  14.162  65.317  1.00  0.00    -0.474 A  
BRANCH  11  20
HETATM   20  O   UNL     1     -11.422  14.134  70.419  1.00  0.00    -0.209 OA 
BRANCH  20  21
HETATM   21  C   UNL     1     -12.502  14.904  70.893  1.00  0.00    -0.330 C  
HETATM   22  O   UNL     1     -13.136  15.732  70.249  1.00  0.00    -0.311 OA 
HETATM   23  C   UNL     1     -12.793  14.571  72.351  1.00  0.00    -0.443 C  
HETATM   24  C   UNL     1     -13.751  13.385  72.449  1.00  0.00    -0.698 C  
HETATM   25  C   UNL     1     -13.401  15.785  73.057  1.00  0.00    -0.679 C  
ENDBRANCH  20  21
ENDBRANCH  11  20
BRANCH  18  26
HETATM   26  C   UNL     1      -8.330  16.451  66.165  1.00  0.00    -0.256 C  
HETATM   27  O   UNL     1      -8.804  17.770  65.914  1.00  0.00    -0.512 OA 
HETATM   28  H   UNL     1      -8.337  18.198  65.206  1.00  0.00     0.000 HD 
ENDBRANCH  18  26
ENDBRANCH   5   6
ENDBRANCH   4   5
BRANCH   4  29
HETATM   29  C   UNL     1     -10.378   8.738  67.123  1.00  0.00    -0.293 C  
HETATM   30  C   UNL     1      -9.226   9.028  66.147  1.00  0.00    -0.272 C  
HETATM   31  C   UNL     1     -10.282   7.215  67.390  1.00  0.00    -0.291 C  
ENDBRANCH   4  29
ENDBRANCH   2   4
TORSDOF 7
ENDMDL
MODEL        3
REMARK 921   NORMALIZED FREE ENERGY PREDICTED BY IDOCK:   -7.12 KCAL/MOL
REMARK 922        TOTAL FREE ENERGY PREDICTED BY IDOCK:  -11.44 KCAL/MOL
REMARK 923 INTER-LIGAND FREE ENERGY PREDICTED BY IDOCK:  -10.07 KCAL/MOL
REMARK 924 INTRA-LIGAND FREE ENERGY PREDICTED BY IDOCK:   -1.37 KCAL/MOL
REMARK 927      BINDING AFFINITY PREDICTED BY RF-SCORE:    0.00 PKD
ROOT
HETATM    1  C   UNL     1      -7.169  11.229  66.687  1.00  0.00    -0.126 C  
HETATM    2  C   UNL     1      -7.176  10.503  68.054  1.00  0.00    -0.087 C  
HETATM    3  C   UNL     1      -5.806  10.844  68.662  1.00  0.00    -0.043 C  
ENDROOT
BRANCH   2   4
HETATM    4  N   UNL     1      -8.379  10.820  68.899  1.00  0.00    -0.146 NA 
BRANCH   4   5
HETATM    5  C   UNL     1      -9.163  11.988  68.389  1.00  0.00    -0.160 C  
BRANCH   5   6
HETATM    6  C   UNL     1     -10.705  11.918  68.564  1.00  0.00    -0.254 C  
HETATM    7  C   UNL     1     -11.575  12.815  67.614  1.00  0.00    -0.412 C  
HETATM    8  C   UNL     1     -11.263  14.327  67.774  1.00  0.00    -0.309 A  
HETATM    9  C   UNL     1     -11.623  12.333  66.130  1.00  0.00    -0.450 A  
HETATM   10  C   UNL     1     -10.707  11.409  65.614  1.00  0.00    -0.301 A  
HETATM   11  C   UNL     1     -11.403  15.049  68.978  1.00  0.00    -0.290 A  
HETATM   12  C   UNL     1     -11.182  16.440  69.013  1.00  0.00    -0.291 A  
HETATM   13  C   UNL     1     -10.514  11.209  64.248  1.00  0.00    -0.427 A  
HETATM   14  C   UNL     1     -12.313  12.723  63.817  1.00  0.00    -0.533 A  
HETATM   15  C   UNL     1     -10.783  17.134  67.870  1.00  0.00    -0.355 A  
HETATM   16  C   UNL     1     -11.294  11.902  63.342  1.00  0.00    -0.465 A  
HETATM   17  C   UNL     1     -10.844  15.074  66.646  1.00  0.00    -0.318 A  
HETATM   18  C   UNL     1     -10.612  16.457  66.667  1.00  0.00    -0.239 A  
HETATM   19  C   UNL     1     -12.508  12.908  65.196  1.00  0.00    -0.561 A  
BRANCH  11  20
HETATM   20  O   UNL     1     -11.871  14.403  70.156  1.00  0.00    -0.279 OA 
BRANCH  20  21
HETATM   21  C   UNL     1     -12.904  14.990  70.913  1.00  0.00    -0.391 C  
HETATM   22  O   UNL     1     -13.752  15.769  70.495  1.00  0.00    -0.221 OA 
HETATM   23  C   UNL     1     -12.833  14.521  72.361  1.00  0.00    -0.443 C  
HETATM   24  C   UNL     1     -13.605  13.215  72.541  1.00  0.00    -0.595 C  
HETATM   25  C   UNL     1     -13.409  15.593  73.290  1.00  0.00    -0.618 C  
ENDBRANCH  20  21
ENDBRANCH  11  20
BRANCH  18  26
HETATM   26  C   UNL     1     -10.296  17.216  65.399  1.00  0.00    -0.018 C  
HETATM   27  O   UNL     1     -10.954  16.675  64.257  1.00  0.00    -1.150 OA 
HETATM   28  H   UNL     1     -10.756  17.152  63.460  1.00  0.00     0.000 HD 
ENDBRANCH  18  26
ENDBRANCH   5   6
ENDBRANCH   4   5
BRANCH   4  29
HETATM   29  C   UNL     1      -9.281   9.687  69.269  1.00  0.00    -0.183 C  
HETATM   30  C   UNL     1      -9.255   8.481  68.316  1.00  0.00    -0.140 C  
HETATM   31  C   UNL     1      -8.940   9.089  70.657  1.00  0.00    -0.263 C  
ENDBRANCH   4  29
ENDBRANCH   2   4
TORSDOF 7
ENDMDL
MODEL        4
REMARK 921   NORMALIZED FREE ENERGY PREDICTED BY IDOCK:   -7.05 KCAL/MOL
REMARK 922        TOTAL FREE ENERGY PREDICTED BY IDOCK:  -11.34 KCAL/MOL
REMARK 923 INTER-LIGAND FREE ENERGY PREDICTED BY IDOCK:   -9.45 KCAL/MOL
REMARK 924 INTRA-LIGAND FREE ENERGY PREDICTED BY IDOCK:   -1.88 KCAL/MOL
REMARK 927      BINDING AFFINITY PREDICTED BY RF-SCORE:    0.00 PKD
ROOT
HETATM    1  C   UNL     1      -8.920   8.732  71.047  1.00  0.00    -0.269 C  
HETATM    2  C   UNL     1     -10.270   8.285  71.656  1.00  0.00    -0.221 C  
HETATM    3  C   UNL     1      -9.913   7.887  73.098  1.00  0.00    -0.358 C  
ENDROOT
BRANCH   2   4
HETATM    4  N   UNL     1     -11.369   9.299  71.497  1.00  0.00    -0.361 NA 
BRANCH   4   5
HETATM    5  C   UNL     1     -11.008  10.415  70.567  1.00  0.00    -0.195 C  
BRANCH   5   6
HETATM    6  C   UNL     1     -12.100  10.852  69.552  1.00  0.00    -0.380 C  
HETATM    7  C   UNL     1     -11.612  11.535  68.225  1.00  0.00    -0.378 C  
HETATM    8  C   UNL     1     -10.819  12.843  68.488  1.00  0.00    -0.283 A  
HETATM    9  C   UNL     1     -10.919  10.569  67.215  1.00  0.00    -0.325 A  
HETATM   10  C   UNL     1     -10.457   9.301  67.588  1.00  0.00    -0.325 A  
HETATM   11  C   UNL     1     -11.337  13.971  69.160  1.00  0.00    -0.281 A  
HETATM   12  C   UNL     1     -10.577  15.151  69.277  1.00  0.00    -0.253 A  
HETATM   13  C   UNL     1      -9.560   8.561  66.819  1.00  0.00    -0.273 A  
HETATM   14  C   UNL     1      -9.687  10.245  65.127  1.00  0.00    -0.364 A  
HETATM   15  C   UNL     1      -9.280  15.225  68.767  1.00  0.00    -0.203 A  
HETATM   16  C   UNL     1      -9.140   9.054  65.599  1.00  0.00    -0.278 A  
HETATM   17  C   UNL     1      -9.495  12.965  67.999  1.00  0.00    -0.213 A  
HETATM   18  C   UNL     1      -8.723  14.130  68.116  1.00  0.00    -0.181 A  
HETATM   19  C   UNL     1     -10.601  10.978  65.904  1.00  0.00    -0.270 A  
BRANCH  11  20
HETATM   20  O   UNL     1     -12.676  13.971  69.641  1.00  0.00    -0.152 OA 
BRANCH  20  21
HETATM   21  C   UNL     1     -13.006  14.709  70.795  1.00  0.00    -0.347 C  
HETATM   22  O   UNL     1     -13.481  15.838  70.818  1.00  0.00    -0.520 OA 
HETATM   23  C   UNL     1     -12.688  13.904  72.049  1.00  0.00    -0.338 C  
HETATM   24  C   UNL     1     -13.870  13.012  72.427  1.00  0.00    -0.526 C  
HETATM   25  C   UNL     1     -12.362  14.846  73.210  1.00  0.00    -0.485 C  
ENDBRANCH  20  21
ENDBRANCH  11  20
BRANCH  18  26
HETATM   26  C   UNL     1      -7.368  14.238  67.456  1.00  0.00    -0.179 C  
HETATM   27  O   UNL     1      -6.862  12.977  67.031  1.00  0.00    -0.405 OA 
HETATM   28  H   UNL     1      -6.010  13.045  66.616  1.00  0.00     0.000 HD 
ENDBRANCH  18  26
ENDBRANCH   5   6
ENDBRANCH   4   5
BRANCH   4  29
HETATM   29  C   UNL     1     -12.745   8.788  71.215  1.00  0.00    -0.230 C  
HETATM   30  C   UNL     1     -12.884   7.258  71.155  1.00  0.00    -0.334 C  
HETATM   31  C   UNL     1     -13.770   9.226  72.289  1.00  0.00    -0.527 C  
ENDBRANCH   4  29
ENDBRANCH   2   4
TORSDOF 7
ENDMDL
MODEL        5
REMARK 921   NORMALIZED FREE ENERGY PREDICTED BY IDOCK:   -6.94 KCAL/MOL
REMARK 922        TOTAL FREE ENERGY PREDICTED BY IDOCK:  -11.19 KCAL/MOL
REMARK 923 INTER-LIGAND FREE ENERGY PREDICTED BY IDOCK:   -9.26 KCAL/MOL
REMARK 924 INTRA-LIGAND FREE ENERGY PREDICTED BY IDOCK:   -1.93 KCAL/MOL
REMARK 927      BINDING AFFINITY PREDICTED BY RF-SCORE:    0.00 PKD
ROOT
HETATM    1  C   UNL     1     -10.757  19.636  67.137  1.00  0.00    -0.587 C  
HETATM    2  C   UNL     1     -10.298  18.179  67.386  1.00  0.00    -0.389 C  
HETATM    3  C   UNL     1     -10.381  17.523  65.998  1.00  0.00    -0.309 C  
ENDROOT
BRANCH   2   4
HETATM    4  N   UNL     1      -8.976  18.077  68.094  1.00  0.00    -0.275 NA 
BRANCH   4   5
HETATM    5  C   UNL     1      -8.398  16.696  68.062  1.00  0.00    -0.187 C  
BRANCH   5   6
HETATM    6  C   UNL     1      -8.906  15.707  69.146  1.00  0.00    -0.251 C  
HETATM    7  C   UNL     1      -9.158  14.223  68.700  1.00  0.00    -0.160 C  
HETATM    8  C   UNL     1     -10.227  14.113  67.581  1.00  0.00    -0.241 A  
HETATM    9  C   UNL     1      -7.861  13.402  68.417  1.00  0.00    -0.138 A  
HETATM   10  C   UNL     1      -6.615  14.012  68.232  1.00  0.00    -0.110 A  
HETATM   11  C   UNL     1     -11.563  14.554  67.705  1.00  0.00    -0.378 A  
HETATM   12  C   UNL     1     -12.492  14.334  66.670  1.00  0.00    -0.192 A  
HETATM   13  C   UNL     1      -5.523  13.357  67.664  1.00  0.00    -0.033 A  
HETATM   14  C   UNL     1      -6.813  11.344  67.613  1.00  0.00    -0.080 A  
HETATM   15  C   UNL     1     -12.111  13.711  65.481  1.00  0.00    -0.440 A  
HETATM   16  C   UNL     1      -5.635  12.025  67.313  1.00  0.00    -0.133 A  
HETATM   17  C   UNL     1      -9.888  13.497  66.351  1.00  0.00    -0.299 A  
HETATM   18  C   UNL     1     -10.800  13.279  65.309  1.00  0.00    -0.314 A  
HETATM   19  C   UNL     1      -7.903  12.010  68.198  1.00  0.00    -0.145 A  
BRANCH  11  20
HETATM   20  O   UNL     1     -12.019  15.135  68.920  1.00  0.00    -0.308 OA 
BRANCH  20  21
HETATM   21  C   UNL     1     -12.359  14.308  70.008  1.00  0.00    -0.346 C  
HETATM   22  O   UNL     1     -12.238  13.089  70.054  1.00  0.00    -0.299 OA 
HETATM   23  C   UNL     1     -12.913  15.141  71.157  1.00  0.00    -0.488 C  
HETATM   24  C   UNL     1     -11.780  15.646  72.049  1.00  0.00    -0.551 C  
HETATM   25  C   UNL     1     -13.891  14.307  71.988  1.00  0.00    -0.564 C  
ENDBRANCH  20  21
ENDBRANCH  11  20
BRANCH  18  26
HETATM   26  C   UNL     1     -10.406  12.498  64.076  1.00  0.00    -0.404 C  
HETATM   27  O   UNL     1     -11.322  12.672  63.000  1.00  0.00    -0.753 OA 
HETATM   28  H   UNL     1     -11.075  12.181  62.225  1.00  0.00     0.000 HD 
ENDBRANCH  18  26
ENDBRANCH   5   6
ENDBRANCH   4   5
BRANCH   4  29
HETATM   29  C   UNL     1      -7.937  19.102  67.769  1.00  0.00    -0.273 C  
HETATM   30  C   UNL     1      -7.082  19.577  68.956  1.00  0.00    -0.399 C  
HETATM   31  C   UNL     1      -6.906  18.590  66.732  1.00  0.00    -0.213 C  
ENDBRANCH   4  29
ENDBRANCH   2   4
TORSDOF 7
ENDMDL
MODEL        6
REMARK 921   NORMALIZED FREE ENERGY PREDICTED BY IDOCK:   -6.76 KCAL/MOL
REMARK 922        TOTAL FREE ENERGY PREDICTED BY IDOCK:  -10.94 KCAL/MOL
REMARK 923 INTER-LIGAND FREE ENERGY PREDICTED BY IDOCK:   -8.72 KCAL/MOL
REMARK 924 INTRA-LIGAND FREE ENERGY PREDICTED BY IDOCK:   -2.22 KCAL/MOL
REMARK 927      BINDING AFFINITY PREDICTED BY RF-SCORE:    0.00 PKD
ROOT
HETATM    1  C   UNL     1     -10.302  15.209  70.430  1.00  0.00    -0.020 C  
HETATM    2  C   UNL     1     -11.793  15.531  70.167  1.00  0.00    -0.356 C  
HETATM    3  C   UNL     1     -11.775  16.322  68.849  1.00  0.00    -0.160 C  
ENDROOT
BRANCH   2   4
HETATM    4  N   UNL     1     -12.687  14.322  70.208  1.00  0.00    -0.314 NA 
BRANCH   4   5
HETATM    5  C   UNL     1     -11.941  13.035  70.044  1.00  0.00    -0.312 C  
BRANCH   5   6
HETATM    6  C   UNL     1     -12.188  12.254  68.724  1.00  0.00     0.025 C  
HETATM    7  C   UNL     1     -10.923  11.825  67.898  1.00  0.00    -0.272 C  
HETATM    8  C   UNL     1     -10.071  13.040  67.445  1.00  0.00    -0.231 A  
HETATM    9  C   UNL     1     -10.089  10.673  68.540  1.00  0.00    -0.185 A  
HETATM   10  C   UNL     1     -10.241  10.297  69.881  1.00  0.00    -0.250 A  
HETATM   11  C   UNL     1     -10.544  14.088  66.627  1.00  0.00    -0.274 A  
HETATM   12  C   UNL     1      -9.677  15.107  66.189  1.00  0.00    -0.338 A  
HETATM   13  C   UNL     1      -9.307   9.518  70.563  1.00  0.00    -0.296 A  
HETATM   14  C   UNL     1      -8.090   9.266  68.520  1.00  0.00    -0.106 A  
HETATM   15  C   UNL     1      -8.338  15.130  66.581  1.00  0.00    -0.162 A  
HETATM   16  C   UNL     1      -8.202   9.033  69.889  1.00  0.00    -0.124 A  
HETATM   17  C   UNL     1      -8.708  13.115  67.824  1.00  0.00    -0.188 A  
HETATM   18  C   UNL     1      -7.834  14.128  67.403  1.00  0.00    -0.195 A  
HETATM   19  C   UNL     1      -9.043  10.040  67.839  1.00  0.00    -0.135 A  
BRANCH  11  20
HETATM   20  O   UNL     1     -11.883  14.078  66.146  1.00  0.00    -0.370 OA 
BRANCH  20  21
HETATM   21  C   UNL     1     -12.133  13.866  64.776  1.00  0.00    -0.419 C  
HETATM   22  O   UNL     1     -12.464  14.720  63.962  1.00  0.00    -0.803 OA 
HETATM   23  C   UNL     1     -11.936  12.398  64.420  1.00  0.00    -0.482 C  
HETATM   24  C   UNL     1     -10.473  12.122  64.074  1.00  0.00    -0.418 C  
HETATM   25  C   UNL     1     -12.826  12.019  63.235  1.00  0.00    -0.330 C  
ENDBRANCH  20  21
ENDBRANCH  11  20
BRANCH  18  26
HETATM   26  C   UNL     1      -6.361  14.077  67.736  1.00  0.00    -0.159 C  
HETATM   27  O   UNL     1      -5.692  15.301  67.452  1.00  0.00    -0.333 OA 
HETATM   28  H   UNL     1      -4.765  15.269  67.662  1.00  0.00     0.000 HD 
ENDBRANCH  18  26
ENDBRANCH   5   6
ENDBRANCH   4   5
BRANCH   4  29
HETATM   29  C   UNL     1     -13.675  14.232  71.326  1.00  0.00    -0.261 C  
HETATM   30  C   UNL     1     -13.523  13.010  72.247  1.00  0.00    -0.645 C  
HETATM   31  C   UNL     1     -13.599  15.448  72.282  1.00  0.00    -0.606 C  
ENDBRANCH   4  29
ENDBRANCH   2   4
TORSDOF 7
ENDMDL
MODEL        7
REMARK 921   NORMALIZED FREE ENERGY PREDICTED BY IDOCK:   -6.71 KCAL/MOL
REMARK 922        TOTAL FREE ENERGY PREDICTED BY IDOCK:  -10.87 KCAL/MOL
REMARK 923 INTER-LIGAND FREE ENERGY PREDICTED BY IDOCK:   -8.82 KCAL/MOL
REMARK 924 INTRA-LIGAND FREE ENERGY PREDICTED BY IDOCK:   -2.05 KCAL/MOL
REMARK 927      BINDING AFFINITY PREDICTED BY RF-SCORE:    0.00 PKD
ROOT
HETATM    1  C   UNL     1      -7.998   8.743  70.995  1.00  0.00    -0.170 C  
HETATM    2  C   UNL     1      -7.834   8.464  69.481  1.00  0.00    -0.102 C  
HETATM    3  C   UNL     1      -8.614   7.158  69.258  1.00  0.00    -0.137 C  
ENDROOT
BRANCH   2   4
HETATM    4  N   UNL     1      -8.217   9.627  68.608  1.00  0.00    -0.104 NA 
BRANCH   4   5
HETATM    5  C   UNL     1      -9.395  10.389  69.129  1.00  0.00    -0.199 C  
BRANCH   5   6
HETATM    6  C   UNL     1     -10.772  10.057  68.492  1.00  0.00    -0.264 C  
HETATM    7  C   UNL     1     -11.778  11.248  68.302  1.00  0.00    -0.344 C  
HETATM    8  C   UNL     1     -12.156  11.925  69.646  1.00  0.00    -0.304 A  
HETATM    9  C   UNL     1     -11.387  12.255  67.175  1.00  0.00    -0.398 A  
HETATM   10  C   UNL     1     -10.100  12.300  66.627  1.00  0.00    -0.231 A  
HETATM   11  C   UNL     1     -12.773  11.263  70.730  1.00  0.00    -0.269 A  
HETATM   12  C   UNL     1     -13.163  11.975  71.880  1.00  0.00    -0.469 A  
HETATM   13  C   UNL     1      -9.631  13.376  65.874  1.00  0.00    -0.127 A  
HETATM   14  C   UNL     1     -11.808  14.357  66.001  1.00  0.00    -0.379 A  
HETATM   15  C   UNL     1     -12.918  13.344  71.997  1.00  0.00    -0.409 A  
HETATM   16  C   UNL     1     -10.478  14.432  65.594  1.00  0.00    -0.347 A  
HETATM   17  C   UNL     1     -11.919  13.311  69.818  1.00  0.00    -0.391 A  
HETATM   18  C   UNL     1     -12.294  14.032  70.962  1.00  0.00    -0.443 A  
HETATM   19  C   UNL     1     -12.275  13.262  66.747  1.00  0.00    -0.340 A  
BRANCH  11  20
HETATM   20  O   UNL     1     -13.104   9.883  70.636  1.00  0.00    -0.242 OA 
BRANCH  20  21
HETATM   21  C   UNL     1     -12.912   9.039  71.748  1.00  0.00    -0.377 C  
HETATM   22  O   UNL     1     -13.633   8.974  72.737  1.00  0.00    -0.433 OA 
HETATM   23  C   UNL     1     -11.659   8.193  71.563  1.00  0.00    -0.315 C  
HETATM   24  C   UNL     1     -11.986   6.911  70.798  1.00  0.00    -0.424 C  
HETATM   25  C   UNL     1     -11.056   7.841  72.925  1.00  0.00    -0.457 C  
ENDBRANCH  20  21
ENDBRANCH  11  20
BRANCH  18  26
HETATM   26  C   UNL     1     -12.131  15.533  71.027  1.00  0.00    -0.387 C  
HETATM   27  O   UNL     1     -12.865  16.118  72.097  1.00  0.00    -0.445 OA 
HETATM   28  H   UNL     1     -12.763  17.062  72.139  1.00  0.00     0.000 HD 
ENDBRANCH  18  26
ENDBRANCH   5   6
ENDBRANCH   4   5
BRANCH   4  29
HETATM   29  C   UNL     1      -7.126  10.554  68.175  1.00  0.00    -0.082 C  
HETATM   30  C   UNL     1      -6.991  10.753  66.657  1.00  0.00    -0.129 C  
HETATM   31  C   UNL     1      -7.310  11.985  68.737  1.00  0.00    -0.098 C  
ENDBRANCH   4  29
ENDBRANCH   2   4
TORSDOF 7
ENDMDL
MODEL        8
REMARK 921   NORMALIZED FREE ENERGY PREDICTED BY IDOCK:   -6.69 KCAL/MOL
REMARK 922        TOTAL FREE ENERGY PREDICTED BY IDOCK:  -10.83 KCAL/MOL
REMARK 923 INTER-LIGAND FREE ENERGY PREDICTED BY IDOCK:   -8.63 KCAL/MOL
REMARK 924 INTRA-LIGAND FREE ENERGY PREDICTED BY IDOCK:   -2.20 KCAL/MOL
REMARK 927      BINDING AFFINITY PREDICTED BY RF-SCORE:    0.00 PKD
ROOT
HETATM    1  C   UNL     1      -9.912  15.274  70.101  1.00  0.00    -0.051 C  
HETATM    2  C   UNL     1     -11.310  15.921  69.948  1.00  0.00    -0.348 C  
HETATM    3  C   UNL     1     -11.284  16.530  68.537  1.00  0.00    -0.296 C  
ENDROOT
BRANCH   2   4
HETATM    4  N   UNL     1     -12.445  14.983  70.250  1.00  0.00    -0.341 NA 
BRANCH   4   5
HETATM    5  C   UNL     1     -12.038  13.543  70.231  1.00  0.00    -0.355 C  
BRANCH   5   6
HETATM    6  C   UNL     1     -12.387  12.740  68.948  1.00  0.00     0.180 C  
HETATM    7  C   UNL     1     -11.342  11.673  68.464  1.00  0.00    -0.332 C  
HETATM    8  C   UNL     1      -9.962  12.302  68.132  1.00  0.00    -0.210 A  
HETATM    9  C   UNL     1     -11.255  10.397  69.358  1.00  0.00    -0.314 A  
HETATM   10  C   UNL     1     -11.789  10.353  70.651  1.00  0.00    -0.445 A  
HETATM   11  C   UNL     1      -9.752  13.300  67.156  1.00  0.00    -0.236 A  
HETATM   12  C   UNL     1      -8.452  13.752  66.857  1.00  0.00    -0.081 A  
HETATM   13  C   UNL     1     -11.451   9.371  71.581  1.00  0.00    -0.463 A  
HETATM   14  C   UNL     1     -10.158   8.279  69.893  1.00  0.00    -0.195 A  
HETATM   15  C   UNL     1      -7.342  13.254  67.541  1.00  0.00    -0.159 A  
HETATM   16  C   UNL     1     -10.597   8.349  71.213  1.00  0.00    -0.279 A  
HETATM   17  C   UNL     1      -8.805  11.838  68.806  1.00  0.00     0.018 A  
HETATM   18  C   UNL     1      -7.506  12.284  68.524  1.00  0.00    -0.113 A  
HETATM   19  C   UNL     1     -10.515   9.266  68.959  1.00  0.00    -0.233 A  
BRANCH  11  20
HETATM   20  O   UNL     1     -10.840  13.794  66.385  1.00  0.00    -0.286 OA 
BRANCH  20  21
HETATM   21  C   UNL     1     -10.929  13.475  65.015  1.00  0.00    -0.335 C  
HETATM   22  O   UNL     1     -10.503  14.153  64.088  1.00  0.00    -0.075 OA 
HETATM   23  C   UNL     1     -11.643  12.144  64.825  1.00  0.00    -0.380 C  
HETATM   24  C   UNL     1     -10.650  10.985  64.908  1.00  0.00    -0.328 C  
HETATM   25  C   UNL     1     -12.355  12.116  63.470  1.00  0.00    -0.682 C  
ENDBRANCH  20  21
ENDBRANCH  11  20
BRANCH  18  26
HETATM   26  C   UNL     1      -6.303  11.653  69.187  1.00  0.00    -0.084 C  
HETATM   27  O   UNL     1      -6.416  11.612  70.606  1.00  0.00    -0.516 OA 
HETATM   28  H   UNL     1      -5.660  11.215  71.022  1.00  0.00     0.000 HD 
ENDBRANCH  18  26
ENDBRANCH   5   6
ENDBRANCH   4   5
BRANCH   4  29
HETATM   29  C   UNL     1     -13.293  15.286  71.443  1.00  0.00    -0.491 C  
HETATM   30  C   UNL     1     -13.970  14.071  72.100  1.00  0.00    -0.633 C  
HETATM   31  C   UNL     1     -12.485  15.943  72.590  1.00  0.00    -0.571 C  
ENDBRANCH   4  29
ENDBRANCH   2   4
TORSDOF 7
ENDMDL
MODEL        9
REMARK 921   NORMALIZED FREE ENERGY PREDICTED BY IDOCK:   -6.69 KCAL/MOL
REMARK 922        TOTAL FREE ENERGY PREDICTED BY IDOCK:  -10.83 KCAL/MOL
REMARK 923 INTER-LIGAND FREE ENERGY PREDICTED BY IDOCK:   -9.24 KCAL/MOL
REMARK 924 INTRA-LIGAND FREE ENERGY PREDICTED BY IDOCK:   -1.59 KCAL/MOL
REMARK 927      BINDING AFFINITY PREDICTED BY RF-SCORE:    0.00 PKD
ROOT
HETATM    1  C   UNL     1     -13.882  15.614  71.982  1.00  0.00    -0.521 C  
HETATM    2  C   UNL     1     -12.667  15.225  71.106  1.00  0.00    -0.410 C  
HETATM    3  C   UNL     1     -11.457  15.472  72.021  1.00  0.00    -0.515 C  
ENDROOT
BRANCH   2   4
HETATM    4  N   UNL     1     -12.776  13.854  70.498  1.00  0.00    -0.288 NA 
BRANCH   4   5
HETATM    5  C   UNL     1     -11.991  13.709  69.232  1.00  0.00    -0.336 C  
BRANCH   5   6
HETATM    6  C   UNL     1     -11.936  14.954  68.304  1.00  0.00    -0.245 C  
HETATM    7  C   UNL     1     -10.829  14.968  67.190  1.00  0.00    -0.314 C  
HETATM    8  C   UNL     1      -9.394  14.892  67.778  1.00  0.00    -0.194 A  
HETATM    9  C   UNL     1     -11.082  13.977  66.012  1.00  0.00    -0.303 A  
HETATM   10  C   UNL     1     -12.006  12.929  66.101  1.00  0.00    -0.491 A  
HETATM   11  C   UNL     1      -8.845  15.837  68.671  1.00  0.00    -0.199 A  
HETATM   12  C   UNL     1      -7.503  15.739  69.086  1.00  0.00    -0.207 A  
HETATM   13  C   UNL     1     -12.021  11.851  65.217  1.00  0.00    -0.084 A  
HETATM   14  C   UNL     1     -10.292  12.916  63.955  1.00  0.00    -0.346 A  
HETATM   15  C   UNL     1      -6.692  14.688  68.658  1.00  0.00    -0.086 A  
HETATM   16  C   UNL     1     -11.131  11.823  64.161  1.00  0.00    -0.442 A  
HETATM   17  C   UNL     1      -8.535  13.838  67.382  1.00  0.00    -0.209 A  
HETATM   18  C   UNL     1      -7.199  13.724  67.794  1.00  0.00    -0.169 A  
HETATM   19  C   UNL     1     -10.293  14.004  64.844  1.00  0.00    -0.434 A  
BRANCH  11  20
HETATM   20  O   UNL     1      -9.608  16.963  69.087  1.00  0.00    -0.241 OA 
BRANCH  20  21
HETATM   21  C   UNL     1      -9.339  18.233  68.538  1.00  0.00    -0.319 C  
HETATM   22  O   UNL     1      -8.336  18.908  68.738  1.00  0.00    -0.347 OA 
HETATM   23  C   UNL     1     -10.485  18.676  67.638  1.00  0.00    -0.468 C  
HETATM   24  C   UNL     1     -10.285  18.150  66.217  1.00  0.00    -0.401 C  
HETATM   25  C   UNL     1     -10.576  20.203  67.614  1.00  0.00    -0.332 C  
ENDBRANCH  20  21
ENDBRANCH  11  20
BRANCH  18  26
HETATM   26  C   UNL     1      -6.297  12.650  67.230  1.00  0.00    -0.094 C  
HETATM   27  O   UNL     1      -6.972  11.791  66.315  1.00  0.00    -0.368 OA 
HETATM   28  H   UNL     1      -6.405  11.116  65.960  1.00  0.00     0.000 HD 
ENDBRANCH  18  26
ENDBRANCH   5   6
ENDBRANCH   4   5
BRANCH   4  29
HETATM   29  C   UNL     1     -12.563  12.680  71.399  1.00  0.00    -0.202 C  
HETATM   30  C   UNL     1     -13.779  12.266  72.245  1.00  0.00    -0.193 C  
HETATM   31  C   UNL     1     -12.181  11.398  70.619  1.00  0.00    -0.484 C  
ENDBRANCH   4  29
ENDBRANCH   2   4
TORSDOF 7
ENDMDL
MODEL       10
REMARK 921   NORMALIZED FREE ENERGY PREDICTED BY IDOCK:   -6.54 KCAL/MOL
REMARK 922        TOTAL FREE ENERGY PREDICTED BY IDOCK:  -10.62 KCAL/MOL
REMARK 923 INTER-LIGAND FREE ENERGY PREDICTED BY IDOCK:   -8.62 KCAL/MOL
REMARK 924 INTRA-LIGAND FREE ENERGY PREDICTED BY IDOCK:   -2.01 KCAL/MOL
REMARK 927      BINDING AFFINITY PREDICTED BY RF-SCORE:    0.00 PKD
ROOT
HETATM    1  C   UNL     1      -7.176  11.726  69.002  1.00  0.00    -0.080 C  
HETATM    2  C   UNL     1      -7.083  10.306  68.394  1.00  0.00    -0.078 C  
HETATM    3  C   UNL     1      -5.712   9.791  68.862  1.00  0.00    -0.035 C  
ENDROOT
BRANCH   2   4
HETATM    4  N   UNL     1      -8.267   9.436  68.712  1.00  0.00    -0.107 NA 
BRANCH   4   5
HETATM    5  C   UNL     1      -9.439  10.206  69.234  1.00  0.00    -0.218 C  
BRANCH   5   6
HETATM    6  C   UNL     1     -10.809   9.927  68.559  1.00  0.00    -0.257 C  
HETATM    7  C   UNL     1     -11.788  11.144  68.395  1.00  0.00    -0.302 C  
HETATM    8  C   UNL     1     -12.179  11.778  69.757  1.00  0.00    -0.270 A  
HETATM    9  C   UNL     1     -11.355  12.184  67.315  1.00  0.00    -0.398 A  
HETATM   10  C   UNL     1     -10.057  12.224  66.793  1.00  0.00    -0.224 A  
HETATM   11  C   UNL     1     -12.830  11.089  70.803  1.00  0.00    -0.266 A  
HETATM   12  C   UNL     1     -13.228  11.766  71.972  1.00  0.00    -0.460 A  
HETATM   13  C   UNL     1      -9.552  13.317  66.091  1.00  0.00    -0.211 A  
HETATM   14  C   UNL     1     -11.711  14.337  66.213  1.00  0.00    -0.404 A  
HETATM   15  C   UNL     1     -12.958  13.124  72.145  1.00  0.00    -0.382 A  
HETATM   16  C   UNL     1     -10.372  14.399  65.834  1.00  0.00    -0.327 A  
HETATM   17  C   UNL     1     -11.918  13.152  69.985  1.00  0.00    -0.391 A  
HETATM   18  C   UNL     1     -12.301  13.837  71.148  1.00  0.00    -0.428 A  
HETATM   19  C   UNL     1     -12.214  13.225  66.908  1.00  0.00    -0.315 A  
BRANCH  11  20
HETATM   20  O   UNL     1     -13.186   9.720  70.651  1.00  0.00    -0.186 OA 
BRANCH  20  21
HETATM   21  C   UNL     1     -12.981   8.821  71.716  1.00  0.00    -0.361 C  
HETATM   22  O   UNL     1     -13.753   8.615  72.645  1.00  0.00    -0.337 OA 
HETATM   23  C   UNL     1     -11.641   8.115  71.564  1.00  0.00    -0.315 C  
HETATM   24  C   UNL     1     -11.787   6.866  70.695  1.00  0.00    -0.418 C  
HETATM   25  C   UNL     1     -11.093   7.724  72.939  1.00  0.00    -0.457 C  
ENDBRANCH  20  21
ENDBRANCH  11  20
BRANCH  18  26
HETATM   26  C   UNL     1     -12.110  15.330  71.273  1.00  0.00    -0.349 C  
HETATM   27  O   UNL     1     -13.097  16.072  70.562  1.00  0.00    -0.669 OA 
HETATM   28  H   UNL     1     -12.977  17.011  70.641  1.00  0.00     0.000 HD 
ENDBRANCH  18  26
ENDBRANCH   5   6
ENDBRANCH   4   5
BRANCH   4  29
HETATM   29  C   UNL     1      -8.694   8.446  67.676  1.00  0.00    -0.137 C  
HETATM   30  C   UNL     1      -8.238   8.751  66.240  1.00  0.00    -0.115 C  
HETATM   31  C   UNL     1      -8.150   7.023  67.959  1.00  0.00    -0.119 C  
ENDBRANCH   4  29
ENDBRANCH   2   4
TORSDOF 7
ENDMDL
MODEL       11
REMARK 921   NORMALIZED FREE ENERGY PREDICTED BY IDOCK:   -6.46 KCAL/MOL
REMARK 922        TOTAL FREE ENERGY PREDICTED BY IDOCK:  -10.50 KCAL/MOL
REMARK 923 INTER-LIGAND FREE ENERGY PREDICTED BY IDOCK:   -8.77 KCAL/MOL
REMARK 924 INTRA-LIGAND FREE ENERGY PREDICTED BY IDOCK:   -1.74 KCAL/MOL
REMARK 927      BINDING AFFINITY PREDICTED BY RF-SCORE:    0.00 PKD
ROOT
HETATM    1  C   UNL     1     -13.237  11.234  71.746  1.00  0.00    -0.480 C  
HETATM    2  C   UNL     1     -12.751   9.767  71.846  1.00  0.00    -0.410 C  
HETATM    3  C   UNL     1     -14.045   8.962  72.045  1.00  0.00    -0.477 C  
ENDROOT
BRANCH   2   4
HETATM    4  N   UNL     1     -11.871   9.344  70.703  1.00  0.00    -0.244 NA 
BRANCH   4   5
HETATM    5  C   UNL     1     -11.261  10.499  69.972  1.00  0.00    -0.315 C  
BRANCH   5   6
HETATM    6  C   UNL     1     -11.106  10.344  68.435  1.00  0.00    -0.322 C  
HETATM    7  C   UNL     1      -9.946  11.148  67.747  1.00  0.00    -0.193 C  
HETATM    8  C   UNL     1     -10.089  12.681  67.942  1.00  0.00    -0.222 A  
HETATM    9  C   UNL     1      -8.514  10.604  68.046  1.00  0.00    -0.119 A  
HETATM   10  C   UNL     1      -8.255   9.716  69.097  1.00  0.00    -0.120 A  
HETATM   11  C   UNL     1     -11.195  13.442  67.508  1.00  0.00    -0.284 A  
HETATM   12  C   UNL     1     -11.203  14.843  67.647  1.00  0.00    -0.330 A  
HETATM   13  C   UNL     1      -6.974   9.473  69.591  1.00  0.00    -0.066 A  
HETATM   14  C   UNL     1      -6.089  10.857  67.855  1.00  0.00    -0.050 A  
HETATM   15  C   UNL     1     -10.137  15.513  68.249  1.00  0.00    -0.218 A  
HETATM   16  C   UNL     1      -5.887  10.080  68.992  1.00  0.00    -0.034 A  
HETATM   17  C   UNL     1      -9.038  13.405  68.557  1.00  0.00    -0.077 A  
HETATM   18  C   UNL     1      -9.036  14.799  68.710  1.00  0.00    -0.191 A  
HETATM   19  C   UNL     1      -7.383  11.086  67.356  1.00  0.00    -0.105 A  
BRANCH  11  20
HETATM   20  O   UNL     1     -12.278  12.817  66.829  1.00  0.00    -0.470 OA 
BRANCH  20  21
HETATM   21  C   UNL     1     -12.518  13.113  65.473  1.00  0.00    -0.458 C  
HETATM   22  O   UNL     1     -13.207  14.032  65.046  1.00  0.00    -0.720 OA 
HETATM   23  C   UNL     1     -11.793  12.120  64.575  1.00  0.00    -0.418 C  
HETATM   24  C   UNL     1     -10.364  12.587  64.301  1.00  0.00    -0.396 C  
HETATM   25  C   UNL     1     -12.545  11.959  63.252  1.00  0.00    -0.473 C  
ENDBRANCH  20  21
ENDBRANCH  11  20
BRANCH  18  26
HETATM   26  C   UNL     1      -7.827  15.523  69.255  1.00  0.00    -0.227 C  
HETATM   27  O   UNL     1      -7.051  14.713  70.133  1.00  0.00    -0.365 OA 
HETATM   28  H   UNL     1      -6.291  15.168  70.475  1.00  0.00     0.000 HD 
ENDBRANCH  18  26
ENDBRANCH   5   6
ENDBRANCH   4   5
BRANCH   4  29
HETATM   29  C   UNL     1     -10.855   8.281  70.970  1.00  0.00    -0.233 C  
HETATM   30  C   UNL     1     -10.394   8.157  72.432  1.00  0.00    -0.382 C  
HETATM   31  C   UNL     1     -11.371   6.866  70.608  1.00  0.00    -0.366 C  
ENDBRANCH   4  29
ENDBRANCH   2   4
TORSDOF 7
ENDMDL
MODEL       12
REMARK 921   NORMALIZED FREE ENERGY PREDICTED BY IDOCK:   -6.44 KCAL/MOL
REMARK 922        TOTAL FREE ENERGY PREDICTED BY IDOCK:  -10.49 KCAL/MOL
REMARK 923 INTER-LIGAND FREE ENERGY PREDICTED BY IDOCK:   -8.43 KCAL/MOL
REMARK 924 INTRA-LIGAND FREE ENERGY PREDICTED BY IDOCK:   -2.06 KCAL/MOL
REMARK 927      BINDING AFFINITY PREDICTED BY RF-SCORE:    0.00 PKD
ROOT
HETATM    1  C   UNL     1     -13.326  10.368  72.075  1.00  0.00    -0.440 C  
HETATM    2  C   UNL     1     -12.751  10.627  70.662  1.00  0.00    -0.359 C  
HETATM    3  C   UNL     1     -12.385  12.120  70.680  1.00  0.00    -0.385 C  
ENDROOT
BRANCH   2   4
HETATM    4  N   UNL     1     -11.654   9.676  70.274  1.00  0.00    -0.233 NA 
BRANCH   4   5
HETATM    5  C   UNL     1     -10.471  10.361  69.663  1.00  0.00    -0.243 C  
BRANCH   5   6
HETATM    6  C   UNL     1     -10.393  10.356  68.112  1.00  0.00    -0.202 C  
HETATM    7  C   UNL     1      -9.437  11.406  67.441  1.00  0.00    -0.174 C  
HETATM    8  C   UNL     1      -9.831  12.869  67.779  1.00  0.00    -0.221 A  
HETATM    9  C   UNL     1      -7.916  11.105  67.618  1.00  0.00    -0.116 A  
HETATM   10  C   UNL     1      -7.439  10.198  68.571  1.00  0.00    -0.086 A  
HETATM   11  C   UNL     1     -11.079  13.452  67.470  1.00  0.00    -0.274 A  
HETATM   12  C   UNL     1     -11.321  14.814  67.733  1.00  0.00    -0.344 A  
HETATM   13  C   UNL     1      -6.106  10.150  68.976  1.00  0.00    -0.040 A  
HETATM   14  C   UNL     1      -5.590  11.802  67.327  1.00  0.00    -0.115 A  
HETATM   15  C   UNL     1     -10.351  15.614  68.339  1.00  0.00    -0.231 A  
HETATM   16  C   UNL     1      -5.182  10.986  68.380  1.00  0.00    -0.039 A  
HETATM   17  C   UNL     1      -8.885  13.719  68.402  1.00  0.00    -0.165 A  
HETATM   18  C   UNL     1      -9.115  15.074  68.677  1.00  0.00    -0.191 A  
HETATM   19  C   UNL     1      -6.934  11.834  66.917  1.00  0.00    -0.101 A  
BRANCH  11  20
HETATM   20  O   UNL     1     -12.079  12.699  66.794  1.00  0.00    -0.504 OA 
BRANCH  20  21
HETATM   21  C   UNL     1     -12.449  13.048  65.480  1.00  0.00    -0.438 C  
HETATM   22  O   UNL     1     -13.207  13.956  65.161  1.00  0.00    -0.768 OA 
HETATM   23  C   UNL     1     -11.770  12.127  64.474  1.00  0.00    -0.410 C  
HETATM   24  C   UNL     1     -10.389  12.666  64.101  1.00  0.00    -0.412 C  
HETATM   25  C   UNL     1     -12.630  11.997  63.215  1.00  0.00    -0.512 C  
ENDBRANCH  20  21
ENDBRANCH  11  20
BRANCH  18  26
HETATM   26  C   UNL     1      -8.017  15.958  69.223  1.00  0.00    -0.229 C  
HETATM   27  O   UNL     1      -7.936  17.211  68.551  1.00  0.00    -0.238 OA 
HETATM   28  H   UNL     1      -7.245  17.766  68.894  1.00  0.00     0.000 HD 
ENDBRANCH  18  26
ENDBRANCH   5   6
ENDBRANCH   4   5
BRANCH   4  29
HETATM   29  C   UNL     1     -11.224   8.666  71.289  1.00  0.00    -0.276 C  
HETATM   30  C   UNL     1     -11.584   7.206  70.966  1.00  0.00    -0.345 C  
HETATM   31  C   UNL     1      -9.689   8.648  71.492  1.00  0.00    -0.333 C  
ENDBRANCH   4  29
ENDBRANCH   2   4
TORSDOF 7
ENDMDL
MODEL       13
REMARK 921   NORMALIZED FREE ENERGY PREDICTED BY IDOCK:   -6.43 KCAL/MOL
REMARK 922        TOTAL FREE ENERGY PREDICTED BY IDOCK:  -10.46 KCAL/MOL
REMARK 923 INTER-LIGAND FREE ENERGY PREDICTED BY IDOCK:   -8.65 KCAL/MOL
REMARK 924 INTRA-LIGAND FREE ENERGY PREDICTED BY IDOCK:   -1.82 KCAL/MOL
REMARK 927      BINDING AFFINITY PREDICTED BY RF-SCORE:    0.00 PKD
ROOT
HETATM    1  C   UNL     1     -10.770   7.734  69.861  1.00  0.00    -0.245 C  
HETATM    2  C   UNL     1     -10.779   8.863  70.920  1.00  0.00    -0.231 C  
HETATM    3  C   UNL     1      -9.358   8.833  71.504  1.00  0.00    -0.337 C  
ENDROOT
BRANCH   2   4
HETATM    4  N   UNL     1     -11.254  10.186  70.387  1.00  0.00    -0.308 NA 
BRANCH   4   5
HETATM    5  C   UNL     1     -10.877  10.413  68.957  1.00  0.00    -0.234 C  
BRANCH   5   6
HETATM    6  C   UNL     1      -9.506  11.097  68.702  1.00  0.00    -0.196 C  
HETATM    7  C   UNL     1      -9.470  12.256  67.643  1.00  0.00    -0.188 C  
HETATM    8  C   UNL     1      -9.906  11.783  66.230  1.00  0.00    -0.245 A  
HETATM    9  C   UNL     1     -10.157  13.579  68.105  1.00  0.00    -0.250 A  
HETATM   10  C   UNL     1     -11.025  13.627  69.202  1.00  0.00    -0.235 A  
HETATM   11  C   UNL     1      -9.261  10.767  65.493  1.00  0.00    -0.202 A  
HETATM   12  C   UNL     1      -9.669  10.462  64.180  1.00  0.00    -0.387 A  
HETATM   13  C   UNL     1     -11.894  14.692  69.439  1.00  0.00    -0.368 A  
HETATM   14  C   UNL     1     -10.923  15.841  67.581  1.00  0.00    -0.302 A  
HETATM   15  C   UNL     1     -10.742  11.127  63.587  1.00  0.00    -0.381 A  
HETATM   16  C   UNL     1     -11.872  15.789  68.599  1.00  0.00    -0.287 A  
HETATM   17  C   UNL     1     -10.997  12.420  65.589  1.00  0.00    -0.321 A  
HETATM   18  C   UNL     1     -11.419  12.120  64.285  1.00  0.00    -0.437 A  
HETATM   19  C   UNL     1     -10.042  14.769  67.359  1.00  0.00    -0.231 A  
BRANCH  11  20
HETATM   20  O   UNL     1      -8.121  10.104  66.025  1.00  0.00    -0.120 OA 
BRANCH  20  21
HETATM   21  C   UNL     1      -7.948   8.723  65.806  1.00  0.00    -0.105 C  
HETATM   22  O   UNL     1      -7.287   8.212  64.910  1.00  0.00    -0.080 OA 
HETATM   23  C   UNL     1      -8.708   7.920  66.853  1.00  0.00    -0.136 C  
HETATM   24  C   UNL     1      -7.847   7.709  68.098  1.00  0.00    -0.121 C  
HETATM   25  C   UNL     1      -9.123   6.564  66.278  1.00  0.00    -0.168 C  
ENDBRANCH  20  21
ENDBRANCH  11  20
BRANCH  18  26
HETATM   26  C   UNL     1     -12.504  12.928  63.611  1.00  0.00    -0.348 C  
HETATM   27  O   UNL     1     -12.249  14.328  63.648  1.00  0.00    -0.970 OA 
HETATM   28  H   UNL     1     -12.932  14.836  63.224  1.00  0.00     0.000 HD 
ENDBRANCH  18  26
ENDBRANCH   5   6
ENDBRANCH   4   5
BRANCH   4  29
HETATM   29  C   UNL     1     -12.682  10.556  70.631  1.00  0.00    -0.355 C  
HETATM   30  C   UNL     1     -13.532   9.487  71.339  1.00  0.00    -0.405 C  
HETATM   31  C   UNL     1     -12.822  11.813  71.524  1.00  0.00    -0.450 C  
ENDBRANCH   4  29
ENDBRANCH   2   4
TORSDOF 7
ENDMDL
MODEL       14
REMARK 921   NORMALIZED FREE ENERGY PREDICTED BY IDOCK:   -6.36 KCAL/MOL
REMARK 922        TOTAL FREE ENERGY PREDICTED BY IDOCK:  -10.37 KCAL/MOL
REMARK 923 INTER-LIGAND FREE ENERGY PREDICTED BY IDOCK:   -8.83 KCAL/MOL
REMARK 924 INTRA-LIGAND FREE ENERGY PREDICTED BY IDOCK:   -1.54 KCAL/MOL
REMARK 927      BINDING AFFINITY PREDICTED BY RF-SCORE:    0.00 PKD
ROOT
HETATM    1  C   UNL     1      -6.037  17.172  68.851  1.00  0.00    -0.169 C  
HETATM    2  C   UNL     1      -7.382  17.911  68.651  1.00  0.00    -0.271 C  
HETATM    3  C   UNL     1      -7.013  19.397  68.791  1.00  0.00    -0.368 C  
ENDROOT
BRANCH   2   4
HETATM    4  N   UNL     1      -8.105  17.519  67.392  1.00  0.00    -0.200 NA 
BRANCH   4   5
HETATM    5  C   UNL     1      -8.171  16.037  67.191  1.00  0.00    -0.195 C  
BRANCH   5   6
HETATM    6  C   UNL     1      -8.730  15.201  68.374  1.00  0.00    -0.169 C  
HETATM    7  C   UNL     1      -9.202  13.737  68.056  1.00  0.00    -0.195 C  
HETATM    8  C   UNL     1     -10.349  13.697  67.012  1.00  0.00    -0.260 A  
HETATM    9  C   UNL     1      -8.045  12.732  67.762  1.00  0.00    -0.168 A  
HETATM   10  C   UNL     1      -6.745  13.155  67.461  1.00  0.00    -0.159 A  
HETATM   11  C   UNL     1     -11.604  14.321  67.179  1.00  0.00    -0.380 A  
HETATM   12  C   UNL     1     -12.621  14.160  66.218  1.00  0.00    -0.297 A  
HETATM   13  C   UNL     1      -5.789  12.321  66.882  1.00  0.00     0.079 A  
HETATM   14  C   UNL     1      -7.330  10.502  67.058  1.00  0.00    -0.099 A  
HETATM   15  C   UNL     1     -12.405  13.412  65.060  1.00  0.00    -0.481 A  
HETATM   16  C   UNL     1      -6.096  10.996  66.641  1.00  0.00    -0.124 A  
HETATM   17  C   UNL     1     -10.176  12.960  65.815  1.00  0.00    -0.298 A  
HETATM   18  C   UNL     1     -11.177  12.797  64.846  1.00  0.00    -0.331 A  
HETATM   19  C   UNL     1      -8.282  11.347  67.653  1.00  0.00    -0.128 A  
BRANCH  11  20
HETATM   20  O   UNL     1     -11.899  15.040  68.371  1.00  0.00    -0.319 OA 
BRANCH  20  21
HETATM   21  C   UNL     1     -12.294  14.343  69.529  1.00  0.00    -0.222 C  
HETATM   22  O   UNL     1     -12.285  13.126  69.678  1.00  0.00    -0.270 OA 
HETATM   23  C   UNL     1     -12.748  15.318  70.607  1.00  0.00    -0.470 C  
HETATM   24  C   UNL     1     -11.558  15.789  71.441  1.00  0.00    -0.511 C  
HETATM   25  C   UNL     1     -13.784  14.653  71.517  1.00  0.00    -0.495 C  
ENDBRANCH  20  21
ENDBRANCH  11  20
BRANCH  18  26
HETATM   26  C   UNL     1     -10.971  11.889  63.656  1.00  0.00    -0.440 C  
HETATM   27  O   UNL     1     -12.181  11.617  62.957  1.00  0.00    -0.949 OA 
HETATM   28  H   UNL     1     -12.052  11.046  62.208  1.00  0.00     0.000 HD 
ENDBRANCH  18  26
ENDBRANCH   5   6
ENDBRANCH   4   5
BRANCH   4  29
HETATM   29  C   UNL     1      -9.431  18.156  67.130  1.00  0.00    -0.264 C  
HETATM   30  C   UNL     1     -10.285  17.485  66.042  1.00  0.00    -0.306 C  
HETATM   31  C   UNL     1     -10.341  18.165  68.383  1.00  0.00    -0.371 C  
ENDBRANCH   4  29
ENDBRANCH   2   4
TORSDOF 7
ENDMDL
MODEL       15
REMARK 921   NORMALIZED FREE ENERGY PREDICTED BY IDOCK:   -6.34 KCAL/MOL
REMARK 922        TOTAL FREE ENERGY PREDICTED BY IDOCK:  -10.35 KCAL/MOL
REMARK 923 INTER-LIGAND FREE ENERGY PREDICTED BY IDOCK:   -8.51 KCAL/MOL
REMARK 924 INTRA-LIGAND FREE ENERGY PREDICTED BY IDOCK:   -1.83 KCAL/MOL
REMARK 927      BINDING AFFINITY PREDICTED BY RF-SCORE:    0.00 PKD
ROOT
HETATM    1  C   UNL     1     -10.011  14.623  69.044  1.00  0.00    -0.195 C  
HETATM    2  C   UNL     1     -11.512  14.910  68.801  1.00  0.00    -0.307 C  
HETATM    3  C   UNL     1     -11.658  14.851  67.272  1.00  0.00    -0.337 C  
ENDROOT
BRANCH   2   4
HETATM    4  N   UNL     1     -12.432  14.024  69.594  1.00  0.00    -0.252 NA 
BRANCH   4   5
HETATM    5  C   UNL     1     -11.857  12.667  69.856  1.00  0.00    -0.294 C  
BRANCH   5   6
HETATM    6  C   UNL     1     -12.082  11.594  68.757  1.00  0.00    -0.221 C  
HETATM    7  C   UNL     1     -11.084  10.382  68.724  1.00  0.00    -0.298 C  
HETATM    8  C   UNL     1      -9.615  10.828  68.498  1.00  0.00    -0.183 A  
HETATM    9  C   UNL     1     -11.262   9.364  69.893  1.00  0.00    -0.180 A  
HETATM   10  C   UNL     1     -11.990   9.671  71.049  1.00  0.00    -0.427 A  
HETATM   11  C   UNL     1      -9.161  11.541  67.367  1.00  0.00    -0.166 A  
HETATM   12  C   UNL     1      -7.793  11.828  67.200  1.00  0.00    -0.166 A  
HETATM   13  C   UNL     1     -11.897   8.931  72.227  1.00  0.00    -0.365 A  
HETATM   14  C   UNL     1     -10.473   7.383  71.090  1.00  0.00    -0.220 A  
HETATM   15  C   UNL     1      -6.855  11.452  68.162  1.00  0.00    -0.064 A  
HETATM   16  C   UNL     1     -11.100   7.802  72.261  1.00  0.00    -0.355 A  
HETATM   17  C   UNL     1      -8.627  10.479  69.450  1.00  0.00    -0.100 A  
HETATM   18  C   UNL     1      -7.262  10.766  69.301  1.00  0.00    -0.122 A  
HETATM   19  C   UNL     1     -10.584   8.128  69.904  1.00  0.00    -0.239 A  
BRANCH  11  20
HETATM   20  O   UNL     1     -10.065  11.890  66.325  1.00  0.00    -0.211 OA 
BRANCH  20  21
HETATM   21  C   UNL     1     -10.124  11.105  65.157  1.00  0.00    -0.281 C  
HETATM   22  O   UNL     1     -10.145   9.881  65.110  1.00  0.00    -0.309 OA 
HETATM   23  C   UNL     1     -10.161  11.994  63.921  1.00  0.00    -0.424 C  
HETATM   24  C   UNL     1     -11.599  12.389  63.586  1.00  0.00    -0.580 C  
HETATM   25  C   UNL     1      -9.536  11.265  62.729  1.00  0.00    -0.355 C  
ENDBRANCH  20  21
ENDBRANCH  11  20
BRANCH  18  26
HETATM   26  C   UNL     1      -6.243  10.250  70.290  1.00  0.00    -0.113 C  
HETATM   27  O   UNL     1      -5.913  11.209  71.289  1.00  0.00    -0.358 OA 
HETATM   28  H   UNL     1      -5.272  10.885  71.911  1.00  0.00     0.000 HD 
ENDBRANCH  18  26
ENDBRANCH   5   6
ENDBRANCH   4   5
BRANCH   4  29
HETATM   29  C   UNL     1     -13.046  14.596  70.831  1.00  0.00    -0.358 C  
HETATM   30  C   UNL     1     -13.286  13.596  71.974  1.00  0.00    -0.548 C  
HETATM   31  C   UNL     1     -12.170  15.705  71.466  1.00  0.00    -0.487 C  
ENDBRANCH   4  29
ENDBRANCH   2   4
TORSDOF 7
ENDMDL
MODEL       16
REMARK 921   NORMALIZED FREE ENERGY PREDICTED BY IDOCK:   -6.30 KCAL/MOL
REMARK 922        TOTAL FREE ENERGY PREDICTED BY IDOCK:  -10.29 KCAL/MOL
REMARK 923 INTER-LIGAND FREE ENERGY PREDICTED BY IDOCK:   -8.52 KCAL/MOL
REMARK 924 INTRA-LIGAND FREE ENERGY PREDICTED BY IDOCK:   -1.77 KCAL/MOL
REMARK 927      BINDING AFFINITY PREDICTED BY RF-SCORE:    0.00 PKD
ROOT
HETATM    1  C   UNL     1     -12.537  11.246  71.155  1.00  0.00    -0.501 C  
HETATM    2  C   UNL     1     -11.772   9.903  71.228  1.00  0.00    -0.392 C  
HETATM    3  C   UNL     1     -12.736   8.967  71.975  1.00  0.00    -0.467 C  
ENDROOT
BRANCH   2   4
HETATM    4  N   UNL     1     -11.272   9.420  69.895  1.00  0.00    -0.201 NA 
BRANCH   4   5
HETATM    5  C   UNL     1     -11.130  10.518  68.888  1.00  0.00    -0.261 C  
BRANCH   5   6
HETATM    6  C   UNL     1      -9.699  11.080  68.673  1.00  0.00    -0.198 C  
HETATM    7  C   UNL     1      -9.531  12.223  67.609  1.00  0.00    -0.188 C  
HETATM    8  C   UNL     1      -9.961  11.776  66.186  1.00  0.00    -0.254 A  
HETATM    9  C   UNL     1     -10.116  13.603  68.041  1.00  0.00    -0.250 A  
HETATM   10  C   UNL     1     -11.011  13.735  69.109  1.00  0.00    -0.246 A  
HETATM   11  C   UNL     1      -9.382  10.702  65.476  1.00  0.00    -0.205 A  
HETATM   12  C   UNL     1      -9.773  10.421  64.153  1.00  0.00    -0.387 A  
HETATM   13  C   UNL     1     -11.793  14.872  69.311  1.00  0.00    -0.350 A  
HETATM   14  C   UNL     1     -10.669  15.918  67.479  1.00  0.00    -0.318 A  
HETATM   15  C   UNL     1     -10.766  11.170  63.521  1.00  0.00    -0.340 A  
HETATM   16  C   UNL     1     -11.651  15.955  68.466  1.00  0.00    -0.351 A  
HETATM   17  C   UNL     1     -10.972  12.498  65.506  1.00  0.00    -0.322 A  
HETATM   18  C   UNL     1     -11.378  12.224  64.191  1.00  0.00    -0.442 A  
HETATM   19  C   UNL     1      -9.877  14.773  67.291  1.00  0.00    -0.230 A  
BRANCH  11  20
HETATM   20  O   UNL     1      -8.320   9.949  66.049  1.00  0.00    -0.119 OA 
BRANCH  20  21
HETATM   21  C   UNL     1      -8.528   8.602  66.404  1.00  0.00    -0.112 C  
HETATM   22  O   UNL     1      -9.612   8.034  66.473  1.00  0.00    -0.207 OA 
HETATM   23  C   UNL     1      -7.200   7.919  66.701  1.00  0.00    -0.084 C  
HETATM   24  C   UNL     1      -6.585   7.361  65.418  1.00  0.00    -0.044 C  
HETATM   25  C   UNL     1      -7.404   6.786  67.710  1.00  0.00    -0.096 C  
ENDBRANCH  20  21
ENDBRANCH  11  20
BRANCH  18  26
HETATM   26  C   UNL     1     -12.368  13.114  63.478  1.00  0.00    -0.398 C  
HETATM   27  O   UNL     1     -12.103  14.500  63.676  1.00  0.00    -0.876 OA 
HETATM   28  H   UNL     1     -12.726  15.060  63.227  1.00  0.00     0.000 HD 
ENDBRANCH  18  26
ENDBRANCH   5   6
ENDBRANCH   4   5
BRANCH   4  29
HETATM   29  C   UNL     1     -10.073   8.527  69.890  1.00  0.00    -0.195 C  
HETATM   30  C   UNL     1      -9.213   8.564  71.164  1.00  0.00    -0.248 C  
HETATM   31  C   UNL     1     -10.448   7.034  69.722  1.00  0.00    -0.235 C  
ENDBRANCH   4  29
ENDBRANCH   2   4
TORSDOF 7
ENDMDL
MODEL       17
REMARK 921   NORMALIZED FREE ENERGY PREDICTED BY IDOCK:   -6.29 KCAL/MOL
REMARK 922        TOTAL FREE ENERGY PREDICTED BY IDOCK:  -10.27 KCAL/MOL
REMARK 923 INTER-LIGAND FREE ENERGY PREDICTED BY IDOCK:   -8.29 KCAL/MOL
REMARK 924 INTRA-LIGAND FREE ENERGY PREDICTED BY IDOCK:   -1.98 KCAL/MOL
REMARK 927      BINDING AFFINITY PREDICTED BY RF-SCORE:    0.00 PKD
ROOT
HETATM    1  C   UNL     1     -12.540  14.068  66.211  1.00  0.00    -0.352 C  
HETATM    2  C   UNL     1     -11.719  14.255  64.912  1.00  0.00    -0.397 C  
HETATM    3  C   UNL     1     -11.020  15.610  65.107  1.00  0.00    -0.411 C  
ENDROOT
BRANCH   2   4
HETATM    4  N   UNL     1     -10.830  13.087  64.586  1.00  0.00    -0.333 NA 
BRANCH   4   5
HETATM    5  C   UNL     1     -10.612  12.173  65.751  1.00  0.00    -0.260 C  
BRANCH   5   6
HETATM    6  C   UNL     1      -9.249  12.300  66.485  1.00  0.00    -0.219 C  
HETATM    7  C   UNL     1      -9.243  12.038  68.034  1.00  0.00    -0.192 C  
HETATM    8  C   UNL     1     -10.162  13.022  68.806  1.00  0.00    -0.102 A  
HETATM    9  C   UNL     1      -9.435  10.544  68.440  1.00  0.00    -0.158 A  
HETATM   10  C   UNL     1      -9.918   9.582  67.545  1.00  0.00    -0.235 A  
HETATM   11  C   UNL     1     -10.013  14.426  68.801  1.00  0.00    -0.223 A  
HETATM   12  C   UNL     1     -10.838  15.239  69.602  1.00  0.00    -0.294 A  
HETATM   13  C   UNL     1     -10.405   8.340  67.952  1.00  0.00    -0.278 A  
HETATM   14  C   UNL     1      -9.760   8.870  70.192  1.00  0.00    -0.199 A  
HETATM   15  C   UNL     1     -11.847  14.685  70.391  1.00  0.00    -0.365 A  
HETATM   16  C   UNL     1     -10.364   7.997  69.290  1.00  0.00    -0.224 A  
HETATM   17  C   UNL     1     -11.207  12.510  69.614  1.00  0.00    -0.090 A  
HETATM   18  C   UNL     1     -12.041  13.308  70.410  1.00  0.00    -0.401 A  
HETATM   19  C   UNL     1      -9.260  10.113  69.770  1.00  0.00    -0.175 A  
BRANCH  11  20
HETATM   20  O   UNL     1      -8.959  15.036  68.066  1.00  0.00    -0.168 OA 
BRANCH  20  21
HETATM   21  C   UNL     1      -8.394  16.243  68.524  1.00  0.00    -0.204 C  
HETATM   22  O   UNL     1      -7.635  16.369  69.478  1.00  0.00    -0.167 OA 
HETATM   23  C   UNL     1      -8.858  17.408  67.659  1.00  0.00    -0.225 C  
HETATM   24  C   UNL     1      -7.942  17.577  66.448  1.00  0.00    -0.320 C  
HETATM   25  C   UNL     1      -8.871  18.700  68.480  1.00  0.00    -0.361 C  
ENDBRANCH  20  21
ENDBRANCH  11  20
BRANCH  18  26
HETATM   26  C   UNL     1     -13.050  12.689  71.349  1.00  0.00    -0.216 C  
HETATM   27  O   UNL     1     -13.391  13.548  72.432  1.00  0.00    -0.493 OA 
HETATM   28  H   UNL     1     -14.026  13.159  73.023  1.00  0.00     0.000 HD 
ENDBRANCH  18  26
ENDBRANCH   5   6
ENDBRANCH   4   5
BRANCH   4  29
HETATM   29  C   UNL     1     -11.136  12.311  63.345  1.00  0.00    -0.418 C  
HETATM   30  C   UNL     1     -10.232  11.095  63.085  1.00  0.00    -0.347 C  
HETATM   31  C   UNL     1     -12.572  11.730  63.351  1.00  0.00    -0.458 C  
ENDBRANCH   4  29
ENDBRANCH   2   4
TORSDOF 7
ENDMDL
MODEL       18
REMARK 921   NORMALIZED FREE ENERGY PREDICTED BY IDOCK:   -6.27 KCAL/MOL
REMARK 922        TOTAL FREE ENERGY PREDICTED BY IDOCK:  -10.24 KCAL/MOL
REMARK 923 INTER-LIGAND FREE ENERGY PREDICTED BY IDOCK:   -8.35 KCAL/MOL
REMARK 924 INTRA-LIGAND FREE ENERGY PREDICTED BY IDOCK:   -1.89 KCAL/MOL
REMARK 927      BINDING AFFINITY PREDICTED BY RF-SCORE:    0.00 PKD
ROOT
HETATM    1  C   UNL     1     -13.813   8.808  72.168  1.00  0.00    -0.513 C  
HETATM    2  C   UNL     1     -13.256   9.842  71.161  1.00  0.00    -0.331 C  
HETATM    3  C   UNL     1     -13.280  11.168  71.939  1.00  0.00    -0.488 C  
ENDROOT
BRANCH   2   4
HETATM    4  N   UNL     1     -11.936   9.446  70.558  1.00  0.00    -0.164 NA 
BRANCH   4   5
HETATM    5  C   UNL     1     -11.231  10.584  69.889  1.00  0.00    -0.307 C  
BRANCH   5   6
HETATM    6  C   UNL     1     -11.816  11.060  68.531  1.00  0.00    -0.286 C  
HETATM    7  C   UNL     1     -10.813  11.210  67.332  1.00  0.00    -0.317 C  
HETATM    8  C   UNL     1      -9.691  12.242  67.623  1.00  0.00    -0.194 A  
HETATM    9  C   UNL     1     -10.293   9.859  66.748  1.00  0.00    -0.285 A  
HETATM   10  C   UNL     1     -10.421   8.647  67.438  1.00  0.00    -0.351 A  
HETATM   11  C   UNL     1      -9.914  13.604  67.919  1.00  0.00    -0.244 A  
HETATM   12  C   UNL     1      -8.833  14.491  68.082  1.00  0.00    -0.177 A  
HETATM   13  C   UNL     1      -9.694   7.504  67.109  1.00  0.00    -0.228 A  
HETATM   14  C   UNL     1      -8.799   8.668  65.223  1.00  0.00    -0.178 A  
HETATM   15  C   UNL     1      -7.514  14.043  67.995  1.00  0.00    -0.141 A  
HETATM   16  C   UNL     1      -8.846   7.526  66.019  1.00  0.00    -0.179 A  
HETATM   17  C   UNL     1      -8.336  11.834  67.556  1.00  0.00    -0.154 A  
HETATM   18  C   UNL     1      -7.249  12.704  67.725  1.00  0.00    -0.127 A  
HETATM   19  C   UNL     1      -9.545   9.811  65.554  1.00  0.00    -0.348 A  
BRANCH  11  20
HETATM   20  O   UNL     1     -11.237  14.126  67.954  1.00  0.00    -0.260 OA 
BRANCH  20  21
HETATM   21  C   UNL     1     -11.537  15.218  68.792  1.00  0.00    -0.362 C  
HETATM   22  O   UNL     1     -11.651  16.386  68.442  1.00  0.00    -0.286 OA 
HETATM   23  C   UNL     1     -11.705  14.751  70.232  1.00  0.00    -0.351 C  
HETATM   24  C   UNL     1     -13.146  14.312  70.489  1.00  0.00    -0.168 C  
HETATM   25  C   UNL     1     -11.330  15.878  71.198  1.00  0.00    -0.435 C  
ENDBRANCH  20  21
ENDBRANCH  11  20
BRANCH  18  26
HETATM   26  C   UNL     1      -5.830  12.232  67.511  1.00  0.00    -0.131 C  
HETATM   27  O   UNL     1      -5.610  11.733  66.195  1.00  0.00    -0.498 OA 
HETATM   28  H   UNL     1      -4.718  11.436  66.060  1.00  0.00     0.000 HD 
ENDBRANCH  18  26
ENDBRANCH   5   6
ENDBRANCH   4   5
BRANCH   4  29
HETATM   29  C   UNL     1     -10.995   8.659  71.412  1.00  0.00    -0.271 C  
HETATM   30  C   UNL     1     -10.870   7.168  71.059  1.00  0.00    -0.262 C  
HETATM   31  C   UNL     1      -9.544   9.195  71.341  1.00  0.00    -0.316 C  
ENDBRANCH   4  29
ENDBRANCH   2   4
TORSDOF 7
ENDMDL
MODEL       19
REMARK 921   NORMALIZED FREE ENERGY PREDICTED BY IDOCK:   -6.25 KCAL/MOL
REMARK 922        TOTAL FREE ENERGY PREDICTED BY IDOCK:  -10.21 KCAL/MOL
REMARK 923 INTER-LIGAND FREE ENERGY PREDICTED BY IDOCK:   -8.47 KCAL/MOL
REMARK 924 INTRA-LIGAND FREE ENERGY PREDICTED BY IDOCK:   -1.74 KCAL/MOL
REMARK 927      BINDING AFFINITY PREDICTED BY RF-SCORE:    0.00 PKD
ROOT
HETATM    1  C   UNL     1     -10.381  11.486  63.437  1.00  0.00    -0.469 C  
HETATM    2  C   UNL     1     -10.938  12.677  64.254  1.00  0.00    -0.366 C  
HETATM    3  C   UNL     1     -12.215  13.079  63.497  1.00  0.00    -0.580 C  
ENDROOT
BRANCH   2   4
HETATM    4  N   UNL     1     -11.096  12.382  65.719  1.00  0.00    -0.303 NA 
BRANCH   4   5
HETATM    5  C   UNL     1     -10.520  11.059  66.117  1.00  0.00    -0.244 C  
BRANCH   5   6
HETATM    6  C   UNL     1      -9.470  11.077  67.261  1.00  0.00    -0.179 C  
HETATM    7  C   UNL     1      -8.673   9.749  67.523  1.00  0.00    -0.125 C  
HETATM    8  C   UNL     1      -9.602   8.565  67.904  1.00  0.00    -0.177 A  
HETATM    9  C   UNL     1      -7.620   9.398  66.427  1.00  0.00    -0.097 A  
HETATM   10  C   UNL     1      -7.623  10.003  65.165  1.00  0.00    -0.138 A  
HETATM   11  C   UNL     1     -10.462   8.551  69.023  1.00  0.00    -0.200 A  
HETATM   12  C   UNL     1     -11.205   7.399  69.345  1.00  0.00     0.034 A  
HETATM   13  C   UNL     1      -6.923   9.491  64.073  1.00  0.00    -0.105 A  
HETATM   14  C   UNL     1      -5.991   7.822  65.509  1.00  0.00    -0.038 A  
HETATM   15  C   UNL     1     -11.142   6.256  68.548  1.00  0.00    -0.397 A  
HETATM   16  C   UNL     1      -6.134   8.369  64.236  1.00  0.00    -0.066 A  
HETATM   17  C   UNL     1      -9.582   7.385  67.120  1.00  0.00    -0.204 A  
HETATM   18  C   UNL     1     -10.323   6.234  67.424  1.00  0.00    -0.262 A  
HETATM   19  C   UNL     1      -6.690   8.353  66.605  1.00  0.00    -0.061 A  
BRANCH  11  20
HETATM   20  O   UNL     1     -10.515   9.666  69.905  1.00  0.00    -0.217 OA 
BRANCH  20  21
HETATM   21  C   UNL     1     -11.701  10.418  70.013  1.00  0.00    -0.286 C  
HETATM   22  O   UNL     1     -12.289  10.974  69.093  1.00  0.00    -0.451 OA 
HETATM   23  C   UNL     1     -12.176  10.456  71.459  1.00  0.00    -0.418 C  
HETATM   24  C   UNL     1     -13.057   9.246  71.767  1.00  0.00    -0.472 C  
HETATM   25  C   UNL     1     -12.960  11.744  71.722  1.00  0.00    -0.466 C  
ENDBRANCH  20  21
ENDBRANCH  11  20
BRANCH  18  26
HETATM   26  C   UNL     1     -10.155   4.964  66.623  1.00  0.00    -0.249 C  
HETATM   27  O   UNL     1     -11.163   4.804  65.629  1.00  0.00    -0.888 OA 
HETATM   28  H   UNL     1     -11.058   4.006  65.125  1.00  0.00     0.000 HD 
ENDBRANCH  18  26
ENDBRANCH   5   6
ENDBRANCH   4   5
BRANCH   4  29
HETATM   29  C   UNL     1     -10.703  13.452  66.686  1.00  0.00    -0.282 C  
HETATM   30  C   UNL     1      -9.937  14.641  66.082  1.00  0.00    -0.323 C  
HETATM   31  C   UNL     1     -11.926  14.097  67.384  1.00  0.00    -0.439 C  
ENDBRANCH   4  29
ENDBRANCH   2   4
TORSDOF 7
ENDMDL
MODEL       20
REMARK 921   NORMALIZED FREE ENERGY PREDICTED BY IDOCK:   -6.19 KCAL/MOL
REMARK 922        TOTAL FREE ENERGY PREDICTED BY IDOCK:  -10.13 KCAL/MOL
REMARK 923 INTER-LIGAND FREE ENERGY PREDICTED BY IDOCK:   -8.21 KCAL/MOL
REMARK 924 INTRA-LIGAND FREE ENERGY PREDICTED BY IDOCK:   -1.93 KCAL/MOL
REMARK 927      BINDING AFFINITY PREDICTED BY RF-SCORE:    0.00 PKD
ROOT
HETATM    1  C   UNL     1     -11.420  14.329  70.493  1.00  0.00    -0.151 C  
HETATM    2  C   UNL     1     -11.586  14.294  68.954  1.00  0.00    -0.305 C  
HETATM    3  C   UNL     1     -11.936  15.745  68.587  1.00  0.00    -0.165 C  
ENDROOT
BRANCH   2   4
HETATM    4  N   UNL     1     -10.414  13.688  68.234  1.00  0.00    -0.242 NA 
BRANCH   4   5
HETATM    5  C   UNL     1      -9.119  14.373  68.539  1.00  0.00    -0.193 C  
BRANCH   5   6
HETATM    6  C   UNL     1      -8.242  14.771  67.321  1.00  0.00    -0.237 C  
HETATM    7  C   UNL     1      -7.758  16.263  67.244  1.00  0.00    -0.210 C  
HETATM    8  C   UNL     1      -8.939  17.267  67.182  1.00  0.00    -0.236 A  
HETATM    9  C   UNL     1      -6.660  16.643  68.285  1.00  0.00    -0.138 A  
HETATM   10  C   UNL     1      -6.383  15.849  69.405  1.00  0.00    -0.160 A  
HETATM   11  C   UNL     1      -9.922  17.284  66.169  1.00  0.00    -0.275 A  
HETATM   12  C   UNL     1     -10.910  18.288  66.141  1.00  0.00     0.005 A  
HETATM   13  C   UNL     1      -5.661  16.310  70.505  1.00  0.00    -0.098 A  
HETATM   14  C   UNL     1      -5.263  18.355  69.333  1.00  0.00    -0.197 A  
HETATM   15  C   UNL     1     -10.967  19.269  67.131  1.00  0.00    -0.439 A  
HETATM   16  C   UNL     1      -5.131  17.586  70.486  1.00  0.00    -0.257 A  
HETATM   17  C   UNL     1      -9.047  18.277  68.169  1.00  0.00    -0.310 A  
HETATM   18  C   UNL     1     -10.030  19.278  68.159  1.00  0.00    -0.482 A  
HETATM   19  C   UNL     1      -5.981  17.877  68.224  1.00  0.00    -0.172 A  
BRANCH  11  20
HETATM   20  O   UNL     1      -9.871  16.346  65.100  1.00  0.00    -0.414 OA 
BRANCH  20  21
HETATM   21  C   UNL     1     -11.061  15.759  64.626  1.00  0.00    -0.361 C  
HETATM   22  O   UNL     1     -11.837  16.253  63.817  1.00  0.00    -0.955 OA 
HETATM   23  C   UNL     1     -11.270  14.392  65.265  1.00  0.00    -0.345 C  
HETATM   24  C   UNL     1     -10.554  13.309  64.459  1.00  0.00    -0.437 C  
HETATM   25  C   UNL     1     -12.764  14.072  65.347  1.00  0.00    -0.499 C  
ENDBRANCH  20  21
ENDBRANCH  11  20
BRANCH  18  26
HETATM   26  C   UNL     1     -10.009  20.403  69.168  1.00  0.00     0.212 C  
HETATM   27  O   UNL     1     -10.601  20.037  70.410  1.00  0.00    -0.418 OA 
HETATM   28  H   UNL     1     -10.588  20.744  71.045  1.00  0.00     0.000 HD 
ENDBRANCH  18  26
ENDBRANCH   5   6
ENDBRANCH   4   5
BRANCH   4  29
HETATM   29  C   UNL     1     -10.262  12.201  68.292  1.00  0.00    -0.208 C  
HETATM   30  C   UNL     1     -11.401  11.394  67.648  1.00  0.00    -0.359 C  
HETATM   31  C   UNL     1      -8.984  11.710  67.568  1.00  0.00    -0.165 C  
ENDBRANCH   4  29
ENDBRANCH   2   4
TORSDOF 7
ENDMDL
MODEL       21
REMARK 921   NORMALIZED FREE ENERGY PREDICTED BY IDOCK:   -6.18 KCAL/MOL
REMARK 922        TOTAL FREE ENERGY PREDICTED BY IDOCK:  -10.12 KCAL/MOL
REMARK 923 INTER-LIGAND FREE ENERGY PREDICTED BY IDOCK:   -8.43 KCAL/MOL
REMARK 924 INTRA-LIGAND FREE ENERGY PREDICTED BY IDOCK:   -1.69 KCAL/MOL
REMARK 927      BINDING AFFINITY PREDICTED BY RF-SCORE:    0.00 PKD
ROOT
HETATM    1  C   UNL     1      -7.344   8.955  68.027  1.00  0.00    -0.084 C  
HETATM    2  C   UNL     1      -7.150  10.072  66.974  1.00  0.00    -0.089 C  
HETATM    3  C   UNL     1      -7.505   9.392  65.642  1.00  0.00    -0.095 C  
ENDROOT
BRANCH   2   4
HETATM    4  N   UNL     1      -7.892  11.339  67.296  1.00  0.00    -0.134 NA 
BRANCH   4   5
HETATM    5  C   UNL     1      -8.967  11.147  68.320  1.00  0.00    -0.166 C  
BRANCH   5   6
HETATM    6  C   UNL     1     -10.315  10.569  67.810  1.00  0.00    -0.248 C  
HETATM    7  C   UNL     1     -11.530  11.560  67.719  1.00  0.00    -0.357 C  
HETATM    8  C   UNL     1     -11.898  12.175  69.095  1.00  0.00    -0.361 A  
HETATM    9  C   UNL     1     -11.428  12.607  66.566  1.00  0.00    -0.409 A  
HETATM   10  C   UNL     1     -10.225  12.874  65.901  1.00  0.00    -0.299 A  
HETATM   11  C   UNL     1     -12.286  11.427  70.227  1.00  0.00    -0.349 A  
HETATM   12  C   UNL     1     -12.689  12.072  71.412  1.00  0.00    -0.380 A  
HETATM   13  C   UNL     1     -10.025  14.007  65.115  1.00  0.00    -0.257 A  
HETATM   14  C   UNL     1     -12.320  14.588  65.445  1.00  0.00    -0.286 A  
HETATM   15  C   UNL     1     -12.681  13.464  71.513  1.00  0.00    -0.386 A  
HETATM   16  C   UNL     1     -11.067  14.892  64.918  1.00  0.00    -0.424 A  
HETATM   17  C   UNL     1     -11.896  13.583  69.251  1.00  0.00    -0.392 A  
HETATM   18  C   UNL     1     -12.287  14.239  70.428  1.00  0.00    -0.419 A  
HETATM   19  C   UNL     1     -12.515  13.437  66.225  1.00  0.00    -0.338 A  
BRANCH  11  20
HETATM   20  O   UNL     1     -12.374  10.009  70.158  1.00  0.00    -0.143 OA 
BRANCH  20  21
HETATM   21  C   UNL     1     -11.836   9.222  71.196  1.00  0.00    -0.325 C  
HETATM   22  O   UNL     1     -12.399   8.928  72.244  1.00  0.00    -0.373 OA 
HETATM   23  C   UNL     1     -10.426   8.769  70.842  1.00  0.00    -0.278 C  
HETATM   24  C   UNL     1     -10.466   7.469  70.039  1.00  0.00    -0.231 C  
HETATM   25  C   UNL     1      -9.605   8.561  72.117  1.00  0.00    -0.382 C  
ENDBRANCH  20  21
ENDBRANCH  11  20
BRANCH  18  26
HETATM   26  C   UNL     1     -12.388  15.746  70.485  1.00  0.00    -0.350 C  
HETATM   27  O   UNL     1     -12.041  16.271  71.762  1.00  0.00    -0.588 OA 
HETATM   28  H   UNL     1     -12.104  17.219  71.799  1.00  0.00     0.000 HD 
ENDBRANCH  18  26
ENDBRANCH   5   6
ENDBRANCH   4   5
BRANCH   4  29
HETATM   29  C   UNL     1      -7.080  12.559  67.592  1.00  0.00    -0.139 C  
HETATM   30  C   UNL     1      -7.691  13.528  68.618  1.00  0.00    -0.093 C  
HETATM   31  C   UNL     1      -5.685  12.215  68.169  1.00  0.00    -0.053 C  
ENDBRANCH   4  29
ENDBRANCH   2   4
TORSDOF 7
ENDMDL
MODEL       22
REMARK 921   NORMALIZED FREE ENERGY PREDICTED BY IDOCK:   -6.14 KCAL/MOL
REMARK 922        TOTAL FREE ENERGY PREDICTED BY IDOCK:  -10.06 KCAL/MOL
REMARK 923 INTER-LIGAND FREE ENERGY PREDICTED BY IDOCK:   -7.63 KCAL/MOL
REMARK 924 INTRA-LIGAND FREE ENERGY PREDICTED BY IDOCK:   -2.43 KCAL/MOL
REMARK 927      BINDING AFFINITY PREDICTED BY RF-SCORE:    0.00 PKD
ROOT
HETATM    1  C   UNL     1     -12.974  14.470  65.895  1.00  0.00     0.191 C  
HETATM    2  C   UNL     1     -11.791  13.884  65.088  1.00  0.00    -0.362 C  
HETATM    3  C   UNL     1     -11.028  15.125  64.595  1.00  0.00    -0.321 C  
ENDROOT
BRANCH   2   4
HETATM    4  N   UNL     1     -10.988  12.866  65.848  1.00  0.00    -0.273 NA 
BRANCH   4   5
HETATM    5  C   UNL     1     -11.451  12.687  67.260  1.00  0.00    -0.342 C  
BRANCH   5   6
HETATM    6  C   UNL     1     -10.350  12.666  68.354  1.00  0.00    -0.241 C  
HETATM    7  C   UNL     1     -10.096  14.002  69.141  1.00  0.00     0.021 C  
HETATM    8  C   UNL     1      -9.659  15.165  68.210  1.00  0.00    -0.211 A  
HETATM    9  C   UNL     1     -11.226  14.387  70.145  1.00  0.00    -0.152 A  
HETATM   10  C   UNL     1     -12.498  13.803  70.101  1.00  0.00    -0.332 A  
HETATM   11  C   UNL     1      -8.507  15.147  67.395  1.00  0.00    -0.183 A  
HETATM   12  C   UNL     1      -8.137  16.282  66.648  1.00  0.00    -0.323 A  
HETATM   13  C   UNL     1     -13.607  14.344  70.750  1.00  0.00    -0.024 A  
HETATM   14  C   UNL     1     -12.180  16.003  71.713  1.00  0.00    -0.535 A  
HETATM   15  C   UNL     1      -8.916  17.439  66.663  1.00  0.00    -0.274 A  
HETATM   16  C   UNL     1     -13.456  15.475  71.528  1.00  0.00    -0.582 A  
HETATM   17  C   UNL     1     -10.422  16.358  68.183  1.00  0.00    -0.302 A  
HETATM   18  C   UNL     1     -10.070  17.493  67.437  1.00  0.00    -0.325 A  
HETATM   19  C   UNL     1     -11.067  15.443  71.065  1.00  0.00    -0.377 A  
BRANCH  11  20
HETATM   20  O   UNL     1      -7.643  14.017  67.393  1.00  0.00    -0.178 OA 
BRANCH  20  21
HETATM   21  C   UNL     1      -6.356  14.119  67.956  1.00  0.00    -0.149 C  
HETATM   22  O   UNL     1      -5.304  14.231  67.337  1.00  0.00    -0.336 OA 
HETATM   23  C   UNL     1      -6.435  14.070  69.476  1.00  0.00    -0.122 C  
HETATM   24  C   UNL     1      -6.666  15.469  70.047  1.00  0.00    -0.052 C  
HETATM   25  C   UNL     1      -5.144  13.485  70.053  1.00  0.00    -0.085 C  
ENDBRANCH  20  21
ENDBRANCH  11  20
BRANCH  18  26
HETATM   26  C   UNL     1     -10.855  18.778  67.555  1.00  0.00    -0.331 C  
HETATM   27  O   UNL     1     -10.687  19.630  66.425  1.00  0.00    -0.458 OA 
HETATM   28  H   UNL     1     -11.181  20.438  66.499  1.00  0.00     0.000 HD 
ENDBRANCH  18  26
ENDBRANCH   5   6
ENDBRANCH   4   5
BRANCH   4  29
HETATM   29  C   UNL     1     -10.747  11.545  65.190  1.00  0.00    -0.289 C  
HETATM   30  C   UNL     1     -11.084  11.480  63.692  1.00  0.00    -0.469 C  
HETATM   31  C   UNL     1      -9.264  11.106  65.271  1.00  0.00    -0.218 C  
ENDBRANCH   4  29
ENDBRANCH   2   4
TORSDOF 7
ENDMDL
MODEL       23
REMARK 921   NORMALIZED FREE ENERGY PREDICTED BY IDOCK:   -6.06 KCAL/MOL
REMARK 922        TOTAL FREE ENERGY PREDICTED BY IDOCK:   -9.94 KCAL/MOL
REMARK 923 INTER-LIGAND FREE ENERGY PREDICTED BY IDOCK:   -8.28 KCAL/MOL
REMARK 924 INTRA-LIGAND FREE ENERGY PREDICTED BY IDOCK:   -1.66 KCAL/MOL
REMARK 927      BINDING AFFINITY PREDICTED BY RF-SCORE:    0.00 PKD
ROOT
HETATM    1  C   UNL     1      -8.322  11.328  68.218  1.00  0.00    -0.150 C  
HETATM    2  C   UNL     1      -7.035  11.637  67.416  1.00  0.00    -0.117 C  
HETATM    3  C   UNL     1      -7.303  11.022  66.033  1.00  0.00    -0.025 C  
ENDROOT
BRANCH   2   4
HETATM    4  N   UNL     1      -6.646  13.090  67.436  1.00  0.00    -0.167 NA 
BRANCH   4   5
HETATM    5  C   UNL     1      -7.773  13.994  67.826  1.00  0.00    -0.172 C  
BRANCH   5   6
HETATM    6  C   UNL     1      -8.813  14.322  66.720  1.00  0.00    -0.207 C  
HETATM    7  C   UNL     1     -10.015  15.251  67.120  1.00  0.00    -0.233 C  
HETATM    8  C   UNL     1     -10.878  14.647  68.259  1.00  0.00    -0.249 A  
HETATM    9  C   UNL     1      -9.632  16.747  67.344  1.00  0.00    -0.236 A  
HETATM   10  C   UNL     1      -8.306  17.162  67.521  1.00  0.00    -0.199 A  
HETATM   11  C   UNL     1     -11.550  13.408  68.182  1.00  0.00    -0.341 A  
HETATM   12  C   UNL     1     -12.386  12.976  69.230  1.00  0.00     0.017 A  
HETATM   13  C   UNL     1      -7.962  18.409  68.040  1.00  0.00    -0.289 A  
HETATM   14  C   UNL     1     -10.279  18.997  68.050  1.00  0.00    -0.476 A  
HETATM   15  C   UNL     1     -12.542  13.740  70.387  1.00  0.00    -0.325 A  
HETATM   16  C   UNL     1      -8.956  19.318  68.346  1.00  0.00    -0.397 A  
HETATM   17  C   UNL     1     -11.060  15.379  69.458  1.00  0.00    -0.284 A  
HETATM   18  C   UNL     1     -11.882  14.957  70.513  1.00  0.00    -0.358 A  
HETATM   19  C   UNL     1     -10.615  17.743  67.514  1.00  0.00    -0.365 A  
BRANCH  11  20
HETATM   20  O   UNL     1     -11.477  12.621  66.999  1.00  0.00    -0.306 OA 
BRANCH  20  21
HETATM   21  C   UNL     1     -12.205  13.006  65.856  1.00  0.00    -0.432 C  
HETATM   22  O   UNL     1     -13.092  13.852  65.816  1.00  0.00    -0.526 OA 
HETATM   23  C   UNL     1     -11.740  12.217  64.639  1.00  0.00    -0.420 C  
HETATM   24  C   UNL     1     -10.554  12.911  63.970  1.00  0.00    -0.418 C  
HETATM   25  C   UNL     1     -12.886  12.074  63.635  1.00  0.00    -0.472 C  
ENDBRANCH  20  21
ENDBRANCH  11  20
BRANCH  18  26
HETATM   26  C   UNL     1     -12.137  15.847  71.708  1.00  0.00    -0.492 C  
HETATM   27  O   UNL     1     -11.436  17.084  71.631  1.00  0.00    -0.359 OA 
HETATM   28  H   UNL     1     -11.596  17.644  72.382  1.00  0.00     0.000 HD 
ENDBRANCH  18  26
ENDBRANCH   5   6
ENDBRANCH   4   5
BRANCH   4  29
HETATM   29  C   UNL     1      -5.388  13.458  68.156  1.00  0.00    -0.105 C  
HETATM   30  C   UNL     1      -5.273  14.933  68.574  1.00  0.00    -0.102 C  
HETATM   31  C   UNL     1      -5.210  12.667  69.475  1.00  0.00    -0.073 C  
ENDBRANCH   4  29
ENDBRANCH   2   4
TORSDOF 7
ENDMDL
MODEL       24
REMARK 921   NORMALIZED FREE ENERGY PREDICTED BY IDOCK:   -6.00 KCAL/MOL
REMARK 922        TOTAL FREE ENERGY PREDICTED BY IDOCK:   -9.87 KCAL/MOL
REMARK 923 INTER-LIGAND FREE ENERGY PREDICTED BY IDOCK:   -7.84 KCAL/MOL
REMARK 924 INTRA-LIGAND FREE ENERGY PREDICTED BY IDOCK:   -2.02 KCAL/MOL
REMARK 927      BINDING AFFINITY PREDICTED BY RF-SCORE:    0.00 PKD
ROOT
HETATM    1  C   UNL     1      -6.305   9.596  66.955  1.00  0.00    -0.066 C  
HETATM    2  C   UNL     1      -6.701   8.105  67.080  1.00  0.00    -0.065 C  
HETATM    3  C   UNL     1      -5.503   7.462  67.797  1.00  0.00    -0.026 C  
ENDROOT
BRANCH   2   4
HETATM    4  N   UNL     1      -8.049   7.890  67.711  1.00  0.00    -0.127 NA 
BRANCH   4   5
HETATM    5  C   UNL     1      -8.834   9.156  67.864  1.00  0.00    -0.128 C  
BRANCH   5   6
HETATM    6  C   UNL     1     -10.301   9.127  67.356  1.00  0.00    -0.330 C  
HETATM    7  C   UNL     1     -10.779  10.340  66.480  1.00  0.00    -0.148 C  
HETATM    8  C   UNL     1     -10.685  11.692  67.237  1.00  0.00    -0.281 A  
HETATM    9  C   UNL     1     -10.176  10.379  65.041  1.00  0.00    -0.334 A  
HETATM   10  C   UNL     1      -9.056   9.621  64.679  1.00  0.00    -0.286 A  
HETATM   11  C   UNL     1     -11.365  11.984  68.439  1.00  0.00    -0.279 A  
HETATM   12  C   UNL     1     -11.293  13.268  69.012  1.00  0.00    -0.334 A  
HETATM   13  C   UNL     1      -8.306   9.872  63.530  1.00  0.00    -0.166 A  
HETATM   14  C   UNL     1      -9.892  11.553  62.915  1.00  0.00    -0.279 A  
HETATM   15  C   UNL     1     -10.521  14.274  68.430  1.00  0.00    -0.249 A  
HETATM   16  C   UNL     1      -8.703  10.872  62.663  1.00  0.00    -0.308 A  
HETATM   17  C   UNL     1      -9.906  12.742  66.692  1.00  0.00    -0.250 A  
HETATM   18  C   UNL     1      -9.819  14.023  67.257  1.00  0.00    -0.242 A  
HETATM   19  C   UNL     1     -10.647  11.283  64.068  1.00  0.00    -0.450 A  
BRANCH  11  20
HETATM   20  O   UNL     1     -12.217  11.015  69.038  1.00  0.00    -0.483 OA 
BRANCH  20  21
HETATM   21  C   UNL     1     -11.894  10.483  70.302  1.00  0.00    -0.331 C  
HETATM   22  O   UNL     1     -10.798  10.055  70.645  1.00  0.00    -0.304 OA 
HETATM   23  C   UNL     1     -13.112  10.507  71.216  1.00  0.00    -0.478 C  
HETATM   24  C   UNL     1     -13.214  11.849  71.940  1.00  0.00    -0.467 C  
HETATM   25  C   UNL     1     -13.022   9.374  72.242  1.00  0.00    -0.479 C  
ENDBRANCH  20  21
ENDBRANCH  11  20
BRANCH  18  26
HETATM   26  C   UNL     1      -9.076  15.136  66.554  1.00  0.00    -0.294 C  
HETATM   27  O   UNL     1      -7.672  15.094  66.790  1.00  0.00    -0.286 OA 
HETATM   28  H   UNL     1      -7.206  15.794  66.348  1.00  0.00     0.000 HD 
ENDBRANCH  18  26
ENDBRANCH   5   6
ENDBRANCH   4   5
BRANCH   4  29
HETATM   29  C   UNL     1      -8.902   6.792  67.161  1.00  0.00    -0.119 C  
HETATM   30  C   UNL     1      -8.439   6.204  65.818  1.00  0.00    -0.147 C  
HETATM   31  C   UNL     1      -8.978   5.571  68.111  1.00  0.00    -0.108 C  
ENDBRANCH   4  29
ENDBRANCH   2   4
TORSDOF 7
ENDMDL
MODEL       25
REMARK 921   NORMALIZED FREE ENERGY PREDICTED BY IDOCK:   -5.97 KCAL/MOL
REMARK 922        TOTAL FREE ENERGY PREDICTED BY IDOCK:   -9.82 KCAL/MOL
REMARK 923 INTER-LIGAND FREE ENERGY PREDICTED BY IDOCK:   -8.45 KCAL/MOL
REMARK 924 INTRA-LIGAND FREE ENERGY PREDICTED BY IDOCK:   -1.36 KCAL/MOL
REMARK 927      BINDING AFFINITY PREDICTED BY RF-SCORE:    0.00 PKD
ROOT
HETATM    1  C   UNL     1     -12.845  11.888  63.468  1.00  0.00    -0.435 C  
HETATM    2  C   UNL     1     -11.515  12.659  63.653  1.00  0.00    -0.495 C  
HETATM    3  C   UNL     1     -11.958  14.052  64.129  1.00  0.00    -0.439 C  
ENDROOT
BRANCH   2   4
HETATM    4  N   UNL     1     -10.519  11.943  64.522  1.00  0.00    -0.279 NA 
BRANCH   4   5
HETATM    5  C   UNL     1     -10.939  11.867  65.957  1.00  0.00    -0.309 C  
BRANCH   5   6
HETATM    6  C   UNL     1     -10.532  13.061  66.862  1.00  0.00    -0.258 C  
HETATM    7  C   UNL     1      -9.762  12.724  68.189  1.00  0.00    -0.223 C  
HETATM    8  C   UNL     1     -10.586  11.815  69.139  1.00  0.00    -0.109 A  
HETATM    9  C   UNL     1      -8.289  12.251  67.981  1.00  0.00    -0.165 A  
HETATM   10  C   UNL     1      -7.808  11.826  66.737  1.00  0.00    -0.103 A  
HETATM   11  C   UNL     1     -11.846  12.154  69.676  1.00  0.00    -0.322 A  
HETATM   12  C   UNL     1     -12.485  11.307  70.602  1.00  0.00    -0.439 A  
HETATM   13  C   UNL     1      -6.627  11.102  66.584  1.00  0.00    -0.137 A  
HETATM   14  C   UNL     1      -6.219  11.357  68.926  1.00  0.00    -0.053 A  
HETATM   15  C   UNL     1     -11.909  10.096  70.986  1.00  0.00    -0.475 A  
HETATM   16  C   UNL     1      -5.847  10.829  67.692  1.00  0.00    -0.043 A  
HETATM   17  C   UNL     1     -10.049  10.570  69.550  1.00  0.00    -0.208 A  
HETATM   18  C   UNL     1     -10.678   9.713  70.465  1.00  0.00    -0.374 A  
HETATM   19  C   UNL     1      -7.404  12.097  69.067  1.00  0.00     0.000 A  
BRANCH  11  20
HETATM   20  O   UNL     1     -12.447  13.407  69.369  1.00  0.00    -0.153 OA 
BRANCH  20  21
HETATM   21  C   UNL     1     -12.074  14.558  70.091  1.00  0.00    -0.334 C  
HETATM   22  O   UNL     1     -11.380  15.478  69.674  1.00  0.00    -0.268 OA 
HETATM   23  C   UNL     1     -12.657  14.515  71.497  1.00  0.00    -0.419 C  
HETATM   24  C   UNL     1     -14.065  15.107  71.513  1.00  0.00    -0.636 C  
HETATM   25  C   UNL     1     -11.760  15.293  72.463  1.00  0.00    -0.535 C  
ENDBRANCH  20  21
ENDBRANCH  11  20
BRANCH  18  26
HETATM   26  C   UNL     1      -9.991   8.463  70.963  1.00  0.00    -0.190 C  
HETATM   27  O   UNL     1      -9.957   8.383  72.384  1.00  0.00    -0.279 OA 
HETATM   28  H   UNL     1      -9.525   7.596  72.697  1.00  0.00     0.000 HD 
ENDBRANCH  18  26
ENDBRANCH   5   6
ENDBRANCH   4   5
BRANCH   4  29
HETATM   29  C   UNL     1     -10.007  10.623  64.042  1.00  0.00    -0.337 C  
HETATM   30  C   UNL     1      -8.658  10.664  63.306  1.00  0.00    -0.151 C  
HETATM   31  C   UNL     1      -9.783   9.619  65.200  1.00  0.00    -0.287 C  
ENDBRANCH   4  29
ENDBRANCH   2   4
TORSDOF 7
ENDMDL
MODEL       26
REMARK 921   NORMALIZED FREE ENERGY PREDICTED BY IDOCK:   -5.97 KCAL/MOL
REMARK 922        TOTAL FREE ENERGY PREDICTED BY IDOCK:   -9.81 KCAL/MOL
REMARK 923 INTER-LIGAND FREE ENERGY PREDICTED BY IDOCK:   -8.28 KCAL/MOL
REMARK 924 INTRA-LIGAND FREE ENERGY PREDICTED BY IDOCK:   -1.53 KCAL/MOL
REMARK 927      BINDING AFFINITY PREDICTED BY RF-SCORE:    0.00 PKD
ROOT
HETATM    1  C   UNL     1     -12.480  11.959  63.209  1.00  0.00    -0.506 C  
HETATM    2  C   UNL     1     -11.500  12.623  64.207  1.00  0.00    -0.363 C  
HETATM    3  C   UNL     1     -12.363  12.894  65.449  1.00  0.00    -0.538 C  
ENDROOT
BRANCH   2   4
HETATM    4  N   UNL     1     -10.240  11.834  64.429  1.00  0.00    -0.273 NA 
BRANCH   4   5
HETATM    5  C   UNL     1     -10.092  11.348  65.837  1.00  0.00    -0.243 C  
BRANCH   5   6
HETATM    6  C   UNL     1      -8.914  11.943  66.656  1.00  0.00    -0.198 C  
HETATM    7  C   UNL     1      -8.871  11.615  68.191  1.00  0.00    -0.164 C  
HETATM    8  C   UNL     1     -10.129  12.127  68.943  1.00  0.00    -0.012 A  
HETATM    9  C   UNL     1      -8.491  10.139  68.529  1.00  0.00    -0.121 A  
HETATM   10  C   UNL     1      -8.530   9.119  67.571  1.00  0.00    -0.116 A  
HETATM   11  C   UNL     1     -10.531  13.478  69.000  1.00  0.00    -0.051 A  
HETATM   12  C   UNL     1     -11.637  13.867  69.780  1.00  0.00    -0.335 A  
HETATM   13  C   UNL     1      -8.519   7.764  67.901  1.00  0.00    -0.122 A  
HETATM   14  C   UNL     1      -8.220   8.369  70.194  1.00  0.00    -0.117 A  
HETATM   15  C   UNL     1     -12.387  12.926  70.486  1.00  0.00    -0.362 A  
HETATM   16  C   UNL     1      -8.405   7.386  69.225  1.00  0.00    -0.132 A  
HETATM   17  C   UNL     1     -10.929  11.209  69.667  1.00  0.00    -0.254 A  
HETATM   18  C   UNL     1     -12.038  11.581  70.441  1.00  0.00    -0.471 A  
HETATM   19  C   UNL     1      -8.218   9.732  69.850  1.00  0.00    -0.196 A  
BRANCH  11  20
HETATM   20  O   UNL     1      -9.763  14.486  68.353  1.00  0.00    -0.211 OA 
BRANCH  20  21
HETATM   21  C   UNL     1     -10.404  15.437  67.535  1.00  0.00    -0.264 C  
HETATM   22  O   UNL     1     -11.401  16.088  67.829  1.00  0.00    -0.282 OA 
HETATM   23  C   UNL     1      -9.684  15.561  66.199  1.00  0.00    -0.348 C  
HETATM   24  C   UNL     1      -8.550  16.581  66.293  1.00  0.00    -0.367 C  
HETATM   25  C   UNL     1     -10.668  15.984  65.106  1.00  0.00    -0.429 C  
ENDBRANCH  20  21
ENDBRANCH  11  20
BRANCH  18  26
HETATM   26  C   UNL     1     -12.769  10.570  71.294  1.00  0.00    -0.428 C  
HETATM   27  O   UNL     1     -13.485  11.173  72.367  1.00  0.00    -0.590 OA 
HETATM   28  H   UNL     1     -13.945  10.538  72.903  1.00  0.00     0.000 HD 
ENDBRANCH  18  26
ENDBRANCH   5   6
ENDBRANCH   4   5
BRANCH   4  29
HETATM   29  C   UNL     1      -9.922  10.749  63.451  1.00  0.00    -0.328 C  
HETATM   30  C   UNL     1      -8.937  11.133  62.334  1.00  0.00    -0.321 C  
HETATM   31  C   UNL     1      -9.277   9.514  64.127  1.00  0.00    -0.142 C  
ENDBRANCH   4  29
ENDBRANCH   2   4
TORSDOF 7
ENDMDL
MODEL       27
REMARK 921   NORMALIZED FREE ENERGY PREDICTED BY IDOCK:   -5.95 KCAL/MOL
REMARK 922        TOTAL FREE ENERGY PREDICTED BY IDOCK:   -9.79 KCAL/MOL
REMARK 923 INTER-LIGAND FREE ENERGY PREDICTED BY IDOCK:   -8.22 KCAL/MOL
REMARK 924 INTRA-LIGAND FREE ENERGY PREDICTED BY IDOCK:   -1.56 KCAL/MOL
REMARK 927      BINDING AFFINITY PREDICTED BY RF-SCORE:    0.00 PKD
ROOT
HETATM    1  C   UNL     1     -10.889  14.995  64.941  1.00  0.00    -0.430 C  
HETATM    2  C   UNL     1     -10.702  13.776  65.876  1.00  0.00    -0.285 C  
HETATM    3  C   UNL     1     -12.060  13.640  66.584  1.00  0.00    -0.459 C  
ENDROOT
BRANCH   2   4
HETATM    4  N   UNL     1     -10.191  12.549  65.172  1.00  0.00    -0.284 NA 
BRANCH   4   5
HETATM    5  C   UNL     1     -10.268  11.314  66.015  1.00  0.00    -0.247 C  
BRANCH   5   6
HETATM    6  C   UNL     1      -9.283  11.230  67.212  1.00  0.00    -0.170 C  
HETATM    7  C   UNL     1      -8.555   9.858  67.445  1.00  0.00    -0.125 C  
HETATM    8  C   UNL     1      -9.549   8.696  67.712  1.00  0.00    -0.178 A  
HETATM    9  C   UNL     1      -7.456   9.520  66.389  1.00  0.00    -0.097 A  
HETATM   10  C   UNL     1      -7.367  10.188  65.162  1.00  0.00    -0.141 A  
HETATM   11  C   UNL     1     -10.469   8.661  68.782  1.00  0.00    -0.185 A  
HETATM   12  C   UNL     1     -11.273   7.526  69.002  1.00  0.00     0.230 A  
HETATM   13  C   UNL     1      -6.628   9.704  64.084  1.00  0.00    -0.112 A  
HETATM   14  C   UNL     1      -5.843   7.926  65.476  1.00  0.00    -0.038 A  
HETATM   15  C   UNL     1     -11.210   6.423  68.149  1.00  0.00    -0.270 A  
HETATM   16  C   UNL     1      -5.893   8.542  64.228  1.00  0.00    -0.065 A  
HETATM   17  C   UNL     1      -9.531   7.558  66.869  1.00  0.00    -0.219 A  
HETATM   18  C   UNL     1     -10.332   6.424  67.071  1.00  0.00    -0.307 A  
HETATM   19  C   UNL     1      -6.580   8.429  66.561  1.00  0.00    -0.056 A  
BRANCH  11  20
HETATM   20  O   UNL     1     -10.527   9.731  69.718  1.00  0.00    -0.215 OA 
BRANCH  20  21
HETATM   21  C   UNL     1     -11.707  10.490  69.842  1.00  0.00    -0.294 C  
HETATM   22  O   UNL     1     -12.301  11.054  68.931  1.00  0.00    -0.516 OA 
HETATM   23  C   UNL     1     -12.167  10.523  71.293  1.00  0.00    -0.472 C  
HETATM   24  C   UNL     1     -13.052   9.316  71.603  1.00  0.00    -0.451 C  
HETATM   25  C   UNL     1     -12.941  11.814  71.571  1.00  0.00    -0.446 C  
ENDBRANCH  20  21
ENDBRANCH  11  20
BRANCH  18  26
HETATM   26  C   UNL     1     -10.170   5.191  66.213  1.00  0.00    -0.253 C  
HETATM   27  O   UNL     1     -11.291   4.960  65.366  1.00  0.00    -0.881 OA 
HETATM   28  H   UNL     1     -11.189   4.185  64.826  1.00  0.00     0.000 HD 
ENDBRANCH  18  26
ENDBRANCH   5   6
ENDBRANCH   4   5
BRANCH   4  29
HETATM   29  C   UNL     1     -10.693  12.287  63.788  1.00  0.00    -0.449 C  
HETATM   30  C   UNL     1      -9.912  11.231  62.989  1.00  0.00    -0.345 C  
HETATM   31  C   UNL     1     -12.155  11.776  63.777  1.00  0.00    -0.463 C  
ENDBRANCH   4  29
ENDBRANCH   2   4
TORSDOF 7
ENDMDL
MODEL       28
REMARK 921   NORMALIZED FREE ENERGY PREDICTED BY IDOCK:   -5.90 KCAL/MOL
REMARK 922        TOTAL FREE ENERGY PREDICTED BY IDOCK:   -9.72 KCAL/MOL
REMARK 923 INTER-LIGAND FREE ENERGY PREDICTED BY IDOCK:   -7.46 KCAL/MOL
REMARK 924 INTRA-LIGAND FREE ENERGY PREDICTED BY IDOCK:   -2.25 KCAL/MOL
REMARK 927      BINDING AFFINITY PREDICTED BY RF-SCORE:    0.00 PKD
ROOT
HETATM    1  C   UNL     1     -10.762   6.188  66.649  1.00  0.00    -0.301 C  
HETATM    2  C   UNL     1      -9.389   5.476  66.710  1.00  0.00    -0.132 C  
HETATM    3  C   UNL     1      -8.599   6.094  65.545  1.00  0.00    -0.133 C  
ENDROOT
BRANCH   2   4
HETATM    4  N   UNL     1      -8.739   5.538  68.064  1.00  0.00    -0.107 NA 
BRANCH   4   5
HETATM    5  C   UNL     1      -9.483   6.400  69.035  1.00  0.00    -0.129 C  
BRANCH   5   6
HETATM    6  C   UNL     1      -8.625   7.331  69.935  1.00  0.00    -0.141 C  
HETATM    7  C   UNL     1      -9.309   7.909  71.225  1.00  0.00    -0.172 C  
HETATM    8  C   UNL     1     -10.557   8.772  70.898  1.00  0.00    -0.276 A  
HETATM    9  C   UNL     1      -9.544   6.863  72.359  1.00  0.00    -0.167 A  
HETATM   10  C   UNL     1      -9.482   5.483  72.129  1.00  0.00    -0.169 A  
HETATM   11  C   UNL     1     -10.538   9.935  70.098  1.00  0.00    -0.297 A  
HETATM   12  C   UNL     1     -11.701  10.709  69.926  1.00  0.00    -0.395 A  
HETATM   13  C   UNL     1      -9.999   4.540  73.016  1.00  0.00    -0.190 A  
HETATM   14  C   UNL     1     -10.501   6.311  74.541  1.00  0.00    -0.084 A  
HETATM   15  C   UNL     1     -12.911  10.330  70.509  1.00  0.00    -0.293 A  
HETATM   16  C   UNL     1     -10.550   4.959  74.212  1.00  0.00    -0.321 A  
HETATM   17  C   UNL     1     -11.811   8.424  71.458  1.00  0.00    -0.345 A  
HETATM   18  C   UNL     1     -12.979   9.181  71.288  1.00  0.00    -0.307 A  
HETATM   19  C   UNL     1      -9.965   7.253  73.646  1.00  0.00    -0.377 A  
BRANCH  11  20
HETATM   20  O   UNL     1      -9.318  10.402  69.535  1.00  0.00    -0.198 OA 
BRANCH  20  21
HETATM   21  C   UNL     1      -9.303  10.916  68.223  1.00  0.00    -0.168 C  
HETATM   22  O   UNL     1      -9.264  12.101  67.913  1.00  0.00    -0.175 OA 
HETATM   23  C   UNL     1      -9.344   9.782  67.207  1.00  0.00    -0.161 C  
HETATM   24  C   UNL     1      -7.933   9.285  66.900  1.00  0.00    -0.105 C  
HETATM   25  C   UNL     1     -10.016  10.256  65.916  1.00  0.00    -0.321 C  
ENDBRANCH  20  21
ENDBRANCH  11  20
BRANCH  18  26
HETATM   26  C   UNL     1     -14.253   8.825  72.021  1.00  0.00    -0.414 C  
HETATM   27  O   UNL     1     -14.121   8.931  73.435  1.00  0.00    -1.256 OA 
HETATM   28  H   UNL     1     -14.921   8.708  73.895  1.00  0.00     0.000 HD 
ENDBRANCH  18  26
ENDBRANCH   5   6
ENDBRANCH   4   5
BRANCH   4  29
HETATM   29  C   UNL     1      -8.334   4.244  68.695  1.00  0.00    -0.083 C  
HETATM   30  C   UNL     1      -9.489   3.307  69.084  1.00  0.00    -0.189 C  
HETATM   31  C   UNL     1      -7.438   3.389  67.766  1.00  0.00    -0.058 C  
ENDBRANCH   4  29
ENDBRANCH   2   4
TORSDOF 7
ENDMDL
MODEL       29
REMARK 921   NORMALIZED FREE ENERGY PREDICTED BY IDOCK:   -5.90 KCAL/MOL
REMARK 922        TOTAL FREE ENERGY PREDICTED BY IDOCK:   -9.72 KCAL/MOL
REMARK 923 INTER-LIGAND FREE ENERGY PREDICTED BY IDOCK:   -7.93 KCAL/MOL
REMARK 924 INTRA-LIGAND FREE ENERGY PREDICTED BY IDOCK:   -1.79 KCAL/MOL
REMARK 927      BINDING AFFINITY PREDICTED BY RF-SCORE:    0.00 PKD
ROOT
HETATM    1  C   UNL     1     -12.155  14.165  66.692  1.00  0.00    -0.480 C  
HETATM    2  C   UNL     1     -10.744  13.698  66.260  1.00  0.00    -0.285 C  
HETATM    3  C   UNL     1     -10.303  14.753  65.232  1.00  0.00    -0.425 C  
ENDROOT
BRANCH   2   4
HETATM    4  N   UNL     1      -9.808  13.459  67.413  1.00  0.00    -0.223 NA 
BRANCH   4   5
HETATM    5  C   UNL     1      -9.690  12.014  67.783  1.00  0.00    -0.192 C  
BRANCH   5   6
HETATM    6  C   UNL     1     -10.919  11.116  67.472  1.00  0.00    -0.331 C  
HETATM    7  C   UNL     1     -11.487  10.247  68.650  1.00  0.00    -0.178 C  
HETATM    8  C   UNL     1     -10.439   9.246  69.208  1.00  0.00    -0.228 A  
HETATM    9  C   UNL     1     -12.234  11.059  69.754  1.00  0.00    -0.388 A  
HETATM   10  C   UNL     1     -12.109  12.448  69.874  1.00  0.00    -0.317 A  
HETATM   11  C   UNL     1      -9.815   8.235  68.445  1.00  0.00    -0.172 A  
HETATM   12  C   UNL     1      -8.942   7.312  69.053  1.00  0.00    -0.134 A  
HETATM   13  C   UNL     1     -12.486  13.150  71.019  1.00  0.00    -0.406 A  
HETATM   14  C   UNL     1     -13.338  11.113  71.935  1.00  0.00    -0.409 A  
HETATM   15  C   UNL     1      -8.641   7.393  70.413  1.00  0.00    -0.144 A  
HETATM   16  C   UNL     1     -13.067  12.472  72.073  1.00  0.00    -0.472 A  
HETATM   17  C   UNL     1     -10.092   9.294  70.580  1.00  0.00    -0.339 A  
HETATM   18  C   UNL     1      -9.218   8.386  71.196  1.00  0.00    -0.218 A  
HETATM   19  C   UNL     1     -12.967  10.417  70.773  1.00  0.00    -0.422 A  
BRANCH  11  20
HETATM   20  O   UNL     1     -10.138   8.067  67.070  1.00  0.00    -0.222 OA 
BRANCH  20  21
HETATM   21  C   UNL     1      -9.109   7.852  66.131  1.00  0.00    -0.163 C  
HETATM   22  O   UNL     1      -8.770   6.769  65.668  1.00  0.00    -0.144 OA 
HETATM   23  C   UNL     1      -8.452   9.172  65.751  1.00  0.00    -0.152 C  
HETATM   24  C   UNL     1      -9.205   9.834  64.598  1.00  0.00    -0.312 C  
HETATM   25  C   UNL     1      -6.994   8.938  65.349  1.00  0.00    -0.080 C  
ENDBRANCH  20  21
ENDBRANCH  11  20
BRANCH  18  26
HETATM   26  C   UNL     1      -8.993   8.412  72.690  1.00  0.00    -0.234 C  
HETATM   27  O   UNL     1      -7.650   8.734  73.038  1.00  0.00    -0.368 OA 
HETATM   28  H   UNL     1      -7.508   8.750  73.977  1.00  0.00     0.000 HD 
ENDBRANCH  18  26
ENDBRANCH   5   6
ENDBRANCH   4   5
BRANCH   4  29
HETATM   29  C   UNL     1      -8.464  14.111  67.358  1.00  0.00    -0.203 C  
HETATM   30  C   UNL     1      -8.282  15.332  68.275  1.00  0.00    -0.142 C  
HETATM   31  C   UNL     1      -7.323  13.148  67.769  1.00  0.00    -0.143 C  
ENDBRANCH   4  29
ENDBRANCH   2   4
TORSDOF 7
ENDMDL
MODEL       30
REMARK 921   NORMALIZED FREE ENERGY PREDICTED BY IDOCK:   -5.86 KCAL/MOL
REMARK 922        TOTAL FREE ENERGY PREDICTED BY IDOCK:   -9.66 KCAL/MOL
REMARK 923 INTER-LIGAND FREE ENERGY PREDICTED BY IDOCK:   -7.38 KCAL/MOL
REMARK 924 INTRA-LIGAND FREE ENERGY PREDICTED BY IDOCK:   -2.28 KCAL/MOL
REMARK 927      BINDING AFFINITY PREDICTED BY RF-SCORE:    0.00 PKD
ROOT
HETATM    1  C   UNL     1      -8.757   5.796  65.344  1.00  0.00    -0.122 C  
HETATM    2  C   UNL     1      -8.602   7.200  65.978  1.00  0.00    -0.152 C  
HETATM    3  C   UNL     1      -7.639   6.972  67.154  1.00  0.00    -0.107 C  
ENDROOT
BRANCH   2   4
HETATM    4  N   UNL     1      -8.212   8.267  64.993  1.00  0.00    -0.154 NA 
BRANCH   4   5
HETATM    5  C   UNL     1      -9.156   9.428  64.980  1.00  0.00    -0.215 C  
BRANCH   5   6
HETATM    6  C   UNL     1     -10.249   9.445  66.083  1.00  0.00    -0.264 C  
HETATM    7  C   UNL     1     -10.541  10.821  66.780  1.00  0.00    -0.307 C  
HETATM    8  C   UNL     1      -9.293  11.398  67.500  1.00  0.00    -0.166 A  
HETATM    9  C   UNL     1     -11.288  11.858  65.884  1.00  0.00    -0.365 A  
HETATM   10  C   UNL     1     -11.378  11.717  64.494  1.00  0.00    -0.349 A  
HETATM   11  C   UNL     1      -8.598  10.746  68.542  1.00  0.00    -0.148 A  
HETATM   12  C   UNL     1      -7.528  11.382  69.200  1.00  0.00    -0.057 A  
HETATM   13  C   UNL     1     -11.739  12.762  63.645  1.00  0.00    -0.587 A  
HETATM   14  C   UNL     1     -12.150  14.124  65.567  1.00  0.00    -0.421 A  
HETATM   15  C   UNL     1      -7.101  12.654  68.819  1.00  0.00    -0.087 A  
HETATM   16  C   UNL     1     -12.088  13.987  64.182  1.00  0.00    -0.456 A  
HETATM   17  C   UNL     1      -8.815  12.683  67.142  1.00  0.00    -0.204 A  
HETATM   18  C   UNL     1      -7.745  13.324  67.784  1.00  0.00    -0.159 A  
HETATM   19  C   UNL     1     -11.796  13.061  66.415  1.00  0.00    -0.465 A  
BRANCH  11  20
HETATM   20  O   UNL     1      -9.033   9.477  69.013  1.00  0.00    -0.135 OA 
BRANCH  20  21
HETATM   21  C   UNL     1      -9.512   9.346  70.332  1.00  0.00    -0.268 C  
HETATM   22  O   UNL     1      -8.825   9.242  71.342  1.00  0.00    -0.313 OA 
HETATM   23  C   UNL     1     -11.035   9.349  70.347  1.00  0.00    -0.317 C  
HETATM   24  C   UNL     1     -11.567  10.780  70.422  1.00  0.00    -0.431 C  
HETATM   25  C   UNL     1     -11.551   8.544  71.541  1.00  0.00    -0.352 C  
ENDBRANCH  20  21
ENDBRANCH  11  20
BRANCH  18  26
HETATM   26  C   UNL     1      -7.370  14.747  67.442  1.00  0.00    -0.185 C  
HETATM   27  O   UNL     1      -8.300  15.363  66.556  1.00  0.00    -0.330 OA 
HETATM   28  H   UNL     1      -8.064  16.258  66.341  1.00  0.00     0.000 HD 
ENDBRANCH  18  26
ENDBRANCH   5   6
ENDBRANCH   4   5
BRANCH   4  29
HETATM   29  C   UNL     1      -6.790   8.730  65.004  1.00  0.00    -0.072 C  
HETATM   30  C   UNL     1      -5.980   8.411  63.737  1.00  0.00    -0.071 C  
HETATM   31  C   UNL     1      -6.671  10.266  65.162  1.00  0.00    -0.120 C  
ENDBRANCH   4  29
ENDBRANCH   2   4
TORSDOF 7
ENDMDL
MODEL       31
REMARK 921   NORMALIZED FREE ENERGY PREDICTED BY IDOCK:   -5.84 KCAL/MOL
REMARK 922        TOTAL FREE ENERGY PREDICTED BY IDOCK:   -9.63 KCAL/MOL
REMARK 923 INTER-LIGAND FREE ENERGY PREDICTED BY IDOCK:   -7.57 KCAL/MOL
REMARK 924 INTRA-LIGAND FREE ENERGY PREDICTED BY IDOCK:   -2.07 KCAL/MOL
REMARK 927      BINDING AFFINITY PREDICTED BY RF-SCORE:    0.00 PKD
ROOT
HETATM    1  C   UNL     1      -9.760  14.610  68.941  1.00  0.00    -0.196 C  
HETATM    2  C   UNL     1      -9.495  14.608  67.416  1.00  0.00    -0.201 C  
HETATM    3  C   UNL     1      -8.026  15.045  67.295  1.00  0.00    -0.234 C  
ENDROOT
BRANCH   2   4
HETATM    4  N   UNL     1      -9.864  13.317  66.741  1.00  0.00    -0.257 NA 
BRANCH   4   5
HETATM    5  C   UNL     1      -9.941  12.160  67.687  1.00  0.00    -0.197 C  
BRANCH   5   6
HETATM    6  C   UNL     1     -11.088  11.142  67.445  1.00  0.00    -0.370 C  
HETATM    7  C   UNL     1     -11.491  10.217  68.649  1.00  0.00    -0.178 C  
HETATM    8  C   UNL     1     -10.315   9.328  69.134  1.00  0.00    -0.222 A  
HETATM    9  C   UNL     1     -12.248  10.947  69.803  1.00  0.00    -0.381 A  
HETATM   10  C   UNL     1     -12.259  12.341  69.926  1.00  0.00    -0.234 A  
HETATM   11  C   UNL     1      -9.638   8.388  68.327  1.00  0.00    -0.144 A  
HETATM   12  C   UNL     1      -8.640   7.558  68.873  1.00  0.00    -0.129 A  
HETATM   13  C   UNL     1     -12.634  12.999  71.096  1.00  0.00    -0.388 A  
HETATM   14  C   UNL     1     -13.216  10.884  72.047  1.00  0.00    -0.456 A  
HETATM   15  C   UNL     1      -8.265   7.668  70.213  1.00  0.00    -0.123 A  
HETATM   16  C   UNL     1     -13.077  12.264  72.179  1.00  0.00    -0.406 A  
HETATM   17  C   UNL     1      -9.891   9.409  70.483  1.00  0.00    -0.331 A  
HETATM   18  C   UNL     1      -8.892   8.596  71.038  1.00  0.00    -0.235 A  
HETATM   19  C   UNL     1     -12.848  10.231  70.859  1.00  0.00    -0.463 A  
BRANCH  11  20
HETATM   20  O   UNL     1     -10.025   8.189  66.973  1.00  0.00    -0.206 OA 
BRANCH  20  21
HETATM   21  C   UNL     1      -9.040   8.056  65.975  1.00  0.00    -0.142 C  
HETATM   22  O   UNL     1      -8.649   7.004  65.482  1.00  0.00    -0.146 OA 
HETATM   23  C   UNL     1      -8.503   9.423  65.572  1.00  0.00    -0.153 C  
HETATM   24  C   UNL     1      -9.366  10.036  64.470  1.00  0.00    -0.345 C  
HETATM   25  C   UNL     1      -7.057   9.299  65.085  1.00  0.00    -0.090 C  
ENDBRANCH  20  21
ENDBRANCH  11  20
BRANCH  18  26
HETATM   26  C   UNL     1      -8.579   8.642  72.515  1.00  0.00    -0.045 C  
HETATM   27  O   UNL     1      -9.523   7.919  73.299  1.00  0.00    -0.255 OA 
HETATM   28  H   UNL     1      -9.326   7.948  74.228  1.00  0.00     0.000 HD 
ENDBRANCH  18  26
ENDBRANCH   5   6
ENDBRANCH   4   5
BRANCH   4  29
HETATM   29  C   UNL     1     -11.038  13.333  65.815  1.00  0.00    -0.279 C  
HETATM   30  C   UNL     1     -12.067  14.447  66.069  1.00  0.00    -0.370 C  
HETATM   31  C   UNL     1     -10.621  13.523  64.336  1.00  0.00    -0.394 C  
ENDBRANCH   4  29
ENDBRANCH   2   4
TORSDOF 7
ENDMDL
MODEL       32
REMARK 921   NORMALIZED FREE ENERGY PREDICTED BY IDOCK:   -5.82 KCAL/MOL
REMARK 922        TOTAL FREE ENERGY PREDICTED BY IDOCK:   -9.61 KCAL/MOL
REMARK 923 INTER-LIGAND FREE ENERGY PREDICTED BY IDOCK:   -7.70 KCAL/MOL
REMARK 924 INTRA-LIGAND FREE ENERGY PREDICTED BY IDOCK:   -1.91 KCAL/MOL
REMARK 927      BINDING AFFINITY PREDICTED BY RF-SCORE:    0.00 PKD
ROOT
HETATM    1  C   UNL     1      -5.973  16.281  67.242  1.00  0.00    -0.175 C  
HETATM    2  C   UNL     1      -5.691  15.363  68.456  1.00  0.00    -0.097 C  
HETATM    3  C   UNL     1      -5.994  16.253  69.672  1.00  0.00    -0.176 C  
ENDROOT
BRANCH   2   4
HETATM    4  N   UNL     1      -6.414  14.046  68.397  1.00  0.00    -0.093 NA 
BRANCH   4   5
HETATM    5  C   UNL     1      -7.705  14.118  67.644  1.00  0.00    -0.174 C  
BRANCH   5   6
HETATM    6  C   UNL     1      -8.974  14.453  68.474  1.00  0.00    -0.187 C  
HETATM    7  C   UNL     1     -10.288  13.669  68.122  1.00  0.00    -0.245 C  
HETATM    8  C   UNL     1     -10.744  13.902  66.657  1.00  0.00    -0.281 A  
HETATM    9  C   UNL     1     -10.282  12.168  68.551  1.00  0.00    -0.214 A  
HETATM   10  C   UNL     1      -9.105  11.492  68.892  1.00  0.00     0.015 A  
HETATM   11  C   UNL     1     -11.066  15.163  66.111  1.00  0.00    -0.311 A  
HETATM   12  C   UNL     1     -11.557  15.272  64.795  1.00  0.00    -0.322 A  
HETATM   13  C   UNL     1      -9.017  10.102  68.958  1.00  0.00    -0.168 A  
HETATM   14  C   UNL     1     -11.367   9.977  68.538  1.00  0.00    -0.115 A  
HETATM   15  C   UNL     1     -11.702  14.146  63.985  1.00  0.00    -0.234 A  
HETATM   16  C   UNL     1     -10.147   9.337  68.738  1.00  0.00    -0.210 A  
HETATM   17  C   UNL     1     -10.898  12.791  65.791  1.00  0.00    -0.299 A  
HETATM   18  C   UNL     1     -11.377  12.887  64.477  1.00  0.00    -0.382 A  
HETATM   19  C   UNL     1     -11.448  11.379  68.487  1.00  0.00    -0.361 A  
BRANCH  11  20
HETATM   20  O   UNL     1     -10.998  16.335  66.914  1.00  0.00    -0.213 OA 
BRANCH  20  21
HETATM   21  C   UNL     1      -9.913  17.221  66.769  1.00  0.00    -0.301 C  
HETATM   22  O   UNL     1      -9.034  17.153  65.917  1.00  0.00    -0.519 OA 
HETATM   23  C   UNL     1      -9.968  18.308  67.835  1.00  0.00    -0.359 C  
HETATM   24  C   UNL     1     -10.832  19.477  67.365  1.00  0.00    -0.536 C  
HETATM   25  C   UNL     1      -8.556  18.805  68.153  1.00  0.00    -0.338 C  
ENDBRANCH  20  21
ENDBRANCH  11  20
BRANCH  18  26
HETATM   26  C   UNL     1     -11.643  11.649  63.651  1.00  0.00    -0.334 C  
HETATM   27  O   UNL     1     -12.915  11.679  63.010  1.00  0.00    -0.854 OA 
HETATM   28  H   UNL     1     -13.082  10.901  62.491  1.00  0.00     0.000 HD 
ENDBRANCH  18  26
ENDBRANCH   5   6
ENDBRANCH   4   5
BRANCH   4  29
HETATM   29  C   UNL     1      -5.624  12.842  67.994  1.00  0.00    -0.101 C  
HETATM   30  C   UNL     1      -5.356  11.821  69.112  1.00  0.00    -0.047 C  
HETATM   31  C   UNL     1      -6.323  12.021  66.882  1.00  0.00    -0.066 C  
ENDBRANCH   4  29
ENDBRANCH   2   4
TORSDOF 7
ENDMDL
MODEL       33
REMARK 921   NORMALIZED FREE ENERGY PREDICTED BY IDOCK:   -5.81 KCAL/MOL
REMARK 922        TOTAL FREE ENERGY PREDICTED BY IDOCK:   -9.59 KCAL/MOL
REMARK 923 INTER-LIGAND FREE ENERGY PREDICTED BY IDOCK:   -7.93 KCAL/MOL
REMARK 924 INTRA-LIGAND FREE ENERGY PREDICTED BY IDOCK:   -1.67 KCAL/MOL
REMARK 927      BINDING AFFINITY PREDICTED BY RF-SCORE:    0.00 PKD
ROOT
HETATM    1  C   UNL     1      -9.595   9.655  64.929  1.00  0.00    -0.244 C  
HETATM    2  C   UNL     1      -8.968   8.256  65.141  1.00  0.00     0.109 C  
HETATM    3  C   UNL     1      -7.486   8.455  64.783  1.00  0.00    -0.096 C  
ENDROOT
BRANCH   2   4
HETATM    4  N   UNL     1      -9.254   7.666  66.494  1.00  0.00    -0.168 NA 
BRANCH   4   5
HETATM    5  C   UNL     1      -9.948   8.619  67.416  1.00  0.00    -0.210 C  
BRANCH   5   6
HETATM    6  C   UNL     1      -9.052   9.664  68.135  1.00  0.00    -0.123 C  
HETATM    7  C   UNL     1      -9.137   9.724  69.702  1.00  0.00    -0.235 C  
HETATM    8  C   UNL     1     -10.564  10.065  70.206  1.00  0.00    -0.354 A  
HETATM    9  C   UNL     1      -8.481   8.512  70.434  1.00  0.00    -0.138 A  
HETATM   10  C   UNL     1      -8.164   7.320  69.771  1.00  0.00    -0.130 A  
HETATM   11  C   UNL     1     -11.265  11.248  69.884  1.00  0.00    -0.187 A  
HETATM   12  C   UNL     1     -12.522  11.517  70.458  1.00  0.00    -0.367 A  
HETATM   13  C   UNL     1      -7.891   6.127  70.438  1.00  0.00    -0.106 A  
HETATM   14  C   UNL     1      -8.038   7.305  72.513  1.00  0.00    -0.112 A  
HETATM   15  C   UNL     1     -13.126  10.609  71.328  1.00  0.00    -0.456 A  
HETATM   16  C   UNL     1      -7.868   6.109  71.820  1.00  0.00    -0.102 A  
HETATM   17  C   UNL     1     -11.224   9.170  71.084  1.00  0.00    -0.395 A  
HETATM   18  C   UNL     1     -12.480   9.422  71.656  1.00  0.00    -0.460 A  
HETATM   19  C   UNL     1      -8.299   8.505  71.831  1.00  0.00    -0.218 A  
BRANCH  11  20
HETATM   20  O   UNL     1     -10.666  12.236  69.055  1.00  0.00    -0.194 OA 
BRANCH  20  21
HETATM   21  C   UNL     1     -11.133  12.423  67.739  1.00  0.00    -0.247 C  
HETATM   22  O   UNL     1     -11.826  11.638  67.101  1.00  0.00    -0.608 OA 
HETATM   23  C   UNL     1     -10.656  13.761  67.190  1.00  0.00    -0.277 C  
HETATM   24  C   UNL     1     -11.632  14.875  67.567  1.00  0.00    -0.355 C  
HETATM   25  C   UNL     1     -10.521  13.688  65.668  1.00  0.00    -0.304 C  
ENDBRANCH  20  21
ENDBRANCH  11  20
BRANCH  18  26
HETATM   26  C   UNL     1     -13.070   8.488  72.687  1.00  0.00    -0.153 C  
HETATM   27  O   UNL     1     -14.347   8.916  73.149  1.00  0.00    -1.143 OA 
HETATM   28  H   UNL     1     -14.718   8.328  73.797  1.00  0.00     0.000 HD 
ENDBRANCH  18  26
ENDBRANCH   5   6
ENDBRANCH   4   5
BRANCH   4  29
HETATM   29  C   UNL     1      -9.894   6.315  66.537  1.00  0.00    -0.126 C  
HETATM   30  C   UNL     1      -8.928   5.129  66.689  1.00  0.00    -0.115 C  
HETATM   31  C   UNL     1     -10.878   6.165  67.724  1.00  0.00    -0.413 C  
ENDBRANCH   4  29
ENDBRANCH   2   4
TORSDOF 7
ENDMDL
MODEL       34
REMARK 921   NORMALIZED FREE ENERGY PREDICTED BY IDOCK:   -5.81 KCAL/MOL
REMARK 922        TOTAL FREE ENERGY PREDICTED BY IDOCK:   -9.59 KCAL/MOL
REMARK 923 INTER-LIGAND FREE ENERGY PREDICTED BY IDOCK:   -7.28 KCAL/MOL
REMARK 924 INTRA-LIGAND FREE ENERGY PREDICTED BY IDOCK:   -2.31 KCAL/MOL
REMARK 927      BINDING AFFINITY PREDICTED BY RF-SCORE:    0.00 PKD
ROOT
HETATM    1  C   UNL     1      -7.934  10.318  64.243  1.00  0.00    -0.132 C  
HETATM    2  C   UNL     1      -7.484   9.199  65.212  1.00  0.00    -0.097 C  
HETATM    3  C   UNL     1      -6.346   9.843  66.020  1.00  0.00    -0.082 C  
ENDROOT
BRANCH   2   4
HETATM    4  N   UNL     1      -8.611   8.601  66.007  1.00  0.00    -0.145 NA 
BRANCH   4   5
HETATM    5  C   UNL     1      -9.898   9.350  65.857  1.00  0.00    -0.291 C  
BRANCH   5   6
HETATM    6  C   UNL     1     -10.782   9.470  67.128  1.00  0.00    -0.252 C  
HETATM    7  C   UNL     1     -10.674  10.802  67.953  1.00  0.00    -0.282 C  
HETATM    8  C   UNL     1      -9.238  11.055  68.486  1.00  0.00    -0.177 A  
HETATM    9  C   UNL     1     -11.320  12.045  67.265  1.00  0.00    -0.394 A  
HETATM   10  C   UNL     1     -11.648  12.061  65.904  1.00  0.00    -0.364 A  
HETATM   11  C   UNL     1      -8.542  10.183  69.351  1.00  0.00    -0.174 A  
HETATM   12  C   UNL     1      -7.276  10.533  69.858  1.00  0.00    -0.136 A  
HETATM   13  C   UNL     1     -11.912  13.234  65.198  1.00  0.00    -0.413 A  
HETATM   14  C   UNL     1     -11.733  14.455  67.245  1.00  0.00    -0.429 A  
HETATM   15  C   UNL     1      -6.660  11.731  69.492  1.00  0.00    -0.102 A  
HETATM   16  C   UNL     1     -11.914  14.444  65.864  1.00  0.00    -0.367 A  
HETATM   17  C   UNL     1      -8.566  12.252  68.136  1.00  0.00    -0.181 A  
HETATM   18  C   UNL     1      -7.302  12.609  68.627  1.00  0.00    -0.101 A  
HETATM   19  C   UNL     1     -11.481  13.266  67.950  1.00  0.00    -0.341 A  
BRANCH  11  20
HETATM   20  O   UNL     1      -9.152   8.981  69.806  1.00  0.00    -0.146 OA 
BRANCH  20  21
HETATM   21  C   UNL     1      -9.694   8.920  71.105  1.00  0.00    -0.274 C  
HETATM   22  O   UNL     1      -9.060   8.938  72.153  1.00  0.00    -0.375 OA 
HETATM   23  C   UNL     1     -11.213   8.825  71.042  1.00  0.00    -0.329 C  
HETATM   24  C   UNL     1     -11.836  10.219  70.976  1.00  0.00    -0.472 C  
HETATM   25  C   UNL     1     -11.745   8.080  72.269  1.00  0.00    -0.428 C  
ENDBRANCH  20  21
ENDBRANCH  11  20
BRANCH  18  26
HETATM   26  C   UNL     1      -6.698  13.960  68.319  1.00  0.00    -0.109 C  
HETATM   27  O   UNL     1      -5.623  13.881  67.388  1.00  0.00    -0.351 OA 
HETATM   28  H   UNL     1      -5.244  14.730  67.194  1.00  0.00     0.000 HD 
ENDBRANCH  18  26
ENDBRANCH   5   6
ENDBRANCH   4   5
BRANCH   4  29
HETATM   29  C   UNL     1      -8.831   7.126  65.893  1.00  0.00    -0.103 C  
HETATM   30  C   UNL     1      -7.949   6.403  64.861  1.00  0.00    -0.124 C  
HETATM   31  C   UNL     1      -8.556   6.383  67.223  1.00  0.00    -0.110 C  
ENDBRANCH   4  29
ENDBRANCH   2   4
TORSDOF 7
ENDMDL
MODEL       35
REMARK 921   NORMALIZED FREE ENERGY PREDICTED BY IDOCK:   -5.79 KCAL/MOL
REMARK 922        TOTAL FREE ENERGY PREDICTED BY IDOCK:   -9.57 KCAL/MOL
REMARK 923 INTER-LIGAND FREE ENERGY PREDICTED BY IDOCK:   -7.71 KCAL/MOL
REMARK 924 INTRA-LIGAND FREE ENERGY PREDICTED BY IDOCK:   -1.86 KCAL/MOL
REMARK 927      BINDING AFFINITY PREDICTED BY RF-SCORE:    0.00 PKD
ROOT
HETATM    1  C   UNL     1      -7.703   7.813  70.186  1.00  0.00    -0.090 C  
HETATM    2  C   UNL     1      -7.689   7.207  68.762  1.00  0.00    -0.116 C  
HETATM    3  C   UNL     1      -8.884   6.240  68.760  1.00  0.00    -0.123 C  
ENDROOT
BRANCH   2   4
HETATM    4  N   UNL     1      -7.664   8.238  67.668  1.00  0.00    -0.098 NA 
BRANCH   4   5
HETATM    5  C   UNL     1      -8.630   9.359  67.895  1.00  0.00    -0.120 C  
BRANCH   5   6
HETATM    6  C   UNL     1     -10.089   9.124  67.420  1.00  0.00    -0.289 C  
HETATM    7  C   UNL     1     -10.751  10.254  66.554  1.00  0.00    -0.148 C  
HETATM    8  C   UNL     1     -10.831  11.609  67.307  1.00  0.00    -0.302 A  
HETATM    9  C   UNL     1     -10.192  10.371  65.102  1.00  0.00    -0.326 A  
HETATM   10  C   UNL     1      -8.985   9.776  64.715  1.00  0.00    -0.266 A  
HETATM   11  C   UNL     1     -11.518  11.808  68.524  1.00  0.00    -0.296 A  
HETATM   12  C   UNL     1     -11.614  13.093  69.094  1.00  0.00    -0.368 A  
HETATM   13  C   UNL     1      -8.304  10.124  63.550  1.00  0.00    -0.169 A  
HETATM   14  C   UNL     1     -10.122  11.564  62.969  1.00  0.00    -0.330 A  
HETATM   15  C   UNL     1     -11.003  14.194  68.493  1.00  0.00    -0.271 A  
HETATM   16  C   UNL     1      -8.856  11.055  62.690  1.00  0.00    -0.334 A  
HETATM   17  C   UNL     1     -10.218  12.756  66.744  1.00  0.00    -0.245 A  
HETATM   18  C   UNL     1     -10.299  14.039  67.304  1.00  0.00    -0.264 A  
HETATM   19  C   UNL     1     -10.807  11.197  64.139  1.00  0.00    -0.355 A  
BRANCH  11  20
HETATM   20  O   UNL     1     -12.213  10.733  69.143  1.00  0.00    -0.387 OA 
BRANCH  20  21
HETATM   21  C   UNL     1     -11.822  10.290  70.422  1.00  0.00    -0.309 C  
HETATM   22  O   UNL     1     -10.683   9.997  70.767  1.00  0.00    -0.303 OA 
HETATM   23  C   UNL     1     -13.027  10.217  71.351  1.00  0.00    -0.540 C  
HETATM   24  C   UNL     1     -13.268  11.568  72.024  1.00  0.00    -0.443 C  
HETATM   25  C   UNL     1     -12.805   9.143  72.418  1.00  0.00    -0.438 C  
ENDBRANCH  20  21
ENDBRANCH  11  20
BRANCH  18  26
HETATM   26  C   UNL     1      -9.735  15.242  66.584  1.00  0.00    -0.252 C  
HETATM   27  O   UNL     1      -9.586  15.024  65.185  1.00  0.00    -0.360 OA 
HETATM   28  H   UNL     1      -9.232  15.781  64.732  1.00  0.00     0.000 HD 
ENDBRANCH  18  26
ENDBRANCH   5   6
ENDBRANCH   4   5
BRANCH   4  29
HETATM   29  C   UNL     1      -6.329   8.757  67.239  1.00  0.00    -0.057 C  
HETATM   30  C   UNL     1      -5.810   8.220  65.895  1.00  0.00    -0.041 C  
HETATM   31  C   UNL     1      -6.322  10.297  67.068  1.00  0.00    -0.071 C  
ENDBRANCH   4  29
ENDBRANCH   2   4
TORSDOF 7
ENDMDL
MODEL       36
REMARK 921   NORMALIZED FREE ENERGY PREDICTED BY IDOCK:   -5.75 KCAL/MOL
REMARK 922        TOTAL FREE ENERGY PREDICTED BY IDOCK:   -9.51 KCAL/MOL
REMARK 923 INTER-LIGAND FREE ENERGY PREDICTED BY IDOCK:   -7.54 KCAL/MOL
REMARK 924 INTRA-LIGAND FREE ENERGY PREDICTED BY IDOCK:   -1.97 KCAL/MOL
REMARK 927      BINDING AFFINITY PREDICTED BY RF-SCORE:    0.00 PKD
ROOT
HETATM    1  C   UNL     1     -10.248   8.870  71.647  1.00  0.00    -0.415 C  
HETATM    2  C   UNL     1     -11.029   8.946  70.313  1.00  0.00    -0.241 C  
HETATM    3  C   UNL     1     -11.669  10.344  70.338  1.00  0.00    -0.419 C  
ENDROOT
BRANCH   2   4
HETATM    4  N   UNL     1     -10.196   8.616  69.106  1.00  0.00    -0.204 NA 
BRANCH   4   5
HETATM    5  C   UNL     1      -8.801   9.151  69.191  1.00  0.00    -0.146 C  
BRANCH   5   6
HETATM    6  C   UNL     1      -8.123   9.537  67.848  1.00  0.00    -0.106 C  
HETATM    7  C   UNL     1      -8.014  11.068  67.515  1.00  0.00    -0.116 C  
HETATM    8  C   UNL     1      -9.402  11.758  67.431  1.00  0.00    -0.174 A  
HETATM    9  C   UNL     1      -6.974  11.847  68.378  1.00  0.00    -0.078 A  
HETATM   10  C   UNL     1      -6.445  11.325  69.565  1.00  0.00    -0.119 A  
HETATM   11  C   UNL     1     -10.424  11.390  66.529  1.00  0.00    -0.249 A  
HETATM   12  C   UNL     1     -11.621  12.128  66.459  1.00  0.00    -0.425 A  
HETATM   13  C   UNL     1      -5.784  12.106  70.512  1.00  0.00    -0.160 A  
HETATM   14  C   UNL     1      -5.960  13.974  69.032  1.00  0.00    -0.091 A  
HETATM   15  C   UNL     1     -11.846  13.216  67.303  1.00  0.00    -0.420 A  
HETATM   16  C   UNL     1      -5.576  13.449  70.263  1.00  0.00    -0.143 A  
HETATM   17  C   UNL     1      -9.684  12.861  68.273  1.00  0.00    -0.217 A  
HETATM   18  C   UNL     1     -10.875  13.600  68.220  1.00  0.00    -0.268 A  
HETATM   19  C   UNL     1      -6.614  13.177  68.078  1.00  0.00    -0.124 A  
BRANCH  11  20
HETATM   20  O   UNL     1     -10.220  10.330  65.602  1.00  0.00    -0.273 OA 
BRANCH  20  21
HETATM   21  C   UNL     1      -9.785  10.619  64.293  1.00  0.00    -0.314 C  
HETATM   22  O   UNL     1     -10.184  11.538  63.587  1.00  0.00    -0.323 OA 
HETATM   23  C   UNL     1      -8.728   9.616  63.851  1.00  0.00    -0.241 C  
HETATM   24  C   UNL     1      -7.337  10.076  64.286  1.00  0.00    -0.133 C  
HETATM   25  C   UNL     1      -8.763   9.449  62.330  1.00  0.00    -0.239 C  
ENDBRANCH  20  21
ENDBRANCH  11  20
BRANCH  18  26
HETATM   26  C   UNL     1     -11.058  14.846  69.055  1.00  0.00    -0.250 C  
HETATM   27  O   UNL     1     -12.363  15.403  68.931  1.00  0.00    -0.604 OA 
HETATM   28  H   UNL     1     -12.478  16.186  69.456  1.00  0.00     0.000 HD 
ENDBRANCH  18  26
ENDBRANCH   5   6
ENDBRANCH   4   5
BRANCH   4  29
HETATM   29  C   UNL     1     -10.199   7.198  68.632  1.00  0.00    -0.179 C  
HETATM   30  C   UNL     1     -10.978   6.207  69.512  1.00  0.00    -0.463 C  
HETATM   31  C   UNL     1     -10.833   7.046  67.227  1.00  0.00    -0.403 C  
ENDBRANCH   4  29
ENDBRANCH   2   4
TORSDOF 7
ENDMDL
MODEL       37
REMARK 921   NORMALIZED FREE ENERGY PREDICTED BY IDOCK:   -5.73 KCAL/MOL
REMARK 922        TOTAL FREE ENERGY PREDICTED BY IDOCK:   -9.48 KCAL/MOL
REMARK 923 INTER-LIGAND FREE ENERGY PREDICTED BY IDOCK:   -7.27 KCAL/MOL
REMARK 924 INTRA-LIGAND FREE ENERGY PREDICTED BY IDOCK:   -2.21 KCAL/MOL
REMARK 927      BINDING AFFINITY PREDICTED BY RF-SCORE:    0.00 PKD
ROOT
HETATM    1  C   UNL     1      -6.321   9.191  68.069  1.00  0.00    -0.055 C  
HETATM    2  C   UNL     1      -6.585  10.643  67.605  1.00  0.00    -0.061 C  
HETATM    3  C   UNL     1      -6.248  10.620  66.105  1.00  0.00    -0.125 C  
ENDROOT
BRANCH   2   4
HETATM    4  N   UNL     1      -7.949  11.156  67.974  1.00  0.00    -0.112 NA 
BRANCH   4   5
HETATM    5  C   UNL     1      -8.656  10.284  68.965  1.00  0.00    -0.162 C  
BRANCH   5   6
HETATM    6  C   UNL     1     -10.176  10.066  68.736  1.00  0.00    -0.201 C  
HETATM    7  C   UNL     1     -10.594   9.114  67.559  1.00  0.00    -0.317 C  
HETATM    8  C   UNL     1     -10.089   9.617  66.181  1.00  0.00    -0.328 A  
HETATM    9  C   UNL     1     -10.314   7.600  67.819  1.00  0.00    -0.282 A  
HETATM   10  C   UNL     1      -9.459   7.161  68.837  1.00  0.00    -0.142 A  
HETATM   11  C   UNL     1     -10.431  10.863  65.611  1.00  0.00    -0.208 A  
HETATM   12  C   UNL     1     -10.000  11.203  64.314  1.00  0.00    -0.359 A  
HETATM   13  C   UNL     1      -8.938   5.870  68.889  1.00  0.00    -0.118 A  
HETATM   14  C   UNL     1     -10.274   5.300  66.991  1.00  0.00    -0.274 A  
HETATM   15  C   UNL     1      -9.195  10.337  63.573  1.00  0.00    -0.321 A  
HETATM   16  C   UNL     1      -9.315   4.944  67.936  1.00  0.00    -0.155 A  
HETATM   17  C   UNL     1      -9.262   8.780  65.394  1.00  0.00    -0.155 A  
HETATM   18  C   UNL     1      -8.818   9.109  64.104  1.00  0.00    -0.127 A  
HETATM   19  C   UNL     1     -10.804   6.601  66.955  1.00  0.00    -0.415 A  
BRANCH  11  20
HETATM   20  O   UNL     1     -11.303  11.754  66.296  1.00  0.00    -0.329 OA 
BRANCH  20  21
HETATM   21  C   UNL     1     -12.050  12.701  65.568  1.00  0.00    -0.458 C  
HETATM   22  O   UNL     1     -13.047  12.469  64.894  1.00  0.00    -0.833 OA 
HETATM   23  C   UNL     1     -11.447  14.090  65.727  1.00  0.00    -0.318 C  
HETATM   24  C   UNL     1     -12.007  14.780  66.970  1.00  0.00    -0.225 C  
HETATM   25  C   UNL     1     -11.744  14.938  64.489  1.00  0.00    -0.388 C  
ENDBRANCH  20  21
ENDBRANCH  11  20
BRANCH  18  26
HETATM   26  C   UNL     1      -8.047   8.115  63.267  1.00  0.00    -0.121 C  
HETATM   27  O   UNL     1      -8.625   6.814  63.287  1.00  0.00    -0.330 OA 
HETATM   28  H   UNL     1      -8.141   6.189  62.760  1.00  0.00     0.000 HD 
ENDBRANCH  18  26
ENDBRANCH   5   6
ENDBRANCH   4   5
BRANCH   4  29
HETATM   29  C   UNL     1      -8.067  12.599  68.348  1.00  0.00    -0.137 C  
HETATM   30  C   UNL     1      -6.851  13.196  69.073  1.00  0.00    -0.090 C  
HETATM   31  C   UNL     1      -8.268  13.514  67.114  1.00  0.00    -0.126 C  
ENDBRANCH   4  29
ENDBRANCH   2   4
TORSDOF 7
ENDMDL
MODEL       38
REMARK 921   NORMALIZED FREE ENERGY PREDICTED BY IDOCK:   -5.71 KCAL/MOL
REMARK 922        TOTAL FREE ENERGY PREDICTED BY IDOCK:   -9.46 KCAL/MOL
REMARK 923 INTER-LIGAND FREE ENERGY PREDICTED BY IDOCK:   -7.55 KCAL/MOL
REMARK 924 INTRA-LIGAND FREE ENERGY PREDICTED BY IDOCK:   -1.91 KCAL/MOL
REMARK 927      BINDING AFFINITY PREDICTED BY RF-SCORE:    0.00 PKD
ROOT
HETATM    1  C   UNL     1     -10.450  10.235  69.834  1.00  0.00    -0.304 C  
HETATM    2  C   UNL     1     -10.826  10.235  68.333  1.00  0.00    -0.245 C  
HETATM    3  C   UNL     1     -11.823  11.398  68.201  1.00  0.00    -0.288 C  
ENDROOT
BRANCH   2   4
HETATM    4  N   UNL     1      -9.637  10.269  67.413  1.00  0.00    -0.156 NA 
BRANCH   4   5
HETATM    5  C   UNL     1      -8.474  11.018  67.984  1.00  0.00    -0.129 C  
BRANCH   5   6
HETATM    6  C   UNL     1      -7.812  12.077  67.061  1.00  0.00    -0.138 C  
HETATM    7  C   UNL     1      -7.802  13.563  67.569  1.00  0.00    -0.184 C  
HETATM    8  C   UNL     1      -9.232  14.123  67.792  1.00  0.00    -0.193 A  
HETATM    9  C   UNL     1      -6.824  13.838  68.753  1.00  0.00    -0.106 A  
HETATM   10  C   UNL     1      -6.273  12.807  69.523  1.00  0.00    -0.120 A  
HETATM   11  C   UNL     1     -10.219  14.221  66.788  1.00  0.00    -0.272 A  
HETATM   12  C   UNL     1     -11.462  14.825  67.057  1.00  0.00    -0.362 A  
HETATM   13  C   UNL     1      -5.674  13.020  70.764  1.00  0.00    -0.160 A  
HETATM   14  C   UNL     1      -5.961  15.373  70.450  1.00  0.00    -0.080 A  
HETATM   15  C   UNL     1     -11.768  15.308  68.330  1.00  0.00    -0.320 A  
HETATM   16  C   UNL     1      -5.554  14.308  71.250  1.00  0.00    -0.205 A  
HETATM   17  C   UNL     1      -9.595  14.617  69.070  1.00  0.00    -0.145 A  
HETATM   18  C   UNL     1     -10.832  15.213  69.354  1.00  0.00    -0.265 A  
HETATM   19  C   UNL     1      -6.551  15.149  69.195  1.00  0.00    -0.128 A  
BRANCH  11  20
HETATM   20  O   UNL     1      -9.936  13.805  65.457  1.00  0.00    -0.292 OA 
BRANCH  20  21
HETATM   21  C   UNL     1     -10.988  13.646  64.534  1.00  0.00    -0.396 C  
HETATM   22  O   UNL     1     -11.597  14.549  63.971  1.00  0.00    -0.186 OA 
HETATM   23  C   UNL     1     -11.286  12.169  64.316  1.00  0.00    -0.426 C  
HETATM   24  C   UNL     1     -10.394  11.598  63.215  1.00  0.00    -0.444 C  
HETATM   25  C   UNL     1     -12.757  11.978  63.938  1.00  0.00    -0.467 C  
ENDBRANCH  20  21
ENDBRANCH  11  20
BRANCH  18  26
HETATM   26  C   UNL     1     -11.106  15.838  70.703  1.00  0.00    -0.354 C  
HETATM   27  O   UNL     1     -10.826  14.955  71.784  1.00  0.00    -0.411 OA 
HETATM   28  H   UNL     1     -10.998  15.348  72.632  1.00  0.00     0.000 HD 
ENDBRANCH  18  26
ENDBRANCH   5   6
ENDBRANCH   4   5
BRANCH   4  29
HETATM   29  C   UNL     1      -9.197   8.975  66.806  1.00  0.00    -0.157 C  
HETATM   30  C   UNL     1     -10.214   7.825  66.889  1.00  0.00    -0.373 C  
HETATM   31  C   UNL     1      -8.887   9.107  65.294  1.00  0.00    -0.240 C  
ENDBRANCH   4  29
ENDBRANCH   2   4
TORSDOF 7
ENDMDL
MODEL       39
REMARK 921   NORMALIZED FREE ENERGY PREDICTED BY IDOCK:   -5.70 KCAL/MOL
REMARK 922        TOTAL FREE ENERGY PREDICTED BY IDOCK:   -9.44 KCAL/MOL
REMARK 923 INTER-LIGAND FREE ENERGY PREDICTED BY IDOCK:   -8.03 KCAL/MOL
REMARK 924 INTRA-LIGAND FREE ENERGY PREDICTED BY IDOCK:   -1.41 KCAL/MOL
REMARK 927      BINDING AFFINITY PREDICTED BY RF-SCORE:    0.00 PKD
ROOT
HETATM    1  C   UNL     1      -7.015   7.011  66.368  1.00  0.00    -0.069 C  
HETATM    2  C   UNL     1      -8.463   6.847  65.846  1.00  0.00    -0.144 C  
HETATM    3  C   UNL     1      -8.965   5.570  66.538  1.00  0.00    -0.123 C  
ENDROOT
BRANCH   2   4
HETATM    4  N   UNL     1      -9.310   8.077  66.020  1.00  0.00    -0.139 NA 
BRANCH   4   5
HETATM    5  C   UNL     1      -9.669   8.345  67.448  1.00  0.00    -0.170 C  
BRANCH   5   6
HETATM    6  C   UNL     1      -8.812   9.405  68.192  1.00  0.00    -0.124 C  
HETATM    7  C   UNL     1      -8.998   9.514  69.747  1.00  0.00    -0.214 C  
HETATM    8  C   UNL     1     -10.452   9.882  70.146  1.00  0.00    -0.339 A  
HETATM    9  C   UNL     1      -8.404   8.320  70.557  1.00  0.00    -0.124 A  
HETATM   10  C   UNL     1      -8.056   7.106  69.953  1.00  0.00    -0.125 A  
HETATM   11  C   UNL     1     -11.118  11.060  69.743  1.00  0.00    -0.235 A  
HETATM   12  C   UNL     1     -12.408  11.357  70.224  1.00  0.00    -0.379 A  
HETATM   13  C   UNL     1      -7.839   5.932  70.674  1.00  0.00    -0.105 A  
HETATM   14  C   UNL     1      -8.110   7.175  72.698  1.00  0.00    -0.118 A  
HETATM   15  C   UNL     1     -13.077  10.481  71.080  1.00  0.00    -0.450 A  
HETATM   16  C   UNL     1      -7.907   5.957  72.054  1.00  0.00    -0.106 A  
HETATM   17  C   UNL     1     -11.177   9.021  71.005  1.00  0.00    -0.361 A  
HETATM   18  C   UNL     1     -12.465   9.300  71.486  1.00  0.00    -0.435 A  
HETATM   19  C   UNL     1      -8.314   8.356  71.963  1.00  0.00    -0.231 A  
BRANCH  11  20
HETATM   20  O   UNL     1     -10.457  12.017  68.925  1.00  0.00    -0.202 OA 
BRANCH  20  21
HETATM   21  C   UNL     1     -11.195  12.765  67.987  1.00  0.00    -0.270 C  
HETATM   22  O   UNL     1     -11.952  12.311  67.136  1.00  0.00    -0.564 OA 
HETATM   23  C   UNL     1     -10.928  14.254  68.165  1.00  0.00    -0.259 C  
HETATM   24  C   UNL     1     -11.876  14.848  69.206  1.00  0.00    -0.350 C  
HETATM   25  C   UNL     1     -11.104  14.984  66.832  1.00  0.00    -0.331 C  
ENDBRANCH  20  21
ENDBRANCH  11  20
BRANCH  18  26
HETATM   26  C   UNL     1     -13.130   8.403  72.504  1.00  0.00    -0.170 C  
HETATM   27  O   UNL     1     -14.291   8.993  73.081  1.00  0.00    -1.136 OA 
HETATM   28  H   UNL     1     -14.709   8.429  73.721  1.00  0.00     0.000 HD 
ENDBRANCH  18  26
ENDBRANCH   5   6
ENDBRANCH   4   5
BRANCH   4  29
HETATM   29  C   UNL     1      -8.860   9.328  65.336  1.00  0.00    -0.192 C  
HETATM   30  C   UNL     1      -8.220   9.132  63.951  1.00  0.00    -0.172 C  
HETATM   31  C   UNL     1     -10.026  10.316  65.085  1.00  0.00    -0.395 C  
ENDBRANCH   4  29
ENDBRANCH   2   4
TORSDOF 7
ENDMDL
MODEL       40
REMARK 921   NORMALIZED FREE ENERGY PREDICTED BY IDOCK:   -5.64 KCAL/MOL
REMARK 922        TOTAL FREE ENERGY PREDICTED BY IDOCK:   -9.36 KCAL/MOL
REMARK 923 INTER-LIGAND FREE ENERGY PREDICTED BY IDOCK:   -7.88 KCAL/MOL
REMARK 924 INTRA-LIGAND FREE ENERGY PREDICTED BY IDOCK:   -1.48 KCAL/MOL
REMARK 927      BINDING AFFINITY PREDICTED BY RF-SCORE:    0.00 PKD
ROOT
HETATM    1  C   UNL     1     -10.928   5.774  66.727  1.00  0.00    -0.239 C  
HETATM    2  C   UNL     1     -11.049   6.889  67.793  1.00  0.00    -0.146 C  
HETATM    3  C   UNL     1     -11.043   6.127  69.128  1.00  0.00    -0.448 C  
ENDROOT
BRANCH   2   4
HETATM    4  N   UNL     1     -10.026   7.980  67.643  1.00  0.00    -0.167 NA 
BRANCH   4   5
HETATM    5  C   UNL     1      -8.798   7.752  68.468  1.00  0.00    -0.130 C  
BRANCH   5   6
HETATM    6  C   UNL     1      -8.245   8.979  69.242  1.00  0.00    -0.117 C  
HETATM    7  C   UNL     1      -8.886   9.293  70.641  1.00  0.00    -0.287 C  
HETATM    8  C   UNL     1     -10.408   9.583  70.544  1.00  0.00    -0.350 A  
HETATM    9  C   UNL     1      -8.506   8.284  71.769  1.00  0.00    -0.207 A  
HETATM   10  C   UNL     1      -7.943   7.032  71.495  1.00  0.00    -0.103 A  
HETATM   11  C   UNL     1     -10.976  10.627  69.783  1.00  0.00    -0.280 A  
HETATM   12  C   UNL     1     -12.362  10.874  69.822  1.00  0.00    -0.326 A  
HETATM   13  C   UNL     1      -7.897   5.998  72.428  1.00  0.00    -0.102 A  
HETATM   14  C   UNL     1      -8.806   7.488  74.062  1.00  0.00    -0.292 A  
HETATM   15  C   UNL     1     -13.214  10.073  70.583  1.00  0.00    -0.174 A  
HETATM   16  C   UNL     1      -8.370   6.213  73.709  1.00  0.00    -0.113 A  
HETATM   17  C   UNL     1     -11.316   8.792  71.290  1.00  0.00    -0.357 A  
HETATM   18  C   UNL     1     -12.699   9.021  71.333  1.00  0.00    -0.361 A  
HETATM   19  C   UNL     1      -8.835   8.528  73.118  1.00  0.00    -0.096 A  
BRANCH  11  20
HETATM   20  O   UNL     1     -10.146  11.512  69.042  1.00  0.00    -0.163 OA 
BRANCH  20  21
HETATM   21  C   UNL     1     -10.627  12.787  68.682  1.00  0.00    -0.233 C  
HETATM   22  O   UNL     1     -11.130  13.608  69.439  1.00  0.00    -0.226 OA 
HETATM   23  C   UNL     1     -10.437  13.024  67.189  1.00  0.00    -0.243 C  
HETATM   24  C   UNL     1      -9.050  13.600  66.909  1.00  0.00    -0.249 C  
HETATM   25  C   UNL     1     -11.509  13.985  66.669  1.00  0.00    -0.377 C  
ENDBRANCH  20  21
ENDBRANCH  11  20
BRANCH  18  26
HETATM   26  C   UNL     1     -13.595   8.224  72.252  1.00  0.00    -0.208 C  
HETATM   27  O   UNL     1     -13.923   8.928  73.445  1.00  0.00    -1.236 OA 
HETATM   28  H   UNL     1     -14.486   8.426  74.023  1.00  0.00     0.000 HD 
ENDBRANCH  18  26
ENDBRANCH   5   6
ENDBRANCH   4   5
BRANCH   4  29
HETATM   29  C   UNL     1      -9.669   8.407  66.255  1.00  0.00    -0.207 C  
HETATM   30  C   UNL     1      -9.779   9.915  65.977  1.00  0.00    -0.310 C  
HETATM   31  C   UNL     1      -8.208   8.051  65.886  1.00  0.00    -0.127 C  
ENDBRANCH   4  29
ENDBRANCH   2   4
TORSDOF 7
ENDMDL
MODEL       41
REMARK 921   NORMALIZED FREE ENERGY PREDICTED BY IDOCK:   -5.62 KCAL/MOL
REMARK 922        TOTAL FREE ENERGY PREDICTED BY IDOCK:   -9.32 KCAL/MOL
REMARK 923 INTER-LIGAND FREE ENERGY PREDICTED BY IDOCK:   -7.18 KCAL/MOL
REMARK 924 INTRA-LIGAND FREE ENERGY PREDICTED BY IDOCK:   -2.15 KCAL/MOL
REMARK 927      BINDING AFFINITY PREDICTED BY RF-SCORE:    0.00 PKD
ROOT
HETATM    1  C   UNL     1      -9.972  14.461  68.620  1.00  0.00    -0.241 C  
HETATM    2  C   UNL     1      -9.578  14.729  67.147  1.00  0.00    -0.227 C  
HETATM    3  C   UNL     1      -8.044  14.620  67.148  1.00  0.00    -0.213 C  
ENDROOT
BRANCH   2   4
HETATM    4  N   UNL     1     -10.307  13.860  66.160  1.00  0.00    -0.293 NA 
BRANCH   4   5
HETATM    5  C   UNL     1     -11.327  12.972  66.801  1.00  0.00    -0.324 C  
BRANCH   5   6
HETATM    6  C   UNL     1     -11.317  11.480  66.369  1.00  0.00    -0.246 C  
HETATM    7  C   UNL     1     -10.462  10.489  67.237  1.00  0.00    -0.300 C  
HETATM    8  C   UNL     1      -8.958  10.868  67.261  1.00  0.00    -0.139 A  
HETATM    9  C   UNL     1     -11.059  10.180  68.645  1.00  0.00    -0.254 A  
HETATM   10  C   UNL     1     -12.060  10.969  69.223  1.00  0.00    -0.363 A  
HETATM   11  C   UNL     1      -8.135  10.952  66.117  1.00  0.00    -0.160 A  
HETATM   12  C   UNL     1      -6.758  11.216  66.239  1.00  0.00    -0.064 A  
HETATM   13  C   UNL     1     -12.377  10.924  70.580  1.00  0.00    -0.470 A  
HETATM   14  C   UNL     1     -10.826   9.123  70.838  1.00  0.00    -0.345 A  
HETATM   15  C   UNL     1      -6.175  11.439  67.488  1.00  0.00    -0.069 A  
HETATM   16  C   UNL     1     -11.726  10.024  71.402  1.00  0.00    -0.414 A  
HETATM   17  C   UNL     1      -8.322  11.113  68.503  1.00  0.00    -0.154 A  
HETATM   18  C   UNL     1      -6.953  11.385  68.639  1.00  0.00    -0.087 A  
HETATM   19  C   UNL     1     -10.524   9.167  69.467  1.00  0.00    -0.226 A  
BRANCH  11  20
HETATM   20  O   UNL     1      -8.665  10.670  64.827  1.00  0.00    -0.184 OA 
BRANCH  20  21
HETATM   21  C   UNL     1      -7.915   9.900  63.916  1.00  0.00    -0.149 C  
HETATM   22  O   UNL     1      -7.081  10.327  63.126  1.00  0.00    -0.137 OA 
HETATM   23  C   UNL     1      -8.280   8.427  64.038  1.00  0.00    -0.115 C  
HETATM   24  C   UNL     1      -7.436   7.752  65.118  1.00  0.00    -0.083 C  
HETATM   25  C   UNL     1      -8.065   7.718  62.699  1.00  0.00    -0.124 C  
ENDBRANCH  20  21
ENDBRANCH  11  20
BRANCH  18  26
HETATM   26  C   UNL     1      -6.312  11.506  70.003  1.00  0.00    -0.116 C  
HETATM   27  O   UNL     1      -6.822  10.558  70.935  1.00  0.00    -0.403 OA 
HETATM   28  H   UNL     1      -6.420  10.634  71.792  1.00  0.00     0.000 HD 
ENDBRANCH  18  26
ENDBRANCH   5   6
ENDBRANCH   4   5
BRANCH   4  29
HETATM   29  C   UNL     1     -10.861  14.519  64.938  1.00  0.00    -0.421 C  
HETATM   30  C   UNL     1     -12.331  14.199  64.621  1.00  0.00    -0.432 C  
HETATM   31  C   UNL     1     -10.813  16.065  65.027  1.00  0.00    -0.421 C  
ENDBRANCH   4  29
ENDBRANCH   2   4
TORSDOF 7
ENDMDL
MODEL       42
REMARK 921   NORMALIZED FREE ENERGY PREDICTED BY IDOCK:   -5.58 KCAL/MOL
REMARK 922        TOTAL FREE ENERGY PREDICTED BY IDOCK:   -9.28 KCAL/MOL
REMARK 923 INTER-LIGAND FREE ENERGY PREDICTED BY IDOCK:   -6.98 KCAL/MOL
REMARK 924 INTRA-LIGAND FREE ENERGY PREDICTED BY IDOCK:   -2.30 KCAL/MOL
REMARK 927      BINDING AFFINITY PREDICTED BY RF-SCORE:    0.00 PKD
ROOT
HETATM    1  C   UNL     1     -11.283   6.366  68.310  1.00  0.00    -0.276 C  
HETATM    2  C   UNL     1     -10.196   6.935  67.367  1.00  0.00    -0.203 C  
HETATM    3  C   UNL     1     -10.612   8.400  67.162  1.00  0.00    -0.326 C  
ENDROOT
BRANCH   2   4
HETATM    4  N   UNL     1      -8.793   6.702  67.854  1.00  0.00    -0.116 NA 
BRANCH   4   5
HETATM    5  C   UNL     1      -8.739   6.107  69.227  1.00  0.00    -0.122 C  
BRANCH   5   6
HETATM    6  C   UNL     1      -7.951   6.908  70.298  1.00  0.00    -0.115 C  
HETATM    7  C   UNL     1      -8.752   7.405  71.554  1.00  0.00    -0.122 C  
HETATM    8  C   UNL     1      -9.918   8.358  71.176  1.00  0.00    -0.245 A  
HETATM    9  C   UNL     1      -9.159   6.276  72.553  1.00  0.00    -0.141 A  
HETATM   10  C   UNL     1      -9.129   4.921  72.202  1.00  0.00    -0.148 A  
HETATM   11  C   UNL     1      -9.759   9.584  70.495  1.00  0.00    -0.263 A  
HETATM   12  C   UNL     1     -10.862  10.430  70.270  1.00  0.00    -0.308 A  
HETATM   13  C   UNL     1      -9.782   3.931  72.935  1.00  0.00    -0.179 A  
HETATM   14  C   UNL     1     -10.379   5.584  74.555  1.00  0.00    -0.263 A  
HETATM   15  C   UNL     1     -12.145  10.064  70.679  1.00  0.00    -0.381 A  
HETATM   16  C   UNL     1     -10.447   4.270  74.098  1.00  0.00    -0.307 A  
HETATM   17  C   UNL     1     -11.240   8.027  71.560  1.00  0.00    -0.296 A  
HETATM   18  C   UNL     1     -12.349   8.855  71.335  1.00  0.00    -0.368 A  
HETATM   19  C   UNL     1      -9.706   6.572  73.817  1.00  0.00    -0.227 A  
BRANCH  11  20
HETATM   20  O   UNL     1      -8.464  10.034  70.115  1.00  0.00    -0.169 OA 
BRANCH  20  21
HETATM   21  C   UNL     1      -8.281  10.671  68.872  1.00  0.00    -0.145 C  
HETATM   22  O   UNL     1      -8.886  11.659  68.471  1.00  0.00    -0.165 OA 
HETATM   23  C   UNL     1      -7.206   9.959  68.062  1.00  0.00    -0.083 C  
HETATM   24  C   UNL     1      -5.822  10.504  68.411  1.00  0.00    -0.043 C  
HETATM   25  C   UNL     1      -7.468  10.138  66.565  1.00  0.00    -0.109 C  
ENDBRANCH  20  21
ENDBRANCH  11  20
BRANCH  18  26
HETATM   26  C   UNL     1     -13.711   8.504  71.887  1.00  0.00    -0.415 C  
HETATM   27  O   UNL     1     -13.907   8.985  73.213  1.00  0.00    -1.159 OA 
HETATM   28  H   UNL     1     -14.764   8.764  73.561  1.00  0.00     0.000 HD 
ENDBRANCH  18  26
ENDBRANCH   5   6
ENDBRANCH   4   5
BRANCH   4  29
HETATM   29  C   UNL     1      -7.847   6.004  66.929  1.00  0.00    -0.101 C  
HETATM   30  C   UNL     1      -8.178   6.121  65.432  1.00  0.00    -0.145 C  
HETATM   31  C   UNL     1      -6.400   6.544  67.047  1.00  0.00    -0.041 C  
ENDBRANCH   4  29
ENDBRANCH   2   4
TORSDOF 7
ENDMDL
MODEL       43
REMARK 921   NORMALIZED FREE ENERGY PREDICTED BY IDOCK:   -5.56 KCAL/MOL
REMARK 922        TOTAL FREE ENERGY PREDICTED BY IDOCK:   -9.25 KCAL/MOL
REMARK 923 INTER-LIGAND FREE ENERGY PREDICTED BY IDOCK:   -7.43 KCAL/MOL
REMARK 924 INTRA-LIGAND FREE ENERGY PREDICTED BY IDOCK:   -1.82 KCAL/MOL
REMARK 927      BINDING AFFINITY PREDICTED BY RF-SCORE:    0.00 PKD
ROOT
HETATM    1  C   UNL     1      -6.934  13.806  68.753  1.00  0.00    -0.109 C  
HETATM    2  C   UNL     1      -7.682  15.158  68.846  1.00  0.00    -0.159 C  
HETATM    3  C   UNL     1      -6.612  16.199  68.481  1.00  0.00    -0.122 C  
ENDROOT
BRANCH   2   4
HETATM    4  N   UNL     1      -8.954  15.200  68.046  1.00  0.00    -0.170 NA 
BRANCH   4   5
HETATM    5  C   UNL     1     -10.073  14.435  68.681  1.00  0.00    -0.242 C  
BRANCH   5   6
HETATM    6  C   UNL     1     -10.920  13.536  67.741  1.00  0.00    -0.284 C  
HETATM    7  C   UNL     1     -11.072  12.025  68.140  1.00  0.00    -0.294 C  
HETATM    8  C   UNL     1      -9.707  11.289  68.212  1.00  0.00    -0.199 A  
HETATM    9  C   UNL     1     -11.992  11.770  69.375  1.00  0.00    -0.361 A  
HETATM   10  C   UNL     1     -12.361  12.793  70.257  1.00  0.00    -0.277 A  
HETATM   11  C   UNL     1      -8.812  11.159  67.129  1.00  0.00    -0.143 A  
HETATM   12  C   UNL     1      -7.634  10.398  67.257  1.00  0.00    -0.095 A  
HETATM   13  C   UNL     1     -12.894  12.552  71.522  1.00  0.00    -0.367 A  
HETATM   14  C   UNL     1     -12.913  10.214  71.021  1.00  0.00    -0.473 A  
HETATM   15  C   UNL     1      -7.301   9.784  68.464  1.00  0.00    -0.074 A  
HETATM   16  C   UNL     1     -13.133  11.252  71.924  1.00  0.00    -0.510 A  
HETATM   17  C   UNL     1      -9.319  10.657  69.419  1.00  0.00    -0.082 A  
HETATM   18  C   UNL     1      -8.146   9.903  69.563  1.00  0.00    -0.155 A  
HETATM   19  C   UNL     1     -12.389  10.469  69.743  1.00  0.00    -0.200 A  
BRANCH  11  20
HETATM   20  O   UNL     1      -9.134  11.710  65.857  1.00  0.00    -0.207 OA 
BRANCH  20  21
HETATM   21  C   UNL     1      -9.687  10.886  64.857  1.00  0.00    -0.266 C  
HETATM   22  O   UNL     1     -10.008   9.710  64.986  1.00  0.00    -0.224 OA 
HETATM   23  C   UNL     1      -9.841  11.661  63.555  1.00  0.00    -0.391 C  
HETATM   24  C   UNL     1     -11.180  12.396  63.523  1.00  0.00    -0.540 C  
HETATM   25  C   UNL     1      -9.747  10.708  62.361  1.00  0.00    -0.095 C  
ENDBRANCH  20  21
ENDBRANCH  11  20
BRANCH  18  26
HETATM   26  C   UNL     1      -7.856   9.146  70.838  1.00  0.00    -0.132 C  
HETATM   27  O   UNL     1      -8.892   9.283  71.805  1.00  0.00    -0.293 OA 
HETATM   28  H   UNL     1      -8.710   8.807  72.607  1.00  0.00     0.000 HD 
ENDBRANCH  18  26
ENDBRANCH   5   6
ENDBRANCH   4   5
BRANCH   4  29
HETATM   29  C   UNL     1      -9.422  16.535  67.563  1.00  0.00    -0.224 C  
HETATM   30  C   UNL     1      -9.925  16.575  66.110  1.00  0.00    -0.363 C  
HETATM   31  C   UNL     1     -10.608  17.082  68.396  1.00  0.00    -0.375 C  
ENDBRANCH   4  29
ENDBRANCH   2   4
TORSDOF 7
ENDMDL
MODEL       44
REMARK 921   NORMALIZED FREE ENERGY PREDICTED BY IDOCK:   -5.55 KCAL/MOL
REMARK 922        TOTAL FREE ENERGY PREDICTED BY IDOCK:   -9.23 KCAL/MOL
REMARK 923 INTER-LIGAND FREE ENERGY PREDICTED BY IDOCK:   -7.06 KCAL/MOL
REMARK 924 INTRA-LIGAND FREE ENERGY PREDICTED BY IDOCK:   -2.16 KCAL/MOL
REMARK 927      BINDING AFFINITY PREDICTED BY RF-SCORE:    0.00 PKD
ROOT
HETATM    1  C   UNL     1     -11.862  15.550  69.022  1.00  0.00    -0.373 C  
HETATM    2  C   UNL     1     -10.762  16.637  69.092  1.00  0.00    -0.342 C  
HETATM    3  C   UNL     1      -9.565  15.912  69.728  1.00  0.00    -0.084 C  
ENDROOT
BRANCH   2   4
HETATM    4  N   UNL     1     -10.506  17.321  67.778  1.00  0.00    -0.359 NA 
BRANCH   4   5
HETATM    5  C   UNL     1     -11.012  16.545  66.603  1.00  0.00     0.060 C  
BRANCH   5   6
HETATM    6  C   UNL     1      -9.990  16.261  65.468  1.00  0.00    -0.217 C  
HETATM    7  C   UNL     1      -9.551  14.768  65.257  1.00  0.00     0.048 C  
HETATM    8  C   UNL     1      -8.869  14.167  66.515  1.00  0.00    -0.071 A  
HETATM    9  C   UNL     1     -10.649  13.851  64.634  1.00  0.00    -0.432 A  
HETATM   10  C   UNL     1     -11.998  14.221  64.593  1.00  0.00    -0.468 A  
HETATM   11  C   UNL     1      -7.696  14.678  67.110  1.00  0.00    -0.088 A  
HETATM   12  C   UNL     1      -7.095  14.017  68.198  1.00  0.00    -0.125 A  
HETATM   13  C   UNL     1     -13.029  13.314  64.353  1.00  0.00     0.101 A  
HETATM   14  C   UNL     1     -11.389  11.617  63.970  1.00  0.00    -0.428 A  
HETATM   15  C   UNL     1      -7.660  12.862  68.740  1.00  0.00    -0.025 A  
HETATM   16  C   UNL     1     -12.725  11.994  64.080  1.00  0.00    -0.415 A  
HETATM   17  C   UNL     1      -9.410  13.000  67.109  1.00  0.00    -0.230 A  
HETATM   18  C   UNL     1      -8.827  12.336  68.197  1.00  0.00    -0.187 A  
HETATM   19  C   UNL     1     -10.357  12.541  64.201  1.00  0.00    -0.416 A  
BRANCH  11  20
HETATM   20  O   UNL     1      -7.043  15.814  66.556  1.00  0.00    -0.099 OA 
BRANCH  20  21
HETATM   21  C   UNL     1      -6.314  16.681  67.394  1.00  0.00    -0.169 C  
HETATM   22  O   UNL     1      -5.179  16.491  67.815  1.00  0.00    -0.108 OA 
HETATM   23  C   UNL     1      -7.136  17.920  67.721  1.00  0.00    -0.207 C  
HETATM   24  C   UNL     1      -6.945  18.990  66.647  1.00  0.00    -0.220 C  
HETATM   25  C   UNL     1      -6.726  18.479  69.085  1.00  0.00    -0.280 C  
ENDBRANCH  20  21
ENDBRANCH  11  20
BRANCH  18  26
HETATM   26  C   UNL     1      -9.381  11.023  68.699  1.00  0.00    -0.194 C  
HETATM   27  O   UNL     1      -8.685  10.533  69.841  1.00  0.00    -0.373 OA 
HETATM   28  H   UNL     1      -9.034   9.707  70.157  1.00  0.00     0.000 HD 
ENDBRANCH  18  26
ENDBRANCH   5   6
ENDBRANCH   4   5
BRANCH   4  29
HETATM   29  C   UNL     1     -10.877  18.766  67.668  1.00  0.00    -0.317 C  
HETATM   30  C   UNL     1     -10.284  19.686  68.747  1.00  0.00    -0.460 C  
HETATM   31  C   UNL     1     -10.415  19.393  66.329  1.00  0.00    -0.586 C  
ENDBRANCH   4  29
ENDBRANCH   2   4
TORSDOF 7
ENDMDL
MODEL       45
REMARK 921   NORMALIZED FREE ENERGY PREDICTED BY IDOCK:   -5.49 KCAL/MOL
REMARK 922        TOTAL FREE ENERGY PREDICTED BY IDOCK:   -9.14 KCAL/MOL
REMARK 923 INTER-LIGAND FREE ENERGY PREDICTED BY IDOCK:   -8.42 KCAL/MOL
REMARK 924 INTRA-LIGAND FREE ENERGY PREDICTED BY IDOCK:   -0.72 KCAL/MOL
REMARK 927      BINDING AFFINITY PREDICTED BY RF-SCORE:    0.00 PKD
ROOT
HETATM    1  C   UNL     1      -7.788  10.801  65.722  1.00  0.00    -0.106 C  
HETATM    2  C   UNL     1      -9.165  10.303  65.221  1.00  0.00    -0.199 C  
HETATM    3  C   UNL     1      -9.039   8.771  65.253  1.00  0.00    -0.156 C  
ENDROOT
BRANCH   2   4
HETATM    4  N   UNL     1     -10.329  10.892  65.968  1.00  0.00    -0.249 NA 
BRANCH   4   5
HETATM    5  C   UNL     1     -10.480  10.338  67.351  1.00  0.00    -0.251 C  
BRANCH   5   6
HETATM    6  C   UNL     1      -9.876  11.181  68.506  1.00  0.00    -0.199 C  
HETATM    7  C   UNL     1      -9.748  10.487  69.908  1.00  0.00     0.098 C  
HETATM    8  C   UNL     1     -11.120  10.032  70.473  1.00  0.00    -0.400 A  
HETATM    9  C   UNL     1      -8.637   9.394  69.992  1.00  0.00    -0.218 A  
HETATM   10  C   UNL     1      -8.051   8.833  68.850  1.00  0.00    -0.114 A  
HETATM   11  C   UNL     1     -12.203  10.897  70.735  1.00  0.00    -0.383 A  
HETATM   12  C   UNL     1     -13.383  10.413  71.331  1.00  0.00    -0.373 A  
HETATM   13  C   UNL     1      -7.314   7.651  68.876  1.00  0.00    -0.090 A  
HETATM   14  C   UNL     1      -7.531   7.617  71.256  1.00  0.00    -0.079 A  
HETATM   15  C   UNL     1     -13.529   9.061  71.645  1.00  0.00    -0.442 A  
HETATM   16  C   UNL     1      -7.086   7.015  70.081  1.00  0.00    -0.067 A  
HETATM   17  C   UNL     1     -11.321   8.668  70.799  1.00  0.00    -0.299 A  
HETATM   18  C   UNL     1     -12.494   8.170  71.385  1.00  0.00    -0.313 A  
HETATM   19  C   UNL     1      -8.261   8.816  71.222  1.00  0.00    -0.212 A  
BRANCH  11  20
HETATM   20  O   UNL     1     -12.084  12.294  70.495  1.00  0.00    -0.364 OA 
BRANCH  20  21
HETATM   21  C   UNL     1     -12.725  13.210  71.353  1.00  0.00    -0.297 C  
HETATM   22  O   UNL     1     -13.257  12.944  72.424  1.00  0.00    -0.471 OA 
HETATM   23  C   UNL     1     -12.674  14.614  70.765  1.00  0.00    -0.422 C  
HETATM   24  C   UNL     1     -11.382  15.320  71.173  1.00  0.00    -0.402 C  
HETATM   25  C   UNL     1     -13.879  15.428  71.242  1.00  0.00    -0.523 C  
ENDBRANCH  20  21
ENDBRANCH  11  20
BRANCH  18  26
HETATM   26  C   UNL     1     -12.594   6.729  71.829  1.00  0.00    -0.325 C  
HETATM   27  O   UNL     1     -13.903   6.378  72.267  1.00  0.00    -0.462 OA 
HETATM   28  H   UNL     1     -13.966   5.472  72.545  1.00  0.00     0.000 HD 
ENDBRANCH  18  26
ENDBRANCH   5   6
ENDBRANCH   4   5
BRANCH   4  29
HETATM   29  C   UNL     1     -10.467  12.381  65.969  1.00  0.00    -0.254 C  
HETATM   30  C   UNL     1     -10.345  13.057  64.593  1.00  0.00    -0.374 C  
HETATM   31  C   UNL     1     -11.843  12.846  66.507  1.00  0.00    -0.473 C  
ENDBRANCH   4  29
ENDBRANCH   2   4
TORSDOF 7
ENDMDL
MODEL       46
REMARK 921   NORMALIZED FREE ENERGY PREDICTED BY IDOCK:   -5.49 KCAL/MOL
REMARK 922        TOTAL FREE ENERGY PREDICTED BY IDOCK:   -9.14 KCAL/MOL
REMARK 923 INTER-LIGAND FREE ENERGY PREDICTED BY IDOCK:   -7.03 KCAL/MOL
REMARK 924 INTRA-LIGAND FREE ENERGY PREDICTED BY IDOCK:   -2.11 KCAL/MOL
REMARK 927      BINDING AFFINITY PREDICTED BY RF-SCORE:    0.00 PKD
ROOT
HETATM    1  C   UNL     1     -10.777  12.267  65.553  1.00  0.00    -0.314 C  
HETATM    2  C   UNL     1     -11.435  13.269  66.532  1.00  0.00    -0.337 C  
HETATM    3  C   UNL     1     -12.657  13.793  65.760  1.00  0.00    -0.525 C  
ENDROOT
BRANCH   2   4
HETATM    4  N   UNL     1     -11.704  12.693  67.894  1.00  0.00    -0.350 NA 
BRANCH   4   5
HETATM    5  C   UNL     1     -11.340  11.245  68.002  1.00  0.00    -0.304 C  
BRANCH   5   6
HETATM    6  C   UNL     1     -10.656  10.799  69.322  1.00  0.00    -0.261 C  
HETATM    7  C   UNL     1      -9.410   9.850  69.198  1.00  0.00    -0.197 C  
HETATM    8  C   UNL     1      -9.753   8.509  68.497  1.00  0.00    -0.174 A  
HETATM    9  C   UNL     1      -8.123  10.539  68.646  1.00  0.00    -0.127 A  
HETATM   10  C   UNL     1      -8.158  11.778  67.994  1.00  0.00    -0.145 A  
HETATM   11  C   UNL     1     -10.710   7.584  68.967  1.00  0.00    -0.134 A  
HETATM   12  C   UNL     1     -10.896   6.348  68.317  1.00  0.00    -0.384 A  
HETATM   13  C   UNL     1      -7.106  12.258  67.215  1.00  0.00    -0.138 A  
HETATM   14  C   UNL     1      -5.814  10.354  67.863  1.00  0.00    -0.044 A  
HETATM   15  C   UNL     1     -10.168   6.020  67.173  1.00  0.00    -0.248 A  
HETATM   16  C   UNL     1      -5.941  11.522  67.115  1.00  0.00    -0.111 A  
HETATM   17  C   UNL     1      -9.049   8.134  67.327  1.00  0.00    -0.156 A  
HETATM   18  C   UNL     1      -9.229   6.911  66.665  1.00  0.00    -0.185 A  
HETATM   19  C   UNL     1      -6.874   9.885  68.656  1.00  0.00    -0.051 A  
BRANCH  11  20
HETATM   20  O   UNL     1     -11.432   7.840  70.166  1.00  0.00    -0.185 OA 
BRANCH  20  21
HETATM   21  C   UNL     1     -11.152   7.091  71.326  1.00  0.00    -0.252 C  
HETATM   22  O   UNL     1     -11.715   6.059  71.672  1.00  0.00    -0.262 OA 
HETATM   23  C   UNL     1     -10.028   7.743  72.120  1.00  0.00    -0.249 C  
HETATM   24  C   UNL     1      -8.667   7.258  71.622  1.00  0.00    -0.122 C  
HETATM   25  C   UNL     1     -10.178   7.419  73.608  1.00  0.00    -0.380 C  
ENDBRANCH  20  21
ENDBRANCH  11  20
BRANCH  18  26
HETATM   26  C   UNL     1      -8.352   6.517  65.499  1.00  0.00    -0.146 C  
HETATM   27  O   UNL     1      -8.596   7.305  64.338  1.00  0.00    -0.358 OA 
HETATM   28  H   UNL     1      -8.045   7.058  63.605  1.00  0.00     0.000 HD 
ENDBRANCH  18  26
ENDBRANCH   5   6
ENDBRANCH   4   5
BRANCH   4  29
HETATM   29  C   UNL     1     -11.210  13.460  69.078  1.00  0.00    -0.275 C  
HETATM   30  C   UNL     1     -10.351  14.694  68.756  1.00  0.00    -0.248 C  
HETATM   31  C   UNL     1     -12.367  14.013  69.948  1.00  0.00    -0.367 C  
ENDBRANCH   4  29
ENDBRANCH   2   4
TORSDOF 7
ENDMDL
MODEL       47
REMARK 921   NORMALIZED FREE ENERGY PREDICTED BY IDOCK:   -5.48 KCAL/MOL
REMARK 922        TOTAL FREE ENERGY PREDICTED BY IDOCK:   -9.13 KCAL/MOL
REMARK 923 INTER-LIGAND FREE ENERGY PREDICTED BY IDOCK:   -8.57 KCAL/MOL
REMARK 924 INTRA-LIGAND FREE ENERGY PREDICTED BY IDOCK:   -0.57 KCAL/MOL
REMARK 927      BINDING AFFINITY PREDICTED BY RF-SCORE:    0.00 PKD
ROOT
HETATM    1  C   UNL     1      -6.131  13.809  69.761  1.00  0.00    -0.127 C  
HETATM    2  C   UNL     1      -6.929  15.077  69.373  1.00  0.00    -0.172 C  
HETATM    3  C   UNL     1      -5.968  16.232  69.694  1.00  0.00    -0.176 C  
ENDROOT
BRANCH   2   4
HETATM    4  N   UNL     1      -7.482  15.038  67.975  1.00  0.00    -0.112 NA 
BRANCH   4   5
HETATM    5  C   UNL     1      -7.602  13.649  67.430  1.00  0.00    -0.130 C  
BRANCH   5   6
HETATM    6  C   UNL     1      -8.417  12.638  68.280  1.00  0.00    -0.163 C  
HETATM    7  C   UNL     1      -9.462  11.743  67.523  1.00  0.00    -0.174 C  
HETATM    8  C   UNL     1     -10.557  12.582  66.811  1.00  0.00    -0.253 A  
HETATM    9  C   UNL     1      -8.834  10.633  66.624  1.00  0.00    -0.149 A  
HETATM   10  C   UNL     1      -7.486  10.649  66.247  1.00  0.00    -0.137 A  
HETATM   11  C   UNL     1     -11.436  13.471  67.467  1.00  0.00    -0.329 A  
HETATM   12  C   UNL     1     -12.460  14.126  66.756  1.00  0.00    -0.200 A  
HETATM   13  C   UNL     1      -6.979   9.878  65.202  1.00  0.00    -0.128 A  
HETATM   14  C   UNL     1      -9.127   8.855  64.971  1.00  0.00    -0.110 A  
HETATM   15  C   UNL     1     -12.610  13.946  65.381  1.00  0.00    -0.538 A  
HETATM   16  C   UNL     1      -7.814   9.004  64.532  1.00  0.00    -0.123 A  
HETATM   17  C   UNL     1     -10.743  12.443  65.414  1.00  0.00    -0.317 A  
HETATM   18  C   UNL     1     -11.752  13.095  64.691  1.00  0.00    -0.404 A  
HETATM   19  C   UNL     1      -9.626   9.627  66.034  1.00  0.00    -0.305 A  
BRANCH  11  20
HETATM   20  O   UNL     1     -11.368  13.640  68.878  1.00  0.00    -0.256 OA 
BRANCH  20  21
HETATM   21  C   UNL     1     -11.786  14.854  69.458  1.00  0.00    -0.320 C  
HETATM   22  O   UNL     1     -11.965  15.912  68.867  1.00  0.00    -0.370 OA 
HETATM   23  C   UNL     1     -11.992  14.684  70.958  1.00  0.00    -0.399 C  
HETATM   24  C   UNL     1     -13.409  14.193  71.252  1.00  0.00    -0.370 C  
HETATM   25  C   UNL     1     -11.746  16.011  71.678  1.00  0.00    -0.583 C  
ENDBRANCH  20  21
ENDBRANCH  11  20
BRANCH  18  26
HETATM   26  C   UNL     1     -11.979  12.801  63.227  1.00  0.00    -0.443 C  
HETATM   27  O   UNL     1     -12.487  11.489  63.003  1.00  0.00    -0.982 OA 
HETATM   28  H   UNL     1     -12.630  11.304  62.082  1.00  0.00     0.000 HD 
ENDBRANCH  18  26
ENDBRANCH   5   6
ENDBRANCH   4   5
BRANCH   4  29
HETATM   29  C   UNL     1      -8.718  15.832  67.699  1.00  0.00    -0.170 C  
HETATM   30  C   UNL     1      -8.680  17.298  68.160  1.00  0.00    -0.243 C  
HETATM   31  C   UNL     1      -9.043  15.912  66.187  1.00  0.00    -0.385 C  
ENDBRANCH   4  29
ENDBRANCH   2   4
TORSDOF 7
ENDMDL
MODEL       48
REMARK 921   NORMALIZED FREE ENERGY PREDICTED BY IDOCK:   -5.48 KCAL/MOL
REMARK 922        TOTAL FREE ENERGY PREDICTED BY IDOCK:   -9.13 KCAL/MOL
REMARK 923 INTER-LIGAND FREE ENERGY PREDICTED BY IDOCK:   -7.60 KCAL/MOL
REMARK 924 INTRA-LIGAND FREE ENERGY PREDICTED BY IDOCK:   -1.53 KCAL/MOL
REMARK 927      BINDING AFFINITY PREDICTED BY RF-SCORE:    0.00 PKD
ROOT
HETATM    1  C   UNL     1     -11.477   6.822  71.310  1.00  0.00    -0.347 C  
HETATM    2  C   UNL     1     -11.307   8.054  72.232  1.00  0.00    -0.353 C  
HETATM    3  C   UNL     1      -9.994   7.776  72.982  1.00  0.00    -0.356 C  
ENDROOT
BRANCH   2   4
HETATM    4  N   UNL     1     -11.395   9.367  71.505  1.00  0.00    -0.379 NA 
BRANCH   4   5
HETATM    5  C   UNL     1     -10.548   9.414  70.272  1.00  0.00    -0.250 C  
BRANCH   5   6
HETATM    6  C   UNL     1     -11.260   9.840  68.959  1.00  0.00    -0.080 C  
HETATM    7  C   UNL     1     -10.360  10.030  67.686  1.00  0.00    -0.272 C  
HETATM    8  C   UNL     1      -9.277  11.125  67.883  1.00  0.00    -0.154 A  
HETATM    9  C   UNL     1      -9.811   8.703  67.076  1.00  0.00    -0.284 A  
HETATM   10  C   UNL     1      -9.820   7.494  67.783  1.00  0.00    -0.191 A  
HETATM   11  C   UNL     1      -9.552  12.477  68.183  1.00  0.00    -0.215 A  
HETATM   12  C   UNL     1      -8.512  13.423  68.256  1.00  0.00    -0.166 A  
HETATM   13  C   UNL     1      -9.058   6.388  67.409  1.00  0.00    -0.111 A  
HETATM   14  C   UNL     1      -8.373   7.576  65.451  1.00  0.00    -0.129 A  
HETATM   15  C   UNL     1      -7.182  13.046  68.072  1.00  0.00    -0.119 A  
HETATM   16  C   UNL     1      -8.296   6.443  66.258  1.00  0.00    -0.123 A  
HETATM   17  C   UNL     1      -7.911  10.791  67.716  1.00  0.00    -0.109 A  
HETATM   18  C   UNL     1      -6.864  11.721  67.795  1.00  0.00    -0.090 A  
HETATM   19  C   UNL     1      -9.154   8.680  65.829  1.00  0.00    -0.242 A  
BRANCH  11  20
HETATM   20  O   UNL     1     -10.896  12.926  68.314  1.00  0.00    -0.225 OA 
BRANCH  20  21
HETATM   21  C   UNL     1     -11.420  13.846  67.385  1.00  0.00    -0.348 C  
HETATM   22  O   UNL     1     -11.598  15.044  67.577  1.00  0.00    -0.344 OA 
HETATM   23  C   UNL     1     -11.751  13.146  66.073  1.00  0.00    -0.424 C  
HETATM   24  C   UNL     1     -10.525  13.108  65.162  1.00  0.00    -0.339 C  
HETATM   25  C   UNL     1     -12.897  13.871  65.364  1.00  0.00    -0.466 C  
ENDBRANCH  20  21
ENDBRANCH  11  20
BRANCH  18  26
HETATM   26  C   UNL     1      -5.441  11.324  67.477  1.00  0.00    -0.047 C  
HETATM   27  O   UNL     1      -5.302  10.780  66.169  1.00  0.00    -0.072 OA 
HETATM   28  H   UNL     1      -4.408  10.530  65.968  1.00  0.00     0.000 HD 
ENDBRANCH  18  26
ENDBRANCH   5   6
ENDBRANCH   4   5
BRANCH   4  29
HETATM   29  C   UNL     1     -12.759   9.920  71.242  1.00  0.00    -0.383 C  
HETATM   30  C   UNL     1     -13.889   9.334  72.105  1.00  0.00    -0.478 C  
HETATM   31  C   UNL     1     -12.836  11.447  71.492  1.00  0.00    -0.508 C  
ENDBRANCH   4  29
ENDBRANCH   2   4
TORSDOF 7
ENDMDL
MODEL       49
REMARK 921   NORMALIZED FREE ENERGY PREDICTED BY IDOCK:   -5.47 KCAL/MOL
REMARK 922        TOTAL FREE ENERGY PREDICTED BY IDOCK:   -9.12 KCAL/MOL
REMARK 923 INTER-LIGAND FREE ENERGY PREDICTED BY IDOCK:   -6.73 KCAL/MOL
REMARK 924 INTRA-LIGAND FREE ENERGY PREDICTED BY IDOCK:   -2.39 KCAL/MOL
REMARK 927      BINDING AFFINITY PREDICTED BY RF-SCORE:    0.00 PKD
ROOT
HETATM    1  C   UNL     1     -11.567  10.703  68.446  1.00  0.00    -0.269 C  
HETATM    2  C   UNL     1     -10.606   9.494  68.543  1.00  0.00    -0.212 C  
HETATM    3  C   UNL     1     -10.728   8.813  67.170  1.00  0.00    -0.204 C  
ENDROOT
BRANCH   2   4
HETATM    4  N   UNL     1      -9.216   9.862  68.983  1.00  0.00    -0.158 NA 
BRANCH   4   5
HETATM    5  C   UNL     1      -8.998  11.341  69.064  1.00  0.00     0.038 C  
BRANCH   5   6
HETATM    6  C   UNL     1      -7.836  11.918  68.211  1.00  0.00    -0.141 C  
HETATM    7  C   UNL     1      -8.222  12.887  67.037  1.00  0.00    -0.086 C  
HETATM    8  C   UNL     1      -9.141  12.210  65.985  1.00  0.00    -0.057 A  
HETATM    9  C   UNL     1      -8.718  14.295  67.495  1.00  0.00    -0.204 A  
HETATM   10  C   UNL     1      -9.117  14.556  68.811  1.00  0.00    -0.158 A  
HETATM   11  C   UNL     1      -8.793  11.062  65.241  1.00  0.00    -0.129 A  
HETATM   12  C   UNL     1      -9.652  10.565  64.242  1.00  0.00    -0.364 A  
HETATM   13  C   UNL     1      -9.860  15.679  69.172  1.00  0.00    -0.247 A  
HETATM   14  C   UNL     1      -9.674  16.472  66.924  1.00  0.00    -0.259 A  
HETATM   15  C   UNL     1     -10.884  11.168  63.987  1.00  0.00    -0.351 A  
HETATM   16  C   UNL     1     -10.176  16.624  68.215  1.00  0.00    -0.281 A  
HETATM   17  C   UNL     1     -10.406  12.778  65.697  1.00  0.00    -0.296 A  
HETATM   18  C   UNL     1     -11.275  12.289  64.711  1.00  0.00    -0.364 A  
HETATM   19  C   UNL     1      -8.916  15.343  66.573  1.00  0.00    -0.344 A  
BRANCH  11  20
HETATM   20  O   UNL     1      -7.522  10.448  65.416  1.00  0.00    -0.144 OA 
BRANCH  20  21
HETATM   21  C   UNL     1      -7.338   9.101  65.046  1.00  0.00    -0.100 C  
HETATM   22  O   UNL     1      -7.185   8.681  63.905  1.00  0.00    -0.093 OA 
HETATM   23  C   UNL     1      -7.354   8.205  66.277  1.00  0.00    -0.078 C  
HETATM   24  C   UNL     1      -5.956   8.105  66.886  1.00  0.00    -0.053 C  
HETATM   25  C   UNL     1      -7.856   6.808  65.905  1.00  0.00    -0.103 C  
ENDBRANCH  20  21
ENDBRANCH  11  20
BRANCH  18  26
HETATM   26  C   UNL     1     -12.551  13.020  64.362  1.00  0.00    -0.285 C  
HETATM   27  O   UNL     1     -12.391  13.912  63.264  1.00  0.00    -1.115 OA 
HETATM   28  H   UNL     1     -13.193  14.371  63.044  1.00  0.00     0.000 HD 
ENDBRANCH  18  26
ENDBRANCH   5   6
ENDBRANCH   4   5
BRANCH   4  29
HETATM   29  C   UNL     1      -8.669   9.172  70.191  1.00  0.00    -0.181 C  
HETATM   30  C   UNL     1      -9.663   8.970  71.346  1.00  0.00    -0.369 C  
HETATM   31  C   UNL     1      -8.153   7.746  69.873  1.00  0.00    -0.120 C  
ENDBRANCH   4  29
ENDBRANCH   2   4
TORSDOF 7
ENDMDL
MODEL       50
REMARK 921   NORMALIZED FREE ENERGY PREDICTED BY IDOCK:   -5.46 KCAL/MOL
REMARK 922        TOTAL FREE ENERGY PREDICTED BY IDOCK:   -9.11 KCAL/MOL
REMARK 923 INTER-LIGAND FREE ENERGY PREDICTED BY IDOCK:   -7.15 KCAL/MOL
REMARK 924 INTRA-LIGAND FREE ENERGY PREDICTED BY IDOCK:   -1.95 KCAL/MOL
REMARK 927      BINDING AFFINITY PREDICTED BY RF-SCORE:    0.00 PKD
ROOT
HETATM    1  C   UNL     1     -12.045  12.845  63.336  1.00  0.00    -0.610 C  
HETATM    2  C   UNL     1     -11.200  11.721  63.982  1.00  0.00    -0.385 C  
HETATM    3  C   UNL     1      -9.949  11.640  63.092  1.00  0.00    -0.400 C  
ENDROOT
BRANCH   2   4
HETATM    4  N   UNL     1     -10.961  11.916  65.453  1.00  0.00    -0.296 NA 
BRANCH   4   5
HETATM    5  C   UNL     1      -9.975  10.944  66.022  1.00  0.00    -0.240 C  
BRANCH   5   6
HETATM    6  C   UNL     1     -10.492   9.504  66.283  1.00  0.00    -0.137 C  
HETATM    7  C   UNL     1     -10.169   8.869  67.683  1.00  0.00    -0.296 C  
HETATM    8  C   UNL     1      -8.643   8.759  67.946  1.00  0.00    -0.130 A  
HETATM    9  C   UNL     1     -10.972   9.481  68.873  1.00  0.00    -0.116 A  
HETATM   10  C   UNL     1     -11.648  10.702  68.770  1.00  0.00    -0.309 A  
HETATM   11  C   UNL     1      -7.744   8.028  67.140  1.00  0.00    -0.101 A  
HETATM   12  C   UNL     1      -6.388   7.907  67.502  1.00  0.00    -0.055 A  
HETATM   13  C   UNL     1     -12.088  11.424  69.879  1.00  0.00    -0.404 A  
HETATM   14  C   UNL     1     -11.374   9.624  71.281  1.00  0.00    -0.458 A  
HETATM   15  C   UNL     1      -5.889   8.536  68.644  1.00  0.00    -0.044 A  
HETATM   16  C   UNL     1     -11.913  10.901  71.146  1.00  0.00    -0.317 A  
HETATM   17  C   UNL     1      -8.086   9.387  69.086  1.00  0.00    -0.107 A  
HETATM   18  C   UNL     1      -6.737   9.283  69.455  1.00  0.00    -0.048 A  
HETATM   19  C   UNL     1     -10.946   8.898  70.156  1.00  0.00    -0.245 A  
BRANCH  11  20
HETATM   20  O   UNL     1      -8.213   7.314  66.003  1.00  0.00    -0.122 OA 
BRANCH  20  21
HETATM   21  C   UNL     1      -8.290   5.907  66.041  1.00  0.00    -0.128 C  
HETATM   22  O   UNL     1      -7.343   5.134  66.122  1.00  0.00    -0.079 OA 
HETATM   23  C   UNL     1      -9.742   5.454  65.969  1.00  0.00    -0.134 C  
HETATM   24  C   UNL     1     -10.361   5.407  67.365  1.00  0.00    -0.258 C  
HETATM   25  C   UNL     1      -9.830   4.070  65.321  1.00  0.00    -0.199 C  
ENDBRANCH  20  21
ENDBRANCH  11  20
BRANCH  18  26
HETATM   26  C   UNL     1      -6.234   9.868  70.754  1.00  0.00    -0.093 C  
HETATM   27  O   UNL     1      -6.399  11.281  70.820  1.00  0.00    -0.483 OA 
HETATM   28  H   UNL     1      -6.084  11.649  71.637  1.00  0.00     0.000 HD 
ENDBRANCH  18  26
ENDBRANCH   5   6
ENDBRANCH   4   5
BRANCH   4  29
HETATM   29  C   UNL     1     -10.683  13.305  65.930  1.00  0.00    -0.275 C  
HETATM   30  C   UNL     1     -11.748  13.914  66.856  1.00  0.00    -0.425 C  
HETATM   31  C   UNL     1      -9.367  13.399  66.741  1.00  0.00    -0.260 C  
ENDBRANCH   4  29
ENDBRANCH   2   4
TORSDOF 7
ENDMDL
MODEL       51
REMARK 921   NORMALIZED FREE ENERGY PREDICTED BY IDOCK:   -5.45 KCAL/MOL
REMARK 922        TOTAL FREE ENERGY PREDICTED BY IDOCK:   -9.09 KCAL/MOL
REMARK 923 INTER-LIGAND FREE ENERGY PREDICTED BY IDOCK:   -6.87 KCAL/MOL
REMARK 924 INTRA-LIGAND FREE ENERGY PREDICTED BY IDOCK:   -2.23 KCAL/MOL
REMARK 927      BINDING AFFINITY PREDICTED BY RF-SCORE:    0.00 PKD
ROOT
HETATM    1  C   UNL     1     -12.905  13.693  64.857  1.00  0.00    -0.256 C  
HETATM    2  C   UNL     1     -11.638  13.038  65.457  1.00  0.00    -0.347 C  
HETATM    3  C   UNL     1     -10.546  13.318  64.412  1.00  0.00    -0.438 C  
ENDROOT
BRANCH   2   4
HETATM    4  N   UNL     1     -11.342  13.474  66.865  1.00  0.00    -0.315 NA 
BRANCH   4   5
HETATM    5  C   UNL     1     -11.265  12.333  67.830  1.00  0.00    -0.276 C  
BRANCH   5   6
HETATM    6  C   UNL     1     -11.019  10.926  67.221  1.00  0.00    -0.355 C  
HETATM    7  C   UNL     1      -9.917  10.035  67.899  1.00  0.00    -0.183 C  
HETATM    8  C   UNL     1      -8.513  10.696  67.861  1.00  0.00    -0.120 A  
HETATM    9  C   UNL     1     -10.311   9.470  69.299  1.00  0.00    -0.219 A  
HETATM   10  C   UNL     1     -11.383   9.983  70.039  1.00  0.00    -0.334 A  
HETATM   11  C   UNL     1      -7.832  11.058  66.679  1.00  0.00    -0.153 A  
HETATM   12  C   UNL     1      -6.522  11.572  66.732  1.00  0.00    -0.128 A  
HETATM   13  C   UNL     1     -11.556   9.736  71.400  1.00  0.00    -0.452 A  
HETATM   14  C   UNL     1      -9.681   8.255  71.326  1.00  0.00    -0.225 A  
HETATM   15  C   UNL     1      -5.877  11.772  67.953  1.00  0.00    -0.050 A  
HETATM   16  C   UNL     1     -10.676   8.899  72.058  1.00  0.00    -0.389 A  
HETATM   17  C   UNL     1      -7.820  10.929  69.074  1.00  0.00    -0.138 A  
HETATM   18  C   UNL     1      -6.519  11.447  69.143  1.00  0.00    -0.085 A  
HETATM   19  C   UNL     1      -9.522   8.501  69.952  1.00  0.00    -0.163 A  
BRANCH  11  20
HETATM   20  O   UNL     1      -8.419  10.814  65.406  1.00  0.00    -0.171 OA 
BRANCH  20  21
HETATM   21  C   UNL     1      -7.759   9.984  64.478  1.00  0.00    -0.145 C  
HETATM   22  O   UNL     1      -6.884  10.331  63.693  1.00  0.00    -0.134 OA 
HETATM   23  C   UNL     1      -8.283   8.557  64.574  1.00  0.00    -0.158 C  
HETATM   24  C   UNL     1      -7.518   7.774  65.640  1.00  0.00    -0.075 C  
HETATM   25  C   UNL     1      -8.149   7.854  63.222  1.00  0.00    -0.089 C  
ENDBRANCH  20  21
ENDBRANCH  11  20
BRANCH  18  26
HETATM   26  C   UNL     1      -5.787  11.548  70.461  1.00  0.00    -0.129 C  
HETATM   27  O   UNL     1      -6.030  12.780  71.132  1.00  0.00    -0.546 OA 
HETATM   28  H   UNL     1      -5.570  12.843  71.961  1.00  0.00     0.000 HD 
ENDBRANCH  18  26
ENDBRANCH   5   6
ENDBRANCH   4   5
BRANCH   4  29
HETATM   29  C   UNL     1     -10.207  14.427  67.068  1.00  0.00    -0.263 C  
HETATM   30  C   UNL     1     -10.593  15.914  67.121  1.00  0.00    -0.316 C  
HETATM   31  C   UNL     1      -9.456  14.175  68.399  1.00  0.00    -0.214 C  
ENDBRANCH   4  29
ENDBRANCH   2   4
TORSDOF 7
ENDMDL
MODEL       52
REMARK 921   NORMALIZED FREE ENERGY PREDICTED BY IDOCK:   -5.44 KCAL/MOL
REMARK 922        TOTAL FREE ENERGY PREDICTED BY IDOCK:   -9.07 KCAL/MOL
REMARK 923 INTER-LIGAND FREE ENERGY PREDICTED BY IDOCK:   -7.68 KCAL/MOL
REMARK 924 INTRA-LIGAND FREE ENERGY PREDICTED BY IDOCK:   -1.39 KCAL/MOL
REMARK 927      BINDING AFFINITY PREDICTED BY RF-SCORE:    0.00 PKD
ROOT
HETATM    1  C   UNL     1     -10.378  13.430  65.799  1.00  0.00    -0.296 C  
HETATM    2  C   UNL     1     -11.777  13.076  66.359  1.00  0.00    -0.390 C  
HETATM    3  C   UNL     1     -12.597  12.719  65.109  1.00  0.00    -0.513 C  
ENDROOT
BRANCH   2   4
HETATM    4  N   UNL     1     -11.745  12.046  67.453  1.00  0.00    -0.541 NA 
BRANCH   4   5
HETATM    5  C   UNL     1     -10.900  10.857  67.116  1.00  0.00    -0.280 C  
BRANCH   5   6
HETATM    6  C   UNL     1      -9.564  10.713  67.894  1.00  0.00    -0.174 C  
HETATM    7  C   UNL     1      -8.737   9.398  67.660  1.00  0.00    -0.116 C  
HETATM    8  C   UNL     1      -9.526   8.122  68.057  1.00  0.00    -0.155 A  
HETATM    9  C   UNL     1      -8.048   9.306  66.263  1.00  0.00    -0.107 A  
HETATM   10  C   UNL     1      -8.411  10.133  65.193  1.00  0.00    -0.167 A  
HETATM   11  C   UNL     1     -10.026   7.861  69.351  1.00  0.00    -0.189 A  
HETATM   12  C   UNL     1     -10.654   6.636  69.646  1.00  0.00    -0.276 A  
HETATM   13  C   UNL     1      -8.061   9.865  63.871  1.00  0.00    -0.152 A  
HETATM   14  C   UNL     1      -6.768   8.005  64.636  1.00  0.00    -0.059 A  
HETATM   15  C   UNL     1     -10.833   5.664  68.662  1.00  0.00    -0.190 A  
HETATM   16  C   UNL     1      -7.268   8.770  63.585  1.00  0.00    -0.094 A  
HETATM   17  C   UNL     1      -9.743   7.109  67.091  1.00  0.00    -0.212 A  
HETATM   18  C   UNL     1     -10.374   5.888  67.368  1.00  0.00    -0.274 A  
HETATM   19  C   UNL     1      -7.116   8.291  65.966  1.00  0.00    -0.069 A  
BRANCH  11  20
HETATM   20  O   UNL     1      -9.812   8.790  70.407  1.00  0.00    -0.170 OA 
BRANCH  20  21
HETATM   21  C   UNL     1      -8.611   8.751  71.142  1.00  0.00    -0.195 C  
HETATM   22  O   UNL     1      -7.681   9.544  71.050  1.00  0.00    -0.319 OA 
HETATM   23  C   UNL     1      -8.610   7.562  72.095  1.00  0.00    -0.137 C  
HETATM   24  C   UNL     1      -9.270   7.937  73.421  1.00  0.00    -0.351 C  
HETATM   25  C   UNL     1      -7.176   7.091  72.347  1.00  0.00    -0.073 C  
ENDBRANCH  20  21
ENDBRANCH  11  20
BRANCH  18  26
HETATM   26  C   UNL     1     -10.456   4.797  66.326  1.00  0.00    -0.269 C  
HETATM   27  O   UNL     1     -11.619   4.903  65.510  1.00  0.00    -0.835 OA 
HETATM   28  H   UNL     1     -11.670   4.217  64.855  1.00  0.00     0.000 HD 
ENDBRANCH  18  26
ENDBRANCH   5   6
ENDBRANCH   4   5
BRANCH   4  29
HETATM   29  C   UNL     1     -11.471  12.523  68.843  1.00  0.00    -0.307 C  
HETATM   30  C   UNL     1     -11.942  13.952  69.158  1.00  0.00    -0.404 C  
HETATM   31  C   UNL     1     -12.161  11.644  69.916  1.00  0.00    -0.373 C  
ENDBRANCH   4  29
ENDBRANCH   2   4
TORSDOF 7
ENDMDL
MODEL       53
REMARK 921   NORMALIZED FREE ENERGY PREDICTED BY IDOCK:   -5.37 KCAL/MOL
REMARK 922        TOTAL FREE ENERGY PREDICTED BY IDOCK:   -8.97 KCAL/MOL
REMARK 923 INTER-LIGAND FREE ENERGY PREDICTED BY IDOCK:   -7.07 KCAL/MOL
REMARK 924 INTRA-LIGAND FREE ENERGY PREDICTED BY IDOCK:   -1.91 KCAL/MOL
REMARK 927      BINDING AFFINITY PREDICTED BY RF-SCORE:    0.00 PKD
ROOT
HETATM    1  C   UNL     1      -8.855  13.995  67.199  1.00  0.00    -0.239 C  
HETATM    2  C   UNL     1     -10.025  14.035  66.186  1.00  0.00    -0.312 C  
HETATM    3  C   UNL     1      -9.776  15.323  65.384  1.00  0.00    -0.243 C  
ENDROOT
BRANCH   2   4
HETATM    4  N   UNL     1     -10.175  12.770  65.388  1.00  0.00    -0.286 NA 
BRANCH   4   5
HETATM    5  C   UNL     1      -9.537  11.584  66.041  1.00  0.00    -0.228 C  
BRANCH   5   6
HETATM    6  C   UNL     1     -10.407  10.302  66.151  1.00  0.00    -0.253 C  
HETATM    7  C   UNL     1     -10.442   9.577  67.543  1.00  0.00    -0.336 C  
HETATM    8  C   UNL     1      -9.037   9.101  68.000  1.00  0.00    -0.136 A  
HETATM    9  C   UNL     1     -11.242  10.334  68.649  1.00  0.00    -0.263 A  
HETATM   10  C   UNL     1     -11.594  11.684  68.526  1.00  0.00    -0.379 A  
HETATM   11  C   UNL     1      -8.227   8.195  67.281  1.00  0.00    -0.121 A  
HETATM   12  C   UNL     1      -7.003   7.748  67.812  1.00  0.00    -0.081 A  
HETATM   13  C   UNL     1     -12.007  12.464  69.605  1.00  0.00    -0.341 A  
HETATM   14  C   UNL     1     -11.938  10.514  70.986  1.00  0.00    -0.466 A  
HETATM   15  C   UNL     1      -6.539   8.213  69.043  1.00  0.00    -0.048 A  
HETATM   16  C   UNL     1     -12.141  11.885  70.852  1.00  0.00    -0.237 A  
HETATM   17  C   UNL     1      -8.517   9.552  69.238  1.00  0.00    -0.139 A  
HETATM   18  C   UNL     1      -7.296   9.121  69.775  1.00  0.00    -0.064 A  
HETATM   19  C   UNL     1     -11.535   9.733  69.889  1.00  0.00    -0.190 A  
BRANCH  11  20
HETATM   20  O   UNL     1      -8.683   7.640  66.053  1.00  0.00    -0.148 OA 
BRANCH  20  21
HETATM   21  C   UNL     1      -8.695   6.242  65.879  1.00  0.00    -0.149 C  
HETATM   22  O   UNL     1      -7.772   5.561  65.446  1.00  0.00    -0.084 OA 
HETATM   23  C   UNL     1     -10.037   5.664  66.307  1.00  0.00    -0.160 C  
HETATM   24  C   UNL     1     -10.036   5.358  67.804  1.00  0.00    -0.215 C  
HETATM   25  C   UNL     1     -10.336   4.387  65.520  1.00  0.00    -0.247 C  
ENDBRANCH  20  21
ENDBRANCH  11  20
BRANCH  18  26
HETATM   26  C   UNL     1      -6.861   9.540  71.161  1.00  0.00     0.022 C  
HETATM   27  O   UNL     1      -6.152  10.776  71.164  1.00  0.00    -0.351 OA 
HETATM   28  H   UNL     1      -5.879  11.039  72.035  1.00  0.00     0.000 HD 
ENDBRANCH  18  26
ENDBRANCH   5   6
ENDBRANCH   4   5
BRANCH   4  29
HETATM   29  C   UNL     1     -11.539  12.433  64.877  1.00  0.00    -0.343 C  
HETATM   30  C   UNL     1     -12.675  13.344  65.372  1.00  0.00    -0.484 C  
HETATM   31  C   UNL     1     -11.628  12.511  63.333  1.00  0.00    -0.547 C  
ENDBRANCH   4  29
ENDBRANCH   2   4
TORSDOF 7
ENDMDL
MODEL       54
REMARK 921   NORMALIZED FREE ENERGY PREDICTED BY IDOCK:   -5.35 KCAL/MOL
REMARK 922        TOTAL FREE ENERGY PREDICTED BY IDOCK:   -8.94 KCAL/MOL
REMARK 923 INTER-LIGAND FREE ENERGY PREDICTED BY IDOCK:   -7.91 KCAL/MOL
REMARK 924 INTRA-LIGAND FREE ENERGY PREDICTED BY IDOCK:   -1.03 KCAL/MOL
REMARK 927      BINDING AFFINITY PREDICTED BY RF-SCORE:    0.00 PKD
ROOT
HETATM    1  C   UNL     1     -11.567  16.273  69.453  1.00  0.00    -0.178 C  
HETATM    2  C   UNL     1     -11.336  15.083  70.417  1.00  0.00    -0.270 C  
HETATM    3  C   UNL     1     -11.561  15.688  71.812  1.00  0.00    -0.531 C  
ENDROOT
BRANCH   2   4
HETATM    4  N   UNL     1     -12.151  13.866  70.078  1.00  0.00    -0.327 NA 
BRANCH   4   5
HETATM    5  C   UNL     1     -11.878  13.341  68.703  1.00  0.00    -0.345 C  
BRANCH   5   6
HETATM    6  C   UNL     1     -10.617  13.895  67.987  1.00  0.00    -0.252 C  
HETATM    7  C   UNL     1      -9.929  12.965  66.925  1.00  0.00    -0.238 C  
HETATM    8  C   UNL     1      -9.437  11.627  67.538  1.00  0.00    -0.173 A  
HETATM    9  C   UNL     1     -10.731  12.794  65.597  1.00  0.00    -0.297 A  
HETATM   10  C   UNL     1     -12.083  13.139  65.489  1.00  0.00    -0.490 A  
HETATM   11  C   UNL     1      -8.498  11.526  68.587  1.00  0.00    -0.115 A  
HETATM   12  C   UNL     1      -8.040  10.268  69.023  1.00  0.00    -0.132 A  
HETATM   13  C   UNL     1     -12.899  12.704  64.446  1.00  0.00    -0.344 A  
HETATM   14  C   UNL     1     -10.985  11.701  63.424  1.00  0.00    -0.442 A  
HETATM   15  C   UNL     1      -8.528   9.089  68.459  1.00  0.00    -0.128 A  
HETATM   16  C   UNL     1     -12.356  11.945  63.427  1.00  0.00    -0.577 A  
HETATM   17  C   UNL     1      -9.911  10.402  67.007  1.00  0.00    -0.234 A  
HETATM   18  C   UNL     1      -9.470   9.142  67.438  1.00  0.00    -0.177 A  
HETATM   19  C   UNL     1     -10.168  12.155  64.473  1.00  0.00    -0.321 A  
BRANCH  11  20
HETATM   20  O   UNL     1      -7.920  12.697  69.151  1.00  0.00     0.211 OA 
BRANCH  20  21
HETATM   21  C   UNL     1      -6.949  13.417  68.428  1.00  0.00    -0.105 C  
HETATM   22  O   UNL     1      -6.420  13.064  67.381  1.00  0.00    -0.166 OA 
HETATM   23  C   UNL     1      -6.629  14.730  69.130  1.00  0.00    -0.114 C  
HETATM   24  C   UNL     1      -7.599  15.825  68.689  1.00  0.00    -0.150 C  
HETATM   25  C   UNL     1      -5.193  15.157  68.819  1.00  0.00    -0.095 C  
ENDBRANCH  20  21
ENDBRANCH  11  20
BRANCH  18  26
HETATM   26  C   UNL     1      -9.916   7.878  66.740  1.00  0.00    -0.263 C  
HETATM   27  O   UNL     1     -11.204   7.443  67.163  1.00  0.00    -0.539 OA 
HETATM   28  H   UNL     1     -11.485   6.648  66.724  1.00  0.00     0.000 HD 
ENDBRANCH  18  26
ENDBRANCH   5   6
ENDBRANCH   4   5
BRANCH   4  29
HETATM   29  C   UNL     1     -12.184  12.757  71.080  1.00  0.00    -0.105 C  
HETATM   30  C   UNL     1     -13.396  12.755  72.026  1.00  0.00    -0.565 C  
HETATM   31  C   UNL     1     -12.214  11.359  70.413  1.00  0.00    -0.450 C  
ENDBRANCH   4  29
ENDBRANCH   2   4
TORSDOF 7
ENDMDL
MODEL       55
REMARK 921   NORMALIZED FREE ENERGY PREDICTED BY IDOCK:   -5.32 KCAL/MOL
REMARK 922        TOTAL FREE ENERGY PREDICTED BY IDOCK:   -8.91 KCAL/MOL
REMARK 923 INTER-LIGAND FREE ENERGY PREDICTED BY IDOCK:   -7.18 KCAL/MOL
REMARK 924 INTRA-LIGAND FREE ENERGY PREDICTED BY IDOCK:   -1.74 KCAL/MOL
REMARK 927      BINDING AFFINITY PREDICTED BY RF-SCORE:    0.00 PKD
ROOT
HETATM    1  C   UNL     1     -10.888  10.603  69.448  1.00  0.00    -0.289 C  
HETATM    2  C   UNL     1     -10.121   9.480  68.709  1.00  0.00    -0.188 C  
HETATM    3  C   UNL     1     -10.636   9.569  67.263  1.00  0.00    -0.317 C  
ENDROOT
BRANCH   2   4
HETATM    4  N   UNL     1      -8.630   9.547  68.891  1.00  0.00    -0.125 NA 
BRANCH   4   5
HETATM    5  C   UNL     1      -8.131  10.936  69.143  1.00  0.00    -0.100 C  
BRANCH   5   6
HETATM    6  C   UNL     1      -7.649  11.735  67.902  1.00  0.00    -0.121 C  
HETATM    7  C   UNL     1      -7.768  13.299  67.967  1.00  0.00    -0.147 C  
HETATM    8  C   UNL     1      -9.233  13.775  68.156  1.00  0.00    -0.199 A  
HETATM    9  C   UNL     1      -6.752  13.988  68.930  1.00  0.00    -0.105 A  
HETATM   10  C   UNL     1      -6.043  13.275  69.905  1.00  0.00    -0.125 A  
HETATM   11  C   UNL     1     -10.287  13.493  67.260  1.00  0.00    -0.241 A  
HETATM   12  C   UNL     1     -11.569  14.040  67.463  1.00  0.00    -0.397 A  
HETATM   13  C   UNL     1      -5.393  13.889  70.974  1.00  0.00    -0.162 A  
HETATM   14  C   UNL     1      -5.953  16.016  70.038  1.00  0.00    -0.161 A  
HETATM   15  C   UNL     1     -11.843  14.842  68.570  1.00  0.00    -0.325 A  
HETATM   16  C   UNL     1      -5.382  15.268  71.065  1.00  0.00    -0.097 A  
HETATM   17  C   UNL     1      -9.564  14.585  69.270  1.00  0.00     0.042 A  
HETATM   18  C   UNL     1     -10.838  15.129  69.489  1.00  0.00    -0.270 A  
HETATM   19  C   UNL     1      -6.595  15.389  68.958  1.00  0.00    -0.123 A  
BRANCH  11  20
HETATM   20  O   UNL     1     -10.047  12.735  66.081  1.00  0.00    -0.256 OA 
BRANCH  20  21
HETATM   21  C   UNL     1     -10.698  13.082  64.880  1.00  0.00    -0.332 C  
HETATM   22  O   UNL     1     -10.814  14.213  64.424  1.00  0.00    -0.353 OA 
HETATM   23  C   UNL     1     -11.256  11.839  64.200  1.00  0.00    -0.437 C  
HETATM   24  C   UNL     1     -10.199  11.198  63.302  1.00  0.00    -0.403 C  
HETATM   25  C   UNL     1     -12.487  12.202  63.367  1.00  0.00    -0.625 C  
ENDBRANCH  20  21
ENDBRANCH  11  20
BRANCH  18  26
HETATM   26  C   UNL     1     -11.091  16.092  70.626  1.00  0.00    -0.330 C  
HETATM   27  O   UNL     1     -12.406  15.976  71.161  1.00  0.00    -0.526 OA 
HETATM   28  H   UNL     1     -12.565  16.582  71.876  1.00  0.00     0.000 HD 
ENDBRANCH  18  26
ENDBRANCH   5   6
ENDBRANCH   4   5
BRANCH   4  29
HETATM   29  C   UNL     1      -8.005   8.572  69.837  1.00  0.00    -0.106 C  
HETATM   30  C   UNL     1      -8.480   8.667  71.296  1.00  0.00    -0.226 C  
HETATM   31  C   UNL     1      -8.281   7.101  69.437  1.00  0.00    -0.132 C  
ENDBRANCH   4  29
ENDBRANCH   2   4
TORSDOF 7
ENDMDL
MODEL       56
REMARK 921   NORMALIZED FREE ENERGY PREDICTED BY IDOCK:   -5.30 KCAL/MOL
REMARK 922        TOTAL FREE ENERGY PREDICTED BY IDOCK:   -8.88 KCAL/MOL
REMARK 923 INTER-LIGAND FREE ENERGY PREDICTED BY IDOCK:   -6.89 KCAL/MOL
REMARK 924 INTRA-LIGAND FREE ENERGY PREDICTED BY IDOCK:   -1.99 KCAL/MOL
REMARK 927      BINDING AFFINITY PREDICTED BY RF-SCORE:    0.00 PKD
ROOT
HETATM    1  C   UNL     1     -12.535  10.901  70.960  1.00  0.00    -0.514 C  
HETATM    2  C   UNL     1     -12.028  10.978  69.499  1.00  0.00    -0.342 C  
HETATM    3  C   UNL     1     -11.902  12.486  69.230  1.00  0.00    -0.360 C  
ENDROOT
BRANCH   2   4
HETATM    4  N   UNL     1     -10.800  10.150  69.242  1.00  0.00    -0.223 NA 
BRANCH   4   5
HETATM    5  C   UNL     1      -9.549  10.966  69.154  1.00  0.00    -0.106 C  
BRANCH   5   6
HETATM    6  C   UNL     1      -8.677  10.764  67.884  1.00  0.00    -0.129 C  
HETATM    7  C   UNL     1      -8.143  12.055  67.168  1.00  0.00    -0.177 C  
HETATM    8  C   UNL     1      -9.290  12.978  66.676  1.00  0.00    -0.242 A  
HETATM    9  C   UNL     1      -7.017  12.807  67.943  1.00  0.00    -0.116 A  
HETATM   10  C   UNL     1      -6.750  12.567  69.297  1.00  0.00    -0.060 A  
HETATM   11  C   UNL     1     -10.288  12.591  65.755  1.00  0.00    -0.265 A  
HETATM   12  C   UNL     1     -11.240  13.521  65.294  1.00  0.00    -0.304 A  
HETATM   13  C   UNL     1      -5.995  13.431  70.089  1.00  0.00    -0.139 A  
HETATM   14  C   UNL     1      -5.545  14.750  68.146  1.00  0.00    -0.125 A  
HETATM   15  C   UNL     1     -11.248  14.836  65.761  1.00  0.00    -0.337 A  
HETATM   16  C   UNL     1      -5.423  14.552  69.520  1.00  0.00    -0.091 A  
HETATM   17  C   UNL     1      -9.347  14.319  67.128  1.00  0.00    -0.233 A  
HETATM   18  C   UNL     1     -10.295  15.253  66.684  1.00  0.00    -0.281 A  
HETATM   19  C   UNL     1      -6.297  13.866  67.354  1.00  0.00     0.119 A  
BRANCH  11  20
HETATM   20  O   UNL     1     -10.286  11.282  65.198  1.00  0.00    -0.260 OA 
BRANCH  20  21
HETATM   21  C   UNL     1      -9.737  11.067  63.919  1.00  0.00    -0.292 C  
HETATM   22  O   UNL     1      -9.829  11.822  62.958  1.00  0.00    -0.398 OA 
HETATM   23  C   UNL     1      -8.995   9.738  63.876  1.00  0.00    -0.277 C  
HETATM   24  C   UNL     1      -7.548   9.916  64.336  1.00  0.00    -0.143 C  
HETATM   25  C   UNL     1      -9.018   9.167  62.457  1.00  0.00    -0.124 C  
ENDBRANCH  20  21
ENDBRANCH  11  20
BRANCH  18  26
HETATM   26  C   UNL     1     -10.220  16.702  67.106  1.00  0.00    -0.290 C  
HETATM   27  O   UNL     1      -9.682  17.543  66.090  1.00  0.00    -0.405 OA 
HETATM   28  H   UNL     1      -9.634  18.454  66.355  1.00  0.00     0.000 HD 
ENDBRANCH  18  26
ENDBRANCH   5   6
ENDBRANCH   4   5
BRANCH   4  29
HETATM   29  C   UNL     1     -10.592   8.940  70.096  1.00  0.00    -0.222 C  
HETATM   30  C   UNL     1     -10.419   7.615  69.335  1.00  0.00    -0.220 C  
HETATM   31  C   UNL     1      -9.322   9.048  70.976  1.00  0.00    -0.339 C  
ENDBRANCH   4  29
ENDBRANCH   2   4
TORSDOF 7
ENDMDL
MODEL       57
REMARK 921   NORMALIZED FREE ENERGY PREDICTED BY IDOCK:   -5.27 KCAL/MOL
REMARK 922        TOTAL FREE ENERGY PREDICTED BY IDOCK:   -8.84 KCAL/MOL
REMARK 923 INTER-LIGAND FREE ENERGY PREDICTED BY IDOCK:   -6.58 KCAL/MOL
REMARK 924 INTRA-LIGAND FREE ENERGY PREDICTED BY IDOCK:   -2.26 KCAL/MOL
REMARK 927      BINDING AFFINITY PREDICTED BY RF-SCORE:    0.00 PKD
ROOT
HETATM    1  C   UNL     1      -7.166   7.853  69.643  1.00  0.00    -0.070 C  
HETATM    2  C   UNL     1      -7.946   8.955  70.400  1.00  0.00    -0.117 C  
HETATM    3  C   UNL     1      -7.704  10.221  69.563  1.00  0.00    -0.167 C  
ENDROOT
BRANCH   2   4
HETATM    4  N   UNL     1      -9.382   8.599  70.672  1.00  0.00    -0.172 NA 
BRANCH   4   5
HETATM    5  C   UNL     1      -9.765   7.254  70.137  1.00  0.00    -0.172 C  
BRANCH   5   6
HETATM    6  C   UNL     1     -11.028   7.201  69.236  1.00  0.00    -0.163 C  
HETATM    7  C   UNL     1     -10.806   6.917  67.707  1.00  0.00    -0.312 C  
HETATM    8  C   UNL     1      -9.921   7.995  67.026  1.00  0.00    -0.324 A  
HETATM    9  C   UNL     1     -10.385   5.452  67.374  1.00  0.00    -0.258 A  
HETATM   10  C   UNL     1      -9.907   4.570  68.352  1.00  0.00    -0.153 A  
HETATM   11  C   UNL     1     -10.237   9.370  66.969  1.00  0.00    -0.255 A  
HETATM   12  C   UNL     1      -9.420  10.266  66.253  1.00  0.00    -0.223 A  
HETATM   13  C   UNL     1      -9.227   3.392  68.047  1.00  0.00    -0.238 A  
HETATM   14  C   UNL     1      -9.640   3.804  65.729  1.00  0.00    -0.165 A  
HETATM   15  C   UNL     1      -8.260   9.829  65.613  1.00  0.00    -0.130 A  
HETATM   16  C   UNL     1      -9.055   3.027  66.726  1.00  0.00    -0.179 A  
HETATM   17  C   UNL     1      -8.728   7.603  66.371  1.00  0.00    -0.166 A  
HETATM   18  C   UNL     1      -7.901   8.486  65.661  1.00  0.00    -0.102 A  
HETATM   19  C   UNL     1     -10.336   4.982  66.046  1.00  0.00    -0.276 A  
BRANCH  11  20
HETATM   20  O   UNL     1     -11.441   9.857  67.548  1.00  0.00    -0.071 OA 
BRANCH  20  21
HETATM   21  C   UNL     1     -11.626  11.243  67.718  1.00  0.00    -0.230 C  
HETATM   22  O   UNL     1     -12.155  12.004  66.916  1.00  0.00    -0.608 OA 
HETATM   23  C   UNL     1     -11.069  11.693  69.062  1.00  0.00    -0.297 C  
HETATM   24  C   UNL     1     -12.123  11.539  70.158  1.00  0.00    -0.432 C  
HETATM   25  C   UNL     1     -10.618  13.153  68.983  1.00  0.00    -0.089 C  
ENDBRANCH  20  21
ENDBRANCH  11  20
BRANCH  18  26
HETATM   26  C   UNL     1      -6.713   7.982  64.874  1.00  0.00    -0.051 C  
HETATM   27  O   UNL     1      -7.067   7.548  63.564  1.00  0.00    -0.063 OA 
HETATM   28  H   UNL     1      -6.321   7.231  63.069  1.00  0.00     0.000 HD 
ENDBRANCH  18  26
ENDBRANCH   5   6
ENDBRANCH   4   5
BRANCH   4  29
HETATM   29  C   UNL     1      -9.888   8.787  72.066  1.00  0.00    -0.306 C  
HETATM   30  C   UNL     1     -11.332   8.321  72.315  1.00  0.00    -0.446 C  
HETATM   31  C   UNL     1      -9.046   8.011  73.109  1.00  0.00    -0.341 C  
ENDBRANCH   4  29
ENDBRANCH   2   4
TORSDOF 7
ENDMDL
MODEL       58
REMARK 921   NORMALIZED FREE ENERGY PREDICTED BY IDOCK:   -5.23 KCAL/MOL
REMARK 922        TOTAL FREE ENERGY PREDICTED BY IDOCK:   -8.77 KCAL/MOL
REMARK 923 INTER-LIGAND FREE ENERGY PREDICTED BY IDOCK:   -6.87 KCAL/MOL
REMARK 924 INTRA-LIGAND FREE ENERGY PREDICTED BY IDOCK:   -1.90 KCAL/MOL
REMARK 927      BINDING AFFINITY PREDICTED BY RF-SCORE:    0.00 PKD
ROOT
HETATM    1  C   UNL     1     -11.893  13.553  67.049  1.00  0.00    -0.447 C  
HETATM    2  C   UNL     1     -10.720  12.592  66.737  1.00  0.00    -0.236 C  
HETATM    3  C   UNL     1     -10.411  12.854  65.254  1.00  0.00    -0.312 C  
ENDROOT
BRANCH   2   4
HETATM    4  N   UNL     1      -9.566  12.719  67.692  1.00  0.00    -0.186 NA 
BRANCH   4   5
HETATM    5  C   UNL     1      -9.214  11.428  68.363  1.00  0.00    -0.183 C  
BRANCH   5   6
HETATM    6  C   UNL     1     -10.040  10.182  67.945  1.00  0.00    -0.207 C  
HETATM    7  C   UNL     1     -10.518   9.222  69.092  1.00  0.00    -0.231 C  
HETATM    8  C   UNL     1      -9.334   8.618  69.893  1.00  0.00    -0.160 A  
HETATM    9  C   UNL     1     -11.658   9.799  69.989  1.00  0.00    -0.185 A  
HETATM   10  C   UNL     1     -11.981  11.161  70.003  1.00  0.00    -0.447 A  
HETATM   11  C   UNL     1      -8.310   7.826  69.331  1.00  0.00    -0.133 A  
HETATM   12  C   UNL     1      -7.321   7.244  70.147  1.00  0.00    -0.079 A  
HETATM   13  C   UNL     1     -12.747  11.751  71.007  1.00  0.00    -0.372 A  
HETATM   14  C   UNL     1     -13.094   9.584  71.956  1.00  0.00    -0.528 A  
HETATM   15  C   UNL     1      -7.303   7.464  71.525  1.00  0.00    -0.079 A  
HETATM   16  C   UNL     1     -13.273  10.964  72.014  1.00  0.00    -0.456 A  
HETATM   17  C   UNL     1      -9.265   8.821  71.293  1.00  0.00    -0.309 A  
HETATM   18  C   UNL     1      -8.281   8.255  72.117  1.00  0.00    -0.211 A  
HETATM   19  C   UNL     1     -12.331   8.997  70.932  1.00  0.00    -0.159 A  
BRANCH  11  20
HETATM   20  O   UNL     1      -8.319   7.516  67.942  1.00  0.00    -0.122 OA 
BRANCH  20  21
HETATM   21  C   UNL     1      -8.581   6.198  67.520  1.00  0.00    -0.106 C  
HETATM   22  O   UNL     1      -7.743   5.357  67.215  1.00  0.00    -0.094 OA 
HETATM   23  C   UNL     1     -10.082   5.939  67.489  1.00  0.00    -0.197 C  
HETATM   24  C   UNL     1     -10.574   5.471  68.858  1.00  0.00    -0.258 C  
HETATM   25  C   UNL     1     -10.411   4.880  66.434  1.00  0.00    -0.325 C  
ENDBRANCH  20  21
ENDBRANCH  11  20
BRANCH  18  26
HETATM   26  C   UNL     1      -8.341   8.403  73.620  1.00  0.00    -0.105 C  
HETATM   27  O   UNL     1      -7.073   8.705  74.193  1.00  0.00    -0.310 OA 
HETATM   28  H   UNL     1      -7.111   8.798  75.138  1.00  0.00     0.000 HD 
ENDBRANCH  18  26
ENDBRANCH   5   6
ENDBRANCH   4   5
BRANCH   4  29
HETATM   29  C   UNL     1      -8.340  13.422  67.204  1.00  0.00    -0.139 C  
HETATM   30  C   UNL     1      -8.015  14.751  67.905  1.00  0.00    -0.147 C  
HETATM   31  C   UNL     1      -7.060  12.569  67.382  1.00  0.00    -0.146 C  
ENDBRANCH   4  29
ENDBRANCH   2   4
TORSDOF 7
ENDMDL
MODEL       59
REMARK 921   NORMALIZED FREE ENERGY PREDICTED BY IDOCK:   -5.22 KCAL/MOL
REMARK 922        TOTAL FREE ENERGY PREDICTED BY IDOCK:   -8.77 KCAL/MOL
REMARK 923 INTER-LIGAND FREE ENERGY PREDICTED BY IDOCK:   -7.31 KCAL/MOL
REMARK 924 INTRA-LIGAND FREE ENERGY PREDICTED BY IDOCK:   -1.45 KCAL/MOL
REMARK 927      BINDING AFFINITY PREDICTED BY RF-SCORE:    0.00 PKD
ROOT
HETATM    1  C   UNL     1     -10.845  18.517  67.319  1.00  0.00    -0.330 C  
HETATM    2  C   UNL     1     -10.377  17.404  68.288  1.00  0.00    -0.374 C  
HETATM    3  C   UNL     1      -9.981  18.166  69.563  1.00  0.00     0.203 C  
ENDROOT
BRANCH   2   4
HETATM    4  N   UNL     1     -11.376  16.294  68.457  1.00  0.00    -0.367 NA 
BRANCH   4   5
HETATM    5  C   UNL     1     -11.482  15.410  67.254  1.00  0.00    -0.165 C  
BRANCH   5   6
HETATM    6  C   UNL     1     -10.350  15.537  66.199  1.00  0.00    -0.327 C  
HETATM    7  C   UNL     1      -9.765  14.203  65.612  1.00  0.00    -0.210 C  
HETATM    8  C   UNL     1      -9.140  13.297  66.706  1.00  0.00    -0.216 A  
HETATM    9  C   UNL     1     -10.724  13.448  64.638  1.00  0.00    -0.425 A  
HETATM   10  C   UNL     1     -12.093  13.733  64.565  1.00  0.00    -0.463 A  
HETATM   11  C   UNL     1      -8.070  13.677  67.543  1.00  0.00    -0.184 A  
HETATM   12  C   UNL     1      -7.505  12.759  68.450  1.00  0.00    -0.124 A  
HETATM   13  C   UNL     1     -13.017  12.878  63.966  1.00  0.00     0.040 A  
HETATM   14  C   UNL     1     -11.209  11.472  63.283  1.00  0.00    -0.239 A  
HETATM   15  C   UNL     1      -8.010  11.465  68.573  1.00  0.00    -0.143 A  
HETATM   16  C   UNL     1     -12.577  11.719  63.356  1.00  0.00    -0.458 A  
HETATM   17  C   UNL     1      -9.625  11.976  66.877  1.00  0.00    -0.209 A  
HETATM   18  C   UNL     1      -9.077  11.055  67.781  1.00  0.00    -0.147 A  
HETATM   19  C   UNL     1     -10.284  12.346  63.878  1.00  0.00    -0.409 A  
BRANCH  11  20
HETATM   20  O   UNL     1      -7.475  14.963  67.413  1.00  0.00    -0.184 OA 
BRANCH  20  21
HETATM   21  C   UNL     1      -6.224  15.219  68.009  1.00  0.00    -0.144 C  
HETATM   22  O   UNL     1      -5.162  14.681  67.718  1.00  0.00    -0.256 OA 
HETATM   23  C   UNL     1      -6.360  16.280  69.093  1.00  0.00    -0.168 C  
HETATM   24  C   UNL     1      -6.227  17.680  68.494  1.00  0.00    -0.182 C  
HETATM   25  C   UNL     1      -5.288  16.076  70.167  1.00  0.00    -0.157 C  
ENDBRANCH  20  21
ENDBRANCH  11  20
BRANCH  18  26
HETATM   26  C   UNL     1      -9.555   9.622  67.820  1.00  0.00    -0.139 C  
HETATM   27  O   UNL     1     -10.949   9.500  67.558  1.00  0.00    -0.424 OA 
HETATM   28  H   UNL     1     -11.249   8.599  67.583  1.00  0.00     0.000 HD 
ENDBRANCH  18  26
ENDBRANCH   5   6
ENDBRANCH   4   5
BRANCH   4  29
HETATM   29  C   UNL     1     -11.304  15.485  69.713  1.00  0.00    -0.319 C  
HETATM   30  C   UNL     1     -12.455  15.703  70.709  1.00  0.00    -0.484 C  
HETATM   31  C   UNL     1     -11.318  13.961  69.436  1.00  0.00    -0.311 C  
ENDBRANCH   4  29
ENDBRANCH   2   4
TORSDOF 7
ENDMDL
MODEL       60
REMARK 921   NORMALIZED FREE ENERGY PREDICTED BY IDOCK:   -5.22 KCAL/MOL
REMARK 922        TOTAL FREE ENERGY PREDICTED BY IDOCK:   -8.76 KCAL/MOL
REMARK 923 INTER-LIGAND FREE ENERGY PREDICTED BY IDOCK:   -7.76 KCAL/MOL
REMARK 924 INTRA-LIGAND FREE ENERGY PREDICTED BY IDOCK:   -1.01 KCAL/MOL
REMARK 927      BINDING AFFINITY PREDICTED BY RF-SCORE:    0.00 PKD
ROOT
HETATM    1  C   UNL     1     -10.326  11.571  63.958  1.00  0.00    -0.406 C  
HETATM    2  C   UNL     1     -11.483  12.589  63.813  1.00  0.00    -0.469 C  
HETATM    3  C   UNL     1     -12.596  11.788  63.117  1.00  0.00    -0.247 C  
ENDROOT
BRANCH   2   4
HETATM    4  N   UNL     1     -11.854  13.266  65.102  1.00  0.00    -0.331 NA 
BRANCH   4   5
HETATM    5  C   UNL     1     -11.265  12.601  66.307  1.00  0.00    -0.311 C  
BRANCH   5   6
HETATM    6  C   UNL     1     -10.616  13.534  67.366  1.00  0.00    -0.254 C  
HETATM    7  C   UNL     1      -9.859  12.847  68.558  1.00  0.00    -0.147 C  
HETATM    8  C   UNL     1     -10.787  11.932  69.401  1.00  0.00    -0.089 A  
HETATM    9  C   UNL     1      -8.502  12.182  68.167  1.00  0.00    -0.175 A  
HETATM   10  C   UNL     1      -8.157  11.911  66.838  1.00  0.00    -0.146 A  
HETATM   11  C   UNL     1     -11.945  12.373  70.078  1.00  0.00    -0.299 A  
HETATM   12  C   UNL     1     -12.680  11.493  70.894  1.00  0.00    -0.372 A  
HETATM   13  C   UNL     1      -7.128  11.041  66.481  1.00  0.00    -0.136 A  
HETATM   14  C   UNL     1      -6.580  10.808  68.796  1.00  0.00    -0.054 A  
HETATM   15  C   UNL     1     -12.308  10.155  71.028  1.00  0.00    -0.474 A  
HETATM   16  C   UNL     1      -6.361  10.453  67.468  1.00  0.00    -0.058 A  
HETATM   17  C   UNL     1     -10.458  10.563  69.559  1.00  0.00    -0.265 A  
HETATM   18  C   UNL     1     -11.186   9.673  70.363  1.00  0.00    -0.342 A  
HETATM   19  C   UNL     1      -7.611  11.697  69.145  1.00  0.00     0.044 A  
BRANCH  11  20
HETATM   20  O   UNL     1     -12.330  13.742  70.028  1.00  0.00    -0.330 OA 
BRANCH  20  21
HETATM   21  C   UNL     1     -12.112  14.572  71.145  1.00  0.00    -0.344 C  
HETATM   22  O   UNL     1     -11.174  15.347  71.296  1.00  0.00    -0.354 OA 
HETATM   23  C   UNL     1     -13.218  14.380  72.175  1.00  0.00    -0.472 C  
HETATM   24  C   UNL     1     -14.398  15.302  71.871  1.00  0.00    -0.691 C  
HETATM   25  C   UNL     1     -12.685  14.670  73.580  1.00  0.00    -0.464 C  
ENDBRANCH  20  21
ENDBRANCH  11  20
BRANCH  18  26
HETATM   26  C   UNL     1     -10.706   8.259  70.593  1.00  0.00    -0.220 C  
HETATM   27  O   UNL     1      -9.291   8.175  70.729  1.00  0.00    -0.154 OA 
HETATM   28  H   UNL     1      -8.989   7.285  70.875  1.00  0.00     0.000 HD 
ENDBRANCH  18  26
ENDBRANCH   5   6
ENDBRANCH   4   5
BRANCH   4  29
HETATM   29  C   UNL     1     -11.691  14.751  65.175  1.00  0.00    -0.337 C  
HETATM   30  C   UNL     1     -10.279  15.278  64.868  1.00  0.00    -0.209 C  
HETATM   31  C   UNL     1     -12.606  15.495  64.171  1.00  0.00     0.346 C  
ENDBRANCH   4  29
ENDBRANCH   2   4
TORSDOF 7
ENDMDL
MODEL       61
REMARK 921   NORMALIZED FREE ENERGY PREDICTED BY IDOCK:   -5.22 KCAL/MOL
REMARK 922        TOTAL FREE ENERGY PREDICTED BY IDOCK:   -8.76 KCAL/MOL
REMARK 923 INTER-LIGAND FREE ENERGY PREDICTED BY IDOCK:   -6.70 KCAL/MOL
REMARK 924 INTRA-LIGAND FREE ENERGY PREDICTED BY IDOCK:   -2.06 KCAL/MOL
REMARK 927      BINDING AFFINITY PREDICTED BY RF-SCORE:    0.00 PKD
ROOT
HETATM    1  C   UNL     1      -7.896   7.285  70.860  1.00  0.00    -0.094 C  
HETATM    2  C   UNL     1      -9.173   7.534  71.699  1.00  0.00    -0.134 C  
HETATM    3  C   UNL     1      -8.640   8.098  73.025  1.00  0.00    -0.284 C  
ENDROOT
BRANCH   2   4
HETATM    4  N   UNL     1     -10.208   8.362  70.990  1.00  0.00    -0.193 NA 
BRANCH   4   5
HETATM    5  C   UNL     1      -9.868   8.626  69.556  1.00  0.00    -0.187 C  
BRANCH   5   6
HETATM    6  C   UNL     1     -11.009   8.420  68.524  1.00  0.00     0.157 C  
HETATM    7  C   UNL     1     -10.644   7.670  67.193  1.00  0.00    -0.410 C  
HETATM    8  C   UNL     1      -9.548   8.407  66.378  1.00  0.00    -0.307 A  
HETATM    9  C   UNL     1     -10.384   6.140  67.361  1.00  0.00    -0.262 A  
HETATM   10  C   UNL     1     -10.150   5.554  68.611  1.00  0.00    -0.246 A  
HETATM   11  C   UNL     1      -9.669   9.723  65.883  1.00  0.00    -0.266 A  
HETATM   12  C   UNL     1      -8.661  10.284  65.076  1.00  0.00    -0.190 A  
HETATM   13  C   UNL     1      -9.600   4.282  68.763  1.00  0.00    -0.219 A  
HETATM   14  C   UNL     1      -9.672   4.012  66.389  1.00  0.00    -0.206 A  
HETATM   15  C   UNL     1      -7.500   9.570  64.774  1.00  0.00    -0.112 A  
HETATM   16  C   UNL     1      -9.320   3.521  67.644  1.00  0.00    -0.250 A  
HETATM   17  C   UNL     1      -8.347   7.729  66.054  1.00  0.00    -0.134 A  
HETATM   18  C   UNL     1      -7.331   8.278  65.258  1.00  0.00    -0.081 A  
HETATM   19  C   UNL     1     -10.239   5.290  66.246  1.00  0.00    -0.263 A  
BRANCH  11  20
HETATM   20  O   UNL     1     -10.859  10.470  66.106  1.00  0.00    -0.100 OA 
BRANCH  20  21
HETATM   21  C   UNL     1     -10.793  11.714  66.763  1.00  0.00    -0.277 C  
HETATM   22  O   UNL     1     -10.242  11.935  67.836  1.00  0.00    -0.185 OA 
HETATM   23  C   UNL     1     -11.512  12.783  65.952  1.00  0.00    -0.399 C  
HETATM   24  C   UNL     1     -10.565  13.408  64.928  1.00  0.00    -0.398 C  
HETATM   25  C   UNL     1     -12.057  13.871  66.880  1.00  0.00    -0.467 C  
ENDBRANCH  20  21
ENDBRANCH  11  20
BRANCH  18  26
HETATM   26  C   UNL     1      -6.135   7.454  64.841  1.00  0.00    -0.038 C  
HETATM   27  O   UNL     1      -6.481   6.112  64.513  1.00  0.00    -0.032 OA 
HETATM   28  H   UNL     1      -5.729   5.593  64.250  1.00  0.00     0.000 HD 
ENDBRANCH  18  26
ENDBRANCH   5   6
ENDBRANCH   4   5
BRANCH   4  29
HETATM   29  C   UNL     1     -11.639   7.952  71.136  1.00  0.00    -0.280 C  
HETATM   30  C   UNL     1     -11.869   6.548  71.719  1.00  0.00    -0.384 C  
HETATM   31  C   UNL     1     -12.430   8.894  72.076  1.00  0.00    -0.461 C  
ENDBRANCH   4  29
ENDBRANCH   2   4
TORSDOF 7
ENDMDL
MODEL       62
REMARK 921   NORMALIZED FREE ENERGY PREDICTED BY IDOCK:   -5.19 KCAL/MOL
REMARK 922        TOTAL FREE ENERGY PREDICTED BY IDOCK:   -8.72 KCAL/MOL
REMARK 923 INTER-LIGAND FREE ENERGY PREDICTED BY IDOCK:   -6.93 KCAL/MOL
REMARK 924 INTRA-LIGAND FREE ENERGY PREDICTED BY IDOCK:   -1.79 KCAL/MOL
REMARK 927      BINDING AFFINITY PREDICTED BY RF-SCORE:    0.00 PKD
ROOT
HETATM    1  C   UNL     1     -12.377  10.767  70.277  1.00  0.00    -0.423 C  
HETATM    2  C   UNL     1     -11.728  11.194  68.938  1.00  0.00    -0.337 C  
HETATM    3  C   UNL     1     -11.881  12.723  68.923  1.00  0.00    -0.351 C  
ENDROOT
BRANCH   2   4
HETATM    4  N   UNL     1     -10.336  10.660  68.747  1.00  0.00    -0.182 NA 
BRANCH   4   5
HETATM    5  C   UNL     1      -9.277  11.587  69.256  1.00  0.00     0.418 C  
BRANCH   5   6
HETATM    6  C   UNL     1      -8.090  11.877  68.298  1.00  0.00    -0.154 C  
HETATM    7  C   UNL     1      -8.349  12.882  67.120  1.00  0.00    -0.158 C  
HETATM    8  C   UNL     1      -9.475  12.400  66.165  1.00  0.00    -0.201 A  
HETATM    9  C   UNL     1      -8.489  14.373  67.558  1.00  0.00    -0.202 A  
HETATM   10  C   UNL     1      -8.716  14.744  68.889  1.00  0.00    -0.161 A  
HETATM   11  C   UNL     1      -9.445  11.188  65.442  1.00  0.00    -0.222 A  
HETATM   12  C   UNL     1     -10.469  10.871  64.529  1.00  0.00    -0.393 A  
HETATM   13  C   UNL     1      -9.165  16.010  69.261  1.00  0.00    -0.243 A  
HETATM   14  C   UNL     1      -8.994  16.694  66.976  1.00  0.00    -0.227 A  
HETATM   15  C   UNL     1     -11.557  11.723  64.342  1.00  0.00    -0.325 A  
HETATM   16  C   UNL     1      -9.345  16.980  68.294  1.00  0.00    -0.255 A  
HETATM   17  C   UNL     1     -10.605  13.226  65.949  1.00  0.00    -0.288 A  
HETATM   18  C   UNL     1     -11.636  12.918  65.050  1.00  0.00    -0.367 A  
HETATM   19  C   UNL     1      -8.529  15.419  66.614  1.00  0.00    -0.296 A  
BRANCH  11  20
HETATM   20  O   UNL     1      -8.327  10.314  65.546  1.00  0.00    -0.151 OA 
BRANCH  20  21
HETATM   21  C   UNL     1      -7.736   9.792  64.379  1.00  0.00    -0.134 C  
HETATM   22  O   UNL     1      -7.200  10.441  63.489  1.00  0.00    -0.113 OA 
HETATM   23  C   UNL     1      -7.849   8.273  64.360  1.00  0.00    -0.135 C  
HETATM   24  C   UNL     1      -6.671   7.638  65.098  1.00  0.00    -0.047 C  
HETATM   25  C   UNL     1      -7.887   7.766  62.917  1.00  0.00    -0.135 C  
ENDBRANCH  20  21
ENDBRANCH  11  20
BRANCH  18  26
HETATM   26  C   UNL     1     -12.747  13.903  64.769  1.00  0.00    -0.211 C  
HETATM   27  O   UNL     1     -12.406  14.839  63.751  1.00  0.00    -1.028 OA 
HETATM   28  H   UNL     1     -13.104  15.459  63.574  1.00  0.00     0.000 HD 
ENDBRANCH  18  26
ENDBRANCH   5   6
ENDBRANCH   4   5
BRANCH   4  29
HETATM   29  C   UNL     1     -10.070   9.253  69.176  1.00  0.00    -0.199 C  
HETATM   30  C   UNL     1      -9.401   8.355  68.122  1.00  0.00    -0.141 C  
HETATM   31  C   UNL     1      -9.127   9.177  70.402  1.00  0.00    -0.270 C  
ENDBRANCH   4  29
ENDBRANCH   2   4
TORSDOF 7
ENDMDL
MODEL       63
REMARK 921   NORMALIZED FREE ENERGY PREDICTED BY IDOCK:   -5.18 KCAL/MOL
REMARK 922        TOTAL FREE ENERGY PREDICTED BY IDOCK:   -8.71 KCAL/MOL
REMARK 923 INTER-LIGAND FREE ENERGY PREDICTED BY IDOCK:   -7.37 KCAL/MOL
REMARK 924 INTRA-LIGAND FREE ENERGY PREDICTED BY IDOCK:   -1.35 KCAL/MOL
REMARK 927      BINDING AFFINITY PREDICTED BY RF-SCORE:    0.00 PKD
ROOT
HETATM    1  C   UNL     1      -7.080   9.600  64.517  1.00  0.00    -0.121 C  
HETATM    2  C   UNL     1      -8.461   8.924  64.338  1.00  0.00    -0.153 C  
HETATM    3  C   UNL     1      -8.329   7.600  65.108  1.00  0.00    -0.100 C  
ENDROOT
BRANCH   2   4
HETATM    4  N   UNL     1      -9.618   9.805  64.720  1.00  0.00    -0.273 NA 
BRANCH   4   5
HETATM    5  C   UNL     1      -9.787   9.944  66.200  1.00  0.00    -0.260 C  
BRANCH   5   6
HETATM    6  C   UNL     1      -9.297  11.275  66.832  1.00  0.00    -0.190 C  
HETATM    7  C   UNL     1      -8.947  11.255  68.363  1.00  0.00    -0.167 C  
HETATM    8  C   UNL     1     -10.163  10.863  69.244  1.00  0.00    -0.190 A  
HETATM    9  C   UNL     1      -7.636  10.488  68.719  1.00  0.00    -0.101 A  
HETATM   10  C   UNL     1      -7.018   9.606  67.824  1.00  0.00    -0.079 A  
HETATM   11  C   UNL     1     -11.382  11.574  69.288  1.00  0.00    -0.288 A  
HETATM   12  C   UNL     1     -12.402  11.200  70.183  1.00  0.00    -0.373 A  
HETATM   13  C   UNL     1      -6.057   8.675  68.215  1.00  0.00    -0.050 A  
HETATM   14  C   UNL     1      -6.121   9.598  70.419  1.00  0.00    -0.065 A  
HETATM   15  C   UNL     1     -12.253  10.096  71.023  1.00  0.00    -0.474 A  
HETATM   16  C   UNL     1      -5.635   8.642  69.530  1.00  0.00    -0.030 A  
HETATM   17  C   UNL     1     -10.065   9.745  70.108  1.00  0.00    -0.317 A  
HETATM   18  C   UNL     1     -11.076   9.355  70.998  1.00  0.00    -0.414 A  
HETATM   19  C   UNL     1      -7.079  10.541  70.013  1.00  0.00    -0.133 A  
BRANCH  11  20
HETATM   20  O   UNL     1     -11.561  12.746  68.500  1.00  0.00    -0.277 OA 
BRANCH  20  21
HETATM   21  C   UNL     1     -11.569  14.011  69.119  1.00  0.00    -0.313 C  
HETATM   22  O   UNL     1     -12.284  14.353  70.054  1.00  0.00    -0.318 OA 
HETATM   23  C   UNL     1     -10.547  14.930  68.462  1.00  0.00    -0.245 C  
HETATM   24  C   UNL     1      -9.173  14.754  69.109  1.00  0.00    -0.089 C  
HETATM   25  C   UNL     1     -10.993  16.389  68.588  1.00  0.00    -0.345 C  
ENDBRANCH  20  21
ENDBRANCH  11  20
BRANCH  18  26
HETATM   26  C   UNL     1     -10.857   8.232  71.986  1.00  0.00    -0.301 C  
HETATM   27  O   UNL     1     -11.989   8.003  72.818  1.00  0.00    -0.576 OA 
HETATM   28  H   UNL     1     -11.851   7.297  73.439  1.00  0.00     0.000 HD 
ENDBRANCH  18  26
ENDBRANCH   5   6
ENDBRANCH   4   5
BRANCH   4  29
HETATM   29  C   UNL     1      -9.729  11.132  64.040  1.00  0.00    -0.283 C  
HETATM   30  C   UNL     1      -9.156  11.196  62.614  1.00  0.00    -0.366 C  
HETATM   31  C   UNL     1     -11.199  11.596  63.886  1.00  0.00    -0.479 C  
ENDBRANCH   4  29
ENDBRANCH   2   4
TORSDOF 7
ENDMDL
MODEL       64
REMARK 921   NORMALIZED FREE ENERGY PREDICTED BY IDOCK:   -5.14 KCAL/MOL
REMARK 922        TOTAL FREE ENERGY PREDICTED BY IDOCK:   -8.64 KCAL/MOL
REMARK 923 INTER-LIGAND FREE ENERGY PREDICTED BY IDOCK:   -6.35 KCAL/MOL
REMARK 924 INTRA-LIGAND FREE ENERGY PREDICTED BY IDOCK:   -2.30 KCAL/MOL
REMARK 927      BINDING AFFINITY PREDICTED BY RF-SCORE:    0.00 PKD
ROOT
HETATM    1  C   UNL     1      -7.483   5.299  71.453  1.00  0.00    -0.095 C  
HETATM    2  C   UNL     1      -8.295   6.417  72.149  1.00  0.00    -0.108 C  
HETATM    3  C   UNL     1      -7.575   7.711  71.736  1.00  0.00    -0.086 C  
ENDROOT
BRANCH   2   4
HETATM    4  N   UNL     1      -9.771   6.355  71.867  1.00  0.00    -0.153 NA 
BRANCH   4   5
HETATM    5  C   UNL     1     -10.120   5.391  70.776  1.00  0.00    -0.220 C  
BRANCH   5   6
HETATM    6  C   UNL     1     -11.149   5.881  69.721  1.00  0.00    -0.422 C  
HETATM    7  C   UNL     1     -10.582   6.363  68.338  1.00  0.00    -0.311 C  
HETATM    8  C   UNL     1      -9.611   7.565  68.481  1.00  0.00    -0.150 A  
HETATM    9  C   UNL     1     -10.041   5.219  67.425  1.00  0.00    -0.228 A  
HETATM   10  C   UNL     1      -9.758   3.939  67.917  1.00  0.00    -0.133 A  
HETATM   11  C   UNL     1      -9.959   8.812  69.042  1.00  0.00    -0.191 A  
HETATM   12  C   UNL     1      -9.040   9.879  69.051  1.00  0.00    -0.164 A  
HETATM   13  C   UNL     1      -8.981   3.011  67.225  1.00  0.00    -0.184 A  
HETATM   14  C   UNL     1      -8.886   4.532  65.382  1.00  0.00    -0.137 A  
HETATM   15  C   UNL     1      -7.750   9.722  68.542  1.00  0.00    -0.081 A  
HETATM   16  C   UNL     1      -8.507   3.325  65.965  1.00  0.00    -0.111 A  
HETATM   17  C   UNL     1      -8.287   7.453  67.988  1.00  0.00    -0.124 A  
HETATM   18  C   UNL     1      -7.359   8.504  67.998  1.00  0.00    -0.092 A  
HETATM   19  C   UNL     1      -9.680   5.455  66.083  1.00  0.00    -0.165 A  
BRANCH  11  20
HETATM   20  O   UNL     1     -11.280   9.045  69.515  1.00  0.00    -0.098 OA 
BRANCH  20  21
HETATM   21  C   UNL     1     -11.478   9.711  70.741  1.00  0.00    -0.328 C  
HETATM   22  O   UNL     1     -10.867   9.501  71.783  1.00  0.00    -0.298 OA 
HETATM   23  C   UNL     1     -12.578  10.755  70.607  1.00  0.00    -0.446 C  
HETATM   24  C   UNL     1     -12.001  12.083  70.116  1.00  0.00    -0.401 C  
HETATM   25  C   UNL     1     -13.273  10.963  71.955  1.00  0.00    -0.508 C  
ENDBRANCH  20  21
ENDBRANCH  11  20
BRANCH  18  26
HETATM   26  C   UNL     1      -6.008   8.359  67.337  1.00  0.00    -0.047 C  
HETATM   27  O   UNL     1      -6.005   7.381  66.302  1.00  0.00    -0.035 OA 
HETATM   28  H   UNL     1      -5.156   7.289  65.886  1.00  0.00     0.000 HD 
ENDBRANCH  18  26
ENDBRANCH   5   6
ENDBRANCH   4   5
BRANCH   4  29
HETATM   29  C   UNL     1     -10.692   6.202  73.034  1.00  0.00    -0.252 C  
HETATM   30  C   UNL     1     -11.190   4.773  73.302  1.00  0.00    -0.421 C  
HETATM   31  C   UNL     1     -10.033   6.637  74.367  1.00  0.00    -0.359 C  
ENDBRANCH   4  29
ENDBRANCH   2   4
TORSDOF 7
ENDMDL
MODEL       65
REMARK 921   NORMALIZED FREE ENERGY PREDICTED BY IDOCK:   -5.13 KCAL/MOL
REMARK 922        TOTAL FREE ENERGY PREDICTED BY IDOCK:   -8.64 KCAL/MOL
REMARK 923 INTER-LIGAND FREE ENERGY PREDICTED BY IDOCK:   -7.13 KCAL/MOL
REMARK 924 INTRA-LIGAND FREE ENERGY PREDICTED BY IDOCK:   -1.51 KCAL/MOL
REMARK 927      BINDING AFFINITY PREDICTED BY RF-SCORE:    0.00 PKD
ROOT
HETATM    1  C   UNL     1     -10.513  11.300  63.479  1.00  0.00    -0.457 C  
HETATM    2  C   UNL     1     -10.907  12.513  64.355  1.00  0.00    -0.342 C  
HETATM    3  C   UNL     1     -12.124  13.112  63.632  1.00  0.00    -0.583 C  
ENDROOT
BRANCH   2   4
HETATM    4  N   UNL     1     -11.095  12.173  65.807  1.00  0.00    -0.307 NA 
BRANCH   4   5
HETATM    5  C   UNL     1     -10.603  10.803  66.158  1.00  0.00    -0.175 C  
BRANCH   5   6
HETATM    6  C   UNL     1      -9.602  10.707  67.341  1.00  0.00    -0.180 C  
HETATM    7  C   UNL     1      -8.691   9.430  67.407  1.00  0.00    -0.128 C  
HETATM    8  C   UNL     1      -9.515   8.119  67.524  1.00  0.00    -0.184 A  
HETATM    9  C   UNL     1      -7.569   9.376  66.324  1.00  0.00    -0.097 A  
HETATM   10  C   UNL     1      -7.585  10.196  65.189  1.00  0.00    -0.141 A  
HETATM   11  C   UNL     1     -10.409   7.828  68.576  1.00  0.00    -0.197 A  
HETATM   12  C   UNL     1     -11.049   6.576  68.650  1.00  0.00    -0.348 A  
HETATM   13  C   UNL     1      -6.799   9.953  64.064  1.00  0.00    -0.126 A  
HETATM   14  C   UNL     1      -5.764   8.141  65.231  1.00  0.00    -0.044 A  
HETATM   15  C   UNL     1     -10.847   5.605  67.669  1.00  0.00    -0.183 A  
HETATM   16  C   UNL     1      -5.912   8.894  64.068  1.00  0.00    -0.071 A  
HETATM   17  C   UNL     1      -9.352   7.106  66.548  1.00  0.00    -0.208 A  
HETATM   18  C   UNL     1      -9.989   5.858  66.604  1.00  0.00    -0.214 A  
HETATM   19  C   UNL     1      -6.551   8.403  66.365  1.00  0.00    -0.058 A  
BRANCH  11  20
HETATM   20  O   UNL     1     -10.602   8.757  69.636  1.00  0.00    -0.219 OA 
BRANCH  20  21
HETATM   21  C   UNL     1      -9.868   8.617  70.831  1.00  0.00    -0.205 C  
HETATM   22  O   UNL     1      -8.909   9.299  71.173  1.00  0.00    -0.257 OA 
HETATM   23  C   UNL     1     -10.432   7.479  71.671  1.00  0.00    -0.226 C  
HETATM   24  C   UNL     1     -11.565   7.982  72.565  1.00  0.00    -0.464 C  
HETATM   25  C   UNL     1      -9.328   6.865  72.534  1.00  0.00    -0.154 C  
ENDBRANCH  20  21
ENDBRANCH  11  20
BRANCH  18  26
HETATM   26  C   UNL     1      -9.670   4.772  65.602  1.00  0.00    -0.174 C  
HETATM   27  O   UNL     1      -9.182   5.290  64.369  1.00  0.00    -0.362 OA 
HETATM   28  H   UNL     1      -8.981   4.608  63.739  1.00  0.00     0.000 HD 
ENDBRANCH  18  26
ENDBRANCH   5   6
ENDBRANCH   4   5
BRANCH   4  29
HETATM   29  C   UNL     1     -10.644  13.179  66.817  1.00  0.00    -0.263 C  
HETATM   30  C   UNL     1      -9.701  14.272  66.287  1.00  0.00    -0.321 C  
HETATM   31  C   UNL     1     -11.827  13.961  67.440  1.00  0.00    -0.437 C  
ENDBRANCH   4  29
ENDBRANCH   2   4
TORSDOF 7
ENDMDL
MODEL       66
REMARK 921   NORMALIZED FREE ENERGY PREDICTED BY IDOCK:   -5.12 KCAL/MOL
REMARK 922        TOTAL FREE ENERGY PREDICTED BY IDOCK:   -8.62 KCAL/MOL
REMARK 923 INTER-LIGAND FREE ENERGY PREDICTED BY IDOCK:   -6.87 KCAL/MOL
REMARK 924 INTRA-LIGAND FREE ENERGY PREDICTED BY IDOCK:   -1.75 KCAL/MOL
REMARK 927      BINDING AFFINITY PREDICTED BY RF-SCORE:    0.00 PKD
ROOT
HETATM    1  C   UNL     1     -11.612  16.346  68.740  1.00  0.00    -0.144 C  
HETATM    2  C   UNL     1     -10.491  15.905  67.767  1.00  0.00    -0.287 C  
HETATM    3  C   UNL     1     -10.381  17.075  66.775  1.00  0.00    -0.302 C  
ENDROOT
BRANCH   2   4
HETATM    4  N   UNL     1      -9.221  15.493  68.458  1.00  0.00    -0.190 NA 
BRANCH   4   5
HETATM    5  C   UNL     1      -9.048  14.009  68.532  1.00  0.00    -0.163 C  
BRANCH   5   6
HETATM    6  C   UNL     1      -9.927  13.159  67.575  1.00  0.00    -0.223 C  
HETATM    7  C   UNL     1     -10.387  11.748  68.088  1.00  0.00    -0.213 C  
HETATM    8  C   UNL     1      -9.189  10.812  68.404  1.00  0.00    -0.164 A  
HETATM    9  C   UNL     1     -11.471  11.786  69.210  1.00  0.00    -0.369 A  
HETATM   10  C   UNL     1     -11.752  12.948  69.939  1.00  0.00    -0.324 A  
HETATM   11  C   UNL     1      -8.213  10.417  67.463  1.00  0.00    -0.114 A  
HETATM   12  C   UNL     1      -7.210   9.494  67.813  1.00  0.00    -0.082 A  
HETATM   13  C   UNL     1     -12.459  12.941  71.140  1.00  0.00    -0.344 A  
HETATM   14  C   UNL     1     -12.831  10.596  70.857  1.00  0.00    -0.473 A  
HETATM   15  C   UNL     1      -7.129   8.973  69.105  1.00  0.00    -0.063 A  
HETATM   16  C   UNL     1     -12.967  11.751  71.625  1.00  0.00    -0.467 A  
HETATM   17  C   UNL     1      -9.057  10.265  69.704  1.00  0.00    -0.149 A  
HETATM   18  C   UNL     1      -8.058   9.351  70.068  1.00  0.00    -0.159 A  
HETATM   19  C   UNL     1     -12.129  10.617  69.640  1.00  0.00    -0.312 A  
BRANCH  11  20
HETATM   20  O   UNL     1      -8.288  10.867  66.116  1.00  0.00    -0.162 OA 
BRANCH  20  21
HETATM   21  C   UNL     1      -8.910  10.061  65.142  1.00  0.00    -0.180 C  
HETATM   22  O   UNL     1      -9.129   8.859  65.234  1.00  0.00    -0.203 OA 
HETATM   23  C   UNL     1      -9.287  10.894  63.924  1.00  0.00    -0.267 C  
HETATM   24  C   UNL     1     -10.667  11.524  64.112  1.00  0.00    -0.428 C  
HETATM   25  C   UNL     1      -9.286  10.021  62.668  1.00  0.00    -0.296 C  
ENDBRANCH  20  21
ENDBRANCH  11  20
BRANCH  18  26
HETATM   26  C   UNL     1      -8.052   8.704  71.434  1.00  0.00    -0.151 C  
HETATM   27  O   UNL     1      -9.170   7.846  71.640  1.00  0.00    -0.132 OA 
HETATM   28  H   UNL     1      -9.166   7.439  72.499  1.00  0.00     0.000 HD 
ENDBRANCH  18  26
ENDBRANCH   5   6
ENDBRANCH   4   5
BRANCH   4  29
HETATM   29  C   UNL     1      -7.954  16.161  68.028  1.00  0.00    -0.145 C  
HETATM   30  C   UNL     1      -7.423  17.247  68.978  1.00  0.00    -0.196 C  
HETATM   31  C   UNL     1      -6.778  15.162  67.888  1.00  0.00    -0.168 C  
ENDBRANCH   4  29
ENDBRANCH   2   4
TORSDOF 7
ENDMDL
MODEL       67
REMARK 921   NORMALIZED FREE ENERGY PREDICTED BY IDOCK:   -5.10 KCAL/MOL
REMARK 922        TOTAL FREE ENERGY PREDICTED BY IDOCK:   -8.60 KCAL/MOL
REMARK 923 INTER-LIGAND FREE ENERGY PREDICTED BY IDOCK:   -7.16 KCAL/MOL
REMARK 924 INTRA-LIGAND FREE ENERGY PREDICTED BY IDOCK:   -1.44 KCAL/MOL
REMARK 927      BINDING AFFINITY PREDICTED BY RF-SCORE:    0.00 PKD
ROOT
HETATM    1  C   UNL     1     -10.206  14.513  67.054  1.00  0.00    -0.262 C  
HETATM    2  C   UNL     1     -11.721  14.576  67.365  1.00  0.00    -0.400 C  
HETATM    3  C   UNL     1     -12.389  14.238  66.023  1.00  0.00    -0.416 C  
ENDROOT
BRANCH   2   4
HETATM    4  N   UNL     1     -12.130  13.737  68.544  1.00  0.00    -0.354 NA 
BRANCH   4   5
HETATM    5  C   UNL     1     -11.162  12.635  68.845  1.00  0.00    -0.280 C  
BRANCH   5   6
HETATM    6  C   UNL     1     -11.165  11.426  67.871  1.00  0.00    -0.352 C  
HETATM    7  C   UNL     1     -10.177  10.247  68.190  1.00  0.00    -0.192 C  
HETATM    8  C   UNL     1      -8.693  10.702  68.198  1.00  0.00    -0.130 A  
HETATM    9  C   UNL     1     -10.578   9.381  69.425  1.00  0.00    -0.235 A  
HETATM   10  C   UNL     1     -11.520   9.813  70.368  1.00  0.00    -0.347 A  
HETATM   11  C   UNL     1      -8.028  11.277  67.094  1.00  0.00    -0.151 A  
HETATM   12  C   UNL     1      -6.654  11.580  67.160  1.00  0.00    -0.124 A  
HETATM   13  C   UNL     1     -11.657   9.232  71.627  1.00  0.00    -0.463 A  
HETATM   14  C   UNL     1     -10.034   7.592  71.000  1.00  0.00    -0.189 A  
HETATM   15  C   UNL     1      -5.923  11.355  68.326  1.00  0.00    -0.045 A  
HETATM   16  C   UNL     1     -10.880   8.139  71.962  1.00  0.00    -0.349 A  
HETATM   17  C   UNL     1      -7.910  10.505  69.362  1.00  0.00    -0.151 A  
HETATM   18  C   UNL     1      -6.544  10.808  69.444  1.00  0.00    -0.085 A  
HETATM   19  C   UNL     1      -9.912   8.177  69.729  1.00  0.00    -0.191 A  
BRANCH  11  20
HETATM   20  O   UNL     1      -8.710  11.467  65.860  1.00  0.00    -0.179 OA 
BRANCH  20  21
HETATM   21  C   UNL     1      -9.034  10.353  65.061  1.00  0.00    -0.195 C  
HETATM   22  O   UNL     1     -10.154  10.048  64.667  1.00  0.00    -0.271 OA 
HETATM   23  C   UNL     1      -7.782   9.549  64.736  1.00  0.00    -0.119 C  
HETATM   24  C   UNL     1      -7.100  10.099  63.484  1.00  0.00    -0.114 C  
HETATM   25  C   UNL     1      -8.141   8.077  64.523  1.00  0.00    -0.132 C  
ENDBRANCH  20  21
ENDBRANCH  11  20
BRANCH  18  26
HETATM   26  C   UNL     1      -5.737  10.451  70.671  1.00  0.00    -0.096 C  
HETATM   27  O   UNL     1      -5.351  11.594  71.427  1.00  0.00    -0.312 OA 
HETATM   28  H   UNL     1      -4.844  11.369  72.198  1.00  0.00     0.000 HD 
ENDBRANCH  18  26
ENDBRANCH   5   6
ENDBRANCH   4   5
BRANCH   4  29
HETATM   29  C   UNL     1     -12.536  14.452  69.793  1.00  0.00    -0.217 C  
HETATM   30  C   UNL     1     -12.469  13.619  71.084  1.00  0.00    -0.442 C  
HETATM   31  C   UNL     1     -11.646  15.686  70.083  1.00  0.00    -0.366 C  
ENDBRANCH   4  29
ENDBRANCH   2   4
TORSDOF 7
ENDMDL
MODEL       68
REMARK 921   NORMALIZED FREE ENERGY PREDICTED BY IDOCK:   -5.08 KCAL/MOL
REMARK 922        TOTAL FREE ENERGY PREDICTED BY IDOCK:   -8.57 KCAL/MOL
REMARK 923 INTER-LIGAND FREE ENERGY PREDICTED BY IDOCK:   -6.91 KCAL/MOL
REMARK 924 INTRA-LIGAND FREE ENERGY PREDICTED BY IDOCK:   -1.66 KCAL/MOL
REMARK 927      BINDING AFFINITY PREDICTED BY RF-SCORE:    0.00 PKD
ROOT
HETATM    1  C   UNL     1     -10.396  10.991  63.166  1.00  0.00    -0.251 C  
HETATM    2  C   UNL     1     -11.416  12.051  63.649  1.00  0.00    -0.468 C  
HETATM    3  C   UNL     1     -12.740  11.612  63.004  1.00  0.00     0.151 C  
ENDROOT
BRANCH   2   4
HETATM    4  N   UNL     1     -11.430  12.238  65.141  1.00  0.00    -0.333 NA 
BRANCH   4   5
HETATM    5  C   UNL     1     -10.452  11.357  65.853  1.00  0.00    -0.258 C  
BRANCH   5   6
HETATM    6  C   UNL     1      -9.335  12.072  66.661  1.00  0.00    -0.221 C  
HETATM    7  C   UNL     1      -9.170  11.666  68.169  1.00  0.00    -0.184 C  
HETATM    8  C   UNL     1     -10.451  11.942  69.001  1.00  0.00    -0.103 A  
HETATM    9  C   UNL     1      -8.563  10.247  68.395  1.00  0.00    -0.125 A  
HETATM   10  C   UNL     1      -8.498   9.289  67.377  1.00  0.00    -0.122 A  
HETATM   11  C   UNL     1     -11.043  13.213  69.160  1.00  0.00    -0.196 A  
HETATM   12  C   UNL     1     -12.155  13.387  70.007  1.00  0.00    -0.404 A  
HETATM   13  C   UNL     1      -8.274   7.935  67.618  1.00  0.00    -0.124 A  
HETATM   14  C   UNL     1      -7.955   8.445  69.932  1.00  0.00    -0.107 A  
HETATM   15  C   UNL     1     -12.724  12.306  70.680  1.00  0.00    -0.139 A  
HETATM   16  C   UNL     1      -8.041   7.503  68.910  1.00  0.00    -0.127 A  
HETATM   17  C   UNL     1     -11.072  10.875  69.695  1.00  0.00    -0.328 A  
HETATM   18  C   UNL     1     -12.185  11.032  70.535  1.00  0.00    -0.472 A  
HETATM   19  C   UNL     1      -8.169   9.809  69.676  1.00  0.00    -0.163 A  
BRANCH  11  20
HETATM   20  O   UNL     1     -10.464  14.359  68.549  1.00  0.00    -0.239 OA 
BRANCH  20  21
HETATM   21  C   UNL     1      -9.744  15.282  69.333  1.00  0.00    -0.247 C  
HETATM   22  O   UNL     1     -10.170  15.885  70.312  1.00  0.00    -0.207 OA 
HETATM   23  C   UNL     1      -8.327  15.444  68.798  1.00  0.00    -0.182 C  
HETATM   24  C   UNL     1      -7.401  14.389  69.402  1.00  0.00    -0.060 C  
HETATM   25  C   UNL     1      -7.798  16.842  69.123  1.00  0.00    -0.116 C  
ENDBRANCH  20  21
ENDBRANCH  11  20
BRANCH  18  26
HETATM   26  C   UNL     1     -12.718   9.877  71.350  1.00  0.00    -0.403 C  
HETATM   27  O   UNL     1     -12.447   8.613  70.753  1.00  0.00    -0.496 OA 
HETATM   28  H   UNL     1     -12.782   7.886  71.265  1.00  0.00     0.000 HD 
ENDBRANCH  18  26
ENDBRANCH   5   6
ENDBRANCH   4   5
BRANCH   4  29
HETATM   29  C   UNL     1     -11.371  13.638  65.662  1.00  0.00    -0.299 C  
HETATM   30  C   UNL     1     -10.653  14.652  64.757  1.00  0.00    -0.379 C  
HETATM   31  C   UNL     1     -12.779  14.246  65.881  1.00  0.00    -0.310 C  
ENDBRANCH   4  29
ENDBRANCH   2   4
TORSDOF 7
ENDMDL
MODEL       69
REMARK 921   NORMALIZED FREE ENERGY PREDICTED BY IDOCK:   -5.07 KCAL/MOL
REMARK 922        TOTAL FREE ENERGY PREDICTED BY IDOCK:   -8.56 KCAL/MOL
REMARK 923 INTER-LIGAND FREE ENERGY PREDICTED BY IDOCK:   -6.48 KCAL/MOL
REMARK 924 INTRA-LIGAND FREE ENERGY PREDICTED BY IDOCK:   -2.07 KCAL/MOL
REMARK 927      BINDING AFFINITY PREDICTED BY RF-SCORE:    0.00 PKD
ROOT
HETATM    1  C   UNL     1     -10.154   5.786  73.289  1.00  0.00    -0.202 C  
HETATM    2  C   UNL     1     -10.666   7.245  73.221  1.00  0.00    -0.383 C  
HETATM    3  C   UNL     1      -9.410   8.091  73.489  1.00  0.00    -0.285 C  
ENDROOT
BRANCH   2   4
HETATM    4  N   UNL     1     -11.426   7.559  71.963  1.00  0.00    -0.268 NA 
BRANCH   4   5
HETATM    5  C   UNL     1     -11.677   6.353  71.112  1.00  0.00    -0.298 C  
BRANCH   5   6
HETATM    6  C   UNL     1     -11.492   6.535  69.581  1.00  0.00    -0.417 C  
HETATM    7  C   UNL     1     -10.024   6.481  69.025  1.00  0.00    -0.161 C  
HETATM    8  C   UNL     1      -9.119   7.586  69.632  1.00  0.00    -0.140 A  
HETATM    9  C   UNL     1      -9.379   5.060  69.035  1.00  0.00    -0.176 A  
HETATM   10  C   UNL     1      -9.909   4.003  69.784  1.00  0.00    -0.173 A  
HETATM   11  C   UNL     1      -9.365   8.972  69.520  1.00  0.00    -0.160 A  
HETATM   12  C   UNL     1      -8.443   9.909  70.025  1.00  0.00    -0.191 A  
HETATM   13  C   UNL     1      -9.193   2.842  70.075  1.00  0.00    -0.211 A  
HETATM   14  C   UNL     1      -7.415   3.644  68.692  1.00  0.00    -0.054 A  
HETATM   15  C   UNL     1      -7.283   9.496  70.681  1.00  0.00    -0.130 A  
HETATM   16  C   UNL     1      -7.922   2.679  69.559  1.00  0.00    -0.053 A  
HETATM   17  C   UNL     1      -7.935   7.218  70.316  1.00  0.00    -0.115 A  
HETATM   18  C   UNL     1      -7.012   8.140  70.831  1.00  0.00    -0.043 A  
HETATM   19  C   UNL     1      -8.149   4.804  68.395  1.00  0.00    -0.084 A  
BRANCH  11  20
HETATM   20  O   UNL     1     -10.498   9.447  68.803  1.00  0.00    -0.205 OA 
BRANCH  20  21
HETATM   21  C   UNL     1     -10.378   9.773  67.438  1.00  0.00    -0.240 C  
HETATM   22  O   UNL     1     -10.396   8.982  66.503  1.00  0.00    -0.264 OA 
HETATM   23  C   UNL     1     -10.216  11.277  67.264  1.00  0.00    -0.226 C  
HETATM   24  C   UNL     1     -11.582  11.958  67.183  1.00  0.00    -0.363 C  
HETATM   25  C   UNL     1      -9.415  11.577  65.995  1.00  0.00    -0.249 C  
ENDBRANCH  20  21
ENDBRANCH  11  20
BRANCH  18  26
HETATM   26  C   UNL     1      -5.704   7.682  71.434  1.00  0.00    -0.035 C  
HETATM   27  O   UNL     1      -5.707   7.734  72.857  1.00  0.00    -0.043 OA 
HETATM   28  H   UNL     1      -4.885   7.446  73.236  1.00  0.00     0.000 HD 
ENDBRANCH  18  26
ENDBRANCH   5   6
ENDBRANCH   4   5
BRANCH   4  29
HETATM   29  C   UNL     1     -12.660   8.392  72.091  1.00  0.00    -0.364 C  
HETATM   30  C   UNL     1     -12.671   9.692  71.269  1.00  0.00    -0.443 C  
HETATM   31  C   UNL     1     -13.933   7.637  71.635  1.00  0.00    -0.510 C  
ENDBRANCH   4  29
ENDBRANCH   2   4
TORSDOF 7
ENDMDL
MODEL       70
REMARK 921   NORMALIZED FREE ENERGY PREDICTED BY IDOCK:   -5.03 KCAL/MOL
REMARK 922        TOTAL FREE ENERGY PREDICTED BY IDOCK:   -8.50 KCAL/MOL
REMARK 923 INTER-LIGAND FREE ENERGY PREDICTED BY IDOCK:   -7.34 KCAL/MOL
REMARK 924 INTRA-LIGAND FREE ENERGY PREDICTED BY IDOCK:   -1.16 KCAL/MOL
REMARK 927      BINDING AFFINITY PREDICTED BY RF-SCORE:    0.00 PKD
ROOT
HETATM    1  C   UNL     1      -5.141  13.178  68.592  1.00  0.00    -0.069 C  
HETATM    2  C   UNL     1      -5.748  11.759  68.707  1.00  0.00    -0.049 C  
HETATM    3  C   UNL     1      -5.964  11.570  70.217  1.00  0.00    -0.160 C  
ENDROOT
BRANCH   2   4
HETATM    4  N   UNL     1      -6.950  11.545  67.830  1.00  0.00    -0.074 NA 
BRANCH   4   5
HETATM    5  C   UNL     1      -7.459  12.810  67.211  1.00  0.00    -0.097 C  
BRANCH   5   6
HETATM    6  C   UNL     1      -8.233  13.777  68.148  1.00  0.00    -0.160 C  
HETATM    7  C   UNL     1      -9.799  13.669  68.153  1.00  0.00    -0.236 C  
HETATM    8  C   UNL     1     -10.418  13.946  66.756  1.00  0.00    -0.270 A  
HETATM    9  C   UNL     1     -10.359  12.389  68.848  1.00  0.00    -0.074 A  
HETATM   10  C   UNL     1      -9.555  11.277  69.126  1.00  0.00     0.038 A  
HETATM   11  C   UNL     1     -10.265  15.153  66.040  1.00  0.00    -0.307 A  
HETATM   12  C   UNL     1     -10.935  15.353  64.817  1.00  0.00    -0.411 A  
HETATM   13  C   UNL     1     -10.075  10.021  69.436  1.00  0.00    -0.235 A  
HETATM   14  C   UNL     1     -12.269  10.970  69.410  1.00  0.00    -0.329 A  
HETATM   15  C   UNL     1     -11.736  14.353  64.263  1.00  0.00    -0.328 A  
HETATM   16  C   UNL     1     -11.443   9.856  69.538  1.00  0.00    -0.120 A  
HETATM   17  C   UNL     1     -11.231  12.960  66.147  1.00  0.00    -0.326 A  
HETATM   18  C   UNL     1     -11.897  13.142  64.927  1.00  0.00    -0.399 A  
HETATM   19  C   UNL     1     -11.735  12.234  69.111  1.00  0.00    -0.377 A  
BRANCH  11  20
HETATM   20  O   UNL     1      -9.513  16.227  66.590  1.00  0.00    -0.223 OA 
BRANCH  20  21
HETATM   21  C   UNL     1     -10.180  17.306  67.205  1.00  0.00    -0.319 C  
HETATM   22  O   UNL     1     -11.018  17.223  68.095  1.00  0.00    -0.347 OA 
HETATM   23  C   UNL     1      -9.715  18.628  66.607  1.00  0.00    -0.360 C  
HETATM   24  C   UNL     1      -8.472  19.137  67.334  1.00  0.00    -0.308 C  
HETATM   25  C   UNL     1     -10.832  19.670  66.703  1.00  0.00    -0.472 C  
ENDBRANCH  20  21
ENDBRANCH  11  20
BRANCH  18  26
HETATM   26  C   UNL     1     -12.855  12.100  64.397  1.00  0.00    -0.115 C  
HETATM   27  O   UNL     1     -12.505  11.645  63.093  1.00  0.00    -0.937 OA 
HETATM   28  H   UNL     1     -13.107  10.989  62.760  1.00  0.00     0.000 HD 
ENDBRANCH  18  26
ENDBRANCH   5   6
ENDBRANCH   4   5
BRANCH   4  29
HETATM   29  C   UNL     1      -6.882  10.443  66.821  1.00  0.00    -0.091 C  
HETATM   30  C   UNL     1      -6.385   9.089  67.353  1.00  0.00    -0.060 C  
HETATM   31  C   UNL     1      -8.264  10.129  66.196  1.00  0.00    -0.125 C  
ENDBRANCH   4  29
ENDBRANCH   2   4
TORSDOF 7
ENDMDL
MODEL       71
REMARK 921   NORMALIZED FREE ENERGY PREDICTED BY IDOCK:   -4.99 KCAL/MOL
REMARK 922        TOTAL FREE ENERGY PREDICTED BY IDOCK:   -8.43 KCAL/MOL
REMARK 923 INTER-LIGAND FREE ENERGY PREDICTED BY IDOCK:   -6.44 KCAL/MOL
REMARK 924 INTRA-LIGAND FREE ENERGY PREDICTED BY IDOCK:   -1.99 KCAL/MOL
REMARK 927      BINDING AFFINITY PREDICTED BY RF-SCORE:    0.00 PKD
ROOT
HETATM    1  C   UNL     1      -6.776   7.180  65.967  1.00  0.00    -0.053 C  
HETATM    2  C   UNL     1      -7.958   7.578  66.883  1.00  0.00    -0.115 C  
HETATM    3  C   UNL     1      -8.704   8.655  66.079  1.00  0.00    -0.196 C  
ENDROOT
BRANCH   2   4
HETATM    4  N   UNL     1      -8.778   6.407  67.351  1.00  0.00    -0.107 NA 
BRANCH   4   5
HETATM    5  C   UNL     1      -8.820   6.279  68.842  1.00  0.00    -0.124 C  
BRANCH   5   6
HETATM    6  C   UNL     1      -7.815   7.151  69.642  1.00  0.00    -0.118 C  
HETATM    7  C   UNL     1      -8.382   7.963  70.860  1.00  0.00    -0.115 C  
HETATM    8  C   UNL     1      -9.482   8.974  70.439  1.00  0.00    -0.247 A  
HETATM    9  C   UNL     1      -8.765   7.093  72.098  1.00  0.00    -0.132 A  
HETATM   10  C   UNL     1      -8.924   5.704  72.016  1.00  0.00    -0.142 A  
HETATM   11  C   UNL     1      -9.290  10.027  69.520  1.00  0.00    -0.229 A  
HETATM   12  C   UNL     1     -10.319  10.954  69.262  1.00  0.00    -0.211 A  
HETATM   13  C   UNL     1      -9.572   4.953  72.995  1.00  0.00    -0.155 A  
HETATM   14  C   UNL     1      -9.768   6.932  74.322  1.00  0.00    -0.309 A  
HETATM   15  C   UNL     1     -11.566  10.834  69.877  1.00  0.00    -0.410 A  
HETATM   16  C   UNL     1     -10.034   5.577  74.138  1.00  0.00    -0.228 A  
HETATM   17  C   UNL     1     -10.768   8.889  71.028  1.00  0.00    -0.315 A  
HETATM   18  C   UNL     1     -11.804   9.799  70.774  1.00  0.00    -0.400 A  
HETATM   19  C   UNL     1      -9.102   7.678  73.335  1.00  0.00    -0.296 A  
BRANCH  11  20
HETATM   20  O   UNL     1      -8.019  10.233  68.915  1.00  0.00    -0.097 OA 
BRANCH  20  21
HETATM   21  C   UNL     1      -7.160  11.232  69.414  1.00  0.00    -0.090 C  
HETATM   22  O   UNL     1      -6.551  11.195  70.477  1.00  0.00    -0.273 OA 
HETATM   23  C   UNL     1      -7.079  12.399  68.439  1.00  0.00    -0.106 C  
HETATM   24  C   UNL     1      -5.991  12.152  67.395  1.00  0.00    -0.139 C  
HETATM   25  C   UNL     1      -6.783  13.697  69.194  1.00  0.00    -0.109 C  
ENDBRANCH  20  21
ENDBRANCH  11  20
BRANCH  18  26
HETATM   26  C   UNL     1     -13.108   9.729  71.534  1.00  0.00    -0.411 C  
HETATM   27  O   UNL     1     -13.148   8.645  72.457  1.00  0.00    -0.530 OA 
HETATM   28  H   UNL     1     -13.968   8.601  72.936  1.00  0.00     0.000 HD 
ENDBRANCH  18  26
ENDBRANCH   5   6
ENDBRANCH   4   5
BRANCH   4  29
HETATM   29  C   UNL     1     -10.140   6.237  66.758  1.00  0.00    -0.180 C  
HETATM   30  C   UNL     1     -10.431   4.853  66.155  1.00  0.00    -0.346 C  
HETATM   31  C   UNL     1     -11.267   6.449  67.799  1.00  0.00    -0.258 C  
ENDBRANCH   4  29
ENDBRANCH   2   4
TORSDOF 7
ENDMDL
MODEL       72
REMARK 921   NORMALIZED FREE ENERGY PREDICTED BY IDOCK:   -4.93 KCAL/MOL
REMARK 922        TOTAL FREE ENERGY PREDICTED BY IDOCK:   -8.36 KCAL/MOL
REMARK 923 INTER-LIGAND FREE ENERGY PREDICTED BY IDOCK:   -6.55 KCAL/MOL
REMARK 924 INTRA-LIGAND FREE ENERGY PREDICTED BY IDOCK:   -1.81 KCAL/MOL
REMARK 927      BINDING AFFINITY PREDICTED BY RF-SCORE:    0.00 PKD
ROOT
HETATM    1  C   UNL     1      -7.840  10.200  64.349  1.00  0.00    -0.138 C  
HETATM    2  C   UNL     1      -9.076  10.779  63.618  1.00  0.00    -0.212 C  
HETATM    3  C   UNL     1      -9.253   9.857  62.401  1.00  0.00    -0.308 C  
ENDROOT
BRANCH   2   4
HETATM    4  N   UNL     1     -10.277  10.949  64.507  1.00  0.00    -0.335 NA 
BRANCH   4   5
HETATM    5  C   UNL     1     -10.011  10.574  65.931  1.00  0.00    -0.254 C  
BRANCH   5   6
HETATM    6  C   UNL     1     -10.456   9.151  66.368  1.00  0.00    -0.141 C  
HETATM    7  C   UNL     1     -10.146   8.726  67.847  1.00  0.00    -0.257 C  
HETATM    8  C   UNL     1      -8.626   8.742  68.162  1.00  0.00    -0.134 A  
HETATM    9  C   UNL     1     -11.021   9.439  68.925  1.00  0.00    -0.081 A  
HETATM   10  C   UNL     1     -11.760  10.595  68.644  1.00  0.00    -0.228 A  
HETATM   11  C   UNL     1      -7.661   7.966  67.484  1.00  0.00    -0.105 A  
HETATM   12  C   UNL     1      -6.314   7.975  67.894  1.00  0.00    -0.052 A  
HETATM   13  C   UNL     1     -12.276  11.428  69.635  1.00  0.00    -0.316 A  
HETATM   14  C   UNL     1     -11.511   9.872  71.281  1.00  0.00    -0.435 A  
HETATM   15  C   UNL     1      -5.889   8.776  68.955  1.00  0.00    -0.040 A  
HETATM   16  C   UNL     1     -12.115  11.087  70.964  1.00  0.00    -0.406 A  
HETATM   17  C   UNL     1      -8.143   9.546  69.223  1.00  0.00    -0.103 A  
HETATM   18  C   UNL     1      -6.803   9.571  69.637  1.00  0.00    -0.063 A  
HETATM   19  C   UNL     1     -11.006   9.032  70.274  1.00  0.00    -0.274 A  
BRANCH  11  20
HETATM   20  O   UNL     1      -8.051   7.083  66.440  1.00  0.00    -0.105 OA 
BRANCH  20  21
HETATM   21  C   UNL     1      -8.052   5.692  66.662  1.00  0.00    -0.105 C  
HETATM   22  O   UNL     1      -7.063   4.984  66.812  1.00  0.00    -0.066 OA 
HETATM   23  C   UNL     1      -9.479   5.160  66.695  1.00  0.00    -0.147 C  
HETATM   24  C   UNL     1     -10.059   5.266  68.105  1.00  0.00    -0.211 C  
HETATM   25  C   UNL     1      -9.507   3.701  66.234  1.00  0.00    -0.177 C  
ENDBRANCH  20  21
ENDBRANCH  11  20
BRANCH  18  26
HETATM   26  C   UNL     1      -6.378  10.350  70.860  1.00  0.00     0.084 C  
HETATM   27  O   UNL     1      -6.287  11.750  70.615  1.00  0.00    -0.528 OA 
HETATM   28  H   UNL     1      -6.020  12.240  71.384  1.00  0.00     0.000 HD 
ENDBRANCH  18  26
ENDBRANCH   5   6
ENDBRANCH   4   5
BRANCH   4  29
HETATM   29  C   UNL     1     -11.021  12.243  64.422  1.00  0.00    -0.329 C  
HETATM   30  C   UNL     1     -12.124  12.304  63.353  1.00  0.00    -0.615 C  
HETATM   31  C   UNL     1     -11.746  12.595  65.745  1.00  0.00    -0.466 C  
ENDBRANCH   4  29
ENDBRANCH   2   4
TORSDOF 7
ENDMDL
MODEL       73
REMARK 921   NORMALIZED FREE ENERGY PREDICTED BY IDOCK:   -4.91 KCAL/MOL
REMARK 922        TOTAL FREE ENERGY PREDICTED BY IDOCK:   -8.33 KCAL/MOL
REMARK 923 INTER-LIGAND FREE ENERGY PREDICTED BY IDOCK:   -7.54 KCAL/MOL
REMARK 924 INTRA-LIGAND FREE ENERGY PREDICTED BY IDOCK:   -0.78 KCAL/MOL
REMARK 927      BINDING AFFINITY PREDICTED BY RF-SCORE:    0.00 PKD
ROOT
HETATM    1  C   UNL     1     -12.048  12.788  70.026  1.00  0.00    -0.355 C  
HETATM    2  C   UNL     1     -12.442  11.987  71.291  1.00  0.00    -0.198 C  
HETATM    3  C   UNL     1     -13.478  12.883  71.989  1.00  0.00    -0.568 C  
ENDROOT
BRANCH   2   4
HETATM    4  N   UNL     1     -12.868  10.575  71.002  1.00  0.00    -0.385 NA 
BRANCH   4   5
HETATM    5  C   UNL     1     -12.018   9.905  69.968  1.00  0.00    -0.009 C  
BRANCH   5   6
HETATM    6  C   UNL     1     -10.486  10.136  70.075  1.00  0.00    -0.325 C  
HETATM    7  C   UNL     1      -9.580   9.444  68.994  1.00  0.00    -0.164 C  
HETATM    8  C   UNL     1      -9.714   7.898  69.010  1.00  0.00    -0.162 A  
HETATM    9  C   UNL     1      -9.676  10.071  67.569  1.00  0.00    -0.189 A  
HETATM   10  C   UNL     1     -10.718  10.930  67.198  1.00  0.00    -0.320 A  
HETATM   11  C   UNL     1      -9.422   7.081  70.124  1.00  0.00    -0.162 A  
HETATM   12  C   UNL     1      -9.486   5.678  70.023  1.00  0.00    -0.199 A  
HETATM   13  C   UNL     1     -11.014  11.239  65.871  1.00  0.00    -0.221 A  
HETATM   14  C   UNL     1      -9.088   9.994  65.197  1.00  0.00    -0.247 A  
HETATM   15  C   UNL     1      -9.875   5.058  68.835  1.00  0.00    -0.245 A  
HETATM   16  C   UNL     1     -10.219  10.734  64.860  1.00  0.00    -0.388 A  
HETATM   17  C   UNL     1     -10.115   7.222  67.832  1.00  0.00    -0.217 A  
HETATM   18  C   UNL     1     -10.191   5.826  67.720  1.00  0.00    -0.234 A  
HETATM   19  C   UNL     1      -8.791   9.698  66.538  1.00  0.00    -0.158 A  
BRANCH  11  20
HETATM   20  O   UNL     1      -8.958   7.658  71.338  1.00  0.00    -0.131 OA 
BRANCH  20  21
HETATM   21  C   UNL     1      -7.870   7.077  72.019  1.00  0.00    -0.093 C  
HETATM   22  O   UNL     1      -6.733   6.945  71.583  1.00  0.00    -0.052 OA 
HETATM   23  C   UNL     1      -8.296   6.617  73.407  1.00  0.00    -0.127 C  
HETATM   24  C   UNL     1      -8.163   7.759  74.415  1.00  0.00    -0.279 C  
HETATM   25  C   UNL     1      -7.439   5.432  73.856  1.00  0.00    -0.090 C  
ENDBRANCH  20  21
ENDBRANCH  11  20
BRANCH  18  26
HETATM   26  C   UNL     1     -10.498   5.164  66.396  1.00  0.00    -0.303 C  
HETATM   27  O   UNL     1     -10.013   3.827  66.325  1.00  0.00    -0.399 OA 
HETATM   28  H   UNL     1     -10.206   3.411  65.493  1.00  0.00     0.000 HD 
ENDBRANCH  18  26
ENDBRANCH   5   6
ENDBRANCH   4   5
BRANCH   4  29
HETATM   29  C   UNL     1     -13.105   9.672  72.170  1.00  0.00    -0.431 C  
HETATM   30  C   UNL     1     -14.360   8.789  72.080  1.00  0.00    -0.481 C  
HETATM   31  C   UNL     1     -11.944   8.671  72.388  1.00  0.00    -0.410 C  
ENDBRANCH   4  29
ENDBRANCH   2   4
TORSDOF 7
ENDMDL
MODEL       74
REMARK 921   NORMALIZED FREE ENERGY PREDICTED BY IDOCK:   -4.88 KCAL/MOL
REMARK 922        TOTAL FREE ENERGY PREDICTED BY IDOCK:   -8.28 KCAL/MOL
REMARK 923 INTER-LIGAND FREE ENERGY PREDICTED BY IDOCK:   -6.88 KCAL/MOL
REMARK 924 INTRA-LIGAND FREE ENERGY PREDICTED BY IDOCK:   -1.40 KCAL/MOL
REMARK 927      BINDING AFFINITY PREDICTED BY RF-SCORE:    0.00 PKD
ROOT
HETATM    1  C   UNL     1     -12.092  13.825  69.331  1.00  0.00    -0.377 C  
HETATM    2  C   UNL     1     -11.667  15.296  69.554  1.00  0.00    -0.339 C  
HETATM    3  C   UNL     1     -11.309  15.356  71.048  1.00  0.00    -0.411 C  
ENDROOT
BRANCH   2   4
HETATM    4  N   UNL     1     -10.610  15.770  68.596  1.00  0.00    -0.241 NA 
BRANCH   4   5
HETATM    5  C   UNL     1     -10.832  15.294  67.194  1.00  0.00    -0.322 C  
BRANCH   5   6
HETATM    6  C   UNL     1      -9.561  15.040  66.339  1.00  0.00    -0.314 C  
HETATM    7  C   UNL     1      -9.304  13.568  65.857  1.00  0.00     0.055 C  
HETATM    8  C   UNL     1      -9.148  12.575  67.040  1.00  0.00    -0.213 A  
HETATM    9  C   UNL     1     -10.276  13.072  64.740  1.00  0.00    -0.312 A  
HETATM   10  C   UNL     1     -11.474  13.732  64.444  1.00  0.00    -0.392 A  
HETATM   11  C   UNL     1      -8.158  12.674  68.041  1.00  0.00    -0.161 A  
HETATM   12  C   UNL     1      -8.032  11.678  69.029  1.00  0.00     0.060 A  
HETATM   13  C   UNL     1     -12.501  13.150  63.702  1.00  0.00    -0.374 A  
HETATM   14  C   UNL     1     -11.094  11.254  63.326  1.00  0.00    -0.091 A  
HETATM   15  C   UNL     1      -8.904  10.589  69.068  1.00  0.00    -0.174 A  
HETATM   16  C   UNL     1     -12.326  11.885  63.174  1.00  0.00    -0.354 A  
HETATM   17  C   UNL     1     -10.015  11.458  67.130  1.00  0.00    -0.217 A  
HETATM   18  C   UNL     1      -9.907  10.464  68.113  1.00  0.00    -0.168 A  
HETATM   19  C   UNL     1     -10.061  11.855  64.064  1.00  0.00    -0.361 A  
BRANCH  11  20
HETATM   20  O   UNL     1      -7.203  13.728  68.008  1.00  0.00    -0.104 OA 
BRANCH  20  21
HETATM   21  C   UNL     1      -6.061  13.664  68.831  1.00  0.00    -0.088 C  
HETATM   22  O   UNL     1      -5.155  12.843  68.745  1.00  0.00    -0.060 OA 
HETATM   23  C   UNL     1      -6.093  14.775  69.872  1.00  0.00    -0.141 C  
HETATM   24  C   UNL     1      -5.471  16.053  69.311  1.00  0.00    -0.113 C  
HETATM   25  C   UNL     1      -5.334  14.341  71.128  1.00  0.00    -0.164 C  
ENDBRANCH  20  21
ENDBRANCH  11  20
BRANCH  18  26
HETATM   26  C   UNL     1     -10.779   9.231  68.075  1.00  0.00    -0.174 C  
HETATM   27  O   UNL     1     -11.380   8.944  69.334  1.00  0.00    -0.434 OA 
HETATM   28  H   UNL     1     -11.928   8.169  69.310  1.00  0.00     0.000 HD 
ENDBRANCH  18  26
ENDBRANCH   5   6
ENDBRANCH   4   5
BRANCH   4  29
HETATM   29  C   UNL     1     -10.258  17.223  68.620  1.00  0.00    -0.351 C  
HETATM   30  C   UNL     1      -8.756  17.539  68.710  1.00  0.00    -0.214 C  
HETATM   31  C   UNL     1     -10.733  17.967  67.347  1.00  0.00    -0.334 C  
ENDBRANCH   4  29
ENDBRANCH   2   4
TORSDOF 7
ENDMDL
MODEL       75
REMARK 921   NORMALIZED FREE ENERGY PREDICTED BY IDOCK:   -4.86 KCAL/MOL
REMARK 922        TOTAL FREE ENERGY PREDICTED BY IDOCK:   -8.26 KCAL/MOL
REMARK 923 INTER-LIGAND FREE ENERGY PREDICTED BY IDOCK:   -7.02 KCAL/MOL
REMARK 924 INTRA-LIGAND FREE ENERGY PREDICTED BY IDOCK:   -1.24 KCAL/MOL
REMARK 927      BINDING AFFINITY PREDICTED BY RF-SCORE:    0.00 PKD
ROOT
HETATM    1  C   UNL     1     -11.041   7.436  72.212  1.00  0.00    -0.308 C  
HETATM    2  C   UNL     1      -9.796   8.351  72.123  1.00  0.00    -0.302 C  
HETATM    3  C   UNL     1      -9.080   8.133  73.466  1.00  0.00    -0.277 C  
ENDROOT
BRANCH   2   4
HETATM    4  N   UNL     1      -8.973   8.132  70.884  1.00  0.00    -0.142 NA 
BRANCH   4   5
HETATM    5  C   UNL     1      -9.275   9.116  69.797  1.00  0.00    -0.171 C  
BRANCH   5   6
HETATM    6  C   UNL     1     -10.701   9.058  69.186  1.00  0.00    -0.176 C  
HETATM    7  C   UNL     1     -10.847   8.403  67.767  1.00  0.00    -0.061 C  
HETATM    8  C   UNL     1     -10.019   9.143  66.683  1.00  0.00    -0.343 A  
HETATM    9  C   UNL     1     -10.669   6.852  67.748  1.00  0.00    -0.321 A  
HETATM   10  C   UNL     1     -10.089   6.152  68.813  1.00  0.00    -0.205 A  
HETATM   11  C   UNL     1     -10.190  10.501  66.336  1.00  0.00    -0.237 A  
HETATM   12  C   UNL     1      -9.456  11.070  65.278  1.00  0.00    -0.259 A  
HETATM   13  C   UNL     1      -9.622   4.844  68.699  1.00  0.00    -0.215 A  
HETATM   14  C   UNL     1     -10.480   4.777  66.469  1.00  0.00    -0.251 A  
HETATM   15  C   UNL     1      -8.516  10.322  64.569  1.00  0.00    -0.183 A  
HETATM   16  C   UNL     1      -9.781   4.165  67.506  1.00  0.00    -0.185 A  
HETATM   17  C   UNL     1      -9.046   8.430  65.942  1.00  0.00    -0.225 A  
HETATM   18  C   UNL     1      -8.302   8.986  64.891  1.00  0.00    -0.178 A  
HETATM   19  C   UNL     1     -10.959   6.091  66.597  1.00  0.00    -0.229 A  
BRANCH  11  20
HETATM   20  O   UNL     1     -11.181  11.291  66.983  1.00  0.00    -0.298 OA 
BRANCH  20  21
HETATM   21  C   UNL     1     -11.728  12.407  66.320  1.00  0.00    -0.395 C  
HETATM   22  O   UNL     1     -12.537  12.376  65.400  1.00  0.00    -0.637 OA 
HETATM   23  C   UNL     1     -11.173  13.698  66.908  1.00  0.00    -0.326 C  
HETATM   24  C   UNL     1     -12.011  14.147  68.104  1.00  0.00    -0.367 C  
HETATM   25  C   UNL     1     -11.162  14.799  65.844  1.00  0.00    -0.340 C  
ENDBRANCH  20  21
ENDBRANCH  11  20
BRANCH  18  26
HETATM   26  C   UNL     1      -7.374   8.135  64.055  1.00  0.00    -0.100 C  
HETATM   27  O   UNL     1      -6.061   8.677  63.967  1.00  0.00    -0.070 OA 
HETATM   28  H   UNL     1      -5.477   8.142  63.442  1.00  0.00     0.000 HD 
ENDBRANCH  18  26
ENDBRANCH   5   6
ENDBRANCH   4   5
BRANCH   4  29
HETATM   29  C   UNL     1      -7.499   7.956  71.057  1.00  0.00    -0.073 C  
HETATM   30  C   UNL     1      -6.825   6.999  70.060  1.00  0.00    -0.057 C  
HETATM   31  C   UNL     1      -6.723   9.288  70.897  1.00  0.00    -0.094 C  
ENDBRANCH   4  29
ENDBRANCH   2   4
TORSDOF 7
ENDMDL
MODEL       76
REMARK 921   NORMALIZED FREE ENERGY PREDICTED BY IDOCK:   -4.85 KCAL/MOL
REMARK 922        TOTAL FREE ENERGY PREDICTED BY IDOCK:   -8.25 KCAL/MOL
REMARK 923 INTER-LIGAND FREE ENERGY PREDICTED BY IDOCK:   -6.77 KCAL/MOL
REMARK 924 INTRA-LIGAND FREE ENERGY PREDICTED BY IDOCK:   -1.47 KCAL/MOL
REMARK 927      BINDING AFFINITY PREDICTED BY RF-SCORE:    0.00 PKD
ROOT
HETATM    1  C   UNL     1     -10.795  14.129  68.160  1.00  0.00    -0.258 C  
HETATM    2  C   UNL     1     -10.304  14.012  66.697  1.00  0.00    -0.278 C  
HETATM    3  C   UNL     1      -9.078  14.938  66.643  1.00  0.00    -0.309 C  
ENDROOT
BRANCH   2   4
HETATM    4  N   UNL     1     -10.091  12.595  66.244  1.00  0.00    -0.248 NA 
BRANCH   4   5
HETATM    5  C   UNL     1      -9.960  11.628  67.379  1.00  0.00    -0.183 C  
BRANCH   5   6
HETATM    6  C   UNL     1     -10.871  10.371  67.328  1.00  0.00    -0.324 C  
HETATM    7  C   UNL     1     -11.005   9.530  68.647  1.00  0.00    -0.113 C  
HETATM    8  C   UNL     1      -9.643   8.970  69.135  1.00  0.00    -0.161 A  
HETATM    9  C   UNL     1     -11.845  10.215  69.770  1.00  0.00    -0.158 A  
HETATM   10  C   UNL     1     -12.151  11.581  69.748  1.00  0.00    -0.374 A  
HETATM   11  C   UNL     1      -8.819   8.104  68.384  1.00  0.00    -0.133 A  
HETATM   12  C   UNL     1      -7.640   7.572  68.939  1.00  0.00    -0.105 A  
HETATM   13  C   UNL     1     -12.603  12.277  70.868  1.00  0.00    -0.334 A  
HETATM   14  C   UNL     1     -12.667  10.214  72.073  1.00  0.00    -0.421 A  
HETATM   15  C   UNL     1      -7.233   7.913  70.230  1.00  0.00    -0.057 A  
HETATM   16  C   UNL     1     -12.823  11.598  72.050  1.00  0.00    -0.250 A  
HETATM   17  C   UNL     1      -9.181   9.295  70.434  1.00  0.00    -0.291 A  
HETATM   18  C   UNL     1      -8.005   8.779  70.997  1.00  0.00    -0.170 A  
HETATM   19  C   UNL     1     -12.225   9.518  70.935  1.00  0.00    -0.332 A  
BRANCH  11  20
HETATM   20  O   UNL     1      -9.219   7.672  67.089  1.00  0.00    -0.125 OA 
BRANCH  20  21
HETATM   21  C   UNL     1      -9.940   6.471  66.943  1.00  0.00    -0.173 C  
HETATM   22  O   UNL     1     -11.138   6.318  67.150  1.00  0.00    -0.358 OA 
HETATM   23  C   UNL     1      -9.018   5.350  66.482  1.00  0.00    -0.120 C  
HETATM   24  C   UNL     1      -8.914   5.333  64.957  1.00  0.00    -0.079 C  
HETATM   25  C   UNL     1      -9.541   4.000  66.977  1.00  0.00    -0.231 C  
ENDBRANCH  20  21
ENDBRANCH  11  20
BRANCH  18  26
HETATM   26  C   UNL     1      -7.638   9.062  72.436  1.00  0.00     0.439 C  
HETATM   27  O   UNL     1      -6.279   9.457  72.588  1.00  0.00    -0.300 OA 
HETATM   28  H   UNL     1      -6.048   9.635  73.492  1.00  0.00     0.000 HD 
ENDBRANCH  18  26
ENDBRANCH   5   6
ENDBRANCH   4   5
BRANCH   4  29
HETATM   29  C   UNL     1     -11.006  12.063  65.188  1.00  0.00    -0.310 C  
HETATM   30  C   UNL     1     -12.321  12.837  65.000  1.00  0.00    -0.559 C  
HETATM   31  C   UNL     1     -10.352  12.066  63.784  1.00  0.00    -0.457 C  
ENDBRANCH   4  29
ENDBRANCH   2   4
TORSDOF 7
ENDMDL
MODEL       77
REMARK 921   NORMALIZED FREE ENERGY PREDICTED BY IDOCK:   -4.85 KCAL/MOL
REMARK 922        TOTAL FREE ENERGY PREDICTED BY IDOCK:   -8.24 KCAL/MOL
REMARK 923 INTER-LIGAND FREE ENERGY PREDICTED BY IDOCK:   -6.86 KCAL/MOL
REMARK 924 INTRA-LIGAND FREE ENERGY PREDICTED BY IDOCK:   -1.39 KCAL/MOL
REMARK 927      BINDING AFFINITY PREDICTED BY RF-SCORE:    0.00 PKD
ROOT
HETATM    1  C   UNL     1     -11.824  13.299  68.029  1.00  0.00    -0.392 C  
HETATM    2  C   UNL     1     -11.584  12.735  69.450  1.00  0.00    -0.298 C  
HETATM    3  C   UNL     1     -12.291  13.740  70.373  1.00  0.00    -0.423 C  
ENDROOT
BRANCH   2   4
HETATM    4  N   UNL     1     -11.985  11.294  69.602  1.00  0.00    -0.334 NA 
BRANCH   4   5
HETATM    5  C   UNL     1     -11.277  10.383  68.648  1.00  0.00    -0.248 C  
BRANCH   5   6
HETATM    6  C   UNL     1      -9.725  10.427  68.671  1.00  0.00    -0.178 C  
HETATM    7  C   UNL     1      -8.967   9.483  67.671  1.00  0.00    -0.124 C  
HETATM    8  C   UNL     1      -9.290   7.984  67.909  1.00  0.00    -0.148 A  
HETATM    9  C   UNL     1      -9.056   9.918  66.174  1.00  0.00    -0.193 A  
HETATM   10  C   UNL     1     -10.002  10.846  65.720  1.00  0.00    -0.299 A  
HETATM   11  C   UNL     1      -9.045   7.296  69.117  1.00  0.00    -0.137 A  
HETATM   12  C   UNL     1      -9.286   5.912  69.218  1.00  0.00    -0.147 A  
HETATM   13  C   UNL     1     -10.323  11.007  64.373  1.00  0.00    -0.424 A  
HETATM   14  C   UNL     1      -8.601   9.443  63.819  1.00  0.00    -0.224 A  
HETATM   15  C   UNL     1      -9.808   5.192  68.142  1.00  0.00    -0.204 A  
HETATM   16  C   UNL     1      -9.647  10.271  63.419  1.00  0.00    -0.316 A  
HETATM   17  C   UNL     1      -9.829   7.212  66.851  1.00  0.00    -0.271 A  
HETATM   18  C   UNL     1     -10.083   5.835  66.940  1.00  0.00    -0.231 A  
HETATM   19  C   UNL     1      -8.276   9.297  65.178  1.00  0.00    -0.143 A  
BRANCH  11  20
HETATM   20  O   UNL     1      -8.453   7.968  70.222  1.00  0.00    -0.123 OA 
BRANCH  20  21
HETATM   21  C   UNL     1      -7.050   8.053  70.320  1.00  0.00    -0.048 C  
HETATM   22  O   UNL     1      -6.243   7.276  69.823  1.00  0.00    -0.030 OA 
HETATM   23  C   UNL     1      -6.648   9.268  71.145  1.00  0.00    -0.080 C  
HETATM   24  C   UNL     1      -6.542  10.508  70.258  1.00  0.00    -0.138 C  
HETATM   25  C   UNL     1      -5.307   9.014  71.838  1.00  0.00    -0.055 C  
ENDBRANCH  20  21
ENDBRANCH  11  20
BRANCH  18  26
HETATM   26  C   UNL     1     -10.534   5.045  65.734  1.00  0.00    -0.122 C  
HETATM   27  O   UNL     1      -9.572   5.046  64.685  1.00  0.00    -0.359 OA 
HETATM   28  H   UNL     1      -9.855   4.549  63.926  1.00  0.00     0.000 HD 
ENDBRANCH  18  26
ENDBRANCH   5   6
ENDBRANCH   4   5
BRANCH   4  29
HETATM   29  C   UNL     1     -11.996  10.722  70.983  1.00  0.00    -0.304 C  
HETATM   30  C   UNL     1     -13.280  10.966  71.792  1.00  0.00    -0.513 C  
HETATM   31  C   UNL     1     -11.825   9.182  70.986  1.00  0.00    -0.354 C  
ENDBRANCH   4  29
ENDBRANCH   2   4
TORSDOF 7
ENDMDL
MODEL       78
REMARK 921   NORMALIZED FREE ENERGY PREDICTED BY IDOCK:   -4.82 KCAL/MOL
REMARK 922        TOTAL FREE ENERGY PREDICTED BY IDOCK:   -8.20 KCAL/MOL
REMARK 923 INTER-LIGAND FREE ENERGY PREDICTED BY IDOCK:   -6.44 KCAL/MOL
REMARK 924 INTRA-LIGAND FREE ENERGY PREDICTED BY IDOCK:   -1.77 KCAL/MOL
REMARK 927      BINDING AFFINITY PREDICTED BY RF-SCORE:    0.00 PKD
ROOT
HETATM    1  C   UNL     1      -7.639  12.980  68.130  1.00  0.00    -0.136 C  
HETATM    2  C   UNL     1      -8.797  14.003  68.029  1.00  0.00    -0.181 C  
HETATM    3  C   UNL     1      -8.334  14.979  66.935  1.00  0.00    -0.247 C  
ENDROOT
BRANCH   2   4
HETATM    4  N   UNL     1     -10.145  13.369  67.831  1.00  0.00    -0.232 NA 
BRANCH   4   5
HETATM    5  C   UNL     1     -10.376  12.189  68.721  1.00  0.00    -0.147 C  
BRANCH   5   6
HETATM    6  C   UNL     1     -10.809  10.870  68.025  1.00  0.00    -0.293 C  
HETATM    7  C   UNL     1     -10.640   9.540  68.843  1.00  0.00    -0.239 C  
HETATM    8  C   UNL     1      -9.164   9.270  69.240  1.00  0.00    -0.152 A  
HETATM    9  C   UNL     1     -11.652   9.368  70.019  1.00  0.00    -0.046 A  
HETATM   10  C   UNL     1     -12.401  10.438  70.523  1.00  0.00    -0.410 A  
HETATM   11  C   UNL     1      -8.104   9.121  68.320  1.00  0.00    -0.104 A  
HETATM   12  C   UNL     1      -6.809   8.790  68.764  1.00  0.00    -0.062 A  
HETATM   13  C   UNL     1     -13.051  10.397  71.756  1.00  0.00    -0.567 A  
HETATM   14  C   UNL     1     -12.404   8.106  71.973  1.00  0.00    -0.380 A  
HETATM   15  C   UNL     1      -6.530   8.637  70.122  1.00  0.00    -0.038 A  
HETATM   16  C   UNL     1     -13.018   9.237  72.506  1.00  0.00    -0.384 A  
HETATM   17  C   UNL     1      -8.828   9.118  70.607  1.00  0.00    -0.278 A  
HETATM   18  C   UNL     1      -7.541   8.796  71.063  1.00  0.00    -0.124 A  
HETATM   19  C   UNL     1     -11.764   8.153  70.724  1.00  0.00    -0.211 A  
BRANCH  11  20
HETATM   20  O   UNL     1      -8.347   9.201  66.921  1.00  0.00    -0.117 OA 
BRANCH  20  21
HETATM   21  C   UNL     1      -8.623   8.028  66.190  1.00  0.00    -0.148 C  
HETATM   22  O   UNL     1      -9.553   7.256  66.390  1.00  0.00    -0.172 OA 
HETATM   23  C   UNL     1      -7.591   7.834  65.087  1.00  0.00    -0.094 C  
HETATM   24  C   UNL     1      -8.010   8.579  63.821  1.00  0.00    -0.161 C  
HETATM   25  C   UNL     1      -7.426   6.344  64.778  1.00  0.00    -0.087 C  
ENDBRANCH  20  21
ENDBRANCH  11  20
BRANCH  18  26
HETATM   26  C   UNL     1      -7.279   8.517  72.525  1.00  0.00    -0.030 C  
HETATM   27  O   UNL     1      -8.455   8.613  73.323  1.00  0.00    -0.395 OA 
HETATM   28  H   UNL     1      -8.289   8.438  74.242  1.00  0.00     0.000 HD 
ENDBRANCH  18  26
ENDBRANCH   5   6
ENDBRANCH   4   5
BRANCH   4  29
HETATM   29  C   UNL     1     -11.337  14.272  67.815  1.00  0.00    -0.307 C  
HETATM   30  C   UNL     1     -12.336  14.031  66.672  1.00  0.00    -0.408 C  
HETATM   31  C   UNL     1     -12.188  14.148  69.103  1.00  0.00    -0.290 C  
ENDBRANCH   4  29
ENDBRANCH   2   4
TORSDOF 7
ENDMDL
MODEL       79
REMARK 921   NORMALIZED FREE ENERGY PREDICTED BY IDOCK:   -4.81 KCAL/MOL
REMARK 922        TOTAL FREE ENERGY PREDICTED BY IDOCK:   -8.19 KCAL/MOL
REMARK 923 INTER-LIGAND FREE ENERGY PREDICTED BY IDOCK:   -6.42 KCAL/MOL
REMARK 924 INTRA-LIGAND FREE ENERGY PREDICTED BY IDOCK:   -1.78 KCAL/MOL
REMARK 927      BINDING AFFINITY PREDICTED BY RF-SCORE:    0.00 PKD
ROOT
HETATM    1  C   UNL     1     -11.816  13.978  67.708  1.00  0.00    -0.419 C  
HETATM    2  C   UNL     1     -11.744  13.806  66.172  1.00  0.00    -0.370 C  
HETATM    3  C   UNL     1     -11.373  15.207  65.659  1.00  0.00    -0.255 C  
ENDROOT
BRANCH   2   4
HETATM    4  N   UNL     1     -10.854  12.678  65.732  1.00  0.00    -0.269 NA 
BRANCH   4   5
HETATM    5  C   UNL     1     -10.420  11.798  66.863  1.00  0.00    -0.223 C  
BRANCH   5   6
HETATM    6  C   UNL     1     -10.802  10.297  66.759  1.00  0.00    -0.157 C  
HETATM    7  C   UNL     1     -10.396   9.369  67.959  1.00  0.00    -0.267 C  
HETATM    8  C   UNL     1      -8.861   9.336  68.190  1.00  0.00    -0.129 A  
HETATM    9  C   UNL     1     -11.225   9.594  69.262  1.00  0.00    -0.083 A  
HETATM   10  C   UNL     1     -12.008  10.737  69.463  1.00  0.00    -0.364 A  
HETATM   11  C   UNL     1      -7.918   8.910  67.231  1.00  0.00    -0.097 A  
HETATM   12  C   UNL     1      -6.550   8.827  67.554  1.00  0.00    -0.062 A  
HETATM   13  C   UNL     1     -12.487  11.121  70.715  1.00  0.00    -0.479 A  
HETATM   14  C   UNL     1     -11.589   9.103  71.630  1.00  0.00    -0.449 A  
HETATM   15  C   UNL     1      -6.085   9.198  68.817  1.00  0.00    -0.044 A  
HETATM   16  C   UNL     1     -12.241  10.320  71.814  1.00  0.00    -0.282 A  
HETATM   17  C   UNL     1      -8.339   9.712  69.452  1.00  0.00    -0.145 A  
HETATM   18  C   UNL     1      -6.978   9.643  69.785  1.00  0.00    -0.078 A  
HETATM   19  C   UNL     1     -11.122   8.718  70.362  1.00  0.00    -0.261 A  
BRANCH  11  20
HETATM   20  O   UNL     1      -8.345   8.459  65.951  1.00  0.00    -0.118 OA 
BRANCH  20  21
HETATM   21  C   UNL     1      -8.123   9.262  64.815  1.00  0.00    -0.133 C  
HETATM   22  O   UNL     1      -7.915  10.470  64.815  1.00  0.00    -0.135 OA 
HETATM   23  C   UNL     1      -8.177   8.418  63.549  1.00  0.00    -0.106 C  
HETATM   24  C   UNL     1      -6.805   7.818  63.245  1.00  0.00    -0.071 C  
HETATM   25  C   UNL     1      -8.639   9.272  62.366  1.00  0.00    -0.225 C  
ENDBRANCH  20  21
ENDBRANCH  11  20
BRANCH  18  26
HETATM   26  C   UNL     1      -6.503   9.933  71.190  1.00  0.00     0.095 C  
HETATM   27  O   UNL     1      -6.881   8.921  72.118  1.00  0.00    -0.252 OA 
HETATM   28  H   UNL     1      -6.583   9.104  73.001  1.00  0.00     0.000 HD 
ENDBRANCH  18  26
ENDBRANCH   5   6
ENDBRANCH   4   5
BRANCH   4  29
HETATM   29  C   UNL     1     -11.297  11.865  64.559  1.00  0.00    -0.316 C  
HETATM   30  C   UNL     1     -12.758  12.072  64.124  1.00  0.00    -0.361 C  
HETATM   31  C   UNL     1     -10.469  12.165  63.285  1.00  0.00    -0.360 C  
ENDBRANCH   4  29
ENDBRANCH   2   4
TORSDOF 7
ENDMDL
MODEL       80
REMARK 921   NORMALIZED FREE ENERGY PREDICTED BY IDOCK:   -4.79 KCAL/MOL
REMARK 922        TOTAL FREE ENERGY PREDICTED BY IDOCK:   -8.16 KCAL/MOL
REMARK 923 INTER-LIGAND FREE ENERGY PREDICTED BY IDOCK:   -6.24 KCAL/MOL
REMARK 924 INTRA-LIGAND FREE ENERGY PREDICTED BY IDOCK:   -1.93 KCAL/MOL
REMARK 927      BINDING AFFINITY PREDICTED BY RF-SCORE:    0.00 PKD
ROOT
HETATM    1  C   UNL     1     -11.619  15.841  68.754  1.00  0.00    -0.401 C  
HETATM    2  C   UNL     1     -11.085  14.388  68.775  1.00  0.00    -0.257 C  
HETATM    3  C   UNL     1     -12.145  13.615  69.577  1.00  0.00    -0.368 C  
ENDROOT
BRANCH   2   4
HETATM    4  N   UNL     1     -10.755  13.847  67.411  1.00  0.00    -0.270 NA 
BRANCH   4   5
HETATM    5  C   UNL     1     -10.050  12.528  67.457  1.00  0.00    -0.207 C  
BRANCH   5   6
HETATM    6  C   UNL     1      -8.923  12.308  66.413  1.00  0.00    -0.117 C  
HETATM    7  C   UNL     1      -7.878  11.175  66.714  1.00  0.00    -0.153 C  
HETATM    8  C   UNL     1      -7.103  11.419  68.037  1.00  0.00    -0.074 A  
HETATM    9  C   UNL     1      -8.434   9.724  66.567  1.00  0.00    -0.127 A  
HETATM   10  C   UNL     1      -9.806   9.450  66.519  1.00  0.00    -0.325 A  
HETATM   11  C   UNL     1      -6.305  12.554  68.298  1.00  0.00    -0.062 A  
HETATM   12  C   UNL     1      -5.564  12.653  69.491  1.00  0.00    -0.089 A  
HETATM   13  C   UNL     1     -10.335   8.175  66.717  1.00  0.00    -0.361 A  
HETATM   14  C   UNL     1      -8.107   7.314  66.824  1.00  0.00    -0.119 A  
HETATM   15  C   UNL     1      -5.627  11.653  70.463  1.00  0.00    -0.153 A  
HETATM   16  C   UNL     1      -9.482   7.106  66.912  1.00  0.00    -0.200 A  
HETATM   17  C   UNL     1      -7.143  10.438  69.058  1.00  0.00    -0.076 A  
HETATM   18  C   UNL     1      -6.417  10.528  70.255  1.00  0.00    -0.140 A  
HETATM   19  C   UNL     1      -7.584   8.601  66.611  1.00  0.00    -0.089 A  
BRANCH  11  20
HETATM   20  O   UNL     1      -6.154  13.570  67.314  1.00  0.00    -0.327 OA 
BRANCH  20  21
HETATM   21  C   UNL     1      -6.169  14.925  67.700  1.00  0.00    -0.100 C  
HETATM   22  O   UNL     1      -5.188  15.644  67.849  1.00  0.00    -0.118 OA 
HETATM   23  C   UNL     1      -7.600  15.401  67.915  1.00  0.00    -0.149 C  
HETATM   24  C   UNL     1      -8.206  15.891  66.601  1.00  0.00    -0.317 C  
HETATM   25  C   UNL     1      -7.630  16.529  68.949  1.00  0.00    -0.238 C  
ENDBRANCH  20  21
ENDBRANCH  11  20
BRANCH  18  26
HETATM   26  C   UNL     1      -6.400   9.386  71.245  1.00  0.00    -0.051 C  
HETATM   27  O   UNL     1      -7.707   8.924  71.573  1.00  0.00    -0.222 OA 
HETATM   28  H   UNL     1      -7.696   8.206  72.195  1.00  0.00     0.000 HD 
ENDBRANCH  18  26
ENDBRANCH   5   6
ENDBRANCH   4   5
BRANCH   4  29
HETATM   29  C   UNL     1     -11.847  13.838  66.390  1.00  0.00    -0.404 C  
HETATM   30  C   UNL     1     -11.573  14.662  65.120  1.00  0.00    -0.371 C  
HETATM   31  C   UNL     1     -12.154  12.413  65.866  1.00  0.00    -0.352 C  
ENDBRANCH   4  29
ENDBRANCH   2   4
TORSDOF 7
ENDMDL
MODEL       81
REMARK 921   NORMALIZED FREE ENERGY PREDICTED BY IDOCK:   -4.79 KCAL/MOL
REMARK 922        TOTAL FREE ENERGY PREDICTED BY IDOCK:   -8.16 KCAL/MOL
REMARK 923 INTER-LIGAND FREE ENERGY PREDICTED BY IDOCK:   -7.08 KCAL/MOL
REMARK 924 INTRA-LIGAND FREE ENERGY PREDICTED BY IDOCK:   -1.08 KCAL/MOL
REMARK 927      BINDING AFFINITY PREDICTED BY RF-SCORE:    0.00 PKD
ROOT
HETATM    1  C   UNL     1      -6.959   9.296  64.278  1.00  0.00    -0.097 C  
HETATM    2  C   UNL     1      -8.399   8.733  64.215  1.00  0.00    -0.151 C  
HETATM    3  C   UNL     1      -8.335   7.457  65.071  1.00  0.00    -0.057 C  
ENDROOT
BRANCH   2   4
HETATM    4  N   UNL     1      -9.456   9.735  64.587  1.00  0.00    -0.273 NA 
BRANCH   4   5
HETATM    5  C   UNL     1      -9.619   9.893  66.066  1.00  0.00    -0.225 C  
BRANCH   5   6
HETATM    6  C   UNL     1      -8.561  10.769  66.791  1.00  0.00    -0.136 C  
HETATM    7  C   UNL     1      -8.639  10.837  68.358  1.00  0.00    -0.141 C  
HETATM    8  C   UNL     1      -9.990  11.412  68.861  1.00  0.00    -0.146 A  
HETATM    9  C   UNL     1      -8.200   9.528  69.086  1.00  0.00    -0.111 A  
HETATM   10  C   UNL     1      -8.087   8.302  68.419  1.00  0.00    -0.127 A  
HETATM   11  C   UNL     1     -10.479  12.697  68.543  1.00  0.00    -0.234 A  
HETATM   12  C   UNL     1     -11.674  13.174  69.115  1.00  0.00    -0.376 A  
HETATM   13  C   UNL     1      -8.022   7.078  69.082  1.00  0.00    -0.119 A  
HETATM   14  C   UNL     1      -7.973   8.256  71.162  1.00  0.00    -0.112 A  
HETATM   15  C   UNL     1     -12.426  12.378  69.980  1.00  0.00    -0.037 A  
HETATM   16  C   UNL     1      -8.006   7.051  70.464  1.00  0.00    -0.113 A  
HETATM   17  C   UNL     1     -10.794  10.639  69.733  1.00  0.00    -0.317 A  
HETATM   18  C   UNL     1     -11.991  11.097  70.304  1.00  0.00    -0.460 A  
HETATM   19  C   UNL     1      -8.025   9.485  70.484  1.00  0.00    -0.188 A  
BRANCH  11  20
HETATM   20  O   UNL     1      -9.720  13.574  67.719  1.00  0.00    -0.214 OA 
BRANCH  20  21
HETATM   21  C   UNL     1     -10.377  14.544  66.936  1.00  0.00    -0.264 C  
HETATM   22  O   UNL     1     -11.301  14.338  66.158  1.00  0.00    -0.328 OA 
HETATM   23  C   UNL     1      -9.778  15.922  67.184  1.00  0.00    -0.227 C  
HETATM   24  C   UNL     1     -10.457  16.595  68.376  1.00  0.00    -0.323 C  
HETATM   25  C   UNL     1      -9.936  16.797  65.939  1.00  0.00    -0.299 C  
ENDBRANCH  20  21
ENDBRANCH  11  20
BRANCH  18  26
HETATM   26  C   UNL     1     -12.733  10.273  71.330  1.00  0.00    -0.442 C  
HETATM   27  O   UNL     1     -13.476  11.073  72.244  1.00  0.00    -0.603 OA 
HETATM   28  H   UNL     1     -13.942  10.554  72.890  1.00  0.00     0.000 HD 
ENDBRANCH  18  26
ENDBRANCH   5   6
ENDBRANCH   4   5
BRANCH   4  29
HETATM   29  C   UNL     1      -9.417  11.065  63.905  1.00  0.00    -0.251 C  
HETATM   30  C   UNL     1      -9.183  11.024  62.386  1.00  0.00    -0.284 C  
HETATM   31  C   UNL     1     -10.742  11.851  64.069  1.00  0.00    -0.428 C  
ENDBRANCH   4  29
ENDBRANCH   2   4
TORSDOF 7
ENDMDL
MODEL       82
REMARK 921   NORMALIZED FREE ENERGY PREDICTED BY IDOCK:   -4.78 KCAL/MOL
REMARK 922        TOTAL FREE ENERGY PREDICTED BY IDOCK:   -8.15 KCAL/MOL
REMARK 923 INTER-LIGAND FREE ENERGY PREDICTED BY IDOCK:   -6.60 KCAL/MOL
REMARK 924 INTRA-LIGAND FREE ENERGY PREDICTED BY IDOCK:   -1.55 KCAL/MOL
REMARK 927      BINDING AFFINITY PREDICTED BY RF-SCORE:    0.00 PKD
ROOT
HETATM    1  C   UNL     1     -12.510  14.677  65.572  1.00  0.00    -0.142 C  
HETATM    2  C   UNL     1     -12.371  13.315  66.293  1.00  0.00    -0.317 C  
HETATM    3  C   UNL     1     -11.882  12.361  65.192  1.00  0.00    -0.437 C  
ENDROOT
BRANCH   2   4
HETATM    4  N   UNL     1     -11.537  13.375  67.542  1.00  0.00    -0.323 NA 
BRANCH   4   5
HETATM    5  C   UNL     1     -10.493  14.447  67.499  1.00  0.00    -0.252 C  
BRANCH   5   6
HETATM    6  C   UNL     1      -9.417  14.323  66.387  1.00  0.00    -0.297 C  
HETATM    7  C   UNL     1      -7.964  13.933  66.836  1.00  0.00     0.190 C  
HETATM    8  C   UNL     1      -7.349  14.965  67.819  1.00  0.00    -0.183 A  
HETATM    9  C   UNL     1      -7.803  12.450  67.296  1.00  0.00    -0.166 A  
HETATM   10  C   UNL     1      -8.901  11.643  67.616  1.00  0.00    -0.159 A  
HETATM   11  C   UNL     1      -7.148  16.330  67.521  1.00  0.00    -0.151 A  
HETATM   12  C   UNL     1      -6.501  17.179  68.440  1.00  0.00    -0.158 A  
HETATM   13  C   UNL     1      -8.786  10.451  68.330  1.00  0.00    -0.135 A  
HETATM   14  C   UNL     1      -6.409  10.695  68.273  1.00  0.00    -0.054 A  
HETATM   15  C   UNL     1      -6.077  16.705  69.682  1.00  0.00    -0.220 A  
HETATM   16  C   UNL     1      -7.535   9.994  68.697  1.00  0.00    -0.083 A  
HETATM   17  C   UNL     1      -6.911  14.536  69.095  1.00  0.00    -0.131 A  
HETATM   18  C   UNL     1      -6.273  15.372  70.024  1.00  0.00    -0.146 A  
HETATM   19  C   UNL     1      -6.534  11.888  67.543  1.00  0.00    -0.111 A  
BRANCH  11  20
HETATM   20  O   UNL     1      -7.502  16.850  66.245  1.00  0.00    -0.282 OA 
BRANCH  20  21
HETATM   21  C   UNL     1      -8.034  18.150  66.141  1.00  0.00    -0.187 C  
HETATM   22  O   UNL     1      -7.487  19.114  65.618  1.00  0.00    -0.448 OA 
HETATM   23  C   UNL     1      -9.415  18.212  66.780  1.00  0.00    -0.294 C  
HETATM   24  C   UNL     1     -10.492  17.820  65.769  1.00  0.00    -0.199 C  
HETATM   25  C   UNL     1      -9.690  19.623  67.304  1.00  0.00    -0.474 C  
ENDBRANCH  20  21
ENDBRANCH  11  20
BRANCH  18  26
HETATM   26  C   UNL     1      -5.713  14.820  71.314  1.00  0.00    -0.018 C  
HETATM   27  O   UNL     1      -6.042  13.449  71.515  1.00  0.00    -0.555 OA 
HETATM   28  H   UNL     1      -5.689  13.102  72.326  1.00  0.00     0.000 HD 
ENDBRANCH  18  26
ENDBRANCH   5   6
ENDBRANCH   4   5
BRANCH   4  29
HETATM   29  C   UNL     1     -12.255  13.377  68.853  1.00  0.00    -0.129 C  
HETATM   30  C   UNL     1     -11.963  12.177  69.770  1.00  0.00    -0.372 C  
HETATM   31  C   UNL     1     -11.906  14.615  69.716  1.00  0.00    -0.366 C  
ENDBRANCH   4  29
ENDBRANCH   2   4
TORSDOF 7
ENDMDL
MODEL       83
REMARK 921   NORMALIZED FREE ENERGY PREDICTED BY IDOCK:   -4.77 KCAL/MOL
REMARK 922        TOTAL FREE ENERGY PREDICTED BY IDOCK:   -8.13 KCAL/MOL
REMARK 923 INTER-LIGAND FREE ENERGY PREDICTED BY IDOCK:   -6.89 KCAL/MOL
REMARK 924 INTRA-LIGAND FREE ENERGY PREDICTED BY IDOCK:   -1.24 KCAL/MOL
REMARK 927      BINDING AFFINITY PREDICTED BY RF-SCORE:    0.00 PKD
ROOT
HETATM    1  C   UNL     1     -10.591  14.307  65.452  1.00  0.00    -0.367 C  
HETATM    2  C   UNL     1     -11.955  14.329  66.184  1.00  0.00    -0.407 C  
HETATM    3  C   UNL     1     -12.958  13.874  65.112  1.00  0.00    -0.282 C  
ENDROOT
BRANCH   2   4
HETATM    4  N   UNL     1     -11.960  13.555  67.473  1.00  0.00    -0.362 NA 
BRANCH   4   5
HETATM    5  C   UNL     1     -11.354  12.193  67.343  1.00  0.00    -0.326 C  
BRANCH   5   6
HETATM    6  C   UNL     1     -10.792  11.557  68.643  1.00  0.00    -0.253 C  
HETATM    7  C   UNL     1      -9.326  10.997  68.591  1.00  0.00    -0.196 C  
HETATM    8  C   UNL     1      -9.159   9.870  67.536  1.00  0.00    -0.145 A  
HETATM    9  C   UNL     1      -8.215  12.091  68.527  1.00  0.00    -0.113 A  
HETATM   10  C   UNL     1      -8.494  13.422  68.193  1.00  0.00    -0.172 A  
HETATM   11  C   UNL     1      -9.878   8.655  67.544  1.00  0.00    -0.180 A  
HETATM   12  C   UNL     1      -9.599   7.649  66.599  1.00  0.00    -0.271 A  
HETATM   13  C   UNL     1      -7.510  14.333  67.811  1.00  0.00    -0.175 A  
HETATM   14  C   UNL     1      -5.853  12.673  68.275  1.00  0.00    -0.069 A  
HETATM   15  C   UNL     1      -8.635   7.839  65.609  1.00  0.00    -0.147 A  
HETATM   16  C   UNL     1      -6.184  13.944  67.812  1.00  0.00    -0.155 A  
HETATM   17  C   UNL     1      -8.199  10.018  66.505  1.00  0.00    -0.119 A  
HETATM   18  C   UNL     1      -7.917   9.028  65.552  1.00  0.00    -0.106 A  
HETATM   19  C   UNL     1      -6.851  11.766  68.671  1.00  0.00    -0.081 A  
BRANCH  11  20
HETATM   20  O   UNL     1     -10.825   8.385  68.570  1.00  0.00    -0.078 OA 
BRANCH  20  21
HETATM   21  C   UNL     1     -10.430   7.667  69.716  1.00  0.00    -0.232 C  
HETATM   22  O   UNL     1      -9.426   6.971  69.821  1.00  0.00    -0.147 OA 
HETATM   23  C   UNL     1     -11.436   7.867  70.842  1.00  0.00    -0.294 C  
HETATM   24  C   UNL     1     -11.092   9.116  71.652  1.00  0.00    -0.445 C  
HETATM   25  C   UNL     1     -11.448   6.644  71.761  1.00  0.00    -0.334 C  
ENDBRANCH  20  21
ENDBRANCH  11  20
BRANCH  18  26
HETATM   26  C   UNL     1      -6.790   9.198  64.560  1.00  0.00    -0.086 C  
HETATM   27  O   UNL     1      -6.405  10.559  64.393  1.00  0.00    -0.313 OA 
HETATM   28  H   UNL     1      -5.697  10.665  63.770  1.00  0.00     0.000 HD 
ENDBRANCH  18  26
ENDBRANCH   5   6
ENDBRANCH   4   5
BRANCH   4  29
HETATM   29  C   UNL     1     -11.459  14.251  68.698  1.00  0.00    -0.296 C  
HETATM   30  C   UNL     1     -11.360  15.782  68.596  1.00  0.00    -0.369 C  
HETATM   31  C   UNL     1     -12.365  14.005  69.930  1.00  0.00    -0.367 C  
ENDBRANCH   4  29
ENDBRANCH   2   4
TORSDOF 7
ENDMDL
MODEL       84
REMARK 921   NORMALIZED FREE ENERGY PREDICTED BY IDOCK:   -4.76 KCAL/MOL
REMARK 922        TOTAL FREE ENERGY PREDICTED BY IDOCK:   -8.12 KCAL/MOL
REMARK 923 INTER-LIGAND FREE ENERGY PREDICTED BY IDOCK:   -6.54 KCAL/MOL
REMARK 924 INTRA-LIGAND FREE ENERGY PREDICTED BY IDOCK:   -1.58 KCAL/MOL
REMARK 927      BINDING AFFINITY PREDICTED BY RF-SCORE:    0.00 PKD
ROOT
HETATM    1  C   UNL     1     -12.097   6.951  71.173  1.00  0.00    -0.428 C  
HETATM    2  C   UNL     1     -11.784   8.314  71.836  1.00  0.00    -0.322 C  
HETATM    3  C   UNL     1     -10.716   7.977  72.889  1.00  0.00    -0.403 C  
ENDROOT
BRANCH   2   4
HETATM    4  N   UNL     1     -11.434   9.397  70.853  1.00  0.00    -0.293 NA 
BRANCH   4   5
HETATM    5  C   UNL     1     -10.900   8.866  69.560  1.00  0.00    -0.153 C  
BRANCH   5   6
HETATM    6  C   UNL     1      -9.356   8.840  69.405  1.00  0.00    -0.157 C  
HETATM    7  C   UNL     1      -8.778   8.197  68.094  1.00  0.00    -0.136 C  
HETATM    8  C   UNL     1      -9.181   6.706  67.937  1.00  0.00    -0.111 A  
HETATM    9  C   UNL     1      -8.993   9.048  66.804  1.00  0.00    -0.160 A  
HETATM   10  C   UNL     1      -9.911  10.103  66.748  1.00  0.00    -0.266 A  
HETATM   11  C   UNL     1      -8.860   5.690  68.863  1.00  0.00    -0.109 A  
HETATM   12  C   UNL     1      -9.189   4.346  68.598  1.00  0.00    -0.189 A  
HETATM   13  C   UNL     1     -10.361  10.659  65.551  1.00  0.00    -0.297 A  
HETATM   14  C   UNL     1      -8.825   9.256  64.373  1.00  0.00    -0.197 A  
HETATM   15  C   UNL     1      -9.871   3.988  67.435  1.00  0.00    -0.124 A  
HETATM   16  C   UNL     1      -9.845  10.204  64.353  1.00  0.00    -0.307 A  
HETATM   17  C   UNL     1      -9.883   6.293  66.779  1.00  0.00    -0.208 A  
HETATM   18  C   UNL     1     -10.224   4.961  66.506  1.00  0.00    -0.305 A  
HETATM   19  C   UNL     1      -8.369   8.711  65.586  1.00  0.00    -0.151 A  
BRANCH  11  20
HETATM   20  O   UNL     1      -8.108   5.991  70.032  1.00  0.00    -0.109 OA 
BRANCH  20  21
HETATM   21  C   UNL     1      -7.622   4.945  70.841  1.00  0.00    -0.073 C  
HETATM   22  O   UNL     1      -6.651   4.237  70.600  1.00  0.00    -0.029 OA 
HETATM   23  C   UNL     1      -8.480   4.798  72.091  1.00  0.00    -0.119 C  
HETATM   24  C   UNL     1      -7.980   5.726  73.197  1.00  0.00    -0.110 C  
HETATM   25  C   UNL     1      -8.451   3.348  72.581  1.00  0.00    -0.086 C  
ENDBRANCH  20  21
ENDBRANCH  11  20
BRANCH  18  26
HETATM   26  C   UNL     1     -10.857   4.570  65.190  1.00  0.00    -0.043 C  
HETATM   27  O   UNL     1      -9.971   4.728  64.087  1.00  0.00    -0.362 OA 
HETATM   28  H   UNL     1     -10.368   4.483  63.259  1.00  0.00     0.000 HD 
ENDBRANCH  18  26
ENDBRANCH   5   6
ENDBRANCH   4   5
BRANCH   4  29
HETATM   29  C   UNL     1     -12.448  10.469  70.617  1.00  0.00    -0.366 C  
HETATM   30  C   UNL     1     -13.164  10.993  71.873  1.00  0.00    -0.503 C  
HETATM   31  C   UNL     1     -11.831  11.734  69.969  1.00  0.00    -0.422 C  
ENDBRANCH   4  29
ENDBRANCH   2   4
TORSDOF 7
ENDMDL
MODEL       85
REMARK 921   NORMALIZED FREE ENERGY PREDICTED BY IDOCK:   -4.75 KCAL/MOL
REMARK 922        TOTAL FREE ENERGY PREDICTED BY IDOCK:   -8.10 KCAL/MOL
REMARK 923 INTER-LIGAND FREE ENERGY PREDICTED BY IDOCK:   -6.32 KCAL/MOL
REMARK 924 INTRA-LIGAND FREE ENERGY PREDICTED BY IDOCK:   -1.78 KCAL/MOL
REMARK 927      BINDING AFFINITY PREDICTED BY RF-SCORE:    0.00 PKD
ROOT
HETATM    1  C   UNL     1      -8.402  10.484  64.638  1.00  0.00    -0.114 C  
HETATM    2  C   UNL     1      -9.340  11.191  63.631  1.00  0.00    -0.211 C  
HETATM    3  C   UNL     1      -9.501  10.169  62.494  1.00  0.00    -0.269 C  
ENDROOT
BRANCH   2   4
HETATM    4  N   UNL     1     -10.610  11.706  64.250  1.00  0.00    -0.313 NA 
BRANCH   4   5
HETATM    5  C   UNL     1     -10.388  12.396  65.559  1.00  0.00    -0.271 C  
BRANCH   5   6
HETATM    6  C   UNL     1     -11.218  11.878  66.765  1.00  0.00    -0.384 C  
HETATM    7  C   UNL     1     -10.714  12.265  68.201  1.00  0.00    -0.241 C  
HETATM    8  C   UNL     1      -9.285  11.734  68.492  1.00  0.00    -0.152 A  
HETATM    9  C   UNL     1     -10.918  13.766  68.578  1.00  0.00    -0.283 A  
HETATM   10  C   UNL     1     -11.194  14.747  67.618  1.00  0.00    -0.332 A  
HETATM   11  C   UNL     1      -8.919  10.371  68.471  1.00  0.00    -0.139 A  
HETATM   12  C   UNL     1      -7.619   9.969  68.834  1.00  0.00    -0.086 A  
HETATM   13  C   UNL     1     -11.058  16.112  67.864  1.00  0.00    -0.293 A  
HETATM   14  C   UNL     1     -10.550  15.606  70.145  1.00  0.00    -0.348 A  
HETATM   15  C   UNL     1      -6.648  10.907  69.188  1.00  0.00    -0.069 A  
HETATM   16  C   UNL     1     -10.693  16.544  69.125  1.00  0.00    -0.335 A  
HETATM   17  C   UNL     1      -8.261  12.647  68.846  1.00  0.00     0.241 A  
HETATM   18  C   UNL     1      -6.960  12.262  69.202  1.00  0.00    -0.041 A  
HETATM   19  C   UNL     1     -10.702  14.233  69.890  1.00  0.00     0.116 A  
BRANCH  11  20
HETATM   20  O   UNL     1      -9.887   9.369  68.182  1.00  0.00    -0.152 OA 
BRANCH  20  21
HETATM   21  C   UNL     1     -10.027   8.261  69.041  1.00  0.00    -0.189 C  
HETATM   22  O   UNL     1      -9.384   7.220  68.985  1.00  0.00    -0.148 OA 
HETATM   23  C   UNL     1     -11.109   8.527  70.078  1.00  0.00    -0.152 C  
HETATM   24  C   UNL     1     -10.524   9.244  71.294  1.00  0.00    -0.408 C  
HETATM   25  C   UNL     1     -11.752   7.209  70.518  1.00  0.00    -0.314 C  
ENDBRANCH  20  21
ENDBRANCH  11  20
BRANCH  18  26
HETATM   26  C   UNL     1      -5.954  13.275  69.697  1.00  0.00    -0.117 C  
HETATM   27  O   UNL     1      -5.971  13.418  71.113  1.00  0.00    -0.459 OA 
HETATM   28  H   UNL     1      -5.338  14.055  71.425  1.00  0.00     0.000 HD 
ENDBRANCH  18  26
ENDBRANCH   5   6
ENDBRANCH   4   5
BRANCH   4  29
HETATM   29  C   UNL     1     -11.533  12.495  63.377  1.00  0.00    -0.452 C  
HETATM   30  C   UNL     1     -12.974  11.967  63.288  1.00  0.00    -0.166 C  
HETATM   31  C   UNL     1     -11.688  13.961  63.854  1.00  0.00    -0.241 C  
ENDBRANCH   4  29
ENDBRANCH   2   4
TORSDOF 7
ENDMDL
MODEL       86
REMARK 921   NORMALIZED FREE ENERGY PREDICTED BY IDOCK:   -4.75 KCAL/MOL
REMARK 922        TOTAL FREE ENERGY PREDICTED BY IDOCK:   -8.10 KCAL/MOL
REMARK 923 INTER-LIGAND FREE ENERGY PREDICTED BY IDOCK:   -6.44 KCAL/MOL
REMARK 924 INTRA-LIGAND FREE ENERGY PREDICTED BY IDOCK:   -1.66 KCAL/MOL
REMARK 927      BINDING AFFINITY PREDICTED BY RF-SCORE:    0.00 PKD
ROOT
HETATM    1  C   UNL     1     -11.981  11.420  69.977  1.00  0.00    -0.442 C  
HETATM    2  C   UNL     1     -11.951  10.218  70.952  1.00  0.00    -0.375 C  
HETATM    3  C   UNL     1     -13.187  10.431  71.841  1.00  0.00    -0.535 C  
ENDROOT
BRANCH   2   4
HETATM    4  N   UNL     1     -11.847   8.886  70.263  1.00  0.00     0.026 NA 
BRANCH   4   5
HETATM    5  C   UNL     1     -11.070   8.945  68.985  1.00  0.00     0.174 C  
BRANCH   5   6
HETATM    6  C   UNL     1      -9.523   8.970  69.114  1.00  0.00    -0.153 C  
HETATM    7  C   UNL     1      -8.700   8.206  68.017  1.00  0.00    -0.128 C  
HETATM    8  C   UNL     1      -9.034   6.691  67.972  1.00  0.00    -0.117 A  
HETATM    9  C   UNL     1      -8.694   8.892  66.615  1.00  0.00    -0.140 A  
HETATM   10  C   UNL     1      -9.610   9.893  66.268  1.00  0.00    -0.265 A  
HETATM   11  C   UNL     1      -8.867   5.802  69.056  1.00  0.00    -0.111 A  
HETATM   12  C   UNL     1      -9.111   4.424  68.901  1.00  0.00    -0.175 A  
HETATM   13  C   UNL     1      -9.844  10.286  64.951  1.00  0.00    -0.404 A  
HETATM   14  C   UNL     1      -8.087   8.826  64.248  1.00  0.00    -0.157 A  
HETATM   15  C   UNL     1      -9.561   3.905  67.687  1.00  0.00    -0.205 A  
HETATM   16  C   UNL     1      -9.107   9.720  63.929  1.00  0.00    -0.275 A  
HETATM   17  C   UNL     1      -9.503   6.117  66.765  1.00  0.00    -0.164 A  
HETATM   18  C   UNL     1      -9.759   4.748  66.599  1.00  0.00    -0.205 A  
HETATM   19  C   UNL     1      -7.850   8.445  65.579  1.00  0.00    -0.109 A  
BRANCH  11  20
HETATM   20  O   UNL     1      -8.349   6.269  70.296  1.00  0.00    -0.122 OA 
BRANCH  20  21
HETATM   21  C   UNL     1      -6.972   6.147  70.570  1.00  0.00    -0.063 C  
HETATM   22  O   UNL     1      -6.192   5.378  70.020  1.00  0.00    -0.024 OA 
HETATM   23  C   UNL     1      -6.561   7.119  71.668  1.00  0.00    -0.048 C  
HETATM   24  C   UNL     1      -6.200   8.479  71.073  1.00  0.00    -0.038 C  
HETATM   25  C   UNL     1      -5.364   6.562  72.443  1.00  0.00    -0.036 C  
ENDBRANCH  20  21
ENDBRANCH  11  20
BRANCH  18  26
HETATM   26  C   UNL     1     -10.130   4.181  65.248  1.00  0.00    -0.202 C  
HETATM   27  O   UNL     1     -11.499   4.397  64.919  1.00  0.00    -1.070 OA 
HETATM   28  H   UNL     1     -11.732   4.041  64.070  1.00  0.00     0.000 HD 
ENDBRANCH  18  26
ENDBRANCH   5   6
ENDBRANCH   4   5
BRANCH   4  29
HETATM   29  C   UNL     1     -11.432   7.711  71.090  1.00  0.00    -0.275 C  
HETATM   30  C   UNL     1     -10.669   8.048  72.382  1.00  0.00    -0.386 C  
HETATM   31  C   UNL     1     -12.640   6.867  71.565  1.00  0.00    -0.412 C  
ENDBRANCH   4  29
ENDBRANCH   2   4
TORSDOF 7
ENDMDL
MODEL       87
REMARK 921   NORMALIZED FREE ENERGY PREDICTED BY IDOCK:   -4.74 KCAL/MOL
REMARK 922        TOTAL FREE ENERGY PREDICTED BY IDOCK:   -8.09 KCAL/MOL
REMARK 923 INTER-LIGAND FREE ENERGY PREDICTED BY IDOCK:   -6.45 KCAL/MOL
REMARK 924 INTRA-LIGAND FREE ENERGY PREDICTED BY IDOCK:   -1.64 KCAL/MOL
REMARK 927      BINDING AFFINITY PREDICTED BY RF-SCORE:    0.00 PKD
ROOT
HETATM    1  C   UNL     1     -10.822  19.807  65.683  1.00  0.00    -0.337 C  
HETATM    2  C   UNL     1      -9.838  19.840  66.878  1.00  0.00    -0.400 C  
HETATM    3  C   UNL     1     -10.725  20.210  68.077  1.00  0.00    -0.155 C  
ENDROOT
BRANCH   2   4
HETATM    4  N   UNL     1      -9.016  18.589  67.017  1.00  0.00    -0.268 NA 
BRANCH   4   5
HETATM    5  C   UNL     1      -9.461  17.489  66.103  1.00  0.00    -0.160 C  
BRANCH   5   6
HETATM    6  C   UNL     1      -8.601  16.196  66.104  1.00  0.00    -0.331 C  
HETATM    7  C   UNL     1      -9.259  14.899  66.697  1.00  0.00    -0.302 C  
HETATM    8  C   UNL     1      -9.663  15.065  68.186  1.00  0.00    -0.215 A  
HETATM    9  C   UNL     1     -10.377  14.274  65.805  1.00  0.00    -0.341 A  
HETATM   10  C   UNL     1     -10.984  14.981  64.760  1.00  0.00    -0.389 A  
HETATM   11  C   UNL     1      -8.763  15.373  69.229  1.00  0.00    -0.252 A  
HETATM   12  C   UNL     1      -9.200  15.418  70.567  1.00  0.00     1.140 A  
HETATM   13  C   UNL     1     -12.183  14.586  64.170  1.00  0.00    -0.372 A  
HETATM   14  C   UNL     1     -12.144  12.609  65.515  1.00  0.00    -0.515 A  
HETATM   15  C   UNL     1     -10.539  15.197  70.894  1.00  0.00     0.058 A  
HETATM   16  C   UNL     1     -12.790  13.414  64.579  1.00  0.00    -0.075 A  
HETATM   17  C   UNL     1     -11.011  14.861  68.568  1.00  0.00    -0.260 A  
HETATM   18  C   UNL     1     -11.463  14.911  69.895  1.00  0.00    -0.321 A  
HETATM   19  C   UNL     1     -10.928  13.009  66.094  1.00  0.00    -0.300 A  
BRANCH  11  20
HETATM   20  O   UNL     1      -7.377  15.542  68.958  1.00  0.00    -0.135 OA 
BRANCH  20  21
HETATM   21  C   UNL     1      -6.580  14.419  68.659  1.00  0.00    -0.088 C  
HETATM   22  O   UNL     1      -6.059  14.171  67.578  1.00  0.00    -0.326 OA 
HETATM   23  C   UNL     1      -6.441  13.525  69.884  1.00  0.00    -0.013 C  
HETATM   24  C   UNL     1      -5.267  13.979  70.750  1.00  0.00    -0.124 C  
HETATM   25  C   UNL     1      -6.232  12.071  69.454  1.00  0.00    -0.109 C  
ENDBRANCH  20  21
ENDBRANCH  11  20
BRANCH  18  26
HETATM   26  C   UNL     1     -12.888  14.554  70.249  1.00  0.00    -0.199 C  
HETATM   27  O   UNL     1     -13.652  15.684  70.659  1.00  0.00    -0.841 OA 
HETATM   28  H   UNL     1     -14.548  15.459  70.881  1.00  0.00     0.000 HD 
ENDBRANCH  18  26
ENDBRANCH   5   6
ENDBRANCH   4   5
BRANCH   4  29
HETATM   29  C   UNL     1      -7.529  18.734  66.997  1.00  0.00    -0.219 C  
HETATM   30  C   UNL     1      -6.974  19.734  65.969  1.00  0.00    -0.282 C  
HETATM   31  C   UNL     1      -6.965  19.224  68.354  1.00  0.00    -0.316 C  
ENDBRANCH   4  29
ENDBRANCH   2   4
TORSDOF 7
ENDMDL
MODEL       88
REMARK 921   NORMALIZED FREE ENERGY PREDICTED BY IDOCK:   -4.73 KCAL/MOL
REMARK 922        TOTAL FREE ENERGY PREDICTED BY IDOCK:   -8.07 KCAL/MOL
REMARK 923 INTER-LIGAND FREE ENERGY PREDICTED BY IDOCK:   -6.32 KCAL/MOL
REMARK 924 INTRA-LIGAND FREE ENERGY PREDICTED BY IDOCK:   -1.75 KCAL/MOL
REMARK 927      BINDING AFFINITY PREDICTED BY RF-SCORE:    0.00 PKD
ROOT
HETATM    1  C   UNL     1     -11.710  11.848  66.680  1.00  0.00    -0.264 C  
HETATM    2  C   UNL     1     -11.298  12.270  68.111  1.00  0.00    -0.295 C  
HETATM    3  C   UNL     1     -11.976  11.228  69.015  1.00  0.00    -0.393 C  
ENDROOT
BRANCH   2   4
HETATM    4  N   UNL     1      -9.815  12.440  68.286  1.00  0.00    -0.223 NA 
BRANCH   4   5
HETATM    5  C   UNL     1      -9.043  11.190  68.002  1.00  0.00    -0.153 C  
BRANCH   5   6
HETATM    6  C   UNL     1      -8.210  10.608  69.177  1.00  0.00    -0.142 C  
HETATM    7  C   UNL     1      -7.789   9.098  69.077  1.00  0.00    -0.090 C  
HETATM    8  C   UNL     1      -9.012   8.145  68.994  1.00  0.00    -0.144 A  
HETATM    9  C   UNL     1      -6.684   8.801  68.016  1.00  0.00    -0.069 A  
HETATM   10  C   UNL     1      -6.350   9.714  67.008  1.00  0.00    -0.065 A  
HETATM   11  C   UNL     1     -10.017   8.047  69.980  1.00  0.00    -0.191 A  
HETATM   12  C   UNL     1     -11.045   7.091  69.866  1.00  0.00    -0.301 A  
HETATM   13  C   UNL     1      -5.623   9.361  65.873  1.00  0.00    -0.045 A  
HETATM   14  C   UNL     1      -5.335   7.172  66.790  1.00  0.00    -0.022 A  
HETATM   15  C   UNL     1     -11.120   6.242  68.761  1.00  0.00    -0.424 A  
HETATM   16  C   UNL     1      -5.146   8.071  65.742  1.00  0.00    -0.025 A  
HETATM   17  C   UNL     1      -9.138   7.270  67.888  1.00  0.00    -0.132 A  
HETATM   18  C   UNL     1     -10.161   6.319  67.757  1.00  0.00    -0.174 A  
HETATM   19  C   UNL     1      -6.058   7.541  67.936  1.00  0.00    -0.043 A  
BRANCH  11  20
HETATM   20  O   UNL     1      -9.953   8.843  71.157  1.00  0.00    -0.221 OA 
BRANCH  20  21
HETATM   21  C   UNL     1      -9.781   8.225  72.411  1.00  0.00    -0.303 C  
HETATM   22  O   UNL     1     -10.676   7.824  73.146  1.00  0.00    -0.378 OA 
HETATM   23  C   UNL     1      -8.301   8.114  72.751  1.00  0.00    -0.240 C  
HETATM   24  C   UNL     1      -7.712   6.829  72.171  1.00  0.00    -0.095 C  
HETATM   25  C   UNL     1      -8.107   8.130  74.269  1.00  0.00    -0.309 C  
ENDBRANCH  20  21
ENDBRANCH  11  20
BRANCH  18  26
HETATM   26  C   UNL     1     -10.163   5.327  66.617  1.00  0.00    -0.253 C  
HETATM   27  O   UNL     1     -11.310   5.453  65.782  1.00  0.00    -0.743 OA 
HETATM   28  H   UNL     1     -11.311   4.830  65.065  1.00  0.00     0.000 HD 
ENDBRANCH  18  26
ENDBRANCH   5   6
ENDBRANCH   4   5
BRANCH   4  29
HETATM   29  C   UNL     1      -9.174  13.625  67.637  1.00  0.00    -0.213 C  
HETATM   30  C   UNL     1     -10.033  14.900  67.592  1.00  0.00    -0.226 C  
HETATM   31  C   UNL     1      -7.874  14.062  68.357  1.00  0.00    -0.144 C  
ENDBRANCH   4  29
ENDBRANCH   2   4
TORSDOF 7
ENDMDL
MODEL       89
REMARK 921   NORMALIZED FREE ENERGY PREDICTED BY IDOCK:   -4.72 KCAL/MOL
REMARK 922        TOTAL FREE ENERGY PREDICTED BY IDOCK:   -8.06 KCAL/MOL
REMARK 923 INTER-LIGAND FREE ENERGY PREDICTED BY IDOCK:   -6.30 KCAL/MOL
REMARK 924 INTRA-LIGAND FREE ENERGY PREDICTED BY IDOCK:   -1.76 KCAL/MOL
REMARK 927      BINDING AFFINITY PREDICTED BY RF-SCORE:    0.00 PKD
ROOT
HETATM    1  C   UNL     1      -8.290  18.715  67.318  1.00  0.00    -0.270 C  
HETATM    2  C   UNL     1      -8.826  17.273  67.482  1.00  0.00    -0.218 C  
HETATM    3  C   UNL     1      -8.509  16.604  66.135  1.00  0.00    -0.308 C  
ENDROOT
BRANCH   2   4
HETATM    4  N   UNL     1      -8.312  16.574  68.710  1.00  0.00    -0.239 NA 
BRANCH   4   5
HETATM    5  C   UNL     1      -9.228  15.497  69.200  1.00  0.00    -0.246 C  
BRANCH   5   6
HETATM    6  C   UNL     1     -10.394  15.097  68.257  1.00  0.00    -0.231 C  
HETATM    7  C   UNL     1     -11.014  13.667  68.450  1.00  0.00    -0.284 C  
HETATM    8  C   UNL     1      -9.972  12.536  68.237  1.00  0.00    -0.229 A  
HETATM    9  C   UNL     1     -11.871  13.500  69.743  1.00  0.00    -0.395 A  
HETATM   10  C   UNL     1     -11.810  14.412  70.804  1.00  0.00    -0.349 A  
HETATM   11  C   UNL     1      -9.255  12.324  67.040  1.00  0.00    -0.205 A  
HETATM   12  C   UNL     1      -8.394  11.219  66.903  1.00  0.00    -0.155 A  
HETATM   13  C   UNL     1     -12.297  14.130  72.079  1.00  0.00    -0.234 A  
HETATM   14  C   UNL     1     -13.135  12.049  71.252  1.00  0.00    -0.209 A  
HETATM   15  C   UNL     1      -8.197  10.325  67.956  1.00  0.00    -0.113 A  
HETATM   16  C   UNL     1     -12.927  12.923  72.316  1.00  0.00    -0.313 A  
HETATM   17  C   UNL     1      -9.730  11.608  69.279  1.00  0.00     0.330 A  
HETATM   18  C   UNL     1      -8.869  10.507  69.160  1.00  0.00    -0.161 A  
HETATM   19  C   UNL     1     -12.652  12.348  69.967  1.00  0.00     0.107 A  
BRANCH  11  20
HETATM   20  O   UNL     1      -9.468  13.167  65.914  1.00  0.00    -0.160 OA 
BRANCH  20  21
HETATM   21  C   UNL     1     -10.175  12.679  64.798  1.00  0.00    -0.283 C  
HETATM   22  O   UNL     1      -9.738  11.918  63.943  1.00  0.00    -0.249 OA 
HETATM   23  C   UNL     1     -11.594  13.232  64.784  1.00  0.00    -0.364 C  
HETATM   24  C   UNL     1     -12.524  12.345  65.611  1.00  0.00     0.007 C  
HETATM   25  C   UNL     1     -12.111  13.321  63.346  1.00  0.00    -0.508 C  
ENDBRANCH  20  21
ENDBRANCH  11  20
BRANCH  18  26
HETATM   26  C   UNL     1      -8.755   9.481  70.264  1.00  0.00    -0.235 C  
HETATM   27  O   UNL     1      -7.607   9.680  71.082  1.00  0.00    -0.318 OA 
HETATM   28  H   UNL     1      -7.535   9.035  71.776  1.00  0.00     0.000 HD 
ENDBRANCH  18  26
ENDBRANCH   5   6
ENDBRANCH   4   5
BRANCH   4  29
HETATM   29  C   UNL     1      -6.892  16.107  68.695  1.00  0.00    -0.131 C  
HETATM   30  C   UNL     1      -5.927  16.890  69.600  1.00  0.00    -0.221 C  
HETATM   31  C   UNL     1      -6.750  14.637  69.162  1.00  0.00    -0.117 C  
ENDBRANCH   4  29
ENDBRANCH   2   4
TORSDOF 7
ENDMDL
MODEL       90
REMARK 921   NORMALIZED FREE ENERGY PREDICTED BY IDOCK:   -4.70 KCAL/MOL
REMARK 922        TOTAL FREE ENERGY PREDICTED BY IDOCK:   -8.02 KCAL/MOL
REMARK 923 INTER-LIGAND FREE ENERGY PREDICTED BY IDOCK:   -7.32 KCAL/MOL
REMARK 924 INTRA-LIGAND FREE ENERGY PREDICTED BY IDOCK:   -0.71 KCAL/MOL
REMARK 927      BINDING AFFINITY PREDICTED BY RF-SCORE:    0.00 PKD
ROOT
HETATM    1  C   UNL     1      -9.819  17.630  68.076  1.00  0.00    -0.310 C  
HETATM    2  C   UNL     1      -9.330  16.260  67.548  1.00  0.00    -0.217 C  
HETATM    3  C   UNL     1      -9.711  16.279  66.059  1.00  0.00    -0.370 C  
ENDROOT
BRANCH   2   4
HETATM    4  N   UNL     1      -7.889  15.971  67.864  1.00  0.00    -0.135 NA 
BRANCH   4   5
HETATM    5  C   UNL     1      -7.479  14.576  67.512  1.00  0.00    -0.194 C  
BRANCH   5   6
HETATM    6  C   UNL     1      -7.967  13.448  68.462  1.00  0.00    -0.107 C  
HETATM    7  C   UNL     1      -8.716  12.234  67.806  1.00  0.00    -0.174 C  
HETATM    8  C   UNL     1     -10.009  12.665  67.063  1.00  0.00    -0.220 A  
HETATM    9  C   UNL     1      -7.802  11.277  66.979  1.00  0.00    -0.150 A  
HETATM   10  C   UNL     1      -6.517  11.645  66.563  1.00  0.00     0.019 A  
HETATM   11  C   UNL     1     -11.102  13.318  67.673  1.00  0.00    -0.269 A  
HETATM   12  C   UNL     1     -12.273  13.594  66.943  1.00  0.00    -0.398 A  
HETATM   13  C   UNL     1      -5.816  10.966  65.568  1.00  0.00    -0.051 A  
HETATM   14  C   UNL     1      -7.583   9.359  65.480  1.00  0.00    -0.099 A  
HETATM   15  C   UNL     1     -12.373  13.265  65.590  1.00  0.00    -0.521 A  
HETATM   16  C   UNL     1      -6.370   9.839  64.992  1.00  0.00    -0.096 A  
HETATM   17  C   UNL     1     -10.154  12.363  65.687  1.00  0.00    -0.277 A  
HETATM   18  C   UNL     1     -11.312  12.639  64.945  1.00  0.00    -0.347 A  
HETATM   19  C   UNL     1      -8.276  10.042  66.493  1.00  0.00    -0.119 A  
BRANCH  11  20
HETATM   20  O   UNL     1     -11.078  13.616  69.064  1.00  0.00    -0.251 OA 
BRANCH  20  21
HETATM   21  C   UNL     1     -12.156  13.226  69.882  1.00  0.00    -0.308 C  
HETATM   22  O   UNL     1     -13.161  13.888  70.117  1.00  0.00    -0.011 OA 
HETATM   23  C   UNL     1     -11.911  11.837  70.458  1.00  0.00    -0.383 C  
HETATM   24  C   UNL     1     -12.409  10.761  69.493  1.00  0.00    -0.208 C  
HETATM   25  C   UNL     1     -12.624  11.692  71.804  1.00  0.00    -0.197 C  
ENDBRANCH  20  21
ENDBRANCH  11  20
BRANCH  18  26
HETATM   26  C   UNL     1     -11.453  12.172  63.515  1.00  0.00    -0.458 C  
HETATM   27  O   UNL     1     -12.810  11.975  63.133  1.00  0.00    -0.794 OA 
HETATM   28  H   UNL     1     -12.899  11.681  62.234  1.00  0.00     0.000 HD 
ENDBRANCH  18  26
ENDBRANCH   5   6
ENDBRANCH   4   5
BRANCH   4  29
HETATM   29  C   UNL     1      -6.869  16.963  67.405  1.00  0.00    -0.153 C  
HETATM   30  C   UNL     1      -7.128  17.589  66.025  1.00  0.00    -0.299 C  
HETATM   31  C   UNL     1      -6.752  18.176  68.362  1.00  0.00    -0.219 C  
ENDBRANCH   4  29
ENDBRANCH   2   4
TORSDOF 7
ENDMDL
MODEL       91
REMARK 921   NORMALIZED FREE ENERGY PREDICTED BY IDOCK:   -4.69 KCAL/MOL
REMARK 922        TOTAL FREE ENERGY PREDICTED BY IDOCK:   -8.02 KCAL/MOL
REMARK 923 INTER-LIGAND FREE ENERGY PREDICTED BY IDOCK:   -6.51 KCAL/MOL
REMARK 924 INTRA-LIGAND FREE ENERGY PREDICTED BY IDOCK:   -1.51 KCAL/MOL
REMARK 927      BINDING AFFINITY PREDICTED BY RF-SCORE:    0.00 PKD
ROOT
HETATM    1  C   UNL     1      -6.017  11.175  66.631  1.00  0.00    -0.130 C  
HETATM    2  C   UNL     1      -6.729  12.164  67.585  1.00  0.00    -0.118 C  
HETATM    3  C   UNL     1      -5.976  13.488  67.375  1.00  0.00     0.118 C  
ENDROOT
BRANCH   2   4
HETATM    4  N   UNL     1      -8.221  12.209  67.404  1.00  0.00    -0.166 NA 
BRANCH   4   5
HETATM    5  C   UNL     1      -8.965  11.479  68.478  1.00  0.00    -0.146 C  
BRANCH   5   6
HETATM    6  C   UNL     1      -9.953  10.377  68.010  1.00  0.00    -0.178 C  
HETATM    7  C   UNL     1     -10.626   9.498  69.124  1.00  0.00    -0.237 C  
HETATM    8  C   UNL     1      -9.588   8.716  69.971  1.00  0.00    -0.175 A  
HETATM    9  C   UNL     1     -11.703  10.242  69.974  1.00  0.00    -0.330 A  
HETATM   10  C   UNL     1     -11.813  11.638  69.988  1.00  0.00    -0.435 A  
HETATM   11  C   UNL     1      -8.673   7.777  69.448  1.00  0.00    -0.135 A  
HETATM   12  C   UNL     1      -7.825   7.046  70.302  1.00  0.00    -0.105 A  
HETATM   13  C   UNL     1     -12.524  12.336  70.962  1.00  0.00    -0.361 A  
HETATM   14  C   UNL     1     -13.245  10.245  71.872  1.00  0.00    -0.550 A  
HETATM   15  C   UNL     1      -7.837   7.256  71.681  1.00  0.00    -0.091 A  
HETATM   16  C   UNL     1     -13.212  11.636  71.936  1.00  0.00    -0.475 A  
HETATM   17  C   UNL     1      -9.553   8.901  71.375  1.00  0.00    -0.359 A  
HETATM   18  C   UNL     1      -8.708   8.187  72.237  1.00  0.00    -0.243 A  
HETATM   19  C   UNL     1     -12.535   9.551  70.878  1.00  0.00    -0.277 A  
BRANCH  11  20
HETATM   20  O   UNL     1      -8.665   7.477  68.057  1.00  0.00    -0.122 OA 
BRANCH  20  21
HETATM   21  C   UNL     1      -9.545   6.502  67.546  1.00  0.00    -0.124 C  
HETATM   22  O   UNL     1     -10.757   6.624  67.410  1.00  0.00    -0.251 OA 
HETATM   23  C   UNL     1      -8.780   5.240  67.171  1.00  0.00    -0.107 C  
HETATM   24  C   UNL     1      -8.249   5.339  65.741  1.00  0.00    -0.119 C  
HETATM   25  C   UNL     1      -9.689   4.016  67.299  1.00  0.00    -0.199 C  
ENDBRANCH  20  21
ENDBRANCH  11  20
BRANCH  18  26
HETATM   26  C   UNL     1      -8.814   8.337  73.737  1.00  0.00    -0.111 C  
HETATM   27  O   UNL     1      -9.846   7.532  74.298  1.00  0.00    -0.382 OA 
HETATM   28  H   UNL     1      -9.913   7.627  75.241  1.00  0.00     0.000 HD 
ENDBRANCH  18  26
ENDBRANCH   5   6
ENDBRANCH   4   5
BRANCH   4  29
HETATM   29  C   UNL     1      -8.843  13.541  67.129  1.00  0.00    -0.226 C  
HETATM   30  C   UNL     1      -9.823  13.582  65.946  1.00  0.00    -0.255 C  
HETATM   31  C   UNL     1      -9.667  14.067  68.331  1.00  0.00    -0.223 C  
ENDBRANCH   4  29
ENDBRANCH   2   4
TORSDOF 7
ENDMDL
MODEL       92
REMARK 921   NORMALIZED FREE ENERGY PREDICTED BY IDOCK:   -4.65 KCAL/MOL
REMARK 922        TOTAL FREE ENERGY PREDICTED BY IDOCK:   -7.95 KCAL/MOL
REMARK 923 INTER-LIGAND FREE ENERGY PREDICTED BY IDOCK:   -6.31 KCAL/MOL
REMARK 924 INTRA-LIGAND FREE ENERGY PREDICTED BY IDOCK:   -1.64 KCAL/MOL
REMARK 927      BINDING AFFINITY PREDICTED BY RF-SCORE:    0.00 PKD
ROOT
HETATM    1  C   UNL     1     -12.272  11.662  71.010  1.00  0.00    -0.336 C  
HETATM    2  C   UNL     1     -12.266  10.354  70.182  1.00  0.00    -0.229 C  
HETATM    3  C   UNL     1     -11.546  10.742  68.880  1.00  0.00    -0.361 C  
ENDROOT
BRANCH   2   4
HETATM    4  N   UNL     1     -11.708   9.172  70.926  1.00  0.00    -0.284 NA 
BRANCH   4   5
HETATM    5  C   UNL     1     -10.324   9.405  71.445  1.00  0.00    -0.256 C  
BRANCH   5   6
HETATM    6  C   UNL     1      -9.436   8.147  71.639  1.00  0.00    -0.233 C  
HETATM    7  C   UNL     1      -8.509   7.733  70.441  1.00  0.00    -0.132 C  
HETATM    8  C   UNL     1      -9.312   7.412  69.153  1.00  0.00    -0.146 A  
HETATM    9  C   UNL     1      -7.290   8.679  70.207  1.00  0.00    -0.054 A  
HETATM   10  C   UNL     1      -7.218   9.959  70.770  1.00  0.00     0.063 A  
HETATM   11  C   UNL     1     -10.294   6.404  69.053  1.00  0.00    -0.199 A  
HETATM   12  C   UNL     1     -10.912   6.121  67.819  1.00  0.00    -0.400 A  
HETATM   13  C   UNL     1      -6.326  10.935  70.328  1.00  0.00    -0.135 A  
HETATM   14  C   UNL     1      -5.366   9.326  68.843  1.00  0.00    -0.037 A  
HETATM   15  C   UNL     1     -10.600   6.852  66.673  1.00  0.00    -0.197 A  
HETATM   16  C   UNL     1      -5.421  10.630  69.329  1.00  0.00    -0.037 A  
HETATM   17  C   UNL     1      -9.039   8.134  67.965  1.00  0.00    -0.134 A  
HETATM   18  C   UNL     1      -9.652   7.869  66.731  1.00  0.00    -0.278 A  
HETATM   19  C   UNL     1      -6.260   8.345  69.305  1.00  0.00    -0.038 A  
BRANCH  11  20
HETATM   20  O   UNL     1     -10.603   5.585  70.175  1.00  0.00    -0.285 OA 
BRANCH  20  21
HETATM   21  C   UNL     1      -9.881   4.395  70.393  1.00  0.00    -0.216 C  
HETATM   22  O   UNL     1      -9.297   3.738  69.539  1.00  0.00    -0.148 OA 
HETATM   23  C   UNL     1      -9.919   4.014  71.867  1.00  0.00    -0.246 C  
HETATM   24  C   UNL     1      -8.785   4.700  72.628  1.00  0.00    -0.117 C  
HETATM   25  C   UNL     1      -9.798   2.496  72.021  1.00  0.00    -0.226 C  
ENDBRANCH  20  21
ENDBRANCH  11  20
BRANCH  18  26
HETATM   26  C   UNL     1      -9.220   8.587  65.474  1.00  0.00    -0.041 C  
HETATM   27  O   UNL     1      -9.962   9.780  65.240  1.00  0.00    -0.338 OA 
HETATM   28  H   UNL     1      -9.690  10.231  64.450  1.00  0.00     0.000 HD 
ENDBRANCH  18  26
ENDBRANCH   5   6
ENDBRANCH   4   5
BRANCH   4  29
HETATM   29  C   UNL     1     -12.574   8.541  71.968  1.00  0.00    -0.364 C  
HETATM   30  C   UNL     1     -13.897   9.268  72.260  1.00  0.00    -0.492 C  
HETATM   31  C   UNL     1     -13.002   7.101  71.588  1.00  0.00    -0.415 C  
ENDBRANCH   4  29
ENDBRANCH   2   4
TORSDOF 7
ENDMDL
MODEL       93
REMARK 921   NORMALIZED FREE ENERGY PREDICTED BY IDOCK:   -4.63 KCAL/MOL
REMARK 922        TOTAL FREE ENERGY PREDICTED BY IDOCK:   -7.93 KCAL/MOL
REMARK 923 INTER-LIGAND FREE ENERGY PREDICTED BY IDOCK:   -6.37 KCAL/MOL
REMARK 924 INTRA-LIGAND FREE ENERGY PREDICTED BY IDOCK:   -1.57 KCAL/MOL
REMARK 927      BINDING AFFINITY PREDICTED BY RF-SCORE:    0.00 PKD
ROOT
HETATM    1  C   UNL     1      -7.892  18.121  66.782  1.00  0.00    -0.257 C  
HETATM    2  C   UNL     1      -7.434  16.935  67.664  1.00  0.00    -0.160 C  
HETATM    3  C   UNL     1      -6.706  17.608  68.840  1.00  0.00    -0.236 C  
ENDROOT
BRANCH   2   4
HETATM    4  N   UNL     1      -8.543  15.986  68.022  1.00  0.00    -0.164 NA 
BRANCH   4   5
HETATM    5  C   UNL     1      -8.051  14.627  68.410  1.00  0.00    -0.147 C  
BRANCH   5   6
HETATM    6  C   UNL     1      -7.711  13.654  67.248  1.00  0.00    -0.091 C  
HETATM    7  C   UNL     1      -8.760  12.530  66.926  1.00  0.00    -0.182 C  
HETATM    8  C   UNL     1      -9.004  11.583  68.131  1.00  0.00    -0.172 A  
HETATM    9  C   UNL     1     -10.070  13.041  66.249  1.00  0.00    -0.283 A  
HETATM   10  C   UNL     1     -10.434  14.393  66.248  1.00  0.00    -0.292 A  
HETATM   11  C   UNL     1      -8.003  10.803  68.750  1.00  0.00    -0.136 A  
HETATM   12  C   UNL     1      -8.329   9.902  69.782  1.00  0.00    -0.196 A  
HETATM   13  C   UNL     1     -11.723  14.833  65.952  1.00  0.00    -0.248 A  
HETATM   14  C   UNL     1     -12.328  12.580  65.433  1.00  0.00    -0.426 A  
HETATM   15  C   UNL     1      -9.640   9.782  70.245  1.00  0.00    -0.264 A  
HETATM   16  C   UNL     1     -12.689  13.917  65.582  1.00  0.00    -0.534 A  
HETATM   17  C   UNL     1     -10.315  11.433  68.644  1.00  0.00    -0.219 A  
HETATM   18  C   UNL     1     -10.653  10.546  69.677  1.00  0.00    -0.281 A  
HETATM   19  C   UNL     1     -11.023  12.147  65.720  1.00  0.00    -0.338 A  
BRANCH  11  20
HETATM   20  O   UNL     1      -6.664  10.839  68.273  1.00  0.00    -0.062 OA 
BRANCH  20  21
HETATM   21  C   UNL     1      -6.094   9.686  67.698  1.00  0.00    -0.052 C  
HETATM   22  O   UNL     1      -5.529   8.782  68.303  1.00  0.00    -0.037 OA 
HETATM   23  C   UNL     1      -6.271   9.703  66.186  1.00  0.00    -0.068 C  
HETATM   24  C   UNL     1      -7.615   9.088  65.797  1.00  0.00    -0.090 C  
HETATM   25  C   UNL     1      -5.136   8.928  65.514  1.00  0.00    -0.037 C  
ENDBRANCH  20  21
ENDBRANCH  11  20
BRANCH  18  26
HETATM   26  C   UNL     1     -12.093  10.338  70.088  1.00  0.00    -0.202 C  
HETATM   27  O   UNL     1     -13.014  10.947  69.188  1.00  0.00    -0.387 OA 
HETATM   28  H   UNL     1     -13.919  10.816  69.447  1.00  0.00     0.000 HD 
ENDBRANCH  18  26
ENDBRANCH   5   6
ENDBRANCH   4   5
BRANCH   4  29
HETATM   29  C   UNL     1      -9.587  16.472  68.975  1.00  0.00    -0.255 C  
HETATM   30  C   UNL     1     -10.787  17.189  68.334  1.00  0.00    -0.309 C  
HETATM   31  C   UNL     1     -10.221  15.320  69.795  1.00  0.00    -0.241 C  
ENDBRANCH   4  29
ENDBRANCH   2   4
TORSDOF 7
ENDMDL
MODEL       94
REMARK 921   NORMALIZED FREE ENERGY PREDICTED BY IDOCK:   -4.58 KCAL/MOL
REMARK 922        TOTAL FREE ENERGY PREDICTED BY IDOCK:   -7.87 KCAL/MOL
REMARK 923 INTER-LIGAND FREE ENERGY PREDICTED BY IDOCK:   -6.00 KCAL/MOL
REMARK 924 INTRA-LIGAND FREE ENERGY PREDICTED BY IDOCK:   -1.87 KCAL/MOL
REMARK 927      BINDING AFFINITY PREDICTED BY RF-SCORE:    0.00 PKD
ROOT
HETATM    1  C   UNL     1     -11.096  19.560  67.118  1.00  0.00    -0.292 C  
HETATM    2  C   UNL     1      -9.693  19.419  67.757  1.00  0.00    -0.335 C  
HETATM    3  C   UNL     1      -9.968  18.739  69.108  1.00  0.00    -0.257 C  
ENDROOT
BRANCH   2   4
HETATM    4  N   UNL     1      -8.689  18.747  66.863  1.00  0.00    -0.284 NA 
BRANCH   4   5
HETATM    5  C   UNL     1      -9.271  17.622  66.067  1.00  0.00    -0.020 C  
BRANCH   5   6
HETATM    6  C   UNL     1      -8.437  16.313  66.002  1.00  0.00    -0.185 C  
HETATM    7  C   UNL     1      -9.103  15.011  66.572  1.00  0.00    -0.319 C  
HETATM    8  C   UNL     1      -9.461  15.137  68.077  1.00  0.00    -0.199 A  
HETATM    9  C   UNL     1     -10.258  14.435  65.695  1.00  0.00    -0.371 A  
HETATM   10  C   UNL     1     -10.881  15.186  64.691  1.00  0.00    -0.285 A  
HETATM   11  C   UNL     1      -8.525  15.394  69.103  1.00  0.00    -0.241 A  
HETATM   12  C   UNL     1      -8.924  15.405  70.453  1.00  0.00     1.028 A  
HETATM   13  C   UNL     1     -12.105  14.833  64.124  1.00  0.00    -0.323 A  
HETATM   14  C   UNL     1     -12.066  12.815  65.404  1.00  0.00    -0.512 A  
HETATM   15  C   UNL     1     -10.256  15.199  70.813  1.00  0.00     0.395 A  
HETATM   16  C   UNL     1     -12.723  13.660  64.513  1.00  0.00    -0.143 A  
HETATM   17  C   UNL     1     -10.802  14.946  68.493  1.00  0.00    -0.249 A  
HETATM   18  C   UNL     1     -11.214  14.962  69.833  1.00  0.00    -0.307 A  
HETATM   19  C   UNL     1     -10.827  13.172  65.960  1.00  0.00    -0.287 A  
BRANCH  11  20
HETATM   20  O   UNL     1      -7.145  15.545  68.797  1.00  0.00    -0.113 OA 
BRANCH  20  21
HETATM   21  C   UNL     1      -6.317  16.304  69.648  1.00  0.00    -0.198 C  
HETATM   22  O   UNL     1      -5.728  15.888  70.639  1.00  0.00    -0.117 OA 
HETATM   23  C   UNL     1      -6.245  17.748  69.171  1.00  0.00    -0.230 C  
HETATM   24  C   UNL     1      -5.132  17.917  68.137  1.00  0.00    -0.147 C  
HETATM   25  C   UNL     1      -5.993  18.683  70.356  1.00  0.00    -0.064 C  
ENDBRANCH  20  21
ENDBRANCH  11  20
BRANCH  18  26
HETATM   26  C   UNL     1     -12.635  14.621  70.217  1.00  0.00    -0.318 C  
HETATM   27  O   UNL     1     -13.473  15.770  70.298  1.00  0.00    -0.719 OA 
HETATM   28  H   UNL     1     -14.367  15.555  70.539  1.00  0.00     0.000 HD 
ENDBRANCH  18  26
ENDBRANCH   5   6
ENDBRANCH   4   5
BRANCH   4  29
HETATM   29  C   UNL     1      -7.830  19.622  66.008  1.00  0.00    -0.326 C  
HETATM   30  C   UNL     1      -7.178  20.815  66.726  1.00  0.00    -0.290 C  
HETATM   31  C   UNL     1      -6.641  18.853  65.382  1.00  0.00    -0.288 C  
ENDBRANCH   4  29
ENDBRANCH   2   4
TORSDOF 7
ENDMDL
MODEL       95
REMARK 921   NORMALIZED FREE ENERGY PREDICTED BY IDOCK:   -4.56 KCAL/MOL
REMARK 922        TOTAL FREE ENERGY PREDICTED BY IDOCK:   -7.83 KCAL/MOL
REMARK 923 INTER-LIGAND FREE ENERGY PREDICTED BY IDOCK:   -6.12 KCAL/MOL
REMARK 924 INTRA-LIGAND FREE ENERGY PREDICTED BY IDOCK:   -1.71 KCAL/MOL
REMARK 927      BINDING AFFINITY PREDICTED BY RF-SCORE:    0.00 PKD
ROOT
HETATM    1  C   UNL     1      -5.243   8.766  71.450  1.00  0.00    -0.035 C  
HETATM    2  C   UNL     1      -6.149   7.563  71.809  1.00  0.00    -0.036 C  
HETATM    3  C   UNL     1      -7.177   8.152  72.787  1.00  0.00    -0.134 C  
ENDROOT
BRANCH   2   4
HETATM    4  N   UNL     1      -6.704   6.847  70.609  1.00  0.00    -0.052 NA 
BRANCH   4   5
HETATM    5  C   UNL     1      -7.531   7.730  69.728  1.00  0.00    -0.089 C  
BRANCH   5   6
HETATM    6  C   UNL     1      -9.063   7.724  69.983  1.00  0.00    -0.150 C  
HETATM    7  C   UNL     1      -9.998   7.701  68.721  1.00  0.00    -0.178 C  
HETATM    8  C   UNL     1      -9.789   8.936  67.805  1.00  0.00    -0.208 A  
HETATM    9  C   UNL     1     -10.020   6.342  67.955  1.00  0.00    -0.145 A  
HETATM   10  C   UNL     1      -9.045   5.357  68.151  1.00  0.00    -0.115 A  
HETATM   11  C   UNL     1      -9.973  10.275  68.213  1.00  0.00    -0.147 A  
HETATM   12  C   UNL     1      -9.847  11.332  67.290  1.00  0.00    -0.203 A  
HETATM   13  C   UNL     1      -8.847   4.296  67.269  1.00  0.00    -0.121 A  
HETATM   14  C   UNL     1     -10.748   5.034  66.021  1.00  0.00    -0.241 A  
HETATM   15  C   UNL     1      -9.502  11.089  65.960  1.00  0.00    -0.235 A  
HETATM   16  C   UNL     1      -9.677   4.156  66.173  1.00  0.00    -0.215 A  
HETATM   17  C   UNL     1      -9.429   8.743  66.449  1.00  0.00    -0.291 A  
HETATM   18  C   UNL     1      -9.292   9.786  65.521  1.00  0.00    -0.299 A  
HETATM   19  C   UNL     1     -10.948   6.092  66.924  1.00  0.00    -0.384 A  
BRANCH  11  20
HETATM   20  O   UNL     1     -10.389  10.573  69.540  1.00  0.00    -0.229 OA 
BRANCH  20  21
HETATM   21  C   UNL     1     -11.753  10.797  69.812  1.00  0.00    -0.324 C  
HETATM   22  O   UNL     1     -12.595  11.186  69.011  1.00  0.00    -0.370 OA 
HETATM   23  C   UNL     1     -12.061  10.488  71.271  1.00  0.00    -0.432 C  
HETATM   24  C   UNL     1     -12.392   9.006  71.447  1.00  0.00    -0.380 C  
HETATM   25  C   UNL     1     -13.238  11.339  71.753  1.00  0.00    -0.480 C  
ENDBRANCH  20  21
ENDBRANCH  11  20
BRANCH  18  26
HETATM   26  C   UNL     1      -9.036   9.503  64.059  1.00  0.00    -0.188 C  
HETATM   27  O   UNL     1      -8.752   8.130  63.808  1.00  0.00    -0.388 OA 
HETATM   28  H   UNL     1      -8.591   7.951  62.889  1.00  0.00     0.000 HD 
ENDBRANCH  18  26
ENDBRANCH   5   6
ENDBRANCH   4   5
BRANCH   4  29
HETATM   29  C   UNL     1      -5.758   6.017  69.801  1.00  0.00    -0.017 C  
HETATM   30  C   UNL     1      -6.041   4.505  69.797  1.00  0.00    -0.019 C  
HETATM   31  C   UNL     1      -5.756   6.412  68.304  1.00  0.00    -0.016 C  
ENDBRANCH   4  29
ENDBRANCH   2   4
TORSDOF 7
ENDMDL
MODEL       96
REMARK 921   NORMALIZED FREE ENERGY PREDICTED BY IDOCK:   -4.55 KCAL/MOL
REMARK 922        TOTAL FREE ENERGY PREDICTED BY IDOCK:   -7.81 KCAL/MOL
REMARK 923 INTER-LIGAND FREE ENERGY PREDICTED BY IDOCK:   -6.29 KCAL/MOL
REMARK 924 INTRA-LIGAND FREE ENERGY PREDICTED BY IDOCK:   -1.53 KCAL/MOL
REMARK 927      BINDING AFFINITY PREDICTED BY RF-SCORE:    0.00 PKD
ROOT
HETATM    1  C   UNL     1      -8.378   6.690  65.401  1.00  0.00    -0.130 C  
HETATM    2  C   UNL     1      -8.110   5.674  66.537  1.00  0.00    -0.105 C  
HETATM    3  C   UNL     1      -6.576   5.601  66.613  1.00  0.00    -0.056 C  
ENDROOT
BRANCH   2   4
HETATM    4  N   UNL     1      -8.827   5.999  67.818  1.00  0.00    -0.107 NA 
BRANCH   4   5
HETATM    5  C   UNL     1      -9.297   7.419  67.884  1.00  0.00    -0.134 C  
BRANCH   5   6
HETATM    6  C   UNL     1      -8.267   8.468  68.383  1.00  0.00    -0.123 C  
HETATM    7  C   UNL     1      -8.535   9.125  69.784  1.00  0.00    -0.140 C  
HETATM    8  C   UNL     1      -9.884   9.891  69.832  1.00  0.00    -0.285 A  
HETATM    9  C   UNL     1      -8.305   8.174  71.001  1.00  0.00    -0.129 A  
HETATM   10  C   UNL     1      -8.215   6.784  70.858  1.00  0.00    -0.123 A  
HETATM   11  C   UNL     1     -10.217  10.977  68.994  1.00  0.00    -0.200 A  
HETATM   12  C   UNL     1     -11.429  11.672  69.165  1.00  0.00    -0.364 A  
HETATM   13  C   UNL     1      -8.339   5.900  71.928  1.00  0.00    -0.119 A  
HETATM   14  C   UNL     1      -8.450   7.773  73.408  1.00  0.00    -0.248 A  
HETATM   15  C   UNL     1     -12.349  11.287  70.141  1.00  0.00    -0.354 A  
HETATM   16  C   UNL     1      -8.499   6.396  73.207  1.00  0.00    -0.123 A  
HETATM   17  C   UNL     1     -10.855   9.531  70.799  1.00  0.00    -0.386 A  
HETATM   18  C   UNL     1     -12.069  10.210  70.975  1.00  0.00    -0.476 A  
HETATM   19  C   UNL     1      -8.311   8.657  72.325  1.00  0.00    -0.128 A  
BRANCH  11  20
HETATM   20  O   UNL     1      -9.287  11.452  68.027  1.00  0.00    -0.159 OA 
BRANCH  20  21
HETATM   21  C   UNL     1      -8.683  12.713  68.197  1.00  0.00    -0.190 C  
HETATM   22  O   UNL     1      -9.266  13.768  68.418  1.00  0.00    -0.198 OA 
HETATM   23  C   UNL     1      -7.170  12.599  68.069  1.00  0.00    -0.112 C  
HETATM   24  C   UNL     1      -6.542  12.249  69.417  1.00  0.00    -0.081 C  
HETATM   25  C   UNL     1      -6.585  13.916  67.554  1.00  0.00    -0.104 C  
ENDBRANCH  20  21
ENDBRANCH  11  20
BRANCH  18  26
HETATM   26  C   UNL     1     -13.002   9.858  72.111  1.00  0.00    -0.379 C  
HETATM   27  O   UNL     1     -12.735   8.573  72.663  1.00  0.00    -0.571 OA 
HETATM   28  H   UNL     1     -13.321   8.352  73.378  1.00  0.00     0.000 HD 
ENDBRANCH  18  26
ENDBRANCH   5   6
ENDBRANCH   4   5
BRANCH   4  29
HETATM   29  C   UNL     1      -9.896   5.057  68.269  1.00  0.00    -0.150 C  
HETATM   30  C   UNL     1      -9.406   3.815  69.031  1.00  0.00    -0.240 C  
HETATM   31  C   UNL     1     -10.906   5.728  69.234  1.00  0.00    -0.374 C  
ENDBRANCH   4  29
ENDBRANCH   2   4
TORSDOF 7
ENDMDL
MODEL       97
REMARK 921   NORMALIZED FREE ENERGY PREDICTED BY IDOCK:   -4.55 KCAL/MOL
REMARK 922        TOTAL FREE ENERGY PREDICTED BY IDOCK:   -7.81 KCAL/MOL
REMARK 923 INTER-LIGAND FREE ENERGY PREDICTED BY IDOCK:   -6.33 KCAL/MOL
REMARK 924 INTRA-LIGAND FREE ENERGY PREDICTED BY IDOCK:   -1.49 KCAL/MOL
REMARK 927      BINDING AFFINITY PREDICTED BY RF-SCORE:    0.00 PKD
ROOT
HETATM    1  C   UNL     1      -8.800   6.299  66.701  1.00  0.00    -0.132 C  
HETATM    2  C   UNL     1      -9.835   7.409  67.007  1.00  0.00    -0.209 C  
HETATM    3  C   UNL     1     -10.804   6.748  68.000  1.00  0.00    -0.306 C  
ENDROOT
BRANCH   2   4
HETATM    4  N   UNL     1      -9.215   8.707  67.444  1.00  0.00    -0.135 NA 
BRANCH   4   5
HETATM    5  C   UNL     1      -8.106   8.525  68.432  1.00  0.00    -0.122 C  
BRANCH   5   6
HETATM    6  C   UNL     1      -7.951   9.631  69.512  1.00  0.00    -0.125 C  
HETATM    7  C   UNL     1      -8.382   9.265  70.978  1.00  0.00    -0.138 C  
HETATM    8  C   UNL     1      -9.880   8.872  71.075  1.00  0.00    -0.321 A  
HETATM    9  C   UNL     1      -7.420   8.277  71.709  1.00  0.00    -0.112 A  
HETATM   10  C   UNL     1      -6.468   7.514  71.023  1.00  0.00    -0.039 A  
HETATM   11  C   UNL     1     -10.953   9.715  70.715  1.00  0.00    -0.327 A  
HETATM   12  C   UNL     1     -12.286   9.309  70.920  1.00  0.00    -0.229 A  
HETATM   13  C   UNL     1      -5.834   6.406  71.582  1.00  0.00    -0.036 A  
HETATM   14  C   UNL     1      -6.929   6.879  73.654  1.00  0.00    -0.074 A  
HETATM   15  C   UNL     1     -12.583   8.052  71.448  1.00  0.00    -0.307 A  
HETATM   16  C   UNL     1      -6.096   6.061  72.894  1.00  0.00    -0.049 A  
HETATM   17  C   UNL     1     -10.234   7.602  71.595  1.00  0.00    -0.217 A  
HETATM   18  C   UNL     1     -11.556   7.182  71.797  1.00  0.00    -0.314 A  
HETATM   19  C   UNL     1      -7.553   8.002  73.085  1.00  0.00    -0.188 A  
BRANCH  11  20
HETATM   20  O   UNL     1     -10.706  11.031  70.235  1.00  0.00     0.039 OA 
BRANCH  20  21
HETATM   21  C   UNL     1     -11.652  11.661  69.403  1.00  0.00    -0.327 C  
HETATM   22  O   UNL     1     -12.321  11.119  68.531  1.00  0.00    -0.561 OA 
HETATM   23  C   UNL     1     -11.741  13.146  69.731  1.00  0.00    -0.350 C  
HETATM   24  C   UNL     1     -12.747  13.388  70.855  1.00  0.00    -0.349 C  
HETATM   25  C   UNL     1     -12.159  13.935  68.488  1.00  0.00    -0.331 C  
ENDBRANCH  20  21
ENDBRANCH  11  20
BRANCH  18  26
HETATM   26  C   UNL     1     -11.863   5.868  72.478  1.00  0.00    -0.185 C  
HETATM   27  O   UNL     1     -11.148   5.703  73.699  1.00  0.00    -0.433 OA 
HETATM   28  H   UNL     1     -11.341   4.877  74.127  1.00  0.00     0.000 HD 
ENDBRANCH  18  26
ENDBRANCH   5   6
ENDBRANCH   4   5
BRANCH   4  29
HETATM   29  C   UNL     1      -8.830   9.682  66.378  1.00  0.00    -0.150 C  
HETATM   30  C   UNL     1      -9.363  11.112  66.564  1.00  0.00    -0.199 C  
HETATM   31  C   UNL     1      -7.295   9.854  66.261  1.00  0.00    -0.102 C  
ENDBRANCH   4  29
ENDBRANCH   2   4
TORSDOF 7
ENDMDL
MODEL       98
REMARK 921   NORMALIZED FREE ENERGY PREDICTED BY IDOCK:   -4.54 KCAL/MOL
REMARK 922        TOTAL FREE ENERGY PREDICTED BY IDOCK:   -7.80 KCAL/MOL
REMARK 923 INTER-LIGAND FREE ENERGY PREDICTED BY IDOCK:   -6.25 KCAL/MOL
REMARK 924 INTRA-LIGAND FREE ENERGY PREDICTED BY IDOCK:   -1.55 KCAL/MOL
REMARK 927      BINDING AFFINITY PREDICTED BY RF-SCORE:    0.00 PKD
ROOT
HETATM    1  C   UNL     1     -11.791  14.124  70.536  1.00  0.00    -0.352 C  
HETATM    2  C   UNL     1     -11.442  14.801  69.189  1.00  0.00    -0.299 C  
HETATM    3  C   UNL     1     -11.004  16.219  69.590  1.00  0.00    -0.346 C  
ENDROOT
BRANCH   2   4
HETATM    4  N   UNL     1     -10.471  14.015  68.353  1.00  0.00    -0.246 NA 
BRANCH   4   5
HETATM    5  C   UNL     1     -10.147  12.674  68.934  1.00  0.00     0.064 C  
BRANCH   5   6
HETATM    6  C   UNL     1     -10.336  11.449  67.999  1.00  0.00    -0.204 C  
HETATM    7  C   UNL     1      -9.985  10.037  68.589  1.00  0.00    -0.176 C  
HETATM    8  C   UNL     1      -8.500   9.929  69.030  1.00  0.00    -0.136 A  
HETATM    9  C   UNL     1     -10.998   9.507  69.651  1.00  0.00    -0.233 A  
HETATM   10  C   UNL     1     -11.929  10.344  70.280  1.00  0.00    -0.387 A  
HETATM   11  C   UNL     1      -7.396  10.109  68.169  1.00  0.00    -0.082 A  
HETATM   12  C   UNL     1      -6.082   9.905  68.633  1.00  0.00    -0.041 A  
HETATM   13  C   UNL     1     -12.609   9.987  71.443  1.00  0.00    -0.518 A  
HETATM   14  C   UNL     1     -11.610   7.819  71.311  1.00  0.00    -0.301 A  
HETATM   15  C   UNL     1      -5.833   9.559  69.961  1.00  0.00    -0.036 A  
HETATM   16  C   UNL     1     -12.418   8.731  71.986  1.00  0.00    -0.452 A  
HETATM   17  C   UNL     1      -8.195   9.590  70.370  1.00  0.00    -0.220 A  
HETATM   18  C   UNL     1      -6.891   9.393  70.848  1.00  0.00    -0.100 A  
HETATM   19  C   UNL     1     -10.939   8.184  70.132  1.00  0.00    -0.223 A  
BRANCH  11  20
HETATM   20  O   UNL     1      -7.597  10.397  66.790  1.00  0.00    -0.104 OA 
BRANCH  20  21
HETATM   21  C   UNL     1      -7.974   9.367  65.907  1.00  0.00    -0.106 C  
HETATM   22  O   UNL     1      -8.885   9.415  65.089  1.00  0.00    -0.171 OA 
HETATM   23  C   UNL     1      -7.083   8.147  66.101  1.00  0.00    -0.062 C  
HETATM   24  C   UNL     1      -5.824   8.260  65.241  1.00  0.00    -0.044 C  
HETATM   25  C   UNL     1      -7.846   6.873  65.732  1.00  0.00    -0.106 C  
ENDBRANCH  20  21
ENDBRANCH  11  20
BRANCH  18  26
HETATM   26  C   UNL     1      -6.641   8.903  72.256  1.00  0.00     0.041 C  
HETATM   27  O   UNL     1      -5.768   9.757  72.988  1.00  0.00    -0.307 OA 
HETATM   28  H   UNL     1      -5.611   9.449  73.873  1.00  0.00     0.000 HD 
ENDBRANCH  18  26
ENDBRANCH   5   6
ENDBRANCH   4   5
BRANCH   4  29
HETATM   29  C   UNL     1     -10.747  13.912  66.887  1.00  0.00    -0.284 C  
HETATM   30  C   UNL     1     -12.223  14.049  66.480  1.00  0.00    -0.485 C  
HETATM   31  C   UNL     1     -10.019  15.008  66.071  1.00  0.00    -0.334 C  
ENDBRANCH   4  29
ENDBRANCH   2   4
TORSDOF 7
ENDMDL
MODEL       99
REMARK 921   NORMALIZED FREE ENERGY PREDICTED BY IDOCK:   -4.51 KCAL/MOL
REMARK 922        TOTAL FREE ENERGY PREDICTED BY IDOCK:   -7.76 KCAL/MOL
REMARK 923 INTER-LIGAND FREE ENERGY PREDICTED BY IDOCK:   -6.37 KCAL/MOL
REMARK 924 INTRA-LIGAND FREE ENERGY PREDICTED BY IDOCK:   -1.39 KCAL/MOL
REMARK 927      BINDING AFFINITY PREDICTED BY RF-SCORE:    0.00 PKD
ROOT
HETATM    1  C   UNL     1     -11.901  11.801  68.421  1.00  0.00    -0.347 C  
HETATM    2  C   UNL     1     -11.275  11.701  67.009  1.00  0.00    -0.314 C  
HETATM    3  C   UNL     1     -11.567  13.071  66.376  1.00  0.00    -0.413 C  
ENDROOT
BRANCH   2   4
HETATM    4  N   UNL     1      -9.837  11.263  67.017  1.00  0.00    -0.189 NA 
BRANCH   4   5
HETATM    5  C   UNL     1      -9.599  10.043  67.851  1.00  0.00    -0.145 C  
BRANCH   5   6
HETATM    6  C   UNL     1     -10.418   8.778  67.478  1.00  0.00    -0.340 C  
HETATM    7  C   UNL     1     -10.228   7.509  68.383  1.00  0.00    -0.211 C  
HETATM    8  C   UNL     1      -8.761   7.001  68.393  1.00  0.00    -0.125 A  
HETATM    9  C   UNL     1     -10.866   7.624  69.803  1.00  0.00    -0.222 A  
HETATM   10  C   UNL     1     -11.258   8.852  70.350  1.00  0.00    -0.259 A  
HETATM   11  C   UNL     1      -8.052   6.582  67.247  1.00  0.00    -0.113 A  
HETATM   12  C   UNL     1      -6.753   6.051  67.358  1.00  0.00    -0.061 A  
HETATM   13  C   UNL     1     -11.518   9.032  71.708  1.00  0.00    -0.442 A  
HETATM   14  C   UNL     1     -11.203   6.685  72.035  1.00  0.00    -0.301 A  
HETATM   15  C   UNL     1      -6.117   5.958  68.597  1.00  0.00    -0.025 A  
HETATM   16  C   UNL     1     -11.450   7.950  72.564  1.00  0.00    -0.455 A  
HETATM   17  C   UNL     1      -8.069   6.897  69.625  1.00  0.00    -0.126 A  
HETATM   18  C   UNL     1      -6.772   6.378  69.750  1.00  0.00    -0.053 A  
HETATM   19  C   UNL     1     -10.956   6.511  70.663  1.00  0.00    -0.340 A  
BRANCH  11  20
HETATM   20  O   UNL     1      -8.678   6.595  65.969  1.00  0.00    -0.144 OA 
BRANCH  20  21
HETATM   21  C   UNL     1      -8.736   5.411  65.207  1.00  0.00    -0.145 C  
HETATM   22  O   UNL     1      -7.940   5.071  64.339  1.00  0.00    -0.092 OA 
HETATM   23  C   UNL     1      -9.949   4.581  65.606  1.00  0.00    -0.245 C  
HETATM   24  C   UNL     1      -9.610   3.666  66.782  1.00  0.00    -0.176 C  
HETATM   25  C   UNL     1     -10.426   3.741  64.420  1.00  0.00    -0.227 C  
ENDBRANCH  20  21
ENDBRANCH  11  20
BRANCH  18  26
HETATM   26  C   UNL     1      -6.141   6.172  71.107  1.00  0.00    -0.035 C  
HETATM   27  O   UNL     1      -6.711   7.008  72.110  1.00  0.00    -0.056 OA 
HETATM   28  H   UNL     1      -6.314   6.879  72.964  1.00  0.00     0.000 HD 
ENDBRANCH  18  26
ENDBRANCH   5   6
ENDBRANCH   4   5
BRANCH   4  29
HETATM   29  C   UNL     1      -9.141  11.156  65.699  1.00  0.00    -0.205 C  
HETATM   30  C   UNL     1      -7.876  10.282  65.686  1.00  0.00    -0.151 C  
HETATM   31  C   UNL     1     -10.045  10.542  64.601  1.00  0.00    -0.408 C  
ENDBRANCH   4  29
ENDBRANCH   2   4
TORSDOF 7
ENDMDL
MODEL      100
REMARK 921   NORMALIZED FREE ENERGY PREDICTED BY IDOCK:   -4.48 KCAL/MOL
REMARK 922        TOTAL FREE ENERGY PREDICTED BY IDOCK:   -7.73 KCAL/MOL
REMARK 923 INTER-LIGAND FREE ENERGY PREDICTED BY IDOCK:   -5.74 KCAL/MOL
REMARK 924 INTRA-LIGAND FREE ENERGY PREDICTED BY IDOCK:   -1.99 KCAL/MOL
REMARK 927      BINDING AFFINITY PREDICTED BY RF-SCORE:    0.00 PKD
ROOT
HETATM    1  C   UNL     1     -11.189   6.553  67.183  1.00  0.00    -0.313 C  
HETATM    2  C   UNL     1      -9.881   6.586  68.011  1.00  0.00    -0.123 C  
HETATM    3  C   UNL     1      -9.692   5.129  68.463  1.00  0.00    -0.205 C  
ENDROOT
BRANCH   2   4
HETATM    4  N   UNL     1      -8.724   7.215  67.286  1.00  0.00    -0.120 NA 
BRANCH   4   5
HETATM    5  C   UNL     1      -7.492   7.324  68.129  1.00  0.00    -0.102 C  
BRANCH   5   6
HETATM    6  C   UNL     1      -7.020   8.760  68.484  1.00  0.00    -0.065 C  
HETATM    7  C   UNL     1      -7.379   9.300  69.914  1.00  0.00    -0.074 C  
HETATM    8  C   UNL     1      -8.910   9.352  70.162  1.00  0.00    -0.249 A  
HETATM    9  C   UNL     1      -6.573   8.640  71.077  1.00  0.00    -0.053 A  
HETATM   10  C   UNL     1      -5.862   7.446  70.911  1.00  0.00    -0.035 A  
HETATM   11  C   UNL     1      -9.820  10.105  69.389  1.00  0.00    -0.229 A  
HETATM   12  C   UNL     1     -11.182  10.166  69.738  1.00  0.00    -0.325 A  
HETATM   13  C   UNL     1      -5.415   6.671  71.981  1.00  0.00    -0.036 A  
HETATM   14  C   UNL     1      -6.198   8.363  73.477  1.00  0.00    -0.126 A  
HETATM   15  C   UNL     1     -11.677   9.456  70.832  1.00  0.00    -0.378 A  
HETATM   16  C   UNL     1      -5.621   7.112  73.274  1.00  0.00    -0.045 A  
HETATM   17  C   UNL     1      -9.463   8.641  71.255  1.00  0.00    -0.289 A  
HETATM   18  C   UNL     1     -10.820   8.685  71.609  1.00  0.00    -0.374 A  
HETATM   19  C   UNL     1      -6.632   9.143  72.393  1.00  0.00     0.227 A  
BRANCH  11  20
HETATM   20  O   UNL     1      -9.357  10.899  68.303  1.00  0.00    -0.155 OA 
BRANCH  20  21
HETATM   21  C   UNL     1     -10.047  10.876  67.075  1.00  0.00    -0.205 C  
HETATM   22  O   UNL     1     -10.332   9.877  66.426  1.00  0.00    -0.227 OA 
HETATM   23  C   UNL     1     -10.406  12.291  66.641  1.00  0.00    -0.237 C  
HETATM   24  C   UNL     1     -11.742  12.717  67.248  1.00  0.00    -0.435 C  
HETATM   25  C   UNL     1     -10.485  12.370  65.114  1.00  0.00    -0.321 C  
ENDBRANCH  20  21
ENDBRANCH  11  20
BRANCH  18  26
HETATM   26  C   UNL     1     -11.321   8.009  72.864  1.00  0.00    -0.298 C  
HETATM   27  O   UNL     1     -12.718   8.197  73.068  1.00  0.00    -0.601 OA 
HETATM   28  H   UNL     1     -13.033   7.771  73.857  1.00  0.00     0.000 HD 
ENDBRANCH  18  26
ENDBRANCH   5   6
ENDBRANCH   4   5
BRANCH   4  29
HETATM   29  C   UNL     1      -8.398   6.695  65.923  1.00  0.00    -0.137 C  
HETATM   30  C   UNL     1      -8.159   7.765  64.845  1.00  0.00    -0.136 C  
HETATM   31  C   UNL     1      -7.107   5.840  65.911  1.00  0.00    -0.070 C  
ENDBRANCH   4  29
ENDBRANCH   2   4
TORSDOF 7
ENDMDL
MODEL      101
REMARK 921   NORMALIZED FREE ENERGY PREDICTED BY IDOCK:   -4.48 KCAL/MOL
REMARK 922        TOTAL FREE ENERGY PREDICTED BY IDOCK:   -7.72 KCAL/MOL
REMARK 923 INTER-LIGAND FREE ENERGY PREDICTED BY IDOCK:   -6.25 KCAL/MOL
REMARK 924 INTRA-LIGAND FREE ENERGY PREDICTED BY IDOCK:   -1.46 KCAL/MOL
REMARK 927      BINDING AFFINITY PREDICTED BY RF-SCORE:    0.00 PKD
ROOT
HETATM    1  C   UNL     1     -10.813  11.747  64.926  1.00  0.00    -0.353 C  
HETATM    2  C   UNL     1     -10.072  10.688  65.777  1.00  0.00    -0.266 C  
HETATM    3  C   UNL     1      -8.895  10.256  64.887  1.00  0.00    -0.213 C  
ENDROOT
BRANCH   2   4
HETATM    4  N   UNL     1      -9.723  11.164  67.160  1.00  0.00    -0.176 NA 
BRANCH   4   5
HETATM    5  C   UNL     1      -9.365  10.048  68.091  1.00  0.00    -0.131 C  
BRANCH   5   6
HETATM    6  C   UNL     1     -10.254   8.777  68.024  1.00  0.00    -0.264 C  
HETATM    7  C   UNL     1     -10.653   8.109  69.388  1.00  0.00    -0.206 C  
HETATM    8  C   UNL     1      -9.418   7.643  70.205  1.00  0.00    -0.161 A  
HETATM    9  C   UNL     1     -11.695   8.915  70.225  1.00  0.00     0.030 A  
HETATM   10  C   UNL     1     -11.983  10.260  69.966  1.00  0.00    -0.273 A  
HETATM   11  C   UNL     1      -8.466   6.705  69.750  1.00  0.00    -0.132 A  
HETATM   12  C   UNL     1      -7.424   6.272  70.592  1.00  0.00    -0.087 A  
HETATM   13  C   UNL     1     -12.644  11.085  70.874  1.00  0.00    -0.488 A  
HETATM   14  C   UNL     1     -12.959   9.192  72.300  1.00  0.00    -0.492 A  
HETATM   15  C   UNL     1      -7.280   6.784  71.882  1.00  0.00    -0.080 A  
HETATM   16  C   UNL     1     -13.099  10.559  72.067  1.00  0.00    -0.511 A  
HETATM   17  C   UNL     1      -9.222   8.141  71.516  1.00  0.00    -0.209 A  
HETATM   18  C   UNL     1      -8.184   7.726  72.363  1.00  0.00    -0.155 A  
HETATM   19  C   UNL     1     -12.303   8.366  71.372  1.00  0.00    -0.328 A  
BRANCH  11  20
HETATM   20  O   UNL     1      -8.604   6.103  68.469  1.00  0.00    -0.113 OA 
BRANCH  20  21
HETATM   21  C   UNL     1      -8.826   4.715  68.367  1.00  0.00    -0.105 C  
HETATM   22  O   UNL     1      -9.685   4.077  68.965  1.00  0.00    -0.169 OA 
HETATM   23  C   UNL     1      -7.838   4.088  67.393  1.00  0.00    -0.091 C  
HETATM   24  C   UNL     1      -8.375   4.159  65.964  1.00  0.00    -0.109 C  
HETATM   25  C   UNL     1      -7.577   2.629  67.774  1.00  0.00    -0.056 C  
ENDBRANCH  20  21
ENDBRANCH  11  20
BRANCH  18  26
HETATM   26  C   UNL     1      -8.109   8.198  73.796  1.00  0.00    -0.226 C  
HETATM   27  O   UNL     1      -6.932   8.954  74.064  1.00  0.00    -0.366 OA 
HETATM   28  H   UNL     1      -6.885   9.251  74.965  1.00  0.00     0.000 HD 
ENDBRANCH  18  26
ENDBRANCH   5   6
ENDBRANCH   4   5
BRANCH   4  29
HETATM   29  C   UNL     1      -8.751  12.294  67.277  1.00  0.00    -0.188 C  
HETATM   30  C   UNL     1      -9.348  13.636  67.733  1.00  0.00    -0.218 C  
HETATM   31  C   UNL     1      -7.628  12.003  68.303  1.00  0.00    -0.117 C  
ENDBRANCH   4  29
ENDBRANCH   2   4
TORSDOF 7
ENDMDL
MODEL      102
REMARK 921   NORMALIZED FREE ENERGY PREDICTED BY IDOCK:   -4.47 KCAL/MOL
REMARK 922        TOTAL FREE ENERGY PREDICTED BY IDOCK:   -7.70 KCAL/MOL
REMARK 923 INTER-LIGAND FREE ENERGY PREDICTED BY IDOCK:   -6.29 KCAL/MOL
REMARK 924 INTRA-LIGAND FREE ENERGY PREDICTED BY IDOCK:   -1.41 KCAL/MOL
REMARK 927      BINDING AFFINITY PREDICTED BY RF-SCORE:    0.00 PKD
ROOT
HETATM    1  C   UNL     1     -12.453  14.256  66.039  1.00  0.00    -0.392 C  
HETATM    2  C   UNL     1     -11.285  13.333  66.465  1.00  0.00    -0.304 C  
HETATM    3  C   UNL     1     -10.236  13.529  65.359  1.00  0.00    -0.316 C  
ENDROOT
BRANCH   2   4
HETATM    4  N   UNL     1     -10.819  13.563  67.875  1.00  0.00    -0.242 NA 
BRANCH   4   5
HETATM    5  C   UNL     1     -10.708  12.300  68.670  1.00  0.00    -0.233 C  
BRANCH   5   6
HETATM    6  C   UNL     1     -11.012  10.977  67.916  1.00  0.00    -0.317 C  
HETATM    7  C   UNL     1     -10.556   9.640  68.602  1.00  0.00    -0.246 C  
HETATM    8  C   UNL     1      -9.022   9.582  68.829  1.00  0.00    -0.133 A  
HETATM    9  C   UNL     1     -11.395   9.235  69.854  1.00  0.00    -0.083 A  
HETATM   10  C   UNL     1     -12.237  10.138  70.515  1.00  0.00    -0.352 A  
HETATM   11  C   UNL     1      -8.058   9.662  67.801  1.00  0.00    -0.113 A  
HETATM   12  C   UNL     1      -6.688   9.511  68.087  1.00  0.00    -0.062 A  
HETATM   13  C   UNL     1     -12.734   9.916  71.798  1.00  0.00    -0.523 A  
HETATM   14  C   UNL     1     -11.731   7.746  71.764  1.00  0.00    -0.323 A  
HETATM   15  C   UNL     1      -6.242   9.317  69.395  1.00  0.00    -0.040 A  
HETATM   16  C   UNL     1     -12.446   8.729  72.444  1.00  0.00    -0.421 A  
HETATM   17  C   UNL     1      -8.519   9.396  70.140  1.00  0.00    -0.224 A  
HETATM   18  C   UNL     1      -7.156   9.253  70.440  1.00  0.00    -0.091 A  
HETATM   19  C   UNL     1     -11.245   7.974  70.466  1.00  0.00    -0.252 A  
BRANCH  11  20
HETATM   20  O   UNL     1      -8.462   9.793  66.443  1.00  0.00    -0.122 OA 
BRANCH  20  21
HETATM   21  C   UNL     1      -7.617   9.334  65.414  1.00  0.00    -0.098 C  
HETATM   22  O   UNL     1      -6.605   9.893  65.008  1.00  0.00    -0.096 OA 
HETATM   23  C   UNL     1      -8.133   8.016  64.851  1.00  0.00    -0.147 C  
HETATM   24  C   UNL     1      -7.590   6.838  65.659  1.00  0.00    -0.090 C  
HETATM   25  C   UNL     1      -7.717   7.871  63.385  1.00  0.00    -0.140 C  
ENDBRANCH  20  21
ENDBRANCH  11  20
BRANCH  18  26
HETATM   26  C   UNL     1      -6.696   8.925  71.842  1.00  0.00    -0.011 C  
HETATM   27  O   UNL     1      -5.847   9.928  72.390  1.00  0.00    -0.293 OA 
HETATM   28  H   UNL     1      -5.557   9.722  73.271  1.00  0.00     0.000 HD 
ENDBRANCH  18  26
ENDBRANCH   5   6
ENDBRANCH   4   5
BRANCH   4  29
HETATM   29  C   UNL     1      -9.617  14.430  68.073  1.00  0.00    -0.216 C  
HETATM   30  C   UNL     1      -9.635  15.311  69.332  1.00  0.00    -0.245 C  
HETATM   31  C   UNL     1      -8.310  13.608  68.197  1.00  0.00    -0.166 C  
ENDBRANCH   4  29
ENDBRANCH   2   4
TORSDOF 7
ENDMDL
MODEL      103
REMARK 921   NORMALIZED FREE ENERGY PREDICTED BY IDOCK:   -4.46 KCAL/MOL
REMARK 922        TOTAL FREE ENERGY PREDICTED BY IDOCK:   -7.70 KCAL/MOL
REMARK 923 INTER-LIGAND FREE ENERGY PREDICTED BY IDOCK:   -6.45 KCAL/MOL
REMARK 924 INTRA-LIGAND FREE ENERGY PREDICTED BY IDOCK:   -1.25 KCAL/MOL
REMARK 927      BINDING AFFINITY PREDICTED BY RF-SCORE:    0.00 PKD
ROOT
HETATM    1  C   UNL     1      -7.643   6.696  66.401  1.00  0.00    -0.090 C  
HETATM    2  C   UNL     1      -7.422   8.083  65.750  1.00  0.00    -0.081 C  
HETATM    3  C   UNL     1      -5.974   8.024  65.237  1.00  0.00    -0.045 C  
ENDROOT
BRANCH   2   4
HETATM    4  N   UNL     1      -8.473   8.450  64.741  1.00  0.00    -0.141 NA 
BRANCH   4   5
HETATM    5  C   UNL     1      -9.332   9.595  65.178  1.00  0.00    -0.259 C  
BRANCH   5   6
HETATM    6  C   UNL     1     -10.293   9.326  66.367  1.00  0.00    -0.238 C  
HETATM    7  C   UNL     1     -10.415  10.449  67.458  1.00  0.00    -0.292 C  
HETATM    8  C   UNL     1      -9.060  10.754  68.150  1.00  0.00    -0.151 A  
HETATM    9  C   UNL     1     -11.187  11.724  66.993  1.00  0.00    -0.382 A  
HETATM   10  C   UNL     1     -11.439  11.995  65.643  1.00  0.00    -0.372 A  
HETATM   11  C   UNL     1      -8.298   9.806  68.868  1.00  0.00    -0.120 A  
HETATM   12  C   UNL     1      -7.122  10.190  69.541  1.00  0.00    -0.101 A  
HETATM   13  C   UNL     1     -11.822  13.252  65.178  1.00  0.00    -0.377 A  
HETATM   14  C   UNL     1     -11.926  14.010  67.443  1.00  0.00    -0.439 A  
HETATM   15  C   UNL     1      -6.658  11.505  69.487  1.00  0.00    -0.120 A  
HETATM   16  C   UNL     1     -12.028  14.279  66.080  1.00  0.00    -0.422 A  
HETATM   17  C   UNL     1      -8.540  12.071  68.115  1.00  0.00    -0.173 A  
HETATM   18  C   UNL     1      -7.366  12.465  68.773  1.00  0.00    -0.076 A  
HETATM   19  C   UNL     1     -11.552  12.737  67.903  1.00  0.00    -0.400 A  
BRANCH  11  20
HETATM   20  O   UNL     1      -8.761   8.469  69.010  1.00  0.00    -0.132 OA 
BRANCH  20  21
HETATM   21  C   UNL     1      -9.910   8.203  69.780  1.00  0.00    -0.187 C  
HETATM   22  O   UNL     1     -10.680   9.039  70.240  1.00  0.00    -0.214 OA 
HETATM   23  C   UNL     1     -10.084   6.703  69.976  1.00  0.00    -0.199 C  
HETATM   24  C   UNL     1     -10.869   6.097  68.814  1.00  0.00    -0.402 C  
HETATM   25  C   UNL     1     -10.815   6.425  71.292  1.00  0.00    -0.306 C  
ENDBRANCH  20  21
ENDBRANCH  11  20
BRANCH  18  26
HETATM   26  C   UNL     1      -6.938  13.914  68.805  1.00  0.00    -0.108 C  
HETATM   27  O   UNL     1      -6.062  14.204  69.890  1.00  0.00    -0.121 OA 
HETATM   28  H   UNL     1      -5.792  15.115  69.910  1.00  0.00     0.000 HD 
ENDBRANCH  18  26
ENDBRANCH   5   6
ENDBRANCH   4   5
BRANCH   4  29
HETATM   29  C   UNL     1      -8.038   8.617  63.320  1.00  0.00    -0.169 C  
HETATM   30  C   UNL     1      -8.222   7.382  62.422  1.00  0.00    -0.084 C  
HETATM   31  C   UNL     1      -8.814   9.742  62.592  1.00  0.00    -0.250 C  
ENDBRANCH   4  29
ENDBRANCH   2   4
TORSDOF 7
ENDMDL
MODEL      104
REMARK 921   NORMALIZED FREE ENERGY PREDICTED BY IDOCK:   -4.46 KCAL/MOL
REMARK 922        TOTAL FREE ENERGY PREDICTED BY IDOCK:   -7.69 KCAL/MOL
REMARK 923 INTER-LIGAND FREE ENERGY PREDICTED BY IDOCK:   -6.19 KCAL/MOL
REMARK 924 INTRA-LIGAND FREE ENERGY PREDICTED BY IDOCK:   -1.50 KCAL/MOL
REMARK 927      BINDING AFFINITY PREDICTED BY RF-SCORE:    0.00 PKD
ROOT
HETATM    1  C   UNL     1     -11.999  14.449  68.241  1.00  0.00    -0.323 C  
HETATM    2  C   UNL     1     -11.554  15.879  68.631  1.00  0.00    -0.380 C  
HETATM    3  C   UNL     1     -11.802  15.945  70.146  1.00  0.00    -0.327 C  
ENDROOT
BRANCH   2   4
HETATM    4  N   UNL     1     -10.167  16.227  68.165  1.00  0.00    -0.250 NA 
BRANCH   4   5
HETATM    5  C   UNL     1      -9.292  15.027  67.982  1.00  0.00    -0.185 C  
BRANCH   5   6
HETATM    6  C   UNL     1      -8.069  15.199  67.039  1.00  0.00    -0.240 C  
HETATM    7  C   UNL     1      -6.725  14.516  67.478  1.00  0.00    -0.141 C  
HETATM    8  C   UNL     1      -6.207  15.047  68.842  1.00  0.00    -0.089 A  
HETATM    9  C   UNL     1      -6.720  12.960  67.364  1.00  0.00    -0.131 A  
HETATM   10  C   UNL     1      -7.898  12.216  67.226  1.00  0.00    -0.176 A  
HETATM   11  C   UNL     1      -5.886  16.397  69.104  1.00  0.00    -0.142 A  
HETATM   12  C   UNL     1      -5.337  16.777  70.344  1.00  0.00    -0.215 A  
HETATM   13  C   UNL     1      -7.961  10.841  67.449  1.00  0.00    -0.112 A  
HETATM   14  C   UNL     1      -5.592  10.829  67.770  1.00  0.00    -0.043 A  
HETATM   15  C   UNL     1      -5.132  15.841  71.358  1.00  0.00    -0.107 A  
HETATM   16  C   UNL     1      -6.808  10.149  67.763  1.00  0.00    -0.075 A  
HETATM   17  C   UNL     1      -5.992  14.138  69.906  1.00  0.00    -0.133 A  
HETATM   18  C   UNL     1      -5.454  14.505  71.149  1.00  0.00    -0.162 A  
HETATM   19  C   UNL     1      -5.537  12.212  67.531  1.00  0.00    -0.114 A  
BRANCH  11  20
HETATM   20  O   UNL     1      -6.014  17.379  68.083  1.00  0.00    -0.149 OA 
BRANCH  20  21
HETATM   21  C   UNL     1      -6.800  18.526  68.310  1.00  0.00    -0.235 C  
HETATM   22  O   UNL     1      -7.743  18.612  69.088  1.00  0.00    -0.216 OA 
HETATM   23  C   UNL     1      -6.318  19.681  67.443  1.00  0.00    -0.210 C  
HETATM   24  C   UNL     1      -5.202  20.452  68.147  1.00  0.00    -0.233 C  
HETATM   25  C   UNL     1      -7.480  20.627  67.131  1.00  0.00    -0.381 C  
ENDBRANCH  20  21
ENDBRANCH  11  20
BRANCH  18  26
HETATM   26  C   UNL     1      -5.126  13.465  72.195  1.00  0.00    -0.133 C  
HETATM   27  O   UNL     1      -5.282  12.133  71.713  1.00  0.00    -0.346 OA 
HETATM   28  H   UNL     1      -5.075  11.479  72.371  1.00  0.00     0.000 HD 
ENDBRANCH  18  26
ENDBRANCH   5   6
ENDBRANCH   4   5
BRANCH   4  29
HETATM   29  C   UNL     1     -10.042  17.166  67.009  1.00  0.00    -0.297 C  
HETATM   30  C   UNL     1     -10.785  16.745  65.730  1.00  0.00    -0.185 C  
HETATM   31  C   UNL     1     -10.596  18.576  67.330  1.00  0.00    -0.463 C  
ENDBRANCH   4  29
ENDBRANCH   2   4
TORSDOF 7
ENDMDL
MODEL      105
REMARK 921   NORMALIZED FREE ENERGY PREDICTED BY IDOCK:   -4.44 KCAL/MOL
REMARK 922        TOTAL FREE ENERGY PREDICTED BY IDOCK:   -7.66 KCAL/MOL
REMARK 923 INTER-LIGAND FREE ENERGY PREDICTED BY IDOCK:   -5.62 KCAL/MOL
REMARK 924 INTRA-LIGAND FREE ENERGY PREDICTED BY IDOCK:   -2.04 KCAL/MOL
REMARK 927      BINDING AFFINITY PREDICTED BY RF-SCORE:    0.00 PKD
ROOT
HETATM    1  C   UNL     1     -10.431   5.542  73.113  1.00  0.00    -0.252 C  
HETATM    2  C   UNL     1      -9.793   6.317  71.934  1.00  0.00    -0.155 C  
HETATM    3  C   UNL     1      -9.035   5.235  71.148  1.00  0.00    -0.159 C  
ENDROOT
BRANCH   2   4
HETATM    4  N   UNL     1     -10.776   7.143  71.153  1.00  0.00    -0.231 NA 
BRANCH   4   5
HETATM    5  C   UNL     1     -11.262   6.462  69.912  1.00  0.00    -0.420 C  
BRANCH   5   6
HETATM    6  C   UNL     1     -11.376   7.342  68.638  1.00  0.00     0.315 C  
HETATM    7  C   UNL     1     -10.060   7.582  67.814  1.00  0.00    -0.235 C  
HETATM    8  C   UNL     1      -8.960   8.293  68.647  1.00  0.00    -0.137 A  
HETATM    9  C   UNL     1      -9.550   6.334  67.028  1.00  0.00    -0.162 A  
HETATM   10  C   UNL     1     -10.006   5.039  67.302  1.00  0.00    -0.220 A  
HETATM   11  C   UNL     1      -9.104   9.565  69.241  1.00  0.00    -0.161 A  
HETATM   12  C   UNL     1      -8.023  10.175  69.905  1.00  0.00    -0.149 A  
HETATM   13  C   UNL     1      -9.348   3.892  66.862  1.00  0.00    -0.208 A  
HETATM   14  C   UNL     1      -7.824   5.281  65.652  1.00  0.00    -0.100 A  
HETATM   15  C   UNL     1      -6.794   9.526  70.027  1.00  0.00    -0.075 A  
HETATM   16  C   UNL     1      -8.226   4.013  66.065  1.00  0.00    -0.105 A  
HETATM   17  C   UNL     1      -7.698   7.671  68.807  1.00  0.00    -0.118 A  
HETATM   18  C   UNL     1      -6.615   8.263  69.474  1.00  0.00    -0.038 A  
HETATM   19  C   UNL     1      -8.502   6.431  66.091  1.00  0.00    -0.140 A  
BRANCH  11  20
HETATM   20  O   UNL     1     -10.315  10.298  69.091  1.00  0.00    -0.196 OA 
BRANCH  20  21
HETATM   21  C   UNL     1     -10.352  11.421  68.241  1.00  0.00    -0.194 C  
HETATM   22  O   UNL     1      -9.827  12.507  68.456  1.00  0.00    -0.214 OA 
HETATM   23  C   UNL     1     -11.152  11.108  66.983  1.00  0.00    -0.339 C  
HETATM   24  C   UNL     1     -10.254  10.481  65.918  1.00  0.00    -0.311 C  
HETATM   25  C   UNL     1     -11.789  12.386  66.433  1.00  0.00    -0.421 C  
ENDBRANCH  20  21
ENDBRANCH  11  20
BRANCH  18  26
HETATM   26  C   UNL     1      -5.256   7.602  69.495  1.00  0.00    -0.019 C  
HETATM   27  O   UNL     1      -5.284   6.308  70.089  1.00  0.00    -0.012 OA 
HETATM   28  H   UNL     1      -4.430   5.892  70.102  1.00  0.00     0.000 HD 
ENDBRANCH  18  26
ENDBRANCH   5   6
ENDBRANCH   4   5
BRANCH   4  29
HETATM   29  C   UNL     1     -11.911   7.761  71.906  1.00  0.00    -0.301 C  
HETATM   30  C   UNL     1     -12.109   9.269  71.686  1.00  0.00    -0.451 C  
HETATM   31  C   UNL     1     -13.277   7.134  71.534  1.00  0.00    -0.419 C  
ENDBRANCH   4  29
ENDBRANCH   2   4
TORSDOF 7
ENDMDL
MODEL      106
REMARK 921   NORMALIZED FREE ENERGY PREDICTED BY IDOCK:   -4.43 KCAL/MOL
REMARK 922        TOTAL FREE ENERGY PREDICTED BY IDOCK:   -7.65 KCAL/MOL
REMARK 923 INTER-LIGAND FREE ENERGY PREDICTED BY IDOCK:   -6.39 KCAL/MOL
REMARK 924 INTRA-LIGAND FREE ENERGY PREDICTED BY IDOCK:   -1.26 KCAL/MOL
REMARK 927      BINDING AFFINITY PREDICTED BY RF-SCORE:    0.00 PKD
ROOT
HETATM    1  C   UNL     1      -7.774   5.077  64.895  1.00  0.00    -0.084 C  
HETATM    2  C   UNL     1      -9.276   5.303  65.191  1.00  0.00    -0.001 C  
HETATM    3  C   UNL     1      -9.940   3.984  64.764  1.00  0.00    -0.210 C  
ENDROOT
BRANCH   2   4
HETATM    4  N   UNL     1      -9.551   5.765  66.595  1.00  0.00    -0.147 NA 
BRANCH   4   5
HETATM    5  C   UNL     1     -10.159   7.131  66.656  1.00  0.00    -0.159 C  
BRANCH   5   6
HETATM    6  C   UNL     1      -9.176   8.331  66.586  1.00  0.00    -0.224 C  
HETATM    7  C   UNL     1      -8.913   9.120  67.918  1.00  0.00    -0.131 C  
HETATM    8  C   UNL     1     -10.208   9.746  68.502  1.00  0.00    -0.209 A  
HETATM    9  C   UNL     1      -8.055   8.349  68.969  1.00  0.00    -0.116 A  
HETATM   10  C   UNL     1      -7.837   6.969  68.890  1.00  0.00    -0.115 A  
HETATM   11  C   UNL     1     -11.017  10.685  67.826  1.00  0.00    -0.306 A  
HETATM   12  C   UNL     1     -12.127  11.270  68.466  1.00  0.00    -0.161 A  
HETATM   13  C   UNL     1      -7.366   6.210  69.961  1.00  0.00    -0.078 A  
HETATM   14  C   UNL     1      -7.103   8.226  71.218  1.00  0.00    -0.063 A  
HETATM   15  C   UNL     1     -12.478  10.913  69.768  1.00  0.00    -0.250 A  
HETATM   16  C   UNL     1      -7.036   6.836  71.147  1.00  0.00    -0.070 A  
HETATM   17  C   UNL     1     -10.613   9.408  69.817  1.00  0.00    -0.247 A  
HETATM   18  C   UNL     1     -11.720   9.977  70.463  1.00  0.00    -0.400 A  
HETATM   19  C   UNL     1      -7.566   8.983  70.129  1.00  0.00    -0.082 A  
BRANCH  11  20
HETATM   20  O   UNL     1     -10.666  11.133  66.523  1.00  0.00    -0.260 OA 
BRANCH  20  21
HETATM   21  C   UNL     1     -10.783  12.498  66.196  1.00  0.00    -0.261 C  
HETATM   22  O   UNL     1     -10.043  13.397  66.577  1.00  0.00    -0.267 OA 
HETATM   23  C   UNL     1     -11.981  12.725  65.283  1.00  0.00    -0.473 C  
HETATM   24  C   UNL     1     -11.584  12.531  63.820  1.00  0.00    -0.552 C  
HETATM   25  C   UNL     1     -12.537  14.136  65.484  1.00  0.00    -0.501 C  
ENDBRANCH  20  21
ENDBRANCH  11  20
BRANCH  18  26
HETATM   26  C   UNL     1     -12.020   9.671  71.912  1.00  0.00    -0.258 C  
HETATM   27  O   UNL     1     -11.258   8.577  72.412  1.00  0.00    -0.359 OA 
HETATM   28  H   UNL     1     -11.446   8.384  73.323  1.00  0.00     0.000 HD 
ENDBRANCH  18  26
ENDBRANCH   5   6
ENDBRANCH   4   5
BRANCH   4  29
HETATM   29  C   UNL     1     -10.265   4.818  67.506  1.00  0.00    -0.057 C  
HETATM   30  C   UNL     1      -9.404   3.686  68.090  1.00  0.00    -0.236 C  
HETATM   31  C   UNL     1     -10.861   5.529  68.747  1.00  0.00    -0.110 C  
ENDBRANCH   4  29
ENDBRANCH   2   4
TORSDOF 7
ENDMDL
MODEL      107
REMARK 921   NORMALIZED FREE ENERGY PREDICTED BY IDOCK:   -4.41 KCAL/MOL
REMARK 922        TOTAL FREE ENERGY PREDICTED BY IDOCK:   -7.63 KCAL/MOL
REMARK 923 INTER-LIGAND FREE ENERGY PREDICTED BY IDOCK:   -5.96 KCAL/MOL
REMARK 924 INTRA-LIGAND FREE ENERGY PREDICTED BY IDOCK:   -1.67 KCAL/MOL
REMARK 927      BINDING AFFINITY PREDICTED BY RF-SCORE:    0.00 PKD
ROOT
HETATM    1  C   UNL     1     -10.872   6.517  66.646  1.00  0.00    -0.222 C  
HETATM    2  C   UNL     1     -10.530   5.029  66.898  1.00  0.00    -0.186 C  
HETATM    3  C   UNL     1     -10.241   4.473  65.494  1.00  0.00    -0.251 C  
ENDROOT
BRANCH   2   4
HETATM    4  N   UNL     1      -9.457   4.823  67.931  1.00  0.00    -0.137 NA 
BRANCH   4   5
HETATM    5  C   UNL     1      -9.529   5.807  69.056  1.00  0.00    -0.124 C  
BRANCH   5   6
HETATM    6  C   UNL     1      -8.379   6.847  69.141  1.00  0.00    -0.125 C  
HETATM    7  C   UNL     1      -8.531   7.998  70.199  1.00  0.00    -0.128 C  
HETATM    8  C   UNL     1      -9.790   8.871  69.950  1.00  0.00    -0.190 A  
HETATM    9  C   UNL     1      -8.363   7.542  71.682  1.00  0.00    -0.114 A  
HETATM   10  C   UNL     1      -8.423   6.196  72.063  1.00  0.00    -0.121 A  
HETATM   11  C   UNL     1     -10.034   9.601  68.767  1.00  0.00    -0.173 A  
HETATM   12  C   UNL     1     -11.161  10.439  68.659  1.00  0.00    -0.313 A  
HETATM   13  C   UNL     1      -8.605   5.786  73.383  1.00  0.00    -0.117 A  
HETATM   14  C   UNL     1      -8.471   8.072  74.067  1.00  0.00    -0.312 A  
HETATM   15  C   UNL     1     -12.084  10.542  69.700  1.00  0.00    -0.241 A  
HETATM   16  C   UNL     1      -8.671   6.732  74.387  1.00  0.00    -0.195 A  
HETATM   17  C   UNL     1     -10.761   9.000  70.972  1.00  0.00    -0.339 A  
HETATM   18  C   UNL     1     -11.892   9.824  70.876  1.00  0.00    -0.420 A  
HETATM   19  C   UNL     1      -8.276   8.475  72.735  1.00  0.00    -0.119 A  
BRANCH  11  20
HETATM   20  O   UNL     1      -9.092   9.583  67.701  1.00  0.00    -0.122 OA 
BRANCH  20  21
HETATM   21  C   UNL     1      -7.838  10.204  67.865  1.00  0.00    -0.101 C  
HETATM   22  O   UNL     1      -6.757   9.751  67.507  1.00  0.00    -0.069 OA 
HETATM   23  C   UNL     1      -7.997  11.548  68.563  1.00  0.00    -0.143 C  
HETATM   24  C   UNL     1      -8.277  12.652  67.544  1.00  0.00    -0.178 C  
HETATM   25  C   UNL     1      -6.730  11.884  69.353  1.00  0.00    -0.081 C  
ENDBRANCH  20  21
ENDBRANCH  11  20
BRANCH  18  26
HETATM   26  C   UNL     1     -12.819  10.018  72.053  1.00  0.00    -0.389 C  
HETATM   27  O   UNL     1     -13.404  11.317  72.083  1.00  0.00    -0.589 OA 
HETATM   28  H   UNL     1     -13.987  11.439  72.823  1.00  0.00     0.000 HD 
ENDBRANCH  18  26
ENDBRANCH   5   6
ENDBRANCH   4   5
BRANCH   4  29
HETATM   29  C   UNL     1      -9.251   3.434  68.444  1.00  0.00    -0.173 C  
HETATM   30  C   UNL     1      -7.865   2.825  68.170  1.00  0.00    -0.055 C  
HETATM   31  C   UNL     1      -9.415   3.342  69.981  1.00  0.00    -0.231 C  
ENDBRANCH   4  29
ENDBRANCH   2   4
TORSDOF 7
ENDMDL
MODEL      108
REMARK 921   NORMALIZED FREE ENERGY PREDICTED BY IDOCK:   -4.38 KCAL/MOL
REMARK 922        TOTAL FREE ENERGY PREDICTED BY IDOCK:   -7.58 KCAL/MOL
REMARK 923 INTER-LIGAND FREE ENERGY PREDICTED BY IDOCK:   -6.53 KCAL/MOL
REMARK 924 INTRA-LIGAND FREE ENERGY PREDICTED BY IDOCK:   -1.06 KCAL/MOL
REMARK 927      BINDING AFFINITY PREDICTED BY RF-SCORE:    0.00 PKD
ROOT
HETATM    1  C   UNL     1      -5.506  10.064  67.328  1.00  0.00    -0.042 C  
HETATM    2  C   UNL     1      -6.791   9.232  67.555  1.00  0.00    -0.077 C  
HETATM    3  C   UNL     1      -6.676   8.762  69.014  1.00  0.00    -0.052 C  
ENDROOT
BRANCH   2   4
HETATM    4  N   UNL     1      -8.054   9.960  67.187  1.00  0.00    -0.116 NA 
BRANCH   4   5
HETATM    5  C   UNL     1      -7.811  11.367  66.737  1.00  0.00    -0.157 C  
BRANCH   5   6
HETATM    6  C   UNL     1      -7.847  12.462  67.837  1.00  0.00    -0.145 C  
HETATM    7  C   UNL     1      -9.244  13.098  68.169  1.00  0.00    -0.215 C  
HETATM    8  C   UNL     1      -9.884  13.799  66.940  1.00  0.00    -0.264 A  
HETATM    9  C   UNL     1     -10.221  12.154  68.937  1.00  0.00    -0.057 A  
HETATM   10  C   UNL     1     -10.018  10.771  69.014  1.00  0.00    -0.214 A  
HETATM   11  C   UNL     1      -9.296  14.871  66.236  1.00  0.00    -0.296 A  
HETATM   12  C   UNL     1      -9.986  15.507  65.186  1.00  0.00    -0.184 A  
HETATM   13  C   UNL     1     -11.016   9.876  69.397  1.00  0.00    -0.263 A  
HETATM   14  C   UNL     1     -12.449  11.735  69.854  1.00  0.00    -0.086 A  
HETATM   15  C   UNL     1     -11.252  15.073  64.790  1.00  0.00    -0.393 A  
HETATM   16  C   UNL     1     -12.253  10.357  69.780  1.00  0.00    -0.166 A  
HETATM   17  C   UNL     1     -11.163  13.388  66.493  1.00  0.00    -0.327 A  
HETATM   18  C   UNL     1     -11.859  14.007  65.444  1.00  0.00    -0.363 A  
HETATM   19  C   UNL     1     -11.432  12.629  69.478  1.00  0.00    -0.294 A  
BRANCH  11  20
HETATM   20  O   UNL     1      -8.037  15.395  66.641  1.00  0.00    -0.225 OA 
BRANCH  20  21
HETATM   21  C   UNL     1      -7.942  16.731  67.078  1.00  0.00    -0.197 C  
HETATM   22  O   UNL     1      -8.516  17.215  68.047  1.00  0.00    -0.208 OA 
HETATM   23  C   UNL     1      -7.010  17.523  66.171  1.00  0.00    -0.323 C  
HETATM   24  C   UNL     1      -5.562  17.392  66.642  1.00  0.00    -0.227 C  
HETATM   25  C   UNL     1      -7.416  18.999  66.158  1.00  0.00    -0.293 C  
ENDBRANCH  20  21
ENDBRANCH  11  20
BRANCH  18  26
HETATM   26  C   UNL     1     -13.276  13.605  65.103  1.00  0.00     0.141 C  
HETATM   27  O   UNL     1     -13.348  12.333  64.468  1.00  0.00    -0.769 OA 
HETATM   28  H   UNL     1     -14.238  12.080  64.253  1.00  0.00     0.000 HD 
ENDBRANCH  18  26
ENDBRANCH   5   6
ENDBRANCH   4   5
BRANCH   4  29
HETATM   29  C   UNL     1      -9.012   9.263  66.275  1.00  0.00    -0.159 C  
HETATM   30  C   UNL     1      -9.797  10.174  65.317  1.00  0.00    -0.388 C  
HETATM   31  C   UNL     1      -8.308   8.243  65.346  1.00  0.00    -0.170 C  
ENDBRANCH   4  29
ENDBRANCH   2   4
TORSDOF 7
ENDMDL
MODEL      109
REMARK 921   NORMALIZED FREE ENERGY PREDICTED BY IDOCK:   -4.32 KCAL/MOL
REMARK 922        TOTAL FREE ENERGY PREDICTED BY IDOCK:   -7.49 KCAL/MOL
REMARK 923 INTER-LIGAND FREE ENERGY PREDICTED BY IDOCK:   -5.15 KCAL/MOL
REMARK 924 INTRA-LIGAND FREE ENERGY PREDICTED BY IDOCK:   -2.34 KCAL/MOL
REMARK 927      BINDING AFFINITY PREDICTED BY RF-SCORE:    0.00 PKD
ROOT
HETATM    1  C   UNL     1      -6.722   6.943  70.031  1.00  0.00    -0.052 C  
HETATM    2  C   UNL     1      -6.409   6.449  68.598  1.00  0.00    -0.038 C  
HETATM    3  C   UNL     1      -6.232   4.930  68.760  1.00  0.00    -0.031 C  
ENDROOT
BRANCH   2   4
HETATM    4  N   UNL     1      -7.412   6.898  67.572  1.00  0.00    -0.095 NA 
BRANCH   4   5
HETATM    5  C   UNL     1      -8.622   7.539  68.176  1.00  0.00    -0.123 C  
BRANCH   5   6
HETATM    6  C   UNL     1      -9.996   6.919  67.801  1.00  0.00    -0.180 C  
HETATM    7  C   UNL     1     -10.830   6.272  68.963  1.00  0.00    -0.400 C  
HETATM    8  C   UNL     1     -10.081   5.099  69.650  1.00  0.00    -0.332 A  
HETATM    9  C   UNL     1     -11.453   7.295  69.963  1.00  0.00    -0.142 A  
HETATM   10  C   UNL     1     -11.027   8.627  70.033  1.00  0.00    -0.208 A  
HETATM   11  C   UNL     1      -9.647   3.930  68.988  1.00  0.00    -0.138 A  
HETATM   12  C   UNL     1      -9.053   2.875  69.707  1.00  0.00    -0.196 A  
HETATM   13  C   UNL     1     -11.318   9.463  71.110  1.00  0.00    -0.422 A  
HETATM   14  C   UNL     1     -12.674   7.726  72.037  1.00  0.00    -0.285 A  
HETATM   15  C   UNL     1      -8.841   2.971  71.083  1.00  0.00    -0.141 A  
HETATM   16  C   UNL     1     -12.113   8.997  72.139  1.00  0.00    -0.412 A  
HETATM   17  C   UNL     1      -9.833   5.153  71.044  1.00  0.00    -0.261 A  
HETATM   18  C   UNL     1      -9.235   4.113  71.771  1.00  0.00    -0.181 A  
HETATM   19  C   UNL     1     -12.386   6.896  70.942  1.00  0.00    -0.365 A  
BRANCH  11  20
HETATM   20  O   UNL     1      -9.897   3.754  67.599  1.00  0.00    -0.134 OA 
BRANCH  20  21
HETATM   21  C   UNL     1      -8.931   3.127  66.787  1.00  0.00    -0.158 C  
HETATM   22  O   UNL     1      -8.582   1.954  66.857  1.00  0.00    -0.093 OA 
HETATM   23  C   UNL     1      -8.357   4.117  65.783  1.00  0.00    -0.109 C  
HETATM   24  C   UNL     1      -9.216   4.160  64.520  1.00  0.00    -0.151 C  
HETATM   25  C   UNL     1      -6.924   3.725  65.417  1.00  0.00    -0.061 C  
ENDBRANCH  20  21
ENDBRANCH  11  20
BRANCH  18  26
HETATM   26  C   UNL     1      -9.120   4.179  73.276  1.00  0.00    -0.106 C  
HETATM   27  O   UNL     1      -8.930   5.507  73.755  1.00  0.00    -0.124 OA 
HETATM   28  H   UNL     1      -8.858   5.549  74.701  1.00  0.00     0.000 HD 
ENDBRANCH  18  26
ENDBRANCH   5   6
ENDBRANCH   4   5
BRANCH   4  29
HETATM   29  C   UNL     1      -6.905   7.692  66.412  1.00  0.00    -0.062 C  
HETATM   30  C   UNL     1      -5.533   7.266  65.866  1.00  0.00    -0.028 C  
HETATM   31  C   UNL     1      -7.849   7.615  65.186  1.00  0.00    -0.124 C  
ENDBRANCH   4  29
ENDBRANCH   2   4
TORSDOF 7
ENDMDL
MODEL      110
REMARK 921   NORMALIZED FREE ENERGY PREDICTED BY IDOCK:   -4.29 KCAL/MOL
REMARK 922        TOTAL FREE ENERGY PREDICTED BY IDOCK:   -7.45 KCAL/MOL
REMARK 923 INTER-LIGAND FREE ENERGY PREDICTED BY IDOCK:   -5.60 KCAL/MOL
REMARK 924 INTRA-LIGAND FREE ENERGY PREDICTED BY IDOCK:   -1.85 KCAL/MOL
REMARK 927      BINDING AFFINITY PREDICTED BY RF-SCORE:    0.00 PKD
ROOT
HETATM    1  C   UNL     1      -9.714   8.825  71.092  1.00  0.00    -0.315 C  
HETATM    2  C   UNL     1      -9.454   9.034  69.581  1.00  0.00    -0.171 C  
HETATM    3  C   UNL     1     -10.505  10.076  69.165  1.00  0.00    -0.238 C  
ENDROOT
BRANCH   2   4
HETATM    4  N   UNL     1      -8.024   9.363  69.254  1.00  0.00    -0.088 NA 
BRANCH   4   5
HETATM    5  C   UNL     1      -7.770  10.833  69.143  1.00  0.00    -0.138 C  
BRANCH   5   6
HETATM    6  C   UNL     1      -6.946  11.304  67.914  1.00  0.00    -0.073 C  
HETATM    7  C   UNL     1      -7.514  12.517  67.093  1.00  0.00    -0.077 C  
HETATM    8  C   UNL     1      -8.918  12.226  66.498  1.00  0.00    -0.161 A  
HETATM    9  C   UNL     1      -7.408  13.895  67.817  1.00  0.00    -0.170 A  
HETATM   10  C   UNL     1      -7.162  14.002  69.191  1.00  0.00    -0.059 A  
HETATM   11  C   UNL     1      -9.203  11.176  65.599  1.00  0.00    -0.218 A  
HETATM   12  C   UNL     1     -10.488  11.039  65.039  1.00  0.00    -0.344 A  
HETATM   13  C   UNL     1      -7.384  15.173  69.915  1.00  0.00    -0.068 A  
HETATM   14  C   UNL     1      -7.928  16.284  67.869  1.00  0.00    -0.153 A  
HETATM   15  C   UNL     1     -11.521  11.910  65.384  1.00  0.00    -0.310 A  
HETATM   16  C   UNL     1      -7.809  16.311  69.257  1.00  0.00    -0.179 A  
HETATM   17  C   UNL     1     -10.002  13.076  66.826  1.00  0.00    -0.245 A  
HETATM   18  C   UNL     1     -11.288  12.946  66.282  1.00  0.00    -0.364 A  
HETATM   19  C   UNL     1      -7.689  15.103  67.147  1.00  0.00    -0.223 A  
BRANCH  11  20
HETATM   20  O   UNL     1      -8.171  10.300  65.163  1.00  0.00    -0.153 OA 
BRANCH  20  21
HETATM   21  C   UNL     1      -8.236   8.929  65.480  1.00  0.00    -0.129 C  
HETATM   22  O   UNL     1      -9.072   8.393  66.198  1.00  0.00    -0.168 OA 
HETATM   23  C   UNL     1      -7.103   8.172  64.799  1.00  0.00    -0.079 C  
HETATM   24  C   UNL     1      -7.514   7.744  63.391  1.00  0.00    -0.115 C  
HETATM   25  C   UNL     1      -6.724   6.939  65.623  1.00  0.00    -0.052 C  
ENDBRANCH  20  21
ENDBRANCH  11  20
BRANCH  18  26
HETATM   26  C   UNL     1     -12.366  13.966  66.572  1.00  0.00    -0.404 C  
HETATM   27  O   UNL     1     -13.210  14.206  65.451  1.00  0.00    -0.741 OA 
HETATM   28  H   UNL     1     -13.887  14.847  65.633  1.00  0.00     0.000 HD 
ENDBRANCH  18  26
ENDBRANCH   5   6
ENDBRANCH   4   5
BRANCH   4  29
HETATM   29  C   UNL     1      -6.960   8.693  70.063  1.00  0.00    -0.043 C  
HETATM   30  C   UNL     1      -5.986   7.804  69.270  1.00  0.00    -0.034 C  
HETATM   31  C   UNL     1      -6.047   9.708  70.794  1.00  0.00    -0.086 C  
ENDBRANCH   4  29
ENDBRANCH   2   4
TORSDOF 7
ENDMDL
MODEL      111
REMARK 921   NORMALIZED FREE ENERGY PREDICTED BY IDOCK:   -4.27 KCAL/MOL
REMARK 922        TOTAL FREE ENERGY PREDICTED BY IDOCK:   -7.43 KCAL/MOL
REMARK 923 INTER-LIGAND FREE ENERGY PREDICTED BY IDOCK:   -6.73 KCAL/MOL
REMARK 924 INTRA-LIGAND FREE ENERGY PREDICTED BY IDOCK:   -0.70 KCAL/MOL
REMARK 927      BINDING AFFINITY PREDICTED BY RF-SCORE:    0.00 PKD
ROOT
HETATM    1  C   UNL     1     -12.394  13.627  70.534  1.00  0.00    -0.425 C  
HETATM    2  C   UNL     1     -11.951  13.734  69.054  1.00  0.00    -0.360 C  
HETATM    3  C   UNL     1     -11.770  15.244  68.830  1.00  0.00    -0.374 C  
ENDROOT
BRANCH   2   4
HETATM    4  N   UNL     1     -10.775  12.862  68.713  1.00  0.00    -0.242 NA 
BRANCH   4   5
HETATM    5  C   UNL     1      -9.493  13.343  69.317  1.00  0.00     0.720 C  
BRANCH   5   6
HETATM    6  C   UNL     1      -8.221  13.221  68.434  1.00  0.00    -0.134 C  
HETATM    7  C   UNL     1      -8.208  14.023  67.084  1.00  0.00    -0.146 C  
HETATM    8  C   UNL     1      -9.354  13.595  66.128  1.00  0.00    -0.093 A  
HETATM    9  C   UNL     1      -8.066  15.568  67.248  1.00  0.00    -0.226 A  
HETATM   10  C   UNL     1      -8.285  16.214  68.471  1.00  0.00    -0.186 A  
HETATM   11  C   UNL     1      -9.531  12.287  65.627  1.00  0.00    -0.068 A  
HETATM   12  C   UNL     1     -10.547  12.007  64.693  1.00  0.00    -0.351 A  
HETATM   13  C   UNL     1      -8.488  17.588  68.580  1.00  0.00    -0.258 A  
HETATM   14  C   UNL     1      -8.058  17.795  66.237  1.00  0.00    -0.269 A  
HETATM   15  C   UNL     1     -11.428  13.001  64.267  1.00  0.00    -0.428 A  
HETATM   16  C   UNL     1      -8.415  18.380  67.450  1.00  0.00    -0.257 A  
HETATM   17  C   UNL     1     -10.280  14.566  65.675  1.00  0.00    -0.379 A  
HETATM   18  C   UNL     1     -11.302  14.298  64.752  1.00  0.00    -0.382 A  
HETATM   19  C   UNL     1      -7.842  16.410  66.140  1.00  0.00    -0.057 A  
BRANCH  11  20
HETATM   20  O   UNL     1      -8.621  11.252  65.978  1.00  0.00    -0.175 OA 
BRANCH  20  21
HETATM   21  C   UNL     1      -7.851  10.627  64.976  1.00  0.00     0.017 C  
HETATM   22  O   UNL     1      -7.979  10.781  63.767  1.00  0.00     0.011 OA 
HETATM   23  C   UNL     1      -6.809   9.709  65.602  1.00  0.00    -0.091 C  
HETATM   24  C   UNL     1      -5.535  10.488  65.929  1.00  0.00    -0.101 C  
HETATM   25  C   UNL     1      -6.480   8.559  64.648  1.00  0.00    -0.066 C  
ENDBRANCH  20  21
ENDBRANCH  11  20
BRANCH  18  26
HETATM   26  C   UNL     1     -12.173  15.407  64.209  1.00  0.00    -0.126 C  
HETATM   27  O   UNL     1     -11.436  16.588  63.909  1.00  0.00    -1.608 OA 
HETATM   28  H   UNL     1     -11.984  17.285  63.568  1.00  0.00     0.000 HD 
ENDBRANCH  18  26
ENDBRANCH   5   6
ENDBRANCH   4   5
BRANCH   4  29
HETATM   29  C   UNL     1     -10.933  11.386  68.893  1.00  0.00    -0.226 C  
HETATM   30  C   UNL     1     -11.380  10.611  67.642  1.00  0.00    -0.284 C  
HETATM   31  C   UNL     1      -9.613  10.699  69.322  1.00  0.00    -0.164 C  
ENDBRANCH   4  29
ENDBRANCH   2   4
TORSDOF 7
ENDMDL
MODEL      112
REMARK 921   NORMALIZED FREE ENERGY PREDICTED BY IDOCK:   -4.27 KCAL/MOL
REMARK 922        TOTAL FREE ENERGY PREDICTED BY IDOCK:   -7.43 KCAL/MOL
REMARK 923 INTER-LIGAND FREE ENERGY PREDICTED BY IDOCK:   -5.32 KCAL/MOL
REMARK 924 INTRA-LIGAND FREE ENERGY PREDICTED BY IDOCK:   -2.11 KCAL/MOL
REMARK 927      BINDING AFFINITY PREDICTED BY RF-SCORE:    0.00 PKD
ROOT
HETATM    1  C   UNL     1      -6.965  11.157  66.556  1.00  0.00    -0.126 C  
HETATM    2  C   UNL     1      -6.863  10.404  65.208  1.00  0.00    -0.102 C  
HETATM    3  C   UNL     1      -5.764   9.357  65.450  1.00  0.00    -0.057 C  
ENDROOT
BRANCH   2   4
HETATM    4  N   UNL     1      -8.181   9.884  64.706  1.00  0.00    -0.143 NA 
BRANCH   4   5
HETATM    5  C   UNL     1      -9.300  10.083  65.680  1.00  0.00    -0.204 C  
BRANCH   5   6
HETATM    6  C   UNL     1     -10.012   8.800  66.190  1.00  0.00    -0.244 C  
HETATM    7  C   UNL     1      -9.956   8.515  67.733  1.00  0.00    -0.241 C  
HETATM    8  C   UNL     1      -8.503   8.352  68.254  1.00  0.00    -0.135 A  
HETATM    9  C   UNL     1     -10.835   9.467  68.602  1.00  0.00    -0.177 A  
HETATM   10  C   UNL     1     -11.344  10.674  68.107  1.00  0.00    -0.354 A  
HETATM   11  C   UNL     1      -7.594   7.373  67.797  1.00  0.00    -0.107 A  
HETATM   12  C   UNL     1      -6.323   7.240  68.388  1.00  0.00    -0.036 A  
HETATM   13  C   UNL     1     -11.842  11.684  68.929  1.00  0.00    -0.392 A  
HETATM   14  C   UNL     1     -11.537  10.243  70.812  1.00  0.00    -0.446 A  
HETATM   15  C   UNL     1      -5.912   8.093  69.413  1.00  0.00    -0.037 A  
HETATM   16  C   UNL     1     -11.901  11.484  70.294  1.00  0.00    -0.431 A  
HETATM   17  C   UNL     1      -8.034   9.201  69.287  1.00  0.00    -0.097 A  
HETATM   18  C   UNL     1      -6.768   9.085  69.879  1.00  0.00    -0.046 A  
HETATM   19  C   UNL     1     -11.049   9.226  69.974  1.00  0.00    -0.228 A  
BRANCH  11  20
HETATM   20  O   UNL     1      -7.986   6.436  66.801  1.00  0.00    -0.106 OA 
BRANCH  20  21
HETATM   21  C   UNL     1      -7.060   6.027  65.821  1.00  0.00    -0.073 C  
HETATM   22  O   UNL     1      -5.958   5.535  66.030  1.00  0.00    -0.021 OA 
HETATM   23  C   UNL     1      -7.616   6.282  64.426  1.00  0.00    -0.100 C  
HETATM   24  C   UNL     1      -8.455   5.095  63.957  1.00  0.00    -0.123 C  
HETATM   25  C   UNL     1      -6.472   6.526  63.440  1.00  0.00    -0.037 C  
ENDBRANCH  20  21
ENDBRANCH  11  20
BRANCH  18  26
HETATM   26  C   UNL     1      -6.380   9.937  71.065  1.00  0.00    -0.005 C  
HETATM   27  O   UNL     1      -6.216  11.310  70.726  1.00  0.00    -0.427 OA 
HETATM   28  H   UNL     1      -5.972  11.845  71.472  1.00  0.00     0.000 HD 
ENDBRANCH  18  26
ENDBRANCH   5   6
ENDBRANCH   4   5
BRANCH   4  29
HETATM   29  C   UNL     1      -8.597  10.274  63.324  1.00  0.00    -0.194 C  
HETATM   30  C   UNL     1      -8.823   9.108  62.347  1.00  0.00    -0.212 C  
HETATM   31  C   UNL     1      -9.934  11.055  63.307  1.00  0.00    -0.414 C  
ENDBRANCH   4  29
ENDBRANCH   2   4
TORSDOF 7
ENDMDL
MODEL      113
REMARK 921   NORMALIZED FREE ENERGY PREDICTED BY IDOCK:   -4.26 KCAL/MOL
REMARK 922        TOTAL FREE ENERGY PREDICTED BY IDOCK:   -7.41 KCAL/MOL
REMARK 923 INTER-LIGAND FREE ENERGY PREDICTED BY IDOCK:   -5.44 KCAL/MOL
REMARK 924 INTRA-LIGAND FREE ENERGY PREDICTED BY IDOCK:   -1.96 KCAL/MOL
REMARK 927      BINDING AFFINITY PREDICTED BY RF-SCORE:    0.00 PKD
ROOT
HETATM    1  C   UNL     1     -10.206   8.895  71.565  1.00  0.00    -0.398 C  
HETATM    2  C   UNL     1     -10.758   8.798  70.121  1.00  0.00    -0.224 C  
HETATM    3  C   UNL     1     -11.648  10.043  69.981  1.00  0.00    -0.279 C  
ENDROOT
BRANCH   2   4
HETATM    4  N   UNL     1      -9.689   8.621  69.079  1.00  0.00    -0.170 NA 
BRANCH   4   5
HETATM    5  C   UNL     1      -8.359   9.161  69.503  1.00  0.00    -0.126 C  
BRANCH   5   6
HETATM    6  C   UNL     1      -7.207   9.058  68.466  1.00  0.00    -0.073 C  
HETATM    7  C   UNL     1      -6.992  10.286  67.511  1.00  0.00    -0.085 C  
HETATM    8  C   UNL     1      -8.239  10.584  66.637  1.00  0.00    -0.129 A  
HETATM    9  C   UNL     1      -6.391  11.549  68.203  1.00  0.00    -0.046 A  
HETATM   10  C   UNL     1      -6.373  11.702  69.595  1.00  0.00    -0.133 A  
HETATM   11  C   UNL     1      -8.813   9.671  65.725  1.00  0.00    -0.157 A  
HETATM   12  C   UNL     1      -9.892  10.055  64.906  1.00  0.00    -0.352 A  
HETATM   13  C   UNL     1      -6.153  12.927  70.223  1.00  0.00    -0.068 A  
HETATM   14  C   UNL     1      -5.745  13.904  68.079  1.00  0.00    -0.131 A  
HETATM   15  C   UNL     1     -10.447  11.332  64.998  1.00  0.00    -0.359 A  
HETATM   16  C   UNL     1      -5.878  14.045  69.459  1.00  0.00    -0.097 A  
HETATM   17  C   UNL     1      -8.845  11.862  66.701  1.00  0.00    -0.191 A  
HETATM   18  C   UNL     1      -9.925  12.255  65.897  1.00  0.00    -0.272 A  
HETATM   19  C   UNL     1      -5.956  12.663  67.457  1.00  0.00    -0.151 A  
BRANCH  11  20
HETATM   20  O   UNL     1      -8.244   8.379  65.545  1.00  0.00    -0.123 OA 
BRANCH  20  21
HETATM   21  C   UNL     1      -7.568   8.073  64.348  1.00  0.00    -0.116 C  
HETATM   22  O   UNL     1      -8.091   7.787  63.276  1.00  0.00    -0.139 OA 
HETATM   23  C   UNL     1      -6.061   8.141  64.556  1.00  0.00    -0.056 C  
HETATM   24  C   UNL     1      -5.553   9.566  64.338  1.00  0.00    -0.071 C  
HETATM   25  C   UNL     1      -5.352   7.188  63.590  1.00  0.00    -0.033 C  
ENDBRANCH  20  21
ENDBRANCH  11  20
BRANCH  18  26
HETATM   26  C   UNL     1     -10.440  13.676  65.921  1.00  0.00    -0.296 C  
HETATM   27  O   UNL     1     -10.154  14.384  64.719  1.00  0.00    -0.499 OA 
HETATM   28  H   UNL     1     -10.477  15.278  64.734  1.00  0.00     0.000 HD 
ENDBRANCH  18  26
ENDBRANCH   5   6
ENDBRANCH   4   5
BRANCH   4  29
HETATM   29  C   UNL     1      -9.547   7.268  68.459  1.00  0.00    -0.140 C  
HETATM   30  C   UNL     1      -9.538   6.086  69.443  1.00  0.00    -0.161 C  
HETATM   31  C   UNL     1     -10.701   6.943  67.478  1.00  0.00    -0.368 C  
ENDBRANCH   4  29
ENDBRANCH   2   4
TORSDOF 7
ENDMDL
MODEL      114
REMARK 921   NORMALIZED FREE ENERGY PREDICTED BY IDOCK:   -4.26 KCAL/MOL
REMARK 922        TOTAL FREE ENERGY PREDICTED BY IDOCK:   -7.41 KCAL/MOL
REMARK 923 INTER-LIGAND FREE ENERGY PREDICTED BY IDOCK:   -7.55 KCAL/MOL
REMARK 924 INTRA-LIGAND FREE ENERGY PREDICTED BY IDOCK:    0.14 KCAL/MOL
REMARK 927      BINDING AFFINITY PREDICTED BY RF-SCORE:    0.00 PKD
ROOT
HETATM    1  C   UNL     1     -12.701  11.847  63.179  1.00  0.00    -0.268 C  
HETATM    2  C   UNL     1     -11.729  12.000  64.374  1.00  0.00    -0.320 C  
HETATM    3  C   UNL     1     -10.374  12.300  63.714  1.00  0.00    -0.464 C  
ENDROOT
BRANCH   2   4
HETATM    4  N   UNL     1     -12.198  12.982  65.411  1.00  0.00    -0.446 NA 
BRANCH   4   5
HETATM    5  C   UNL     1     -12.147  12.436  66.803  1.00  0.00    -0.048 C  
BRANCH   5   6
HETATM    6  C   UNL     1     -10.810  12.620  67.571  1.00  0.00    -0.267 C  
HETATM    7  C   UNL     1     -10.525  11.634  68.760  1.00  0.00    -0.226 C  
HETATM    8  C   UNL     1     -11.598  11.724  69.877  1.00  0.00    -0.351 A  
HETATM    9  C   UNL     1     -10.187  10.174  68.324  1.00  0.00    -0.192 A  
HETATM   10  C   UNL     1     -10.456   9.697  67.035  1.00  0.00    -0.302 A  
HETATM   11  C   UNL     1     -11.897  12.895  70.606  1.00  0.00     0.045 A  
HETATM   12  C   UNL     1     -12.825  12.866  71.665  1.00  0.00    -0.368 A  
HETATM   13  C   UNL     1     -10.476   8.340  66.715  1.00  0.00    -0.313 A  
HETATM   14  C   UNL     1      -9.747   7.849  68.938  1.00  0.00    -0.158 A  
HETATM   15  C   UNL     1     -13.501  11.691  71.997  1.00  0.00    -0.304 A  
HETATM   16  C   UNL     1     -10.159   7.407  67.683  1.00  0.00    -0.240 A  
HETATM   17  C   UNL     1     -12.319  10.561  70.245  1.00  0.00    -0.377 A  
HETATM   18  C   UNL     1     -13.252  10.520  71.291  1.00  0.00    -0.399 A  
HETATM   19  C   UNL     1      -9.718   9.219  69.248  1.00  0.00    -0.169 A  
BRANCH  11  20
HETATM   20  O   UNL     1     -11.189  14.102  70.352  1.00  0.00    -0.070 OA 
BRANCH  20  21
HETATM   21  C   UNL     1     -11.833  15.165  69.687  1.00  0.00    -0.334 C  
HETATM   22  O   UNL     1     -13.044  15.335  69.602  1.00  0.00     0.207 OA 
HETATM   23  C   UNL     1     -10.807  16.104  69.067  1.00  0.00    -0.299 C  
HETATM   24  C   UNL     1     -10.366  17.161  70.078  1.00  0.00     0.365 C  
HETATM   25  C   UNL     1     -11.397  16.787  67.831  1.00  0.00     0.058 C  
ENDBRANCH  20  21
ENDBRANCH  11  20
BRANCH  18  26
HETATM   26  C   UNL     1     -13.888   9.217  71.718  1.00  0.00    -0.325 C  
HETATM   27  O   UNL     1     -13.899   9.049  73.132  1.00  0.00    -1.096 OA 
HETATM   28  H   UNL     1     -14.299   8.230  73.401  1.00  0.00     0.000 HD 
ENDBRANCH  18  26
ENDBRANCH   5   6
ENDBRANCH   4   5
BRANCH   4  29
HETATM   29  C   UNL     1     -11.636  14.366  65.356  1.00  0.00    -0.347 C  
HETATM   30  C   UNL     1     -10.109  14.454  65.197  1.00  0.00    -0.359 C  
HETATM   31  C   UNL     1     -12.195  15.184  64.165  1.00  0.00    -0.182 C  
ENDBRANCH   4  29
ENDBRANCH   2   4
TORSDOF 7
ENDMDL
MODEL      115
REMARK 921   NORMALIZED FREE ENERGY PREDICTED BY IDOCK:   -4.25 KCAL/MOL
REMARK 922        TOTAL FREE ENERGY PREDICTED BY IDOCK:   -7.39 KCAL/MOL
REMARK 923 INTER-LIGAND FREE ENERGY PREDICTED BY IDOCK:   -5.78 KCAL/MOL
REMARK 924 INTRA-LIGAND FREE ENERGY PREDICTED BY IDOCK:   -1.61 KCAL/MOL
REMARK 927      BINDING AFFINITY PREDICTED BY RF-SCORE:    0.00 PKD
ROOT
HETATM    1  C   UNL     1      -5.349   9.168  72.782  1.00  0.00    -0.080 C  
HETATM    2  C   UNL     1      -6.208   7.972  73.258  1.00  0.00    -0.075 C  
HETATM    3  C   UNL     1      -6.963   8.521  74.479  1.00  0.00    -0.209 C  
ENDROOT
BRANCH   2   4
HETATM    4  N   UNL     1      -7.050   7.363  72.171  1.00  0.00    -0.066 NA 
BRANCH   4   5
HETATM    5  C   UNL     1      -7.212   8.259  70.983  1.00  0.00    -0.061 C  
BRANCH   5   6
HETATM    6  C   UNL     1      -8.237   9.417  71.123  1.00  0.00     0.082 C  
HETATM    7  C   UNL     1      -9.676   9.174  70.543  1.00  0.00    -0.287 C  
HETATM    8  C   UNL     1      -9.660   8.888  69.017  1.00  0.00    -0.158 A  
HETATM    9  C   UNL     1     -10.546   8.172  71.364  1.00  0.00    -0.269 A  
HETATM   10  C   UNL     1      -9.993   7.306  72.314  1.00  0.00    -0.199 A  
HETATM   11  C   UNL     1      -9.157   9.777  68.043  1.00  0.00    -0.125 A  
HETATM   12  C   UNL     1      -9.264   9.475  66.671  1.00  0.00    -0.190 A  
HETATM   13  C   UNL     1     -10.670   6.195  72.817  1.00  0.00    -0.268 A  
HETATM   14  C   UNL     1     -12.604   6.869  71.584  1.00  0.00    -0.410 A  
HETATM   15  C   UNL     1      -9.833   8.277  66.240  1.00  0.00    -0.227 A  
HETATM   16  C   UNL     1     -11.970   5.951  72.417  1.00  0.00    -0.206 A  
HETATM   17  C   UNL     1     -10.217   7.681  68.530  1.00  0.00    -0.220 A  
HETATM   18  C   UNL     1     -10.322   7.364  67.167  1.00  0.00    -0.377 A  
HETATM   19  C   UNL     1     -11.918   7.993  71.093  1.00  0.00    -0.297 A  
BRANCH  11  20
HETATM   20  O   UNL     1      -8.627  11.041  68.425  1.00  0.00    -0.135 OA 
BRANCH  20  21
HETATM   21  C   UNL     1      -9.244  12.224  67.973  1.00  0.00    -0.195 C  
HETATM   22  O   UNL     1      -8.864  12.925  67.042  1.00  0.00    -0.205 OA 
HETATM   23  C   UNL     1     -10.477  12.534  68.810  1.00  0.00    -0.169 C  
HETATM   24  C   UNL     1     -11.704  11.820  68.244  1.00  0.00    -0.377 C  
HETATM   25  C   UNL     1     -10.728  14.044  68.840  1.00  0.00    -0.265 C  
ENDBRANCH  20  21
ENDBRANCH  11  20
BRANCH  18  26
HETATM   26  C   UNL     1     -11.046   6.119  66.709  1.00  0.00    -0.152 C  
HETATM   27  O   UNL     1     -10.324   5.398  65.715  1.00  0.00    -0.420 OA 
HETATM   28  H   UNL     1     -10.780   4.616  65.427  1.00  0.00     0.000 HD 
ENDBRANCH  18  26
ENDBRANCH   5   6
ENDBRANCH   4   5
BRANCH   4  29
HETATM   29  C   UNL     1      -6.729   5.965  71.750  1.00  0.00    -0.059 C  
HETATM   30  C   UNL     1      -7.047   4.872  72.784  1.00  0.00    -0.079 C  
HETATM   31  C   UNL     1      -7.509   5.536  70.483  1.00  0.00    -0.080 C  
ENDBRANCH   4  29
ENDBRANCH   2   4
TORSDOF 7
ENDMDL
MODEL      116
REMARK 921   NORMALIZED FREE ENERGY PREDICTED BY IDOCK:   -4.22 KCAL/MOL
REMARK 922        TOTAL FREE ENERGY PREDICTED BY IDOCK:   -7.35 KCAL/MOL
REMARK 923 INTER-LIGAND FREE ENERGY PREDICTED BY IDOCK:   -6.20 KCAL/MOL
REMARK 924 INTRA-LIGAND FREE ENERGY PREDICTED BY IDOCK:   -1.14 KCAL/MOL
REMARK 927      BINDING AFFINITY PREDICTED BY RF-SCORE:    0.00 PKD
ROOT
HETATM    1  C   UNL     1     -11.871  15.805  69.305  1.00  0.00    -0.358 C  
HETATM    2  C   UNL     1     -11.245  14.390  69.282  1.00  0.00    -0.275 C  
HETATM    3  C   UNL     1     -12.283  13.513  70.000  1.00  0.00    -0.381 C  
ENDROOT
BRANCH   2   4
HETATM    4  N   UNL     1     -10.824  13.938  67.911  1.00  0.00    -0.241 NA 
BRANCH   4   5
HETATM    5  C   UNL     1      -9.812  12.836  67.940  1.00  0.00    -0.223 C  
BRANCH   5   6
HETATM    6  C   UNL     1      -8.714  12.874  66.843  1.00  0.00    -0.164 C  
HETATM    7  C   UNL     1      -7.222  12.765  67.319  1.00  0.00    -0.088 C  
HETATM    8  C   UNL     1      -6.818  13.919  68.275  1.00  0.00    -0.108 A  
HETATM    9  C   UNL     1      -6.805  11.350  67.828  1.00  0.00    -0.075 A  
HETATM   10  C   UNL     1      -7.745  10.368  68.162  1.00  0.00    -0.092 A  
HETATM   11  C   UNL     1      -6.860  15.289  67.936  1.00  0.00    -0.151 A  
HETATM   12  C   UNL     1      -6.391  16.267  68.834  1.00  0.00    -0.139 A  
HETATM   13  C   UNL     1      -7.430   9.237  68.915  1.00  0.00    -0.075 A  
HETATM   14  C   UNL     1      -5.135   9.903  68.874  1.00  0.00    -0.036 A  
HETATM   15  C   UNL     1      -5.907  15.914  70.095  1.00  0.00    -0.157 A  
HETATM   16  C   UNL     1      -6.123   9.024  69.309  1.00  0.00    -0.041 A  
HETATM   17  C   UNL     1      -6.330  13.614  69.569  1.00  0.00    -0.114 A  
HETATM   18  C   UNL     1      -5.867  14.577  70.477  1.00  0.00    -0.173 A  
HETATM   19  C   UNL     1      -5.460  11.032  68.105  1.00  0.00    -0.042 A  
BRANCH  11  20
HETATM   20  O   UNL     1      -7.282  15.698  66.641  1.00  0.00    -0.144 OA 
BRANCH  20  21
HETATM   21  C   UNL     1      -7.582  17.053  66.398  1.00  0.00    -0.315 C  
HETATM   22  O   UNL     1      -7.032  17.778  65.576  1.00  0.00    -0.415 OA 
HETATM   23  C   UNL     1      -8.709  17.520  67.310  1.00  0.00    -0.236 C  
HETATM   24  C   UNL     1     -10.068  17.228  66.676  1.00  0.00    -0.302 C  
HETATM   25  C   UNL     1      -8.578  19.020  67.582  1.00  0.00    -0.317 C  
ENDBRANCH  20  21
ENDBRANCH  11  20
BRANCH  18  26
HETATM   26  C   UNL     1      -5.237  14.174  71.790  1.00  0.00    -0.193 C  
HETATM   27  O   UNL     1      -5.520  12.824  72.143  1.00  0.00    -0.383 OA 
HETATM   28  H   UNL     1      -5.124  12.570  72.968  1.00  0.00     0.000 HD 
ENDBRANCH  18  26
ENDBRANCH   5   6
ENDBRANCH   4   5
BRANCH   4  29
HETATM   29  C   UNL     1     -11.904  13.650  66.918  1.00  0.00    -0.411 C  
HETATM   30  C   UNL     1     -11.799  14.412  65.586  1.00  0.00    -0.355 C  
HETATM   31  C   UNL     1     -11.945  12.158  66.506  1.00  0.00    -0.198 C  
ENDBRANCH   4  29
ENDBRANCH   2   4
TORSDOF 7
ENDMDL
MODEL      117
REMARK 921   NORMALIZED FREE ENERGY PREDICTED BY IDOCK:   -4.17 KCAL/MOL
REMARK 922        TOTAL FREE ENERGY PREDICTED BY IDOCK:   -7.29 KCAL/MOL
REMARK 923 INTER-LIGAND FREE ENERGY PREDICTED BY IDOCK:   -6.47 KCAL/MOL
REMARK 924 INTRA-LIGAND FREE ENERGY PREDICTED BY IDOCK:   -0.82 KCAL/MOL
REMARK 927      BINDING AFFINITY PREDICTED BY RF-SCORE:    0.00 PKD
ROOT
HETATM    1  C   UNL     1     -10.944  19.319  67.536  1.00  0.00    -0.426 C  
HETATM    2  C   UNL     1     -10.254  18.074  68.141  1.00  0.00    -0.384 C  
HETATM    3  C   UNL     1      -9.437  18.638  69.316  1.00  0.00     0.006 C  
ENDROOT
BRANCH   2   4
HETATM    4  N   UNL     1     -11.204  16.955  68.466  1.00  0.00    -0.218 NA 
BRANCH   4   5
HETATM    5  C   UNL     1     -11.609  16.161  67.263  1.00  0.00     0.383 C  
BRANCH   5   6
HETATM    6  C   UNL     1     -10.867  16.484  65.938  1.00  0.00    -0.096 C  
HETATM    7  C   UNL     1      -9.953  15.357  65.336  1.00  0.00    -0.356 C  
HETATM    8  C   UNL     1      -8.809  14.943  66.300  1.00  0.00    -0.108 A  
HETATM    9  C   UNL     1     -10.730  14.150  64.724  1.00  0.00    -0.436 A  
HETATM   10  C   UNL     1     -12.084  13.917  64.993  1.00  0.00    -0.422 A  
HETATM   11  C   UNL     1      -7.815  15.821  66.785  1.00  0.00    -0.213 A  
HETATM   12  C   UNL     1      -6.761  15.342  67.585  1.00  0.00    -0.198 A  
HETATM   13  C   UNL     1     -12.712  12.699  64.740  1.00  0.00    -0.460 A  
HETATM   14  C   UNL     1     -10.692  11.918  63.726  1.00  0.00    -0.476 A  
HETATM   15  C   UNL     1      -6.688  13.998  67.952  1.00  0.00    -0.171 A  
HETATM   16  C   UNL     1     -12.000  11.677  64.139  1.00  0.00    -0.238 A  
HETATM   17  C   UNL     1      -8.698  13.592  66.709  1.00  0.00    -0.101 A  
HETATM   18  C   UNL     1      -7.658  13.103  67.513  1.00  0.00    -0.166 A  
HETATM   19  C   UNL     1     -10.072  13.154  63.974  1.00  0.00     0.105 A  
BRANCH  11  20
HETATM   20  O   UNL     1      -7.805  17.187  66.388  1.00  0.00    -0.262 OA 
BRANCH  20  21
HETATM   21  C   UNL     1      -6.776  18.039  66.835  1.00  0.00    -0.183 C  
HETATM   22  O   UNL     1      -5.749  17.691  67.407  1.00  0.00    -0.136 OA 
HETATM   23  C   UNL     1      -7.108  19.490  66.511  1.00  0.00    -0.230 C  
HETATM   24  C   UNL     1      -6.631  19.848  65.105  1.00  0.00    -0.327 C  
HETATM   25  C   UNL     1      -6.450  20.421  67.532  1.00  0.00    -0.287 C  
ENDBRANCH  20  21
ENDBRANCH  11  20
BRANCH  18  26
HETATM   26  C   UNL     1      -7.525  11.626  67.804  1.00  0.00    -0.111 C  
HETATM   27  O   UNL     1      -6.887  10.913  66.749  1.00  0.00    -0.104 OA 
HETATM   28  H   UNL     1      -6.803   9.985  66.932  1.00  0.00     0.000 HD 
ENDBRANCH  18  26
ENDBRANCH   5   6
ENDBRANCH   4   5
BRANCH   4  29
HETATM   29  C   UNL     1     -10.850  16.058  69.608  1.00  0.00    -0.329 C  
HETATM   30  C   UNL     1     -11.517  16.400  70.950  1.00  0.00    -0.213 C  
HETATM   31  C   UNL     1     -11.246  14.583  69.345  1.00  0.00    -0.312 C  
ENDBRANCH   4  29
ENDBRANCH   2   4
TORSDOF 7
ENDMDL
MODEL      118
REMARK 921   NORMALIZED FREE ENERGY PREDICTED BY IDOCK:   -4.16 KCAL/MOL
REMARK 922        TOTAL FREE ENERGY PREDICTED BY IDOCK:   -7.27 KCAL/MOL
REMARK 923 INTER-LIGAND FREE ENERGY PREDICTED BY IDOCK:   -5.26 KCAL/MOL
REMARK 924 INTRA-LIGAND FREE ENERGY PREDICTED BY IDOCK:   -2.02 KCAL/MOL
REMARK 927      BINDING AFFINITY PREDICTED BY RF-SCORE:    0.00 PKD
ROOT
HETATM    1  C   UNL     1     -10.435  10.346  69.912  1.00  0.00    -0.266 C  
HETATM    2  C   UNL     1      -9.631   9.363  69.026  1.00  0.00    -0.164 C  
HETATM    3  C   UNL     1     -10.497   9.208  67.765  1.00  0.00    -0.306 C  
ENDROOT
BRANCH   2   4
HETATM    4  N   UNL     1      -8.203   9.779  68.807  1.00  0.00    -0.104 NA 
BRANCH   4   5
HETATM    5  C   UNL     1      -8.020  11.264  68.789  1.00  0.00    -0.137 C  
BRANCH   5   6
HETATM    6  C   UNL     1      -8.215  11.970  67.420  1.00  0.00    -0.168 C  
HETATM    7  C   UNL     1      -8.683  13.469  67.447  1.00  0.00    -0.220 C  
HETATM    8  C   UNL     1     -10.057  13.650  68.146  1.00  0.00    -0.245 A  
HETATM    9  C   UNL     1      -7.594  14.480  67.926  1.00  0.00    -0.153 A  
HETATM   10  C   UNL     1      -6.437  14.070  68.600  1.00  0.00    -0.091 A  
HETATM   11  C   UNL     1     -11.255  13.034  67.723  1.00  0.00    -0.279 A  
HETATM   12  C   UNL     1     -12.476  13.323  68.362  1.00  0.00     0.377 A  
HETATM   13  C   UNL     1      -5.624  14.946  69.317  1.00  0.00    -0.093 A  
HETATM   14  C   UNL     1      -6.979  16.762  68.554  1.00  0.00    -0.168 A  
HETATM   15  C   UNL     1     -12.531  14.194  69.451  1.00  0.00    -0.114 A  
HETATM   16  C   UNL     1      -5.920  16.296  69.329  1.00  0.00    -0.146 A  
HETATM   17  C   UNL     1     -10.163  14.516  69.262  1.00  0.00    -0.121 A  
HETATM   18  C   UNL     1     -11.371  14.806  69.913  1.00  0.00    -0.310 A  
HETATM   19  C   UNL     1      -7.785  15.873  67.824  1.00  0.00    -0.156 A  
BRANCH  11  20
HETATM   20  O   UNL     1     -11.267  12.190  66.579  1.00  0.00    -0.293 OA 
BRANCH  20  21
HETATM   21  C   UNL     1     -11.958  12.593  65.419  1.00  0.00    -0.446 C  
HETATM   22  O   UNL     1     -13.097  12.266  65.107  1.00  0.00    -0.404 OA 
HETATM   23  C   UNL     1     -11.086  13.512  64.573  1.00  0.00    -0.394 C  
HETATM   24  C   UNL     1     -11.242  14.964  65.025  1.00  0.00    -0.408 C  
HETATM   25  C   UNL     1     -11.468  13.389  63.097  1.00  0.00     0.489 C  
ENDBRANCH  20  21
ENDBRANCH  11  20
BRANCH  18  26
HETATM   26  C   UNL     1     -11.435  15.840  71.013  1.00  0.00    -0.407 C  
HETATM   27  O   UNL     1     -11.017  15.327  72.274  1.00  0.00    -0.371 OA 
HETATM   28  H   UNL     1     -11.057  15.978  72.966  1.00  0.00     0.000 HD 
ENDBRANCH  18  26
ENDBRANCH   5   6
ENDBRANCH   4   5
BRANCH   4  29
HETATM   29  C   UNL     1      -7.156   9.119  69.645  1.00  0.00    -0.059 C  
HETATM   30  C   UNL     1      -6.969   7.612  69.405  1.00  0.00    -0.063 C  
HETATM   31  C   UNL     1      -5.748   9.723  69.416  1.00  0.00    -0.034 C  
ENDBRANCH   4  29
ENDBRANCH   2   4
TORSDOF 7
ENDMDL
MODEL      119
REMARK 921   NORMALIZED FREE ENERGY PREDICTED BY IDOCK:   -4.16 KCAL/MOL
REMARK 922        TOTAL FREE ENERGY PREDICTED BY IDOCK:   -7.27 KCAL/MOL
REMARK 923 INTER-LIGAND FREE ENERGY PREDICTED BY IDOCK:   -5.35 KCAL/MOL
REMARK 924 INTRA-LIGAND FREE ENERGY PREDICTED BY IDOCK:   -1.92 KCAL/MOL
REMARK 927      BINDING AFFINITY PREDICTED BY RF-SCORE:    0.00 PKD
ROOT
HETATM    1  C   UNL     1     -11.051   6.715  66.971  1.00  0.00    -0.395 C  
HETATM    2  C   UNL     1     -10.273   5.377  67.002  1.00  0.00    -0.233 C  
HETATM    3  C   UNL     1     -10.687   4.678  65.697  1.00  0.00    -0.193 C  
ENDROOT
BRANCH   2   4
HETATM    4  N   UNL     1      -8.796   5.544  67.230  1.00  0.00    -0.107 NA 
BRANCH   4   5
HETATM    5  C   UNL     1      -8.429   5.597  68.680  1.00  0.00    -0.105 C  
BRANCH   5   6
HETATM    6  C   UNL     1      -7.441   6.719  69.104  1.00  0.00    -0.095 C  
HETATM    7  C   UNL     1      -7.856   7.614  70.325  1.00  0.00    -0.092 C  
HETATM    8  C   UNL     1      -9.184   8.377  70.078  1.00  0.00    -0.158 A  
HETATM    9  C   UNL     1      -7.789   6.895  71.709  1.00  0.00    -0.099 A  
HETATM   10  C   UNL     1      -7.713   5.502  71.825  1.00  0.00    -0.107 A  
HETATM   11  C   UNL     1      -9.395   9.296  69.027  1.00  0.00    -0.151 A  
HETATM   12  C   UNL     1     -10.604  10.012  68.929  1.00  0.00    -0.239 A  
HETATM   13  C   UNL     1      -7.979   4.822  73.012  1.00  0.00    -0.100 A  
HETATM   14  C   UNL     1      -8.221   6.929  74.115  1.00  0.00    -0.153 A  
HETATM   15  C   UNL     1     -11.638   9.806  69.842  1.00  0.00    -0.132 A  
HETATM   16  C   UNL     1      -8.276   5.537  74.156  1.00  0.00    -0.109 A  
HETATM   17  C   UNL     1     -10.268   8.195  70.971  1.00  0.00    -0.221 A  
HETATM   18  C   UNL     1     -11.481   8.895  70.881  1.00  0.00    -0.339 A  
HETATM   19  C   UNL     1      -7.939   7.605  72.917  1.00  0.00    -0.140 A  
BRANCH  11  20
HETATM   20  O   UNL     1      -8.350   9.592  68.108  1.00  0.00    -0.117 OA 
BRANCH  20  21
HETATM   21  C   UNL     1      -8.626  10.350  66.953  1.00  0.00    -0.127 C  
HETATM   22  O   UNL     1      -8.421  11.549  66.811  1.00  0.00    -0.159 OA 
HETATM   23  C   UNL     1      -9.231   9.466  65.870  1.00  0.00    -0.269 C  
HETATM   24  C   UNL     1      -8.131   8.813  65.034  1.00  0.00    -0.144 C  
HETATM   25  C   UNL     1     -10.145  10.295  64.964  1.00  0.00    -0.353 C  
ENDBRANCH  20  21
ENDBRANCH  11  20
BRANCH  18  26
HETATM   26  C   UNL     1     -12.546   8.751  71.943  1.00  0.00    -0.371 C  
HETATM   27  O   UNL     1     -13.234   7.506  71.866  1.00  0.00    -0.427 OA 
HETATM   28  H   UNL     1     -13.904   7.415  72.533  1.00  0.00     0.000 HD 
ENDBRANCH  18  26
ENDBRANCH   5   6
ENDBRANCH   4   5
BRANCH   4  29
HETATM   29  C   UNL     1      -7.875   4.641  66.475  1.00  0.00    -0.099 C  
HETATM   30  C   UNL     1      -6.712   5.338  65.749  1.00  0.00    -0.053 C  
HETATM   31  C   UNL     1      -7.187   3.598  67.391  1.00  0.00    -0.059 C  
ENDBRANCH   4  29
ENDBRANCH   2   4
TORSDOF 7
ENDMDL
MODEL      120
REMARK 921   NORMALIZED FREE ENERGY PREDICTED BY IDOCK:   -4.14 KCAL/MOL
REMARK 922        TOTAL FREE ENERGY PREDICTED BY IDOCK:   -7.24 KCAL/MOL
REMARK 923 INTER-LIGAND FREE ENERGY PREDICTED BY IDOCK:   -5.60 KCAL/MOL
REMARK 924 INTRA-LIGAND FREE ENERGY PREDICTED BY IDOCK:   -1.64 KCAL/MOL
REMARK 927      BINDING AFFINITY PREDICTED BY RF-SCORE:    0.00 PKD
ROOT
HETATM    1  C   UNL     1      -9.272   6.196  66.020  1.00  0.00    -0.116 C  
HETATM    2  C   UNL     1      -8.230   7.340  65.965  1.00  0.00    -0.138 C  
HETATM    3  C   UNL     1      -6.878   6.612  66.026  1.00  0.00    -0.053 C  
ENDROOT
BRANCH   2   4
HETATM    4  N   UNL     1      -8.429   8.282  64.811  1.00  0.00    -0.118 NA 
BRANCH   4   5
HETATM    5  C   UNL     1      -9.263   9.474  65.163  1.00  0.00    -0.244 C  
BRANCH   5   6
HETATM    6  C   UNL     1     -10.061   9.394  66.493  1.00  0.00    -0.332 C  
HETATM    7  C   UNL     1     -10.194  10.716  67.329  1.00  0.00    -0.250 C  
HETATM    8  C   UNL     1      -8.817  11.283  67.767  1.00  0.00    -0.141 A  
HETATM    9  C   UNL     1     -11.147  11.784  66.706  1.00  0.00    -0.360 A  
HETATM   10  C   UNL     1     -11.565  11.726  65.371  1.00  0.00    -0.190 A  
HETATM   11  C   UNL     1      -7.885  10.589  68.568  1.00  0.00    -0.111 A  
HETATM   12  C   UNL     1      -6.696  11.213  68.993  1.00  0.00    -0.085 A  
HETATM   13  C   UNL     1     -12.133  12.810  64.704  1.00  0.00    -0.483 A  
HETATM   14  C   UNL     1     -12.088  14.040  66.753  1.00  0.00    -0.480 A  
HETATM   15  C   UNL     1      -6.390  12.517  68.605  1.00  0.00    -0.073 A  
HETATM   16  C   UNL     1     -12.358  13.989  65.387  1.00  0.00    -0.495 A  
HETATM   17  C   UNL     1      -8.455  12.600  67.390  1.00  0.00    -0.186 A  
HETATM   18  C   UNL     1      -7.271  13.231  67.799  1.00  0.00    -0.151 A  
HETATM   19  C   UNL     1     -11.528  12.938  67.420  1.00  0.00    -0.388 A  
BRANCH  11  20
HETATM   20  O   UNL     1      -8.178   9.281  69.045  1.00  0.00    -0.106 OA 
BRANCH  20  21
HETATM   21  C   UNL     1      -7.445   8.749  70.124  1.00  0.00    -0.056 C  
HETATM   22  O   UNL     1      -7.487   9.136  71.286  1.00  0.00    -0.232 OA 
HETATM   23  C   UNL     1      -6.566   7.597  69.653  1.00  0.00    -0.035 C  
HETATM   24  C   UNL     1      -7.343   6.282  69.686  1.00  0.00    -0.080 C  
HETATM   25  C   UNL     1      -5.324   7.486  70.540  1.00  0.00    -0.023 C  
ENDBRANCH  20  21
ENDBRANCH  11  20
BRANCH  18  26
HETATM   26  C   UNL     1      -7.006  14.682  67.471  1.00  0.00    -0.168 C  
HETATM   27  O   UNL     1      -8.199  15.408  67.194  1.00  0.00    -0.184 OA 
HETATM   28  H   UNL     1      -8.033  16.321  66.988  1.00  0.00     0.000 HD 
ENDBRANCH  18  26
ENDBRANCH   5   6
ENDBRANCH   4   5
BRANCH   4  29
HETATM   29  C   UNL     1      -7.218   8.685  64.032  1.00  0.00    -0.092 C  
HETATM   30  C   UNL     1      -7.409   8.774  62.509  1.00  0.00    -0.101 C  
HETATM   31  C   UNL     1      -6.694  10.086  64.437  1.00  0.00    -0.128 C  
ENDBRANCH   4  29
ENDBRANCH   2   4
TORSDOF 7
ENDMDL
MODEL      121
REMARK 921   NORMALIZED FREE ENERGY PREDICTED BY IDOCK:   -4.08 KCAL/MOL
REMARK 922        TOTAL FREE ENERGY PREDICTED BY IDOCK:   -7.16 KCAL/MOL
REMARK 923 INTER-LIGAND FREE ENERGY PREDICTED BY IDOCK:   -4.90 KCAL/MOL
REMARK 924 INTRA-LIGAND FREE ENERGY PREDICTED BY IDOCK:   -2.26 KCAL/MOL
REMARK 927      BINDING AFFINITY PREDICTED BY RF-SCORE:    0.00 PKD
ROOT
HETATM    1  C   UNL     1     -10.534   8.504  67.592  1.00  0.00    -0.308 C  
HETATM    2  C   UNL     1     -10.988   9.932  67.982  1.00  0.00    -0.213 C  
HETATM    3  C   UNL     1     -10.494  10.094  69.429  1.00  0.00    -0.254 C  
ENDROOT
BRANCH   2   4
HETATM    4  N   UNL     1     -10.555  10.990  67.007  1.00  0.00    -0.243 NA 
BRANCH   4   5
HETATM    5  C   UNL     1     -10.100  10.430  65.695  1.00  0.00    -0.269 C  
BRANCH   5   6
HETATM    6  C   UNL     1      -8.793  11.024  65.104  1.00  0.00    -0.116 C  
HETATM    7  C   UNL     1      -7.437  10.421  65.618  1.00  0.00    -0.149 C  
HETATM    8  C   UNL     1      -7.252  10.594  67.149  1.00  0.00    -0.097 A  
HETATM    9  C   UNL     1      -7.132   8.979  65.104  1.00  0.00    -0.087 A  
HETATM   10  C   UNL     1      -8.118   8.163  64.536  1.00  0.00    -0.142 A  
HETATM   11  C   UNL     1      -7.227  11.838  67.816  1.00  0.00    -0.097 A  
HETATM   12  C   UNL     1      -6.965  11.908  69.197  1.00  0.00    -0.079 A  
HETATM   13  C   UNL     1      -7.966   6.787  64.374  1.00  0.00    -0.096 A  
HETATM   14  C   UNL     1      -5.718   6.985  65.163  1.00  0.00    -0.032 A  
HETATM   15  C   UNL     1      -6.762  10.752  69.951  1.00  0.00    -0.156 A  
HETATM   16  C   UNL     1      -6.774   6.186  64.728  1.00  0.00    -0.043 A  
HETATM   17  C   UNL     1      -7.052   9.450  67.960  1.00  0.00    -0.081 A  
HETATM   18  C   UNL     1      -6.798   9.505  69.338  1.00  0.00    -0.049 A  
HETATM   19  C   UNL     1      -5.876   8.373  65.310  1.00  0.00    -0.044 A  
BRANCH  11  20
HETATM   20  O   UNL     1      -7.363  13.050  67.084  1.00  0.00    -0.096 OA 
BRANCH  20  21
HETATM   21  C   UNL     1      -6.693  14.211  67.520  1.00  0.00    -0.105 C  
HETATM   22  O   UNL     1      -5.479  14.366  67.572  1.00  0.00    -0.340 OA 
HETATM   23  C   UNL     1      -7.696  15.280  67.932  1.00  0.00    -0.147 C  
HETATM   24  C   UNL     1      -8.113  16.119  66.724  1.00  0.00    -0.305 C  
HETATM   25  C   UNL     1      -7.089  16.187  69.004  1.00  0.00    -0.187 C  
ENDBRANCH  20  21
ENDBRANCH  11  20
BRANCH  18  26
HETATM   26  C   UNL     1      -6.462   8.256  70.121  1.00  0.00    -0.035 C  
HETATM   27  O   UNL     1      -7.566   7.363  70.231  1.00  0.00    -0.085 OA 
HETATM   28  H   UNL     1      -7.355   6.578  70.722  1.00  0.00     0.000 HD 
ENDBRANCH  18  26
ENDBRANCH   5   6
ENDBRANCH   4   5
BRANCH   4  29
HETATM   29  C   UNL     1     -11.467  12.158  66.805  1.00  0.00    -0.356 C  
HETATM   30  C   UNL     1     -10.850  13.537  67.086  1.00  0.00    -0.291 C  
HETATM   31  C   UNL     1     -11.986  12.257  65.349  1.00  0.00    -0.395 C  
ENDBRANCH   4  29
ENDBRANCH   2   4
TORSDOF 7
ENDMDL
MODEL      122
REMARK 921   NORMALIZED FREE ENERGY PREDICTED BY IDOCK:   -4.08 KCAL/MOL
REMARK 922        TOTAL FREE ENERGY PREDICTED BY IDOCK:   -7.16 KCAL/MOL
REMARK 923 INTER-LIGAND FREE ENERGY PREDICTED BY IDOCK:   -5.90 KCAL/MOL
REMARK 924 INTRA-LIGAND FREE ENERGY PREDICTED BY IDOCK:   -1.25 KCAL/MOL
REMARK 927      BINDING AFFINITY PREDICTED BY RF-SCORE:    0.00 PKD
ROOT
HETATM    1  C   UNL     1      -6.147   8.813  72.473  1.00  0.00    -0.065 C  
HETATM    2  C   UNL     1      -7.438   8.201  73.068  1.00  0.00    -0.129 C  
HETATM    3  C   UNL     1      -7.458   8.716  74.517  1.00  0.00    -0.170 C  
ENDROOT
BRANCH   2   4
HETATM    4  N   UNL     1      -8.668   8.471  72.247  1.00  0.00    -0.305 NA 
BRANCH   4   5
HETATM    5  C   UNL     1      -8.358   9.024  70.890  1.00  0.00    -0.197 C  
BRANCH   5   6
HETATM    6  C   UNL     1      -9.518   9.751  70.157  1.00  0.00    -0.277 C  
HETATM    7  C   UNL     1      -9.652   9.508  68.612  1.00  0.00    -0.151 C  
HETATM    8  C   UNL     1      -8.391   9.958  67.828  1.00  0.00    -0.114 A  
HETATM    9  C   UNL     1     -10.165   8.086  68.221  1.00  0.00    -0.243 A  
HETATM   10  C   UNL     1     -10.167   7.017  69.125  1.00  0.00    -0.193 A  
HETATM   11  C   UNL     1      -7.884  11.275  67.818  1.00  0.00    -0.115 A  
HETATM   12  C   UNL     1      -6.784  11.616  67.007  1.00  0.00    -0.145 A  
HETATM   13  C   UNL     1     -10.302   5.687  68.731  1.00  0.00    -0.288 A  
HETATM   14  C   UNL     1     -10.649   6.433  66.486  1.00  0.00    -0.151 A  
HETATM   15  C   UNL     1      -6.143  10.657  66.223  1.00  0.00    -0.111 A  
HETATM   16  C   UNL     1     -10.503   5.389  67.397  1.00  0.00    -0.253 A  
HETATM   17  C   UNL     1      -7.699   9.019  67.024  1.00  0.00    -0.098 A  
HETATM   18  C   UNL     1      -6.597   9.343  66.218  1.00  0.00    -0.070 A  
HETATM   19  C   UNL     1     -10.525   7.771  66.895  1.00  0.00    -0.388 A  
BRANCH  11  20
HETATM   20  O   UNL     1      -8.539  12.305  68.548  1.00  0.00    -0.150 OA 
BRANCH  20  21
HETATM   21  C   UNL     1      -9.526  13.090  67.920  1.00  0.00    -0.219 C  
HETATM   22  O   UNL     1      -9.400  13.697  66.863  1.00  0.00    -0.240 OA 
HETATM   23  C   UNL     1     -10.807  13.091  68.743  1.00  0.00    -0.277 C  
HETATM   24  C   UNL     1     -11.687  11.899  68.369  1.00  0.00    -0.387 C  
HETATM   25  C   UNL     1     -11.579  14.393  68.514  1.00  0.00    -0.347 C  
ENDBRANCH  20  21
ENDBRANCH  11  20
BRANCH  18  26
HETATM   26  C   UNL     1      -5.987   8.324  65.284  1.00  0.00    -0.045 C  
HETATM   27  O   UNL     1      -6.001   7.006  65.824  1.00  0.00    -0.034 OA 
HETATM   28  H   UNL     1      -5.617   6.365  65.236  1.00  0.00     0.000 HD 
ENDBRANCH  18  26
ENDBRANCH   5   6
ENDBRANCH   4   5
BRANCH   4  29
HETATM   29  C   UNL     1      -9.695   7.388  72.164  1.00  0.00    -0.150 C  
HETATM   30  C   UNL     1      -9.179   5.964  72.433  1.00  0.00    -0.146 C  
HETATM   31  C   UNL     1     -10.841   7.582  73.187  1.00  0.00    -0.448 C  
ENDBRANCH   4  29
ENDBRANCH   2   4
TORSDOF 7
ENDMDL
MODEL      123
REMARK 921   NORMALIZED FREE ENERGY PREDICTED BY IDOCK:   -4.07 KCAL/MOL
REMARK 922        TOTAL FREE ENERGY PREDICTED BY IDOCK:   -7.14 KCAL/MOL
REMARK 923 INTER-LIGAND FREE ENERGY PREDICTED BY IDOCK:   -5.61 KCAL/MOL
REMARK 924 INTRA-LIGAND FREE ENERGY PREDICTED BY IDOCK:   -1.54 KCAL/MOL
REMARK 927      BINDING AFFINITY PREDICTED BY RF-SCORE:    0.00 PKD
ROOT
HETATM    1  C   UNL     1      -7.662   3.090  67.707  1.00  0.00    -0.064 C  
HETATM    2  C   UNL     1      -9.177   2.924  67.978  1.00  0.00    -0.198 C  
HETATM    3  C   UNL     1      -9.233   2.099  69.274  1.00  0.00    -0.187 C  
ENDROOT
BRANCH   2   4
HETATM    4  N   UNL     1      -9.934   4.223  67.981  1.00  0.00    -0.040 NA 
BRANCH   4   5
HETATM    5  C   UNL     1      -9.728   5.020  69.231  1.00  0.00    -0.179 C  
BRANCH   5   6
HETATM    6  C   UNL     1      -8.342   5.700  69.399  1.00  0.00    -0.107 C  
HETATM    7  C   UNL     1      -8.291   7.027  70.237  1.00  0.00    -0.133 C  
HETATM    8  C   UNL     1      -9.171   8.149  69.624  1.00  0.00    -0.155 A  
HETATM    9  C   UNL     1      -8.494   6.834  71.772  1.00  0.00    -0.120 A  
HETATM   10  C   UNL     1      -9.019   5.655  72.315  1.00  0.00    -0.141 A  
HETATM   11  C   UNL     1      -9.001   8.680  68.327  1.00  0.00    -0.142 A  
HETATM   12  C   UNL     1      -9.789   9.759  67.883  1.00  0.00    -0.176 A  
HETATM   13  C   UNL     1      -9.512   5.569  73.616  1.00  0.00    -0.138 A  
HETATM   14  C   UNL     1      -8.790   7.817  73.991  1.00  0.00    -0.304 A  
HETATM   15  C   UNL     1     -10.781  10.309  68.695  1.00  0.00    -0.255 A  
HETATM   16  C   UNL     1      -9.435   6.670  74.447  1.00  0.00    -0.279 A  
HETATM   17  C   UNL     1     -10.198   8.733  70.405  1.00  0.00    -0.228 A  
HETATM   18  C   UNL     1     -10.995   9.803  69.973  1.00  0.00    -0.319 A  
HETATM   19  C   UNL     1      -8.284   7.889  72.682  1.00  0.00    -0.184 A  
BRANCH  11  20
HETATM   20  O   UNL     1      -7.962   8.200  67.483  1.00  0.00    -0.118 OA 
BRANCH  20  21
HETATM   21  C   UNL     1      -7.674   8.869  66.277  1.00  0.00    -0.098 C  
HETATM   22  O   UNL     1      -6.997   9.884  66.158  1.00  0.00    -0.093 OA 
HETATM   23  C   UNL     1      -8.330   8.154  65.103  1.00  0.00    -0.152 C  
HETATM   24  C   UNL     1      -7.417   7.051  64.569  1.00  0.00    -0.099 C  
HETATM   25  C   UNL     1      -8.639   9.152  63.985  1.00  0.00    -0.186 C  
ENDBRANCH  20  21
ENDBRANCH  11  20
BRANCH  18  26
HETATM   26  C   UNL     1     -11.984  10.466  70.904  1.00  0.00    -0.377 C  
HETATM   27  O   UNL     1     -12.575   9.550  71.820  1.00  0.00    -0.352 OA 
HETATM   28  H   UNL     1     -13.197   9.967  72.405  1.00  0.00     0.000 HD 
ENDBRANCH  18  26
ENDBRANCH   5   6
ENDBRANCH   4   5
BRANCH   4  29
HETATM   29  C   UNL     1      -9.824   5.089  66.767  1.00  0.00    -0.192 C  
HETATM   30  C   UNL     1      -9.989   4.366  65.421  1.00  0.00    -0.231 C  
HETATM   31  C   UNL     1     -10.898   6.205  66.739  1.00  0.00    -0.360 C  
ENDBRANCH   4  29
ENDBRANCH   2   4
TORSDOF 7
ENDMDL
MODEL      124
REMARK 921   NORMALIZED FREE ENERGY PREDICTED BY IDOCK:   -4.06 KCAL/MOL
REMARK 922        TOTAL FREE ENERGY PREDICTED BY IDOCK:   -7.13 KCAL/MOL
REMARK 923 INTER-LIGAND FREE ENERGY PREDICTED BY IDOCK:   -5.02 KCAL/MOL
REMARK 924 INTRA-LIGAND FREE ENERGY PREDICTED BY IDOCK:   -2.11 KCAL/MOL
REMARK 927      BINDING AFFINITY PREDICTED BY RF-SCORE:    0.00 PKD
ROOT
HETATM    1  C   UNL     1     -11.957  10.986  67.883  1.00  0.00     0.104 C  
HETATM    2  C   UNL     1     -11.641  12.111  68.898  1.00  0.00    -0.324 C  
HETATM    3  C   UNL     1     -11.829  11.439  70.267  1.00  0.00    -0.438 C  
ENDROOT
BRANCH   2   4
HETATM    4  N   UNL     1     -10.317  12.783  68.660  1.00  0.00    -0.215 NA 
BRANCH   4   5
HETATM    5  C   UNL     1      -9.465  12.063  67.662  1.00  0.00    -0.185 C  
BRANCH   5   6
HETATM    6  C   UNL     1      -8.122  11.485  68.186  1.00  0.00    -0.146 C  
HETATM    7  C   UNL     1      -7.822   9.975  67.872  1.00  0.00    -0.090 C  
HETATM    8  C   UNL     1      -8.887   9.021  68.475  1.00  0.00    -0.134 A  
HETATM    9  C   UNL     1      -7.481   9.679  66.378  1.00  0.00    -0.094 A  
HETATM   10  C   UNL     1      -7.759  10.590  65.352  1.00  0.00    -0.106 A  
HETATM   11  C   UNL     1      -9.185   8.923  69.851  1.00  0.00    -0.166 A  
HETATM   12  C   UNL     1     -10.104   7.965  70.321  1.00  0.00    -0.196 A  
HETATM   13  C   UNL     1      -7.774  10.237  64.004  1.00  0.00    -0.100 A  
HETATM   14  C   UNL     1      -7.025   8.050  64.613  1.00  0.00    -0.071 A  
HETATM   15  C   UNL     1     -10.771   7.114  69.440  1.00  0.00    -0.246 A  
HETATM   16  C   UNL     1      -7.445   8.947  63.634  1.00  0.00    -0.105 A  
HETATM   17  C   UNL     1      -9.599   8.143  67.620  1.00  0.00    -0.186 A  
HETATM   18  C   UNL     1     -10.522   7.190  68.074  1.00  0.00    -0.251 A  
HETATM   19  C   UNL     1      -6.999   8.419  65.968  1.00  0.00    -0.065 A  
BRANCH  11  20
HETATM   20  O   UNL     1      -8.485   9.721  70.799  1.00  0.00    -0.207 OA 
BRANCH  20  21
HETATM   21  C   UNL     1      -7.093   9.568  70.951  1.00  0.00    -0.056 C  
HETATM   22  O   UNL     1      -6.278  10.474  71.077  1.00  0.00    -0.328 OA 
HETATM   23  C   UNL     1      -6.716   8.092  70.937  1.00  0.00    -0.038 C  
HETATM   24  C   UNL     1      -6.814   7.500  72.342  1.00  0.00    -0.060 C  
HETATM   25  C   UNL     1      -5.292   7.918  70.403  1.00  0.00    -0.023 C  
ENDBRANCH  20  21
ENDBRANCH  11  20
BRANCH  18  26
HETATM   26  C   UNL     1     -11.149   6.196  67.124  1.00  0.00    -0.242 C  
HETATM   27  O   UNL     1     -10.388   4.999  67.001  1.00  0.00    -0.216 OA 
HETATM   28  H   UNL     1     -10.781   4.374  66.404  1.00  0.00     0.000 HD 
ENDBRANCH  18  26
ENDBRANCH   5   6
ENDBRANCH   4   5
BRANCH   4  29
HETATM   29  C   UNL     1     -10.326  14.254  68.397  1.00  0.00    -0.247 C  
HETATM   30  C   UNL     1     -10.157  14.665  66.925  1.00  0.00    -0.255 C  
HETATM   31  C   UNL     1     -11.653  14.924  68.834  1.00  0.00    -0.339 C  
ENDBRANCH   4  29
ENDBRANCH   2   4
TORSDOF 7
ENDMDL
MODEL      125
REMARK 921   NORMALIZED FREE ENERGY PREDICTED BY IDOCK:   -4.04 KCAL/MOL
REMARK 922        TOTAL FREE ENERGY PREDICTED BY IDOCK:   -7.10 KCAL/MOL
REMARK 923 INTER-LIGAND FREE ENERGY PREDICTED BY IDOCK:   -7.19 KCAL/MOL
REMARK 924 INTRA-LIGAND FREE ENERGY PREDICTED BY IDOCK:    0.09 KCAL/MOL
REMARK 927      BINDING AFFINITY PREDICTED BY RF-SCORE:    0.00 PKD
ROOT
HETATM    1  C   UNL     1     -11.546  16.136  70.026  1.00  0.00    -0.247 C  
HETATM    2  C   UNL     1     -11.505  14.862  70.905  1.00  0.00    -0.261 C  
HETATM    3  C   UNL     1     -11.633  15.399  72.340  1.00  0.00    -0.545 C  
ENDROOT
BRANCH   2   4
HETATM    4  N   UNL     1     -12.500  13.813  70.494  1.00  0.00    -0.347 NA 
BRANCH   4   5
HETATM    5  C   UNL     1     -11.933  12.428  70.509  1.00  0.00    -0.195 C  
BRANCH   5   6
HETATM    6  C   UNL     1     -12.574  11.406  69.532  1.00  0.00     0.064 C  
HETATM    7  C   UNL     1     -11.692  10.182  69.096  1.00  0.00    -0.027 C  
HETATM    8  C   UNL     1     -10.394  10.617  68.364  1.00  0.00    -0.197 A  
HETATM    9  C   UNL     1     -11.460   9.118  70.214  1.00  0.00    -0.174 A  
HETATM   10  C   UNL     1     -11.707   9.387  71.565  1.00  0.00    -0.465 A  
HETATM   11  C   UNL     1     -10.364  11.370  67.170  1.00  0.00    -0.212 A  
HETATM   12  C   UNL     1      -9.143  11.645  66.524  1.00  0.00    -0.200 A  
HETATM   13  C   UNL     1     -11.212   8.597  72.601  1.00  0.00    -0.098 A  
HETATM   14  C   UNL     1     -10.345   7.078  70.971  1.00  0.00    -0.216 A  
HETATM   15  C   UNL     1      -7.930  11.215  67.064  1.00  0.00    -0.145 A  
HETATM   16  C   UNL     1     -10.490   7.457  72.304  1.00  0.00    -0.260 A  
HETATM   17  C   UNL     1      -9.137  10.214  68.877  1.00  0.00    -0.165 A  
HETATM   18  C   UNL     1      -7.913  10.488  68.249  1.00  0.00    -0.113 A  
HETATM   19  C   UNL     1     -10.860   7.874  69.934  1.00  0.00    -0.221 A  
BRANCH  11  20
HETATM   20  O   UNL     1     -11.575  11.776  66.543  1.00  0.00    -0.481 OA 
BRANCH  20  21
HETATM   21  C   UNL     1     -11.802  13.140  66.276  1.00  0.00    -0.401 C  
HETATM   22  O   UNL     1     -12.023  14.011  67.109  1.00  0.00    -0.400 OA 
HETATM   23  C   UNL     1     -11.735  13.406  64.778  1.00  0.00    -0.393 C  
HETATM   24  C   UNL     1     -10.296  13.684  64.345  1.00  0.00    -0.242 C  
HETATM   25  C   UNL     1     -12.621  14.600  64.416  1.00  0.00    -0.157 C  
ENDBRANCH  20  21
ENDBRANCH  11  20
BRANCH  18  26
HETATM   26  C   UNL     1      -6.618   9.917  68.779  1.00  0.00    -0.046 C  
HETATM   27  O   UNL     1      -6.826   8.879  69.732  1.00  0.00    -0.044 OA 
HETATM   28  H   UNL     1      -6.012   8.519  70.065  1.00  0.00     0.000 HD 
ENDBRANCH  18  26
ENDBRANCH   5   6
ENDBRANCH   4   5
BRANCH   4  29
HETATM   29  C   UNL     1     -13.848  13.849  71.138  1.00  0.00     0.056 C  
HETATM   30  C   UNL     1     -13.975  13.065  72.454  1.00  0.00    -0.426 C  
HETATM   31  C   UNL     1     -14.290  15.288  71.504  1.00  0.00    -0.633 C  
ENDBRANCH   4  29
ENDBRANCH   2   4
TORSDOF 7
ENDMDL
MODEL      126
REMARK 921   NORMALIZED FREE ENERGY PREDICTED BY IDOCK:   -4.04 KCAL/MOL
REMARK 922        TOTAL FREE ENERGY PREDICTED BY IDOCK:   -7.10 KCAL/MOL
REMARK 923 INTER-LIGAND FREE ENERGY PREDICTED BY IDOCK:   -4.98 KCAL/MOL
REMARK 924 INTRA-LIGAND FREE ENERGY PREDICTED BY IDOCK:   -2.12 KCAL/MOL
REMARK 927      BINDING AFFINITY PREDICTED BY RF-SCORE:    0.00 PKD
ROOT
HETATM    1  C   UNL     1      -7.036   9.451  68.833  1.00  0.00    -0.063 C  
HETATM    2  C   UNL     1      -6.895   9.141  67.323  1.00  0.00    -0.077 C  
HETATM    3  C   UNL     1      -6.067   7.847  67.286  1.00  0.00    -0.053 C  
ENDROOT
BRANCH   2   4
HETATM    4  N   UNL     1      -8.206   9.116  66.588  1.00  0.00    -0.114 NA 
BRANCH   4   5
HETATM    5  C   UNL     1      -9.389   9.284  67.490  1.00  0.00    -0.127 C  
BRANCH   5   6
HETATM    6  C   UNL     1     -10.535   8.249  67.331  1.00  0.00    -0.353 C  
HETATM    7  C   UNL     1     -10.598   7.083  68.381  1.00  0.00    -0.240 C  
HETATM    8  C   UNL     1      -9.317   6.207  68.373  1.00  0.00    -0.116 A  
HETATM    9  C   UNL     1     -11.056   7.519  69.808  1.00  0.00    -0.143 A  
HETATM   10  C   UNL     1     -11.069   8.860  70.213  1.00  0.00    -0.251 A  
HETATM   11  C   UNL     1      -8.845   5.492  67.252  1.00  0.00    -0.105 A  
HETATM   12  C   UNL     1      -7.722   4.649  67.357  1.00  0.00    -0.090 A  
HETATM   13  C   UNL     1     -11.151   9.251  71.548  1.00  0.00    -0.443 A  
HETATM   14  C   UNL     1     -11.423   6.955  72.159  1.00  0.00    -0.316 A  
HETATM   15  C   UNL     1      -7.023   4.527  68.559  1.00  0.00    -0.052 A  
HETATM   16  C   UNL     1     -11.288   8.290  72.532  1.00  0.00    -0.455 A  
HETATM   17  C   UNL     1      -8.568   6.059  69.566  1.00  0.00    -0.119 A  
HETATM   18  C   UNL     1      -7.442   5.230  69.683  1.00  0.00    -0.065 A  
HETATM   19  C   UNL     1     -11.352   6.572  70.809  1.00  0.00    -0.399 A  
BRANCH  11  20
HETATM   20  O   UNL     1      -9.557   5.529  66.021  1.00  0.00    -0.157 OA 
BRANCH  20  21
HETATM   21  C   UNL     1      -8.872   5.319  64.808  1.00  0.00    -0.063 C  
HETATM   22  O   UNL     1      -7.892   5.941  64.415  1.00  0.00    -0.099 OA 
HETATM   23  C   UNL     1      -9.519   4.186  64.022  1.00  0.00    -0.152 C  
HETATM   24  C   UNL     1      -8.939   2.838  64.446  1.00  0.00    -0.116 C  
HETATM   25  C   UNL     1      -9.298   4.394  62.522  1.00  0.00    -0.123 C  
ENDBRANCH  20  21
ENDBRANCH  11  20
BRANCH  18  26
HETATM   26  C   UNL     1      -6.767   5.014  71.018  1.00  0.00    -0.042 C  
HETATM   27  O   UNL     1      -6.399   6.236  71.651  1.00  0.00    -0.043 OA 
HETATM   28  H   UNL     1      -5.975   6.100  72.490  1.00  0.00     0.000 HD 
ENDBRANCH  18  26
ENDBRANCH   5   6
ENDBRANCH   4   5
BRANCH   4  29
HETATM   29  C   UNL     1      -8.333   9.974  65.371  1.00  0.00    -0.151 C  
HETATM   30  C   UNL     1      -8.716   9.237  64.077  1.00  0.00    -0.198 C  
HETATM   31  C   UNL     1      -9.419  11.067  65.529  1.00  0.00    -0.250 C  
ENDBRANCH   4  29
ENDBRANCH   2   4
TORSDOF 7
ENDMDL
MODEL      127
REMARK 921   NORMALIZED FREE ENERGY PREDICTED BY IDOCK:   -4.02 KCAL/MOL
REMARK 922        TOTAL FREE ENERGY PREDICTED BY IDOCK:   -7.07 KCAL/MOL
REMARK 923 INTER-LIGAND FREE ENERGY PREDICTED BY IDOCK:   -5.12 KCAL/MOL
REMARK 924 INTRA-LIGAND FREE ENERGY PREDICTED BY IDOCK:   -1.96 KCAL/MOL
REMARK 927      BINDING AFFINITY PREDICTED BY RF-SCORE:    0.00 PKD
ROOT
HETATM    1  C   UNL     1     -10.670   4.702  72.748  1.00  0.00    -0.273 C  
HETATM    2  C   UNL     1     -10.006   5.385  71.528  1.00  0.00    -0.181 C  
HETATM    3  C   UNL     1      -9.881   4.255  70.493  1.00  0.00    -0.269 C  
ENDROOT
BRANCH   2   4
HETATM    4  N   UNL     1     -10.716   6.630  71.073  1.00  0.00    -0.230 NA 
BRANCH   4   5
HETATM    5  C   UNL     1     -11.212   6.542  69.664  1.00  0.00    -0.384 C  
BRANCH   5   6
HETATM    6  C   UNL     1     -10.878   7.741  68.735  1.00  0.00    -0.006 C  
HETATM    7  C   UNL     1      -9.568   7.638  67.876  1.00  0.00    -0.164 C  
HETATM    8  C   UNL     1      -8.294   7.494  68.751  1.00  0.00    -0.129 A  
HETATM    9  C   UNL     1      -9.643   6.618  66.697  1.00  0.00    -0.207 A  
HETATM   10  C   UNL     1     -10.639   5.636  66.620  1.00  0.00    -0.361 A  
HETATM   11  C   UNL     1      -7.874   8.437  69.714  1.00  0.00    -0.099 A  
HETATM   12  C   UNL     1      -6.657   8.269  70.401  1.00  0.00    -0.036 A  
HETATM   13  C   UNL     1     -10.549   4.526  65.781  1.00  0.00    -0.226 A  
HETATM   14  C   UNL     1      -8.526   5.425  64.879  1.00  0.00    -0.148 A  
HETATM   15  C   UNL     1      -5.852   7.151  70.179  1.00  0.00    -0.024 A  
HETATM   16  C   UNL     1      -9.465   4.398  64.934  1.00  0.00    -0.164 A  
HETATM   17  C   UNL     1      -7.449   6.371  68.570  1.00  0.00    -0.088 A  
HETATM   18  C   UNL     1      -6.238   6.187  69.254  1.00  0.00    -0.033 A  
HETATM   19  C   UNL     1      -8.632   6.546  65.718  1.00  0.00    -0.149 A  
BRANCH  11  20
HETATM   20  O   UNL     1      -8.624   9.626  69.931  1.00  0.00    -0.168 OA 
BRANCH  20  21
HETATM   21  C   UNL     1      -8.654  10.626  68.940  1.00  0.00    -0.158 C  
HETATM   22  O   UNL     1      -9.650  11.223  68.546  1.00  0.00    -0.188 OA 
HETATM   23  C   UNL     1      -7.253  10.882  68.400  1.00  0.00    -0.087 C  
HETATM   24  C   UNL     1      -6.529  11.921  69.257  1.00  0.00    -0.111 C  
HETATM   25  C   UNL     1      -7.327  11.371  66.952  1.00  0.00    -0.147 C  
ENDBRANCH  20  21
ENDBRANCH  11  20
BRANCH  18  26
HETATM   26  C   UNL     1      -5.320   5.035  68.919  1.00  0.00    -0.004 C  
HETATM   27  O   UNL     1      -5.724   4.333  67.748  1.00  0.00    -0.020 OA 
HETATM   28  H   UNL     1      -5.147   3.609  67.537  1.00  0.00     0.000 HD 
ENDBRANCH  18  26
ENDBRANCH   5   6
ENDBRANCH   4   5
BRANCH   4  29
HETATM   29  C   UNL     1     -11.763   7.197  71.977  1.00  0.00    -0.289 C  
HETATM   30  C   UNL     1     -11.660   8.707  72.245  1.00  0.00    -0.424 C  
HETATM   31  C   UNL     1     -13.195   7.001  71.418  1.00  0.00    -0.352 C  
ENDBRANCH   4  29
ENDBRANCH   2   4
TORSDOF 7
ENDMDL
MODEL      128
REMARK 921   NORMALIZED FREE ENERGY PREDICTED BY IDOCK:   -4.00 KCAL/MOL
REMARK 922        TOTAL FREE ENERGY PREDICTED BY IDOCK:   -7.05 KCAL/MOL
REMARK 923 INTER-LIGAND FREE ENERGY PREDICTED BY IDOCK:   -5.32 KCAL/MOL
REMARK 924 INTRA-LIGAND FREE ENERGY PREDICTED BY IDOCK:   -1.73 KCAL/MOL
REMARK 927      BINDING AFFINITY PREDICTED BY RF-SCORE:    0.00 PKD
ROOT
HETATM    1  C   UNL     1     -11.100   6.121  68.467  1.00  0.00    -0.352 C  
HETATM    2  C   UNL     1      -9.787   5.503  67.927  1.00  0.00    -0.138 C  
HETATM    3  C   UNL     1     -10.220   4.779  66.642  1.00  0.00    -0.274 C  
ENDROOT
BRANCH   2   4
HETATM    4  N   UNL     1      -8.666   6.495  67.789  1.00  0.00    -0.116 NA 
BRANCH   4   5
HETATM    5  C   UNL     1      -7.687   6.436  68.920  1.00  0.00    -0.108 C  
BRANCH   5   6
HETATM    6  C   UNL     1      -6.985   7.768  69.299  1.00  0.00    -0.060 C  
HETATM    7  C   UNL     1      -7.559   8.555  70.531  1.00  0.00    -0.074 C  
HETATM    8  C   UNL     1      -9.040   8.971  70.332  1.00  0.00    -0.242 A  
HETATM    9  C   UNL     1      -7.270   7.893  71.915  1.00  0.00    -0.076 A  
HETATM   10  C   UNL     1      -6.855   6.561  72.035  1.00  0.00    -0.068 A  
HETATM   11  C   UNL     1      -9.505   9.797  69.285  1.00  0.00    -0.194 A  
HETATM   12  C   UNL     1     -10.853  10.199  69.231  1.00  0.00    -0.269 A  
HETATM   13  C   UNL     1      -6.905   5.854  73.235  1.00  0.00    -0.083 A  
HETATM   14  C   UNL     1      -7.609   7.856  74.336  1.00  0.00    -0.232 A  
HETATM   15  C   UNL     1     -11.774   9.763  70.184  1.00  0.00    -0.190 A  
HETATM   16  C   UNL     1      -7.324   6.494  74.386  1.00  0.00    -0.099 A  
HETATM   17  C   UNL     1     -10.015   8.546  71.268  1.00  0.00    -0.284 A  
HETATM   18  C   UNL     1     -11.363   8.932  71.221  1.00  0.00    -0.371 A  
HETATM   19  C   UNL     1      -7.542   8.564  73.124  1.00  0.00    -0.041 A  
BRANCH  11  20
HETATM   20  O   UNL     1      -8.596  10.323  68.325  1.00  0.00    -0.117 OA 
BRANCH  20  21
HETATM   21  C   UNL     1      -8.323  11.705  68.303  1.00  0.00    -0.159 C  
HETATM   22  O   UNL     1      -9.154  12.604  68.255  1.00  0.00    -0.199 OA 
HETATM   23  C   UNL     1      -6.820  11.950  68.347  1.00  0.00    -0.071 C  
HETATM   24  C   UNL     1      -6.326  11.996  69.792  1.00  0.00    -0.110 C  
HETATM   25  C   UNL     1      -6.481  13.266  67.643  1.00  0.00    -0.167 C  
ENDBRANCH  20  21
ENDBRANCH  11  20
BRANCH  18  26
HETATM   26  C   UNL     1     -12.323   8.550  72.324  1.00  0.00    -0.387 C  
HETATM   27  O   UNL     1     -13.379   9.492  72.482  1.00  0.00    -0.572 OA 
HETATM   28  H   UNL     1     -13.983   9.252  73.175  1.00  0.00     0.000 HD 
ENDBRANCH  18  26
ENDBRANCH   5   6
ENDBRANCH   4   5
BRANCH   4  29
HETATM   29  C   UNL     1      -7.962   6.563  66.472  1.00  0.00    -0.109 C  
HETATM   30  C   UNL     1      -7.942   7.946  65.802  1.00  0.00    -0.109 C  
HETATM   31  C   UNL     1      -6.469   6.165  66.579  1.00  0.00    -0.046 C  
ENDBRANCH   4  29
ENDBRANCH   2   4
TORSDOF 7
ENDMDL
MODEL      129
REMARK 921   NORMALIZED FREE ENERGY PREDICTED BY IDOCK:   -3.99 KCAL/MOL
REMARK 922        TOTAL FREE ENERGY PREDICTED BY IDOCK:   -7.03 KCAL/MOL
REMARK 923 INTER-LIGAND FREE ENERGY PREDICTED BY IDOCK:   -4.76 KCAL/MOL
REMARK 924 INTRA-LIGAND FREE ENERGY PREDICTED BY IDOCK:   -2.26 KCAL/MOL
REMARK 927      BINDING AFFINITY PREDICTED BY RF-SCORE:    0.00 PKD
ROOT
HETATM    1  C   UNL     1     -11.202   6.717  66.869  1.00  0.00    -0.178 C  
HETATM    2  C   UNL     1     -10.045   6.774  67.895  1.00  0.00    -0.159 C  
HETATM    3  C   UNL     1     -10.331   5.598  68.843  1.00  0.00    -0.295 C  
ENDROOT
BRANCH   2   4
HETATM    4  N   UNL     1      -8.680   6.806  67.264  1.00  0.00    -0.119 NA 
BRANCH   4   5
HETATM    5  C   UNL     1      -7.599   6.320  68.178  1.00  0.00    -0.102 C  
BRANCH   5   6
HETATM    6  C   UNL     1      -6.724   7.409  68.857  1.00  0.00    -0.049 C  
HETATM    7  C   UNL     1      -6.874   7.582  70.411  1.00  0.00    -0.047 C  
HETATM    8  C   UNL     1      -8.319   7.967  70.829  1.00  0.00    -0.115 A  
HETATM    9  C   UNL     1      -6.261   6.421  71.255  1.00  0.00    -0.040 A  
HETATM   10  C   UNL     1      -5.927   5.183  70.693  1.00  0.00    -0.018 A  
HETATM   11  C   UNL     1      -8.994   9.127  70.394  1.00  0.00    -0.229 A  
HETATM   12  C   UNL     1     -10.272   9.445  70.893  1.00  0.00    -0.373 A  
HETATM   13  C   UNL     1      -5.693   4.040  71.456  1.00  0.00    -0.008 A  
HETATM   14  C   UNL     1      -5.916   5.365  73.433  1.00  0.00    -0.032 A  
HETATM   15  C   UNL     1     -10.920   8.605  71.800  1.00  0.00    -0.396 A  
HETATM   16  C   UNL     1      -5.728   4.121  72.834  1.00  0.00    -0.011 A  
HETATM   17  C   UNL     1      -9.023   7.142  71.740  1.00  0.00    -0.134 A  
HETATM   18  C   UNL     1     -10.299   7.441  72.238  1.00  0.00    -0.251 A  
HETATM   19  C   UNL     1      -6.137   6.514  72.656  1.00  0.00    -0.046 A  
BRANCH  11  20
HETATM   20  O   UNL     1      -8.353  10.050  69.522  1.00  0.00    -0.145 OA 
BRANCH  20  21
HETATM   21  C   UNL     1      -9.101  10.709  68.526  1.00  0.00    -0.159 C  
HETATM   22  O   UNL     1      -9.854  11.660  68.700  1.00  0.00    -0.203 OA 
HETATM   23  C   UNL     1      -8.851  10.072  67.166  1.00  0.00    -0.142 C  
HETATM   24  C   UNL     1      -7.630  10.700  66.495  1.00  0.00    -0.134 C  
HETATM   25  C   UNL     1     -10.079  10.248  66.269  1.00  0.00    -0.300 C  
ENDBRANCH  20  21
ENDBRANCH  11  20
BRANCH  18  26
HETATM   26  C   UNL     1     -10.939   6.587  73.308  1.00  0.00    -0.195 C  
HETATM   27  O   UNL     1     -12.014   5.797  72.810  1.00  0.00    -0.527 OA 
HETATM   28  H   UNL     1     -12.417   5.260  73.482  1.00  0.00     0.000 HD 
ENDBRANCH  18  26
ENDBRANCH   5   6
ENDBRANCH   4   5
BRANCH   4  29
HETATM   29  C   UNL     1      -8.537   6.213  65.899  1.00  0.00    -0.147 C  
HETATM   30  C   UNL     1      -7.619   6.982  64.936  1.00  0.00    -0.106 C  
HETATM   31  C   UNL     1      -7.944   4.782  65.937  1.00  0.00    -0.103 C  
ENDBRANCH   4  29
ENDBRANCH   2   4
TORSDOF 7
ENDMDL
MODEL      130
REMARK 921   NORMALIZED FREE ENERGY PREDICTED BY IDOCK:   -3.93 KCAL/MOL
REMARK 922        TOTAL FREE ENERGY PREDICTED BY IDOCK:   -6.95 KCAL/MOL
REMARK 923 INTER-LIGAND FREE ENERGY PREDICTED BY IDOCK:   -6.31 KCAL/MOL
REMARK 924 INTRA-LIGAND FREE ENERGY PREDICTED BY IDOCK:   -0.64 KCAL/MOL
REMARK 927      BINDING AFFINITY PREDICTED BY RF-SCORE:    0.00 PKD
ROOT
HETATM    1  C   UNL     1     -11.468  12.002  63.936  1.00  0.00    -0.518 C  
HETATM    2  C   UNL     1     -11.406  12.068  65.481  1.00  0.00    -0.328 C  
HETATM    3  C   UNL     1     -10.664  10.782  65.877  1.00  0.00    -0.143 C  
ENDROOT
BRANCH   2   4
HETATM    4  N   UNL     1     -10.836  13.356  66.007  1.00  0.00    -0.273 NA 
BRANCH   4   5
HETATM    5  C   UNL     1      -9.414  13.580  65.597  1.00  0.00     0.127 C  
BRANCH   5   6
HETATM    6  C   UNL     1      -8.436  14.042  66.712  1.00  0.00    -0.019 C  
HETATM    7  C   UNL     1      -8.424  13.211  68.044  1.00  0.00    -0.181 C  
HETATM    8  C   UNL     1      -9.804  13.206  68.754  1.00  0.00     0.005 A  
HETATM    9  C   UNL     1      -7.773  11.797  67.921  1.00  0.00    -0.125 A  
HETATM   10  C   UNL     1      -7.543  11.185  66.683  1.00  0.00    -0.147 A  
HETATM   11  C   UNL     1     -10.476  14.364  69.202  1.00  0.00    -0.189 A  
HETATM   12  C   UNL     1     -11.685  14.262  69.916  1.00  0.00    -0.373 A  
HETATM   13  C   UNL     1      -7.277   9.824  66.545  1.00  0.00    -0.094 A  
HETATM   14  C   UNL     1      -7.252   9.631  68.928  1.00  0.00    -0.072 A  
HETATM   15  C   UNL     1     -12.271  13.021  70.168  1.00  0.00    -0.342 A  
HETATM   16  C   UNL     1      -7.171   9.032  67.673  1.00  0.00    -0.083 A  
HETATM   17  C   UNL     1     -10.445  11.972  69.023  1.00  0.00    -0.087 A  
HETATM   18  C   UNL     1     -11.653  11.856  69.726  1.00  0.00    -0.359 A  
HETATM   19  C   UNL     1      -7.507  11.007  69.057  1.00  0.00    -0.129 A  
BRANCH  11  20
HETATM   20  O   UNL     1      -9.891  15.649  69.029  1.00  0.00    -0.207 OA 
BRANCH  20  21
HETATM   21  C   UNL     1     -10.643  16.688  68.447  1.00  0.00    -0.343 C  
HETATM   22  O   UNL     1     -11.863  16.802  68.478  1.00  0.00     0.155 OA 
HETATM   23  C   UNL     1      -9.724  17.684  67.752  1.00  0.00    -0.280 C  
HETATM   24  C   UNL     1      -9.240  18.747  68.737  1.00  0.00    -0.342 C  
HETATM   25  C   UNL     1     -10.458  18.355  66.589  1.00  0.00    -0.415 C  
ENDBRANCH  20  21
ENDBRANCH  11  20
BRANCH  18  26
HETATM   26  C   UNL     1     -12.215  10.503  70.096  1.00  0.00    -0.280 C  
HETATM   27  O   UNL     1     -11.489   9.428  69.507  1.00  0.00    -0.440 OA 
HETATM   28  H   UNL     1     -11.842   8.577  69.739  1.00  0.00     0.000 HD 
ENDBRANCH  18  26
ENDBRANCH   5   6
ENDBRANCH   4   5
BRANCH   4  29
HETATM   29  C   UNL     1     -11.649  14.597  65.824  1.00  0.00    -0.328 C  
HETATM   30  C   UNL     1     -11.156  15.557  64.728  1.00  0.00    -0.421 C  
HETATM   31  C   UNL     1     -13.117  14.290  65.434  1.00  0.00    -0.085 C  
ENDBRANCH   4  29
ENDBRANCH   2   4
TORSDOF 7
ENDMDL
MODEL      131
REMARK 921   NORMALIZED FREE ENERGY PREDICTED BY IDOCK:   -3.88 KCAL/MOL
REMARK 922        TOTAL FREE ENERGY PREDICTED BY IDOCK:   -6.88 KCAL/MOL
REMARK 923 INTER-LIGAND FREE ENERGY PREDICTED BY IDOCK:   -5.34 KCAL/MOL
REMARK 924 INTRA-LIGAND FREE ENERGY PREDICTED BY IDOCK:   -1.54 KCAL/MOL
REMARK 927      BINDING AFFINITY PREDICTED BY RF-SCORE:    0.00 PKD
ROOT
HETATM    1  C   UNL     1      -8.127   5.552  64.429  1.00  0.00    -0.124 C  
HETATM    2  C   UNL     1      -9.250   4.852  65.233  1.00  0.00    -0.139 C  
HETATM    3  C   UNL     1      -9.948   3.960  64.194  1.00  0.00    -0.194 C  
ENDROOT
BRANCH   2   4
HETATM    4  N   UNL     1      -8.762   4.168  66.480  1.00  0.00    -0.113 NA 
BRANCH   4   5
HETATM    5  C   UNL     1      -9.230   4.833  67.736  1.00  0.00    -0.125 C  
BRANCH   5   6
HETATM    6  C   UNL     1      -8.657   6.247  68.027  1.00  0.00    -0.116 C  
HETATM    7  C   UNL     1      -8.390   6.616  69.530  1.00  0.00    -0.131 C  
HETATM    8  C   UNL     1      -9.680   6.565  70.392  1.00  0.00    -0.186 A  
HETATM    9  C   UNL     1      -7.172   5.881  70.172  1.00  0.00    -0.072 A  
HETATM   10  C   UNL     1      -6.590   4.748  69.590  1.00  0.00    -0.036 A  
HETATM   11  C   UNL     1     -10.830   7.348  70.155  1.00  0.00    -0.256 A  
HETATM   12  C   UNL     1     -11.925   7.303  71.041  1.00  0.00    -0.362 A  
HETATM   13  C   UNL     1      -5.738   3.890  70.283  1.00  0.00    -0.017 A  
HETATM   14  C   UNL     1      -5.831   5.376  72.153  1.00  0.00    -0.022 A  
HETATM   15  C   UNL     1     -11.918   6.459  72.152  1.00  0.00    -0.346 A  
HETATM   16  C   UNL     1      -5.388   4.183  71.587  1.00  0.00     0.000 A  
HETATM   17  C   UNL     1      -9.726   5.717  71.525  1.00  0.00    -0.193 A  
HETATM   18  C   UNL     1     -10.812   5.656  72.411  1.00  0.00    -0.298 A  
HETATM   19  C   UNL     1      -6.680   6.241  71.443  1.00  0.00    -0.055 A  
BRANCH  11  20
HETATM   20  O   UNL     1     -10.864   8.272  69.075  1.00  0.00    -0.131 OA 
BRANCH  20  21
HETATM   21  C   UNL     1     -10.747   9.653  69.331  1.00  0.00    -0.228 C  
HETATM   22  O   UNL     1     -10.374  10.163  70.380  1.00  0.00    -0.258 OA 
HETATM   23  C   UNL     1     -11.156  10.457  68.104  1.00  0.00    -0.344 C  
HETATM   24  C   UNL     1      -9.964  10.651  67.168  1.00  0.00    -0.234 C  
HETATM   25  C   UNL     1     -11.706  11.821  68.527  1.00  0.00    -0.390 C  
ENDBRANCH  20  21
ENDBRANCH  11  20
BRANCH  18  26
HETATM   26  C   UNL     1     -10.745   4.829  73.673  1.00  0.00    -0.285 C  
HETATM   27  O   UNL     1     -11.270   3.517  73.499  1.00  0.00    -0.229 OA 
HETATM   28  H   UNL     1     -11.227   2.996  74.293  1.00  0.00     0.000 HD 
ENDBRANCH  18  26
ENDBRANCH   5   6
ENDBRANCH   4   5
BRANCH   4  29
HETATM   29  C   UNL     1      -8.928   2.685  66.563  1.00  0.00    -0.139 C  
HETATM   30  C   UNL     1      -7.681   1.858  66.210  1.00  0.00    -0.070 C  
HETATM   31  C   UNL     1      -9.313   2.213  67.987  1.00  0.00    -0.244 C  
ENDBRANCH   4  29
ENDBRANCH   2   4
TORSDOF 7
ENDMDL
MODEL      132
REMARK 921   NORMALIZED FREE ENERGY PREDICTED BY IDOCK:   -3.88 KCAL/MOL
REMARK 922        TOTAL FREE ENERGY PREDICTED BY IDOCK:   -6.87 KCAL/MOL
REMARK 923 INTER-LIGAND FREE ENERGY PREDICTED BY IDOCK:   -5.44 KCAL/MOL
REMARK 924 INTRA-LIGAND FREE ENERGY PREDICTED BY IDOCK:   -1.43 KCAL/MOL
REMARK 927      BINDING AFFINITY PREDICTED BY RF-SCORE:    0.00 PKD
ROOT
HETATM    1  C   UNL     1     -11.269  11.075  69.276  1.00  0.00    -0.321 C  
HETATM    2  C   UNL     1     -11.377  10.118  70.488  1.00  0.00    -0.338 C  
HETATM    3  C   UNL     1     -12.633  10.602  71.230  1.00  0.00    -0.533 C  
ENDROOT
BRANCH   2   4
HETATM    4  N   UNL     1     -11.343   8.663  70.112  1.00  0.00    -0.148 NA 
BRANCH   4   5
HETATM    5  C   UNL     1     -10.280   8.340  69.109  1.00  0.00    -0.218 C  
BRANCH   5   6
HETATM    6  C   UNL     1      -8.900   7.909  69.677  1.00  0.00    -0.138 C  
HETATM    7  C   UNL     1      -7.749   7.649  68.640  1.00  0.00    -0.119 C  
HETATM    8  C   UNL     1      -8.097   6.516  67.638  1.00  0.00    -0.118 A  
HETATM    9  C   UNL     1      -7.181   8.937  67.965  1.00  0.00    -0.083 A  
HETATM   10  C   UNL     1      -7.856  10.162  68.005  1.00  0.00    -0.096 A  
HETATM   11  C   UNL     1      -8.391   5.186  68.007  1.00  0.00    -0.097 A  
HETATM   12  C   UNL     1      -8.609   4.199  67.025  1.00  0.00    -0.105 A  
HETATM   13  C   UNL     1      -7.554  11.226  67.156  1.00  0.00    -0.137 A  
HETATM   14  C   UNL     1      -5.717   9.960  66.295  1.00  0.00    -0.058 A  
HETATM   15  C   UNL     1      -8.579   4.516  65.667  1.00  0.00    -0.121 A  
HETATM   16  C   UNL     1      -6.503  11.110  66.266  1.00  0.00    -0.082 A  
HETATM   17  C   UNL     1      -8.090   6.790  66.249  1.00  0.00    -0.112 A  
HETATM   18  C   UNL     1      -8.313   5.819  65.261  1.00  0.00    -0.146 A  
HETATM   19  C   UNL     1      -6.022   8.899  67.164  1.00  0.00    -0.057 A  
BRANCH  11  20
HETATM   20  O   UNL     1      -8.369   4.795  69.374  1.00  0.00    -0.076 OA 
BRANCH  20  21
HETATM   21  C   UNL     1      -9.581   4.559  70.054  1.00  0.00    -0.197 C  
HETATM   22  O   UNL     1     -10.702   4.849  69.653  1.00  0.00    -0.003 OA 
HETATM   23  C   UNL     1      -9.316   3.877  71.390  1.00  0.00    -0.208 C  
HETATM   24  C   UNL     1      -9.256   2.360  71.215  1.00  0.00    -0.187 C  
HETATM   25  C   UNL     1     -10.415   4.237  72.392  1.00  0.00    -0.196 C  
ENDBRANCH  20  21
ENDBRANCH  11  20
BRANCH  18  26
HETATM   26  C   UNL     1      -8.161   6.149  63.794  1.00  0.00    -0.067 C  
HETATM   27  O   UNL     1      -8.399   7.525  63.512  1.00  0.00    -0.359 OA 
HETATM   28  H   UNL     1      -8.302   7.732  62.590  1.00  0.00     0.000 HD 
ENDBRANCH  18  26
ENDBRANCH   5   6
ENDBRANCH   4   5
BRANCH   4  29
HETATM   29  C   UNL     1     -11.356   7.662  71.223  1.00  0.00    -0.264 C  
HETATM   30  C   UNL     1     -10.887   8.184  72.590  1.00  0.00    -0.429 C  
HETATM   31  C   UNL     1     -12.773   7.097  71.492  1.00  0.00    -0.433 C  
ENDBRANCH   4  29
ENDBRANCH   2   4
TORSDOF 7
ENDMDL
MODEL      133
REMARK 921   NORMALIZED FREE ENERGY PREDICTED BY IDOCK:   -3.88 KCAL/MOL
REMARK 922        TOTAL FREE ENERGY PREDICTED BY IDOCK:   -6.87 KCAL/MOL
REMARK 923 INTER-LIGAND FREE ENERGY PREDICTED BY IDOCK:   -5.61 KCAL/MOL
REMARK 924 INTRA-LIGAND FREE ENERGY PREDICTED BY IDOCK:   -1.26 KCAL/MOL
REMARK 927      BINDING AFFINITY PREDICTED BY RF-SCORE:    0.00 PKD
ROOT
HETATM    1  C   UNL     1      -6.779   5.997  65.456  1.00  0.00    -0.048 C  
HETATM    2  C   UNL     1      -8.326   6.017  65.416  1.00  0.00    -0.150 C  
HETATM    3  C   UNL     1      -8.739   5.130  66.602  1.00  0.00    -0.109 C  
ENDROOT
BRANCH   2   4
HETATM    4  N   UNL     1      -8.910   7.402  65.384  1.00  0.00     0.021 NA 
BRANCH   4   5
HETATM    5  C   UNL     1      -9.134   7.977  66.748  1.00  0.00    -0.155 C  
BRANCH   5   6
HETATM    6  C   UNL     1      -7.986   8.846  67.331  1.00  0.00    -0.101 C  
HETATM    7  C   UNL     1      -8.231   9.509  68.733  1.00  0.00    -0.112 C  
HETATM    8  C   UNL     1      -9.447  10.472  68.730  1.00  0.00    -0.181 A  
HETATM    9  C   UNL     1      -8.219   8.511  69.933  1.00  0.00    -0.121 A  
HETATM   10  C   UNL     1      -8.334   7.127  69.757  1.00  0.00    -0.132 A  
HETATM   11  C   UNL     1      -9.562  11.612  67.905  1.00  0.00    -0.180 A  
HETATM   12  C   UNL     1     -10.662  12.483  68.031  1.00  0.00    -0.242 A  
HETATM   13  C   UNL     1      -8.653   6.251  70.793  1.00  0.00    -0.135 A  
HETATM   14  C   UNL     1      -8.562   8.090  72.317  1.00  0.00    -0.212 A  
HETATM   15  C   UNL     1     -11.684  12.224  68.944  1.00  0.00    -0.380 A  
HETATM   16  C   UNL     1      -8.809   6.741  72.076  1.00  0.00    -0.134 A  
HETATM   17  C   UNL     1     -10.516  10.248  69.632  1.00  0.00    -0.286 A  
HETATM   18  C   UNL     1     -11.621  11.102  69.762  1.00  0.00    -0.409 A  
HETATM   19  C   UNL     1      -8.228   8.963  71.268  1.00  0.00    -0.207 A  
BRANCH  11  20
HETATM   20  O   UNL     1      -8.517  11.957  67.004  1.00  0.00    -0.166 OA 
BRANCH  20  21
HETATM   21  C   UNL     1      -7.273  12.387  67.506  1.00  0.00    -0.145 C  
HETATM   22  O   UNL     1      -6.181  11.893  67.248  1.00  0.00    -0.109 OA 
HETATM   23  C   UNL     1      -7.458  13.578  68.436  1.00  0.00    -0.124 C  
HETATM   24  C   UNL     1      -7.455  14.884  67.643  1.00  0.00    -0.205 C  
HETATM   25  C   UNL     1      -6.341  13.608  69.482  1.00  0.00    -0.114 C  
ENDBRANCH  20  21
ENDBRANCH  11  20
BRANCH  18  26
HETATM   26  C   UNL     1     -12.660  10.876  70.835  1.00  0.00    -0.397 C  
HETATM   27  O   UNL     1     -13.647   9.923  70.453  1.00  0.00    -0.547 OA 
HETATM   28  H   UNL     1     -14.300   9.780  71.128  1.00  0.00     0.000 HD 
ENDBRANCH  18  26
ENDBRANCH   5   6
ENDBRANCH   4   5
BRANCH   4  29
HETATM   29  C   UNL     1      -8.266   8.403  64.479  1.00  0.00    -0.146 C  
HETATM   30  C   UNL     1      -8.047   7.939  63.029  1.00  0.00    -0.108 C  
HETATM   31  C   UNL     1      -9.098   9.702  64.347  1.00  0.00    -0.279 C  
ENDBRANCH   4  29
ENDBRANCH   2   4
TORSDOF 7
ENDMDL
MODEL      134
REMARK 921   NORMALIZED FREE ENERGY PREDICTED BY IDOCK:   -3.84 KCAL/MOL
REMARK 922        TOTAL FREE ENERGY PREDICTED BY IDOCK:   -6.82 KCAL/MOL
REMARK 923 INTER-LIGAND FREE ENERGY PREDICTED BY IDOCK:   -5.75 KCAL/MOL
REMARK 924 INTRA-LIGAND FREE ENERGY PREDICTED BY IDOCK:   -1.08 KCAL/MOL
REMARK 927      BINDING AFFINITY PREDICTED BY RF-SCORE:    0.00 PKD
ROOT
HETATM    1  C   UNL     1     -12.011  12.906  69.641  1.00  0.00    -0.358 C  
HETATM    2  C   UNL     1     -11.429  12.502  68.265  1.00  0.00    -0.308 C  
HETATM    3  C   UNL     1     -11.916  13.609  67.316  1.00  0.00    -0.420 C  
ENDROOT
BRANCH   2   4
HETATM    4  N   UNL     1      -9.947  12.249  68.288  1.00  0.00    -0.214 NA 
BRANCH   4   5
HETATM    5  C   UNL     1      -9.598  10.840  68.655  1.00  0.00    -0.187 C  
BRANCH   5   6
HETATM    6  C   UNL     1     -10.420   9.719  67.962  1.00  0.00    -0.271 C  
HETATM    7  C   UNL     1     -10.410   8.302  68.637  1.00  0.00    -0.225 C  
HETATM    8  C   UNL     1      -8.983   7.698  68.730  1.00  0.00    -0.133 A  
HETATM    9  C   UNL     1     -11.221   8.211  69.968  1.00  0.00    -0.084 A  
HETATM   10  C   UNL     1     -11.622   9.349  70.678  1.00  0.00    -0.330 A  
HETATM   11  C   UNL     1      -8.152   7.438  67.619  1.00  0.00    -0.114 A  
HETATM   12  C   UNL     1      -6.905   6.806  67.787  1.00  0.00    -0.081 A  
HETATM   13  C   UNL     1     -12.048   9.307  72.005  1.00  0.00    -0.406 A  
HETATM   14  C   UNL     1     -11.890   6.923  71.935  1.00  0.00    -0.351 A  
HETATM   15  C   UNL     1      -6.441   6.454  69.054  1.00  0.00    -0.043 A  
HETATM   16  C   UNL     1     -12.143   8.090  72.652  1.00  0.00    -0.283 A  
HETATM   17  C   UNL     1      -8.463   7.333  69.995  1.00  0.00    -0.139 A  
HETATM   18  C   UNL     1      -7.219   6.711  70.178  1.00  0.00    -0.080 A  
HETATM   19  C   UNL     1     -11.475   6.974  70.594  1.00  0.00    -0.367 A  
BRANCH  11  20
HETATM   20  O   UNL     1      -8.604   7.717  66.299  1.00  0.00    -0.134 OA 
BRANCH  20  21
HETATM   21  C   UNL     1      -8.240   6.864  65.239  1.00  0.00    -0.129 C  
HETATM   22  O   UNL     1      -8.565   5.688  65.115  1.00  0.00    -0.152 OA 
HETATM   23  C   UNL     1      -7.366   7.605  64.236  1.00  0.00    -0.093 C  
HETATM   24  C   UNL     1      -8.229   8.326  63.202  1.00  0.00    -0.104 C  
HETATM   25  C   UNL     1      -6.427   6.624  63.530  1.00  0.00    -0.041 C  
ENDBRANCH  20  21
ENDBRANCH  11  20
BRANCH  18  26
HETATM   26  C   UNL     1      -6.780   6.227  71.541  1.00  0.00    -0.056 C  
HETATM   27  O   UNL     1      -6.961   7.210  72.556  1.00  0.00    -0.067 OA 
HETATM   28  H   UNL     1      -6.685   6.906  73.413  1.00  0.00     0.000 HD 
ENDBRANCH  18  26
ENDBRANCH   5   6
ENDBRANCH   4   5
BRANCH   4  29
HETATM   29  C   UNL     1      -9.149  12.711  67.112  1.00  0.00    -0.210 C  
HETATM   30  C   UNL     1      -7.630  12.797  67.334  1.00  0.00    -0.152 C  
HETATM   31  C   UNL     1      -9.307  11.777  65.886  1.00  0.00    -0.214 C  
ENDBRANCH   4  29
ENDBRANCH   2   4
TORSDOF 7
ENDMDL
MODEL      135
REMARK 921   NORMALIZED FREE ENERGY PREDICTED BY IDOCK:   -3.84 KCAL/MOL
REMARK 922        TOTAL FREE ENERGY PREDICTED BY IDOCK:   -6.81 KCAL/MOL
REMARK 923 INTER-LIGAND FREE ENERGY PREDICTED BY IDOCK:   -4.52 KCAL/MOL
REMARK 924 INTRA-LIGAND FREE ENERGY PREDICTED BY IDOCK:   -2.29 KCAL/MOL
REMARK 927      BINDING AFFINITY PREDICTED BY RF-SCORE:    0.00 PKD
ROOT
HETATM    1  C   UNL     1     -10.895   7.439  70.298  1.00  0.00    -0.260 C  
HETATM    2  C   UNL     1     -10.851   8.948  70.638  1.00  0.00    -0.239 C  
HETATM    3  C   UNL     1      -9.618   9.089  71.544  1.00  0.00    -0.340 C  
ENDROOT
BRANCH   2   4
HETATM    4  N   UNL     1     -10.896   9.840  69.428  1.00  0.00    -0.231 NA 
BRANCH   4   5
HETATM    5  C   UNL     1     -11.064   9.085  68.147  1.00  0.00     0.220 C  
BRANCH   5   6
HETATM    6  C   UNL     1     -10.103   9.464  66.988  1.00  0.00    -0.304 C  
HETATM    7  C   UNL     1      -8.730   8.705  66.918  1.00  0.00    -0.133 C  
HETATM    8  C   UNL     1      -7.866   8.923  68.189  1.00  0.00    -0.101 A  
HETATM    9  C   UNL     1      -8.836   7.212  66.474  1.00  0.00    -0.154 A  
HETATM   10  C   UNL     1     -10.050   6.514  66.480  1.00  0.00    -0.144 A  
HETATM   11  C   UNL     1      -7.419  10.181  68.645  1.00  0.00    -0.084 A  
HETATM   12  C   UNL     1      -6.564  10.280  69.760  1.00  0.00    -0.090 A  
HETATM   13  C   UNL     1     -10.128   5.124  66.411  1.00  0.00    -0.268 A  
HETATM   14  C   UNL     1      -7.757   5.047  66.116  1.00  0.00    -0.091 A  
HETATM   15  C   UNL     1      -6.166   9.143  70.464  1.00  0.00    -0.049 A  
HETATM   16  C   UNL     1      -8.972   4.382  66.269  1.00  0.00    -0.120 A  
HETATM   17  C   UNL     1      -7.444   7.802  68.944  1.00  0.00    -0.095 A  
HETATM   18  C   UNL     1      -6.599   7.885  70.061  1.00  0.00    -0.037 A  
HETATM   19  C   UNL     1      -7.689   6.449  66.174  1.00  0.00    -0.092 A  
BRANCH  11  20
HETATM   20  O   UNL     1      -7.742  11.365  67.925  1.00  0.00    -0.106 OA 
BRANCH  20  21
HETATM   21  C   UNL     1      -6.839  12.447  67.916  1.00  0.00    -0.099 C  
HETATM   22  O   UNL     1      -5.711  12.441  67.438  1.00  0.00    -0.123 OA 
HETATM   23  C   UNL     1      -7.458  13.662  68.594  1.00  0.00    -0.113 C  
HETATM   24  C   UNL     1      -8.267  14.483  67.591  1.00  0.00    -0.187 C  
HETATM   25  C   UNL     1      -6.364  14.535  69.211  1.00  0.00    -0.117 C  
ENDBRANCH  20  21
ENDBRANCH  11  20
BRANCH  18  26
HETATM   26  C   UNL     1      -6.080   6.640  70.742  1.00  0.00    -0.028 C  
HETATM   27  O   UNL     1      -6.325   6.640  72.145  1.00  0.00    -0.048 OA 
HETATM   28  H   UNL     1      -5.999   5.857  72.573  1.00  0.00     0.000 HD 
ENDBRANCH  18  26
ENDBRANCH   5   6
ENDBRANCH   4   5
BRANCH   4  29
HETATM   29  C   UNL     1     -11.807  11.025  69.477  1.00  0.00    -0.333 C  
HETATM   30  C   UNL     1     -12.463  11.300  70.840  1.00  0.00    -0.493 C  
HETATM   31  C   UNL     1     -11.077  12.345  69.127  1.00  0.00    -0.260 C  
ENDBRANCH   4  29
ENDBRANCH   2   4
TORSDOF 7
ENDMDL
MODEL      136
REMARK 921   NORMALIZED FREE ENERGY PREDICTED BY IDOCK:   -3.83 KCAL/MOL
REMARK 922        TOTAL FREE ENERGY PREDICTED BY IDOCK:   -6.81 KCAL/MOL
REMARK 923 INTER-LIGAND FREE ENERGY PREDICTED BY IDOCK:   -4.93 KCAL/MOL
REMARK 924 INTRA-LIGAND FREE ENERGY PREDICTED BY IDOCK:   -1.88 KCAL/MOL
REMARK 927      BINDING AFFINITY PREDICTED BY RF-SCORE:    0.00 PKD
ROOT
HETATM    1  C   UNL     1      -8.003   9.530  70.461  1.00  0.00    -0.188 C  
HETATM    2  C   UNL     1      -8.055   8.718  69.145  1.00  0.00    -0.118 C  
HETATM    3  C   UNL     1      -9.502   8.893  68.658  1.00  0.00    -0.153 C  
ENDROOT
BRANCH   2   4
HETATM    4  N   UNL     1      -6.973   9.084  68.167  1.00  0.00    -0.076 NA 
BRANCH   4   5
HETATM    5  C   UNL     1      -6.381  10.434  68.425  1.00  0.00    -0.051 C  
BRANCH   5   6
HETATM    6  C   UNL     1      -6.221  11.367  67.193  1.00  0.00    -0.106 C  
HETATM    7  C   UNL     1      -7.080  12.681  67.174  1.00  0.00    -0.035 C  
HETATM    8  C   UNL     1      -8.605  12.394  67.213  1.00  0.00    -0.185 A  
HETATM    9  C   UNL     1      -6.617  13.774  68.187  1.00  0.00    -0.126 A  
HETATM   10  C   UNL     1      -5.753  13.490  69.251  1.00  0.00    -0.081 A  
HETATM   11  C   UNL     1      -9.302  11.640  66.245  1.00  0.00    -0.216 A  
HETATM   12  C   UNL     1     -10.702  11.503  66.310  1.00  0.00    -0.321 A  
HETATM   13  C   UNL     1      -5.585  14.341  70.343  1.00  0.00    -0.131 A  
HETATM   14  C   UNL     1      -7.000  15.936  69.263  1.00  0.00    -0.198 A  
HETATM   15  C   UNL     1     -11.433  12.075  67.351  1.00  0.00    -0.406 A  
HETATM   16  C   UNL     1      -6.244  15.555  70.369  1.00  0.00     0.020 A  
HETATM   17  C   UNL     1      -9.390  12.944  68.255  1.00  0.00    -0.194 A  
HETATM   18  C   UNL     1     -10.784  12.809  68.338  1.00  0.00    -0.269 A  
HETATM   19  C   UNL     1      -7.154  15.078  68.162  1.00  0.00    -0.126 A  
BRANCH  11  20
HETATM   20  O   UNL     1      -8.613  11.090  65.127  1.00  0.00    -0.133 OA 
BRANCH  20  21
HETATM   21  C   UNL     1      -8.788   9.732  64.795  1.00  0.00    -0.207 C  
HETATM   22  O   UNL     1      -9.312   8.879  65.502  1.00  0.00    -0.215 OA 
HETATM   23  C   UNL     1      -8.230   9.448  63.407  1.00  0.00    -0.168 C  
HETATM   24  C   UNL     1      -9.285   9.723  62.337  1.00  0.00    -0.294 C  
HETATM   25  C   UNL     1      -7.767   7.993  63.314  1.00  0.00    -0.143 C  
ENDBRANCH  20  21
ENDBRANCH  11  20
BRANCH  18  26
HETATM   26  C   UNL     1     -11.577  13.532  69.402  1.00  0.00    -0.312 C  
HETATM   27  O   UNL     1     -12.049  12.658  70.423  1.00  0.00    -0.397 OA 
HETATM   28  H   UNL     1     -12.547  13.113  71.092  1.00  0.00     0.000 HD 
ENDBRANCH  18  26
ENDBRANCH   5   6
ENDBRANCH   4   5
BRANCH   4  29
HETATM   29  C   UNL     1      -5.905   8.070  67.907  1.00  0.00    -0.042 C  
HETATM   30  C   UNL     1      -5.695   7.029  69.019  1.00  0.00    -0.018 C  
HETATM   31  C   UNL     1      -6.187   7.228  66.639  1.00  0.00    -0.043 C  
ENDBRANCH   4  29
ENDBRANCH   2   4
TORSDOF 7
ENDMDL
MODEL      137
REMARK 921   NORMALIZED FREE ENERGY PREDICTED BY IDOCK:   -3.83 KCAL/MOL
REMARK 922        TOTAL FREE ENERGY PREDICTED BY IDOCK:   -6.81 KCAL/MOL
REMARK 923 INTER-LIGAND FREE ENERGY PREDICTED BY IDOCK:   -4.99 KCAL/MOL
REMARK 924 INTRA-LIGAND FREE ENERGY PREDICTED BY IDOCK:   -1.82 KCAL/MOL
REMARK 927      BINDING AFFINITY PREDICTED BY RF-SCORE:    0.00 PKD
ROOT
HETATM    1  C   UNL     1      -6.260   8.723  65.391  1.00  0.00    -0.059 C  
HETATM    2  C   UNL     1      -7.619   8.588  66.119  1.00  0.00    -0.089 C  
HETATM    3  C   UNL     1      -8.647   9.053  65.074  1.00  0.00    -0.207 C  
ENDROOT
BRANCH   2   4
HETATM    4  N   UNL     1      -7.848   7.230  66.721  1.00  0.00    -0.111 NA 
BRANCH   4   5
HETATM    5  C   UNL     1      -7.899   7.251  68.217  1.00  0.00    -0.122 C  
BRANCH   5   6
HETATM    6  C   UNL     1      -8.107   8.638  68.883  1.00  0.00    -0.118 C  
HETATM    7  C   UNL     1      -8.437   8.653  70.419  1.00  0.00    -0.144 C  
HETATM    8  C   UNL     1      -9.748   7.892  70.751  1.00  0.00    -0.179 A  
HETATM    9  C   UNL     1      -7.238   8.278  71.344  1.00  0.00    -0.080 A  
HETATM   10  C   UNL     1      -6.085   7.649  70.857  1.00  0.00    -0.035 A  
HETATM   11  C   UNL     1     -11.019   8.222  70.232  1.00  0.00    -0.232 A  
HETATM   12  C   UNL     1     -12.171   7.533  70.656  1.00  0.00    -0.068 A  
HETATM   13  C   UNL     1      -5.158   7.015  71.682  1.00  0.00    -0.027 A  
HETATM   14  C   UNL     1      -6.387   7.785  73.582  1.00  0.00    -0.080 A  
HETATM   15  C   UNL     1     -12.085   6.483  71.570  1.00  0.00    -0.363 A  
HETATM   16  C   UNL     1      -5.331   7.048  73.052  1.00  0.00    -0.038 A  
HETATM   17  C   UNL     1      -9.713   6.811  71.667  1.00  0.00    -0.166 A  
HETATM   18  C   UNL     1     -10.851   6.111  72.092  1.00  0.00    -0.289 A  
HETATM   19  C   UNL     1      -7.309   8.432  72.743  1.00  0.00    -0.113 A  
BRANCH  11  20
HETATM   20  O   UNL     1     -11.170   9.326  69.348  1.00  0.00    -0.107 OA 
BRANCH  20  21
HETATM   21  C   UNL     1     -11.289  10.630  69.869  1.00  0.00    -0.313 C  
HETATM   22  O   UNL     1     -11.481  10.923  71.043  1.00  0.00    -0.115 OA 
HETATM   23  C   UNL     1     -11.145  11.662  68.758  1.00  0.00    -0.283 C  
HETATM   24  C   UNL     1      -9.673  12.012  68.538  1.00  0.00    -0.165 C  
HETATM   25  C   UNL     1     -11.929  12.928  69.110  1.00  0.00    -0.308 C  
ENDBRANCH  20  21
ENDBRANCH  11  20
BRANCH  18  26
HETATM   26  C   UNL     1     -10.761   5.056  73.170  1.00  0.00    -0.257 C  
HETATM   27  O   UNL     1     -10.847   5.603  74.482  1.00  0.00    -0.386 OA 
HETATM   28  H   UNL     1     -10.790   4.940  75.160  1.00  0.00     0.000 HD 
ENDBRANCH  18  26
ENDBRANCH   5   6
ENDBRANCH   4   5
BRANCH   4  29
HETATM   29  C   UNL     1      -8.958   6.403  66.158  1.00  0.00    -0.150 C  
HETATM   30  C   UNL     1      -8.634   4.915  65.944  1.00  0.00    -0.121 C  
HETATM   31  C   UNL     1     -10.211   6.397  67.068  1.00  0.00    -0.264 C  
ENDBRANCH   4  29
ENDBRANCH   2   4
TORSDOF 7
ENDMDL
MODEL      138
REMARK 921   NORMALIZED FREE ENERGY PREDICTED BY IDOCK:   -3.83 KCAL/MOL
REMARK 922        TOTAL FREE ENERGY PREDICTED BY IDOCK:   -6.81 KCAL/MOL
REMARK 923 INTER-LIGAND FREE ENERGY PREDICTED BY IDOCK:   -5.24 KCAL/MOL
REMARK 924 INTRA-LIGAND FREE ENERGY PREDICTED BY IDOCK:   -1.57 KCAL/MOL
REMARK 927      BINDING AFFINITY PREDICTED BY RF-SCORE:    0.00 PKD
ROOT
HETATM    1  C   UNL     1      -8.652   5.354  65.149  1.00  0.00    -0.149 C  
HETATM    2  C   UNL     1      -8.047   4.724  66.427  1.00  0.00    -0.107 C  
HETATM    3  C   UNL     1      -6.529   4.853  66.221  1.00  0.00    -0.044 C  
ENDROOT
BRANCH   2   4
HETATM    4  N   UNL     1      -8.599   5.299  67.701  1.00  0.00    -0.105 NA 
BRANCH   4   5
HETATM    5  C   UNL     1      -8.819   6.778  67.631  1.00  0.00    -0.117 C  
BRANCH   5   6
HETATM    6  C   UNL     1      -7.616   7.677  68.026  1.00  0.00    -0.110 C  
HETATM    7  C   UNL     1      -7.832   8.682  69.214  1.00  0.00    -0.101 C  
HETATM    8  C   UNL     1      -8.967   9.702  68.929  1.00  0.00    -0.144 A  
HETATM    9  C   UNL     1      -7.922   8.013  70.621  1.00  0.00    -0.096 A  
HETATM   10  C   UNL     1      -8.145   6.640  70.784  1.00  0.00    -0.119 A  
HETATM   11  C   UNL     1      -8.974  10.608  67.847  1.00  0.00    -0.138 A  
HETATM   12  C   UNL     1     -10.003  11.561  67.714  1.00  0.00    -0.195 A  
HETATM   13  C   UNL     1      -8.552   6.074  71.991  1.00  0.00    -0.136 A  
HETATM   14  C   UNL     1      -8.341   8.221  73.021  1.00  0.00    -0.246 A  
HETATM   15  C   UNL     1     -11.059  11.611  68.624  1.00  0.00    -0.287 A  
HETATM   16  C   UNL     1      -8.691   6.875  73.108  1.00  0.00    -0.140 A  
HETATM   17  C   UNL     1     -10.066   9.786  69.819  1.00  0.00    -0.268 A  
HETATM   18  C   UNL     1     -11.101  10.724  69.694  1.00  0.00    -0.339 A  
HETATM   19  C   UNL     1      -7.919   8.780  71.804  1.00  0.00    -0.107 A  
BRANCH  11  20
HETATM   20  O   UNL     1      -7.889  10.642  66.928  1.00  0.00    -0.113 OA 
BRANCH  20  21
HETATM   21  C   UNL     1      -8.020  10.031  65.666  1.00  0.00    -0.140 C  
HETATM   22  O   UNL     1      -9.054   9.935  65.015  1.00  0.00    -0.184 OA 
HETATM   23  C   UNL     1      -6.678   9.486  65.197  1.00  0.00    -0.088 C  
HETATM   24  C   UNL     1      -5.889  10.567  64.459  1.00  0.00    -0.078 C  
HETATM   25  C   UNL     1      -6.890   8.283  64.275  1.00  0.00    -0.066 C  
ENDBRANCH  20  21
ENDBRANCH  11  20
BRANCH  18  26
HETATM   26  C   UNL     1     -12.175  10.847  70.750  1.00  0.00    -0.383 C  
HETATM   27  O   UNL     1     -13.063   9.734  70.763  1.00  0.00    -0.554 OA 
HETATM   28  H   UNL     1     -13.738   9.811  71.427  1.00  0.00     0.000 HD 
ENDBRANCH  18  26
ENDBRANCH   5   6
ENDBRANCH   4   5
BRANCH   4  29
HETATM   29  C   UNL     1      -9.774   4.610  68.319  1.00  0.00    -0.131 C  
HETATM   30  C   UNL     1      -9.442   3.616  69.444  1.00  0.00    -0.249 C  
HETATM   31  C   UNL     1     -10.769   5.605  68.965  1.00  0.00    -0.307 C  
ENDBRANCH   4  29
ENDBRANCH   2   4
TORSDOF 7
ENDMDL
MODEL      139
REMARK 921   NORMALIZED FREE ENERGY PREDICTED BY IDOCK:   -3.83 KCAL/MOL
REMARK 922        TOTAL FREE ENERGY PREDICTED BY IDOCK:   -6.80 KCAL/MOL
REMARK 923 INTER-LIGAND FREE ENERGY PREDICTED BY IDOCK:   -4.51 KCAL/MOL
REMARK 924 INTRA-LIGAND FREE ENERGY PREDICTED BY IDOCK:   -2.29 KCAL/MOL
REMARK 927      BINDING AFFINITY PREDICTED BY RF-SCORE:    0.00 PKD
ROOT
HETATM    1  C   UNL     1     -10.916  16.367  66.943  1.00  0.00    -0.018 C  
HETATM    2  C   UNL     1     -10.376  15.605  65.708  1.00  0.00    -0.365 C  
HETATM    3  C   UNL     1      -8.859  15.843  65.760  1.00  0.00     0.033 C  
ENDROOT
BRANCH   2   4
HETATM    4  N   UNL     1     -10.825  14.172  65.641  1.00  0.00    -0.296 NA 
BRANCH   4   5
HETATM    5  C   UNL     1     -12.092  13.917  66.396  1.00  0.00    -0.455 C  
BRANCH   5   6
HETATM    6  C   UNL     1     -12.112  12.664  67.313  1.00  0.00    -0.184 C  
HETATM    7  C   UNL     1     -11.294  12.742  68.651  1.00  0.00    -0.333 C  
HETATM    8  C   UNL     1      -9.781  12.988  68.408  1.00  0.00    -0.192 A  
HETATM    9  C   UNL     1     -11.918  13.671  69.739  1.00  0.00    -0.404 A  
HETATM   10  C   UNL     1     -12.909  14.614  69.439  1.00  0.00     0.394 A  
HETATM   11  C   UNL     1      -8.940  12.131  67.666  1.00  0.00    -0.178 A  
HETATM   12  C   UNL     1      -7.558  12.385  67.571  1.00  0.00    -0.155 A  
HETATM   13  C   UNL     1     -13.245  15.662  70.294  1.00  0.00     0.234 A  
HETATM   14  C   UNL     1     -11.743  14.761  71.921  1.00  0.00    -0.297 A  
HETATM   15  C   UNL     1      -6.989  13.507  68.173  1.00  0.00    -0.118 A  
HETATM   16  C   UNL     1     -12.629  15.761  71.527  1.00  0.00    -0.517 A  
HETATM   17  C   UNL     1      -9.157  14.119  68.991  1.00  0.00     0.105 A  
HETATM   18  C   UNL     1      -7.784  14.389  68.896  1.00  0.00    -0.128 A  
HETATM   19  C   UNL     1     -11.420  13.701  71.057  1.00  0.00     0.771 A  
BRANCH  11  20
HETATM   20  O   UNL     1      -9.457  10.939  67.088  1.00  0.00    -0.159 OA 
BRANCH  20  21
HETATM   21  C   UNL     1      -8.944   9.688  67.484  1.00  0.00    -0.128 C  
HETATM   22  O   UNL     1      -7.920   9.163  67.063  1.00  0.00    -0.101 OA 
HETATM   23  C   UNL     1      -9.846   9.051  68.532  1.00  0.00    -0.184 C  
HETATM   24  C   UNL     1      -9.457   9.520  69.933  1.00  0.00    -0.247 C  
HETATM   25  C   UNL     1      -9.748   7.525  68.454  1.00  0.00    -0.161 C  
ENDBRANCH  20  21
ENDBRANCH  11  20
BRANCH  18  26
HETATM   26  C   UNL     1      -7.161  15.540  69.651  1.00  0.00    -0.169 C  
HETATM   27  O   UNL     1      -6.067  15.134  70.467  1.00  0.00    -0.127 OA 
HETATM   28  H   UNL     1      -5.675  15.858  70.941  1.00  0.00     0.000 HD 
ENDBRANCH  18  26
ENDBRANCH   5   6
ENDBRANCH   4   5
BRANCH   4  29
HETATM   29  C   UNL     1     -10.862  13.523  64.294  1.00  0.00    -0.322 C  
HETATM   30  C   UNL     1     -10.167  12.154  64.199  1.00  0.00    -0.370 C  
HETATM   31  C   UNL     1     -12.308  13.256  63.807  1.00  0.00    -0.440 C  
ENDBRANCH   4  29
ENDBRANCH   2   4
TORSDOF 7
ENDMDL
MODEL      140
REMARK 921   NORMALIZED FREE ENERGY PREDICTED BY IDOCK:   -3.83 KCAL/MOL
REMARK 922        TOTAL FREE ENERGY PREDICTED BY IDOCK:   -6.80 KCAL/MOL
REMARK 923 INTER-LIGAND FREE ENERGY PREDICTED BY IDOCK:   -6.84 KCAL/MOL
REMARK 924 INTRA-LIGAND FREE ENERGY PREDICTED BY IDOCK:    0.04 KCAL/MOL
REMARK 927      BINDING AFFINITY PREDICTED BY RF-SCORE:    0.00 PKD
ROOT
HETATM    1  C   UNL     1     -10.776  14.354  64.965  1.00  0.00    -0.440 C  
HETATM    2  C   UNL     1     -11.165  13.091  65.771  1.00  0.00    -0.289 C  
HETATM    3  C   UNL     1     -12.416  12.563  65.050  1.00  0.00    -0.494 C  
ENDROOT
BRANCH   2   4
HETATM    4  N   UNL     1     -10.034  12.117  65.947  1.00  0.00    -0.241 NA 
BRANCH   4   5
HETATM    5  C   UNL     1     -10.257  11.157  67.074  1.00  0.00    -0.215 C  
BRANCH   5   6
HETATM    6  C   UNL     1      -9.575  11.505  68.425  1.00  0.00    -0.195 C  
HETATM    7  C   UNL     1      -8.915  10.323  69.220  1.00  0.00    -0.190 C  
HETATM    8  C   UNL     1      -9.939   9.222  69.605  1.00  0.00    -0.201 A  
HETATM    9  C   UNL     1      -7.601   9.769  68.586  1.00  0.00    -0.079 A  
HETATM   10  C   UNL     1      -7.232  10.049  67.265  1.00  0.00    -0.086 A  
HETATM   11  C   UNL     1     -11.082   9.437  70.405  1.00  0.00    -0.261 A  
HETATM   12  C   UNL     1     -11.910   8.361  70.779  1.00  0.00    -0.178 A  
HETATM   13  C   UNL     1      -6.261   9.323  66.576  1.00  0.00    -0.065 A  
HETATM   14  C   UNL     1      -5.813   8.101  68.581  1.00  0.00    -0.040 A  
HETATM   15  C   UNL     1     -11.647   7.063  70.341  1.00  0.00    -0.341 A  
HETATM   16  C   UNL     1      -5.575   8.315  67.225  1.00  0.00    -0.038 A  
HETATM   17  C   UNL     1      -9.722   7.889  69.176  1.00  0.00    -0.162 A  
HETATM   18  C   UNL     1     -10.543   6.810  69.534  1.00  0.00    -0.265 A  
HETATM   19  C   UNL     1      -6.783   8.847  69.271  1.00  0.00    -0.050 A  
BRANCH  11  20
HETATM   20  O   UNL     1     -11.359  10.728  70.932  1.00  0.00    -0.186 OA 
BRANCH  20  21
HETATM   21  C   UNL     1     -12.205  11.606  70.227  1.00  0.00    -0.318 C  
HETATM   22  O   UNL     1     -12.885  11.322  69.247  1.00  0.00    -0.067 OA 
HETATM   23  C   UNL     1     -12.170  12.995  70.851  1.00  0.00    -0.310 C  
HETATM   24  C   UNL     1     -13.195  13.103  71.978  1.00  0.00    -0.543 C  
HETATM   25  C   UNL     1     -12.458  14.057  69.787  1.00  0.00    -0.255 C  
ENDBRANCH  20  21
ENDBRANCH  11  20
BRANCH  18  26
HETATM   26  C   UNL     1     -10.182   5.393  69.152  1.00  0.00    -0.232 C  
HETATM   27  O   UNL     1      -9.114   5.334  68.212  1.00  0.00    -0.108 OA 
HETATM   28  H   UNL     1      -8.886   4.443  67.972  1.00  0.00     0.000 HD 
ENDBRANCH  18  26
ENDBRANCH   5   6
ENDBRANCH   4   5
BRANCH   4  29
HETATM   29  C   UNL     1      -9.537  11.408  64.728  1.00  0.00    -0.210 C  
HETATM   30  C   UNL     1      -9.716   9.881  64.731  1.00  0.00    -0.305 C  
HETATM   31  C   UNL     1     -10.255  11.877  63.438  1.00  0.00    -0.478 C  
ENDBRANCH   4  29
ENDBRANCH   2   4
TORSDOF 7
ENDMDL
MODEL      141
REMARK 921   NORMALIZED FREE ENERGY PREDICTED BY IDOCK:   -3.80 KCAL/MOL
REMARK 922        TOTAL FREE ENERGY PREDICTED BY IDOCK:   -6.76 KCAL/MOL
REMARK 923 INTER-LIGAND FREE ENERGY PREDICTED BY IDOCK:   -6.30 KCAL/MOL
REMARK 924 INTRA-LIGAND FREE ENERGY PREDICTED BY IDOCK:   -0.46 KCAL/MOL
REMARK 927      BINDING AFFINITY PREDICTED BY RF-SCORE:    0.00 PKD
ROOT
HETATM    1  C   UNL     1      -5.397   9.044  67.085  1.00  0.00    -0.040 C  
HETATM    2  C   UNL     1      -5.645   8.091  65.890  1.00  0.00    -0.036 C  
HETATM    3  C   UNL     1      -5.184   6.720  66.409  1.00  0.00    -0.017 C  
ENDROOT
BRANCH   2   4
HETATM    4  N   UNL     1      -7.043   8.162  65.343  1.00  0.00    -0.063 NA 
BRANCH   4   5
HETATM    5  C   UNL     1      -8.043   8.645  66.346  1.00  0.00    -0.100 C  
BRANCH   5   6
HETATM    6  C   UNL     1      -9.519   8.722  65.871  1.00  0.00    -0.278 C  
HETATM    7  C   UNL     1     -10.582   9.222  66.913  1.00  0.00    -0.239 C  
HETATM    8  C   UNL     1     -10.654   8.314  68.170  1.00  0.00    -0.169 A  
HETATM    9  C   UNL     1     -10.503  10.746  67.239  1.00  0.00    -0.282 A  
HETATM   10  C   UNL     1      -9.385  11.524  66.915  1.00  0.00    -0.189 A  
HETATM   11  C   UNL     1     -10.973   6.940  68.145  1.00  0.00    -0.147 A  
HETATM   12  C   UNL     1     -11.103   6.210  69.343  1.00  0.00    -0.479 A  
HETATM   13  C   UNL     1      -9.145  12.780  67.471  1.00  0.00    -0.193 A  
HETATM   14  C   UNL     1     -11.261  12.649  68.574  1.00  0.00    -0.315 A  
HETATM   15  C   UNL     1     -10.884   6.815  70.581  1.00  0.00    -0.292 A  
HETATM   16  C   UNL     1     -10.069  13.329  68.338  1.00  0.00    -0.237 A  
HETATM   17  C   UNL     1     -10.430   8.878  69.450  1.00  0.00    -0.228 A  
HETATM   18  C   UNL     1     -10.547   8.162  70.650  1.00  0.00    -0.229 A  
HETATM   19  C   UNL     1     -11.501  11.390  67.999  1.00  0.00    -0.377 A  
BRANCH  11  20
HETATM   20  O   UNL     1     -11.271   6.291  66.915  1.00  0.00    -0.335 OA 
BRANCH  20  21
HETATM   21  C   UNL     1     -10.495   5.190  66.498  1.00  0.00    -0.294 C  
HETATM   22  O   UNL     1     -10.472   4.709  65.371  1.00  0.00    -0.215 OA 
HETATM   23  C   UNL     1      -9.664   4.657  67.657  1.00  0.00    -0.207 C  
HETATM   24  C   UNL     1      -8.335   5.405  67.754  1.00  0.00    -0.099 C  
HETATM   25  C   UNL     1      -9.401   3.161  67.471  1.00  0.00    -0.241 C  
ENDBRANCH  20  21
ENDBRANCH  11  20
BRANCH  18  26
HETATM   26  C   UNL     1     -10.425   8.855  71.987  1.00  0.00    -0.313 C  
HETATM   27  O   UNL     1     -10.929   8.067  73.062  1.00  0.00    -0.374 OA 
HETATM   28  H   UNL     1     -10.852   8.503  73.903  1.00  0.00     0.000 HD 
ENDBRANCH  18  26
ENDBRANCH   5   6
ENDBRANCH   4   5
BRANCH   4  29
HETATM   29  C   UNL     1      -7.234   8.839  64.023  1.00  0.00    -0.095 C  
HETATM   30  C   UNL     1      -6.315  10.043  63.757  1.00  0.00    -0.132 C  
HETATM   31  C   UNL     1      -6.979   7.887  62.828  1.00  0.00    -0.085 C  
ENDBRANCH   4  29
ENDBRANCH   2   4
TORSDOF 7
ENDMDL
MODEL      142
REMARK 921   NORMALIZED FREE ENERGY PREDICTED BY IDOCK:   -3.77 KCAL/MOL
REMARK 922        TOTAL FREE ENERGY PREDICTED BY IDOCK:   -6.73 KCAL/MOL
REMARK 923 INTER-LIGAND FREE ENERGY PREDICTED BY IDOCK:   -4.81 KCAL/MOL
REMARK 924 INTRA-LIGAND FREE ENERGY PREDICTED BY IDOCK:   -1.91 KCAL/MOL
REMARK 927      BINDING AFFINITY PREDICTED BY RF-SCORE:    0.00 PKD
ROOT
HETATM    1  C   UNL     1     -11.285  10.446  70.816  1.00  0.00    -0.293 C  
HETATM    2  C   UNL     1     -11.091   9.307  69.785  1.00  0.00    -0.150 C  
HETATM    3  C   UNL     1     -11.309   9.996  68.428  1.00  0.00    -0.117 C  
ENDROOT
BRANCH   2   4
HETATM    4  N   UNL     1      -9.799   8.557  69.952  1.00  0.00    -0.183 NA 
BRANCH   4   5
HETATM    5  C   UNL     1      -8.611   9.456  70.093  1.00  0.00    -0.212 C  
BRANCH   5   6
HETATM    6  C   UNL     1      -7.324   9.029  69.336  1.00  0.00    -0.075 C  
HETATM    7  C   UNL     1      -6.915   9.881  68.082  1.00  0.00    -0.076 C  
HETATM    8  C   UNL     1      -8.004   9.871  66.977  1.00  0.00    -0.109 A  
HETATM    9  C   UNL     1      -6.366  11.303  68.416  1.00  0.00    -0.046 A  
HETATM   10  C   UNL     1      -6.547  11.900  69.669  1.00  0.00    -0.062 A  
HETATM   11  C   UNL     1      -8.477   8.709  66.331  1.00  0.00    -0.112 A  
HETATM   12  C   UNL     1      -9.404   8.800  65.275  1.00  0.00    -0.015 A  
HETATM   13  C   UNL     1      -6.367  13.264  69.895  1.00  0.00    -0.051 A  
HETATM   14  C   UNL     1      -5.604  13.494  67.642  1.00  0.00    -0.034 A  
HETATM   15  C   UNL     1      -9.909  10.034  64.864  1.00  0.00    -0.352 A  
HETATM   16  C   UNL     1      -5.932  14.074  68.864  1.00  0.00    -0.084 A  
HETATM   17  C   UNL     1      -8.555  11.098  66.532  1.00  0.00    -0.169 A  
HETATM   18  C   UNL     1      -9.485  11.203  65.487  1.00  0.00    -0.251 A  
HETATM   19  C   UNL     1      -5.776  12.116  67.427  1.00  0.00    -0.135 A  
BRANCH  11  20
HETATM   20  O   UNL     1      -7.947   7.432  66.666  1.00  0.00    -0.115 OA 
BRANCH  20  21
HETATM   21  C   UNL     1      -8.535   6.268  66.133  1.00  0.00    -0.138 C  
HETATM   22  O   UNL     1      -8.169   5.669  65.128  1.00  0.00    -0.124 OA 
HETATM   23  C   UNL     1      -9.719   5.832  66.987  1.00  0.00    -0.155 C  
HETATM   24  C   UNL     1      -9.253   4.930  68.129  1.00  0.00    -0.151 C  
HETATM   25  C   UNL     1     -10.742   5.087  66.126  1.00  0.00    -0.264 C  
ENDBRANCH  20  21
ENDBRANCH  11  20
BRANCH  18  26
HETATM   26  C   UNL     1      -9.933  12.551  64.973  1.00  0.00    -0.176 C  
HETATM   27  O   UNL     1      -9.774  13.587  65.938  1.00  0.00    -0.401 OA 
HETATM   28  H   UNL     1     -10.055  14.435  65.615  1.00  0.00     0.000 HD 
ENDBRANCH  18  26
ENDBRANCH   5   6
ENDBRANCH   4   5
BRANCH   4  29
HETATM   29  C   UNL     1      -9.765   7.458  70.965  1.00  0.00    -0.164 C  
HETATM   30  C   UNL     1      -9.537   7.904  72.419  1.00  0.00    -0.270 C  
HETATM   31  C   UNL     1     -11.089   6.656  71.012  1.00  0.00    -0.330 C  
ENDBRANCH   4  29
ENDBRANCH   2   4
TORSDOF 7
ENDMDL
MODEL      143
REMARK 921   NORMALIZED FREE ENERGY PREDICTED BY IDOCK:   -3.75 KCAL/MOL
REMARK 922        TOTAL FREE ENERGY PREDICTED BY IDOCK:   -6.69 KCAL/MOL
REMARK 923 INTER-LIGAND FREE ENERGY PREDICTED BY IDOCK:   -5.39 KCAL/MOL
REMARK 924 INTRA-LIGAND FREE ENERGY PREDICTED BY IDOCK:   -1.30 KCAL/MOL
REMARK 927      BINDING AFFINITY PREDICTED BY RF-SCORE:    0.00 PKD
ROOT
HETATM    1  C   UNL     1      -8.190   5.148  64.837  1.00  0.00    -0.136 C  
HETATM    2  C   UNL     1      -9.615   5.414  65.378  1.00  0.00     0.132 C  
HETATM    3  C   UNL     1     -10.413   4.173  64.945  1.00  0.00    -0.193 C  
ENDROOT
BRANCH   2   4
HETATM    4  N   UNL     1      -9.651   5.753  66.842  1.00  0.00    -0.134 NA 
BRANCH   4   5
HETATM    5  C   UNL     1     -10.644   6.823  67.173  1.00  0.00    -0.331 C  
BRANCH   5   6
HETATM    6  C   UNL     1     -10.257   8.274  66.777  1.00  0.00    -0.375 C  
HETATM    7  C   UNL     1      -9.460   9.117  67.836  1.00  0.00    -0.158 C  
HETATM    8  C   UNL     1     -10.247   9.301  69.161  1.00  0.00    -0.214 A  
HETATM    9  C   UNL     1      -7.978   8.671  68.039  1.00  0.00    -0.107 A  
HETATM   10  C   UNL     1      -7.502   7.432  67.594  1.00  0.00    -0.097 A  
HETATM   11  C   UNL     1     -11.509   9.926  69.261  1.00  0.00     0.007 A  
HETATM   12  C   UNL     1     -12.113  10.131  70.516  1.00  0.00    -0.380 A  
HETATM   13  C   UNL     1      -6.305   6.873  68.036  1.00  0.00    -0.042 A  
HETATM   14  C   UNL     1      -5.873   8.878  69.264  1.00  0.00    -0.035 A  
HETATM   15  C   UNL     1     -11.500   9.691  71.690  1.00  0.00    -0.376 A  
HETATM   16  C   UNL     1      -5.503   7.582  68.910  1.00  0.00    -0.022 A  
HETATM   17  C   UNL     1      -9.672   8.863  70.379  1.00  0.00    -0.226 A  
HETATM   18  C   UNL     1     -10.266   9.053  71.636  1.00  0.00    -0.418 A  
HETATM   19  C   UNL     1      -7.075   9.438  68.802  1.00  0.00    -0.069 A  
BRANCH  11  20
HETATM   20  O   UNL     1     -12.147  10.451  68.103  1.00  0.00    -0.128 OA 
BRANCH  20  21
HETATM   21  C   UNL     1     -11.639  11.614  67.490  1.00  0.00    -0.272 C  
HETATM   22  O   UNL     1     -11.635  11.853  66.289  1.00  0.00    -0.445 OA 
HETATM   23  C   UNL     1     -11.078  12.565  68.539  1.00  0.00    -0.297 C  
HETATM   24  C   UNL     1     -12.179  13.475  69.082  1.00  0.00    -0.236 C  
HETATM   25  C   UNL     1      -9.958  13.415  67.934  1.00  0.00    -0.236 C  
ENDBRANCH  20  21
ENDBRANCH  11  20
BRANCH  18  26
HETATM   26  C   UNL     1      -9.539   8.680  72.907  1.00  0.00     0.043 C  
HETATM   27  O   UNL     1      -8.195   8.273  72.671  1.00  0.00    -0.157 OA 
HETATM   28  H   UNL     1      -7.737   8.038  73.471  1.00  0.00     0.000 HD 
ENDBRANCH  18  26
ENDBRANCH   5   6
ENDBRANCH   4   5
BRANCH   4  29
HETATM   29  C   UNL     1      -9.741   4.618  67.811  1.00  0.00    -0.155 C  
HETATM   30  C   UNL     1      -8.412   3.914  68.131  1.00  0.00    -0.106 C  
HETATM   31  C   UNL     1     -10.284   5.063  69.192  1.00  0.00    -0.227 C  
ENDBRANCH   4  29
ENDBRANCH   2   4
TORSDOF 7
ENDMDL
MODEL      144
REMARK 921   NORMALIZED FREE ENERGY PREDICTED BY IDOCK:   -3.74 KCAL/MOL
REMARK 922        TOTAL FREE ENERGY PREDICTED BY IDOCK:   -6.68 KCAL/MOL
REMARK 923 INTER-LIGAND FREE ENERGY PREDICTED BY IDOCK:   -4.66 KCAL/MOL
REMARK 924 INTRA-LIGAND FREE ENERGY PREDICTED BY IDOCK:   -2.02 KCAL/MOL
REMARK 927      BINDING AFFINITY PREDICTED BY RF-SCORE:    0.00 PKD
ROOT
HETATM    1  C   UNL     1      -9.322   2.522  67.638  1.00  0.00    -0.199 C  
HETATM    2  C   UNL     1      -8.450   3.094  66.495  1.00  0.00    -0.109 C  
HETATM    3  C   UNL     1      -9.150   2.607  65.216  1.00  0.00    -0.138 C  
ENDROOT
BRANCH   2   4
HETATM    4  N   UNL     1      -8.209   4.574  66.602  1.00  0.00    -0.103 NA 
BRANCH   4   5
HETATM    5  C   UNL     1      -8.816   5.180  67.829  1.00  0.00    -0.105 C  
BRANCH   5   6
HETATM    6  C   UNL     1      -7.984   6.281  68.541  1.00  0.00    -0.105 C  
HETATM    7  C   UNL     1      -8.065   6.338  70.109  1.00  0.00    -0.116 C  
HETATM    8  C   UNL     1      -9.509   6.589  70.619  1.00  0.00    -0.173 A  
HETATM    9  C   UNL     1      -7.331   5.171  70.839  1.00  0.00    -0.073 A  
HETATM   10  C   UNL     1      -6.942   4.000  70.176  1.00  0.00    -0.041 A  
HETATM   11  C   UNL     1     -10.284   7.724  70.300  1.00  0.00    -0.199 A  
HETATM   12  C   UNL     1     -11.553   7.915  70.879  1.00  0.00    -0.286 A  
HETATM   13  C   UNL     1      -6.591   2.828  70.844  1.00  0.00    -0.031 A  
HETATM   14  C   UNL     1      -6.802   3.998  72.918  1.00  0.00    -0.048 A  
HETATM   15  C   UNL     1     -12.095   6.972  71.753  1.00  0.00    -0.371 A  
HETATM   16  C   UNL     1      -6.561   2.814  72.225  1.00  0.00    -0.015 A  
HETATM   17  C   UNL     1     -10.107   5.656  71.502  1.00  0.00    -0.253 A  
HETATM   18  C   UNL     1     -11.373   5.829  72.079  1.00  0.00    -0.289 A  
HETATM   19  C   UNL     1      -7.142   5.178  72.236  1.00  0.00    -0.084 A  
BRANCH  11  20
HETATM   20  O   UNL     1      -9.753   8.748  69.466  1.00  0.00    -0.168 OA 
BRANCH  20  21
HETATM   21  C   UNL     1     -10.358   9.023  68.224  1.00  0.00    -0.209 C  
HETATM   22  O   UNL     1     -10.744   8.193  67.409  1.00  0.00    -0.269 OA 
HETATM   23  C   UNL     1     -10.477  10.527  68.013  1.00  0.00    -0.232 C  
HETATM   24  C   UNL     1     -11.773  11.054  68.627  1.00  0.00    -0.367 C  
HETATM   25  C   UNL     1     -10.445  10.853  66.518  1.00  0.00    -0.308 C  
ENDBRANCH  20  21
ENDBRANCH  11  20
BRANCH  18  26
HETATM   26  C   UNL     1     -11.898   4.861  73.115  1.00  0.00    -0.020 C  
HETATM   27  O   UNL     1     -10.856   4.193  73.820  1.00  0.00    -0.222 OA 
HETATM   28  H   UNL     1     -11.185   3.585  74.471  1.00  0.00     0.000 HD 
ENDBRANCH  18  26
ENDBRANCH   5   6
ENDBRANCH   4   5
BRANCH   4  29
HETATM   29  C   UNL     1      -6.812   5.063  66.395  1.00  0.00    -0.062 C  
HETATM   30  C   UNL     1      -5.708   4.007  66.568  1.00  0.00    -0.022 C  
HETATM   31  C   UNL     1      -6.588   5.625  64.969  1.00  0.00    -0.043 C  
ENDBRANCH   4  29
ENDBRANCH   2   4
TORSDOF 7
ENDMDL
MODEL      145
REMARK 921   NORMALIZED FREE ENERGY PREDICTED BY IDOCK:   -3.69 KCAL/MOL
REMARK 922        TOTAL FREE ENERGY PREDICTED BY IDOCK:   -6.61 KCAL/MOL
REMARK 923 INTER-LIGAND FREE ENERGY PREDICTED BY IDOCK:   -5.62 KCAL/MOL
REMARK 924 INTRA-LIGAND FREE ENERGY PREDICTED BY IDOCK:   -0.99 KCAL/MOL
REMARK 927      BINDING AFFINITY PREDICTED BY RF-SCORE:    0.00 PKD
ROOT
HETATM    1  C   UNL     1      -9.447  10.607  67.974  1.00  0.00    -0.164 C  
HETATM    2  C   UNL     1      -8.584  10.039  66.821  1.00  0.00    -0.125 C  
HETATM    3  C   UNL     1      -7.851  11.271  66.266  1.00  0.00    -0.069 C  
ENDROOT
BRANCH   2   4
HETATM    4  N   UNL     1      -7.722   8.877  67.230  1.00  0.00    -0.092 NA 
BRANCH   4   5
HETATM    5  C   UNL     1      -8.452   7.869  68.061  1.00  0.00    -0.123 C  
BRANCH   5   6
HETATM    6  C   UNL     1      -9.885   7.494  67.597  1.00  0.00    -0.203 C  
HETATM    7  C   UNL     1     -10.719   6.552  68.537  1.00  0.00    -0.329 C  
HETATM    8  C   UNL     1     -10.038   5.174  68.753  1.00  0.00    -0.231 A  
HETATM    9  C   UNL     1     -11.214   7.225  69.856  1.00  0.00    -0.195 A  
HETATM   10  C   UNL     1     -10.680   8.429  70.328  1.00  0.00    -0.240 A  
HETATM   11  C   UNL     1      -9.728   4.265  67.719  1.00  0.00    -0.123 A  
HETATM   12  C   UNL     1      -9.190   2.997  68.013  1.00  0.00    -0.248 A  
HETATM   13  C   UNL     1     -10.856   8.880  71.635  1.00  0.00    -0.420 A  
HETATM   14  C   UNL     1     -12.306   7.022  72.034  1.00  0.00    -0.302 A  
HETATM   15  C   UNL     1      -8.913   2.620  69.327  1.00  0.00    -0.170 A  
HETATM   16  C   UNL     1     -11.641   8.151  72.507  1.00  0.00    -0.468 A  
HETATM   17  C   UNL     1      -9.727   4.750  70.068  1.00  0.00    -0.280 A  
HETATM   18  C   UNL     1      -9.184   3.494  70.375  1.00  0.00    -0.219 A  
HETATM   19  C   UNL     1     -12.133   6.583  70.711  1.00  0.00    -0.286 A  
BRANCH  11  20
HETATM   20  O   UNL     1     -10.051   4.573  66.368  1.00  0.00    -0.226 OA 
BRANCH  20  21
HETATM   21  C   UNL     1      -9.105   4.338  65.351  1.00  0.00    -0.141 C  
HETATM   22  O   UNL     1      -7.886   4.378  65.475  1.00  0.00    -0.092 OA 
HETATM   23  C   UNL     1      -9.805   4.018  64.037  1.00  0.00    -0.162 C  
HETATM   24  C   UNL     1     -10.106   2.522  63.939  1.00  0.00    -0.125 C  
HETATM   25  C   UNL     1      -8.931   4.446  62.856  1.00  0.00    -0.123 C  
ENDBRANCH  20  21
ENDBRANCH  11  20
BRANCH  18  26
HETATM   26  C   UNL     1      -9.000   3.052  71.808  1.00  0.00    -0.090 C  
HETATM   27  O   UNL     1     -10.235   2.780  72.462  1.00  0.00    -0.157 OA 
HETATM   28  H   UNL     1     -10.120   2.502  73.363  1.00  0.00     0.000 HD 
ENDBRANCH  18  26
ENDBRANCH   5   6
ENDBRANCH   4   5
BRANCH   4  29
HETATM   29  C   UNL     1      -6.912   8.210  66.165  1.00  0.00    -0.058 C  
HETATM   30  C   UNL     1      -6.232   6.895  66.577  1.00  0.00    -0.045 C  
HETATM   31  C   UNL     1      -7.761   7.834  64.925  1.00  0.00    -0.110 C  
ENDBRANCH   4  29
ENDBRANCH   2   4
TORSDOF 7
ENDMDL
MODEL      146
REMARK 921   NORMALIZED FREE ENERGY PREDICTED BY IDOCK:   -3.68 KCAL/MOL
REMARK 922        TOTAL FREE ENERGY PREDICTED BY IDOCK:   -6.60 KCAL/MOL
REMARK 923 INTER-LIGAND FREE ENERGY PREDICTED BY IDOCK:   -5.19 KCAL/MOL
REMARK 924 INTRA-LIGAND FREE ENERGY PREDICTED BY IDOCK:   -1.41 KCAL/MOL
REMARK 927      BINDING AFFINITY PREDICTED BY RF-SCORE:    0.00 PKD
ROOT
HETATM    1  C   UNL     1      -9.608   3.834  64.941  1.00  0.00    -0.177 C  
HETATM    2  C   UNL     1      -9.580   5.049  65.900  1.00  0.00    -0.164 C  
HETATM    3  C   UNL     1     -10.004   4.461  67.255  1.00  0.00    -0.164 C  
ENDROOT
BRANCH   2   4
HETATM    4  N   UNL     1      -8.281   5.804  65.878  1.00  0.00    -0.116 NA 
BRANCH   4   5
HETATM    5  C   UNL     1      -8.111   6.715  67.054  1.00  0.00    -0.113 C  
BRANCH   5   6
HETATM    6  C   UNL     1      -7.459   8.096  66.772  1.00  0.00    -0.090 C  
HETATM    7  C   UNL     1      -7.569   9.183  67.900  1.00  0.00    -0.085 C  
HETATM    8  C   UNL     1      -9.041   9.541  68.238  1.00  0.00    -0.127 A  
HETATM    9  C   UNL     1      -6.682   8.909  69.155  1.00  0.00    -0.051 A  
HETATM   10  C   UNL     1      -6.117   7.654  69.411  1.00  0.00    -0.031 A  
HETATM   11  C   UNL     1      -9.969  10.064  67.312  1.00  0.00    -0.197 A  
HETATM   12  C   UNL     1     -11.261  10.444  67.725  1.00  0.00    -0.309 A  
HETATM   13  C   UNL     1      -5.608   7.289  70.657  1.00  0.00    -0.027 A  
HETATM   14  C   UNL     1      -6.017   9.514  71.428  1.00  0.00    -0.052 A  
HETATM   15  C   UNL     1     -11.671  10.280  69.049  1.00  0.00    -0.083 A  
HETATM   16  C   UNL     1      -5.595   8.212  71.685  1.00  0.00    -0.035 A  
HETATM   17  C   UNL     1      -9.509   9.383  69.565  1.00  0.00    -0.187 A  
HETATM   18  C   UNL     1     -10.795   9.750  69.989  1.00  0.00    -0.319 A  
HETATM   19  C   UNL     1      -6.516   9.877  70.166  1.00  0.00    -0.093 A  
BRANCH  11  20
HETATM   20  O   UNL     1      -9.582  10.312  65.966  1.00  0.00    -0.183 OA 
BRANCH  20  21
HETATM   21  C   UNL     1      -9.789  11.586  65.401  1.00  0.00    -0.235 C  
HETATM   22  O   UNL     1      -9.418  12.654  65.874  1.00  0.00    -0.202 OA 
HETATM   23  C   UNL     1     -10.556  11.468  64.090  1.00  0.00    -0.420 C  
HETATM   24  C   UNL     1      -9.595  11.239  62.925  1.00  0.00    -0.377 C  
HETATM   25  C   UNL     1     -11.373  12.738  63.842  1.00  0.00    -0.498 C  
ENDBRANCH  20  21
ENDBRANCH  11  20
BRANCH  18  26
HETATM   26  C   UNL     1     -11.186   9.679  71.447  1.00  0.00    -0.356 C  
HETATM   27  O   UNL     1     -12.532  10.086  71.675  1.00  0.00    -0.376 OA 
HETATM   28  H   UNL     1     -12.778  10.041  72.591  1.00  0.00     0.000 HD 
ENDBRANCH  18  26
ENDBRANCH   5   6
ENDBRANCH   4   5
BRANCH   4  29
HETATM   29  C   UNL     1      -7.032   5.024  65.618  1.00  0.00    -0.063 C  
HETATM   30  C   UNL     1      -6.015   5.694  64.679  1.00  0.00    -0.022 C  
HETATM   31  C   UNL     1      -6.232   4.740  66.913  1.00  0.00    -0.032 C  
ENDBRANCH   4  29
ENDBRANCH   2   4
TORSDOF 7
ENDMDL
MODEL      147
REMARK 921   NORMALIZED FREE ENERGY PREDICTED BY IDOCK:   -3.67 KCAL/MOL
REMARK 922        TOTAL FREE ENERGY PREDICTED BY IDOCK:   -6.58 KCAL/MOL
REMARK 923 INTER-LIGAND FREE ENERGY PREDICTED BY IDOCK:   -4.60 KCAL/MOL
REMARK 924 INTRA-LIGAND FREE ENERGY PREDICTED BY IDOCK:   -1.97 KCAL/MOL
REMARK 927      BINDING AFFINITY PREDICTED BY RF-SCORE:    0.00 PKD
ROOT
HETATM    1  C   UNL     1      -9.492   3.741  68.463  1.00  0.00    -0.211 C  
HETATM    2  C   UNL     1      -8.045   3.901  68.988  1.00  0.00    -0.062 C  
HETATM    3  C   UNL     1      -7.461   2.481  68.903  1.00  0.00    -0.047 C  
ENDROOT
BRANCH   2   4
HETATM    4  N   UNL     1      -7.268   4.985  68.294  1.00  0.00    -0.062 NA 
BRANCH   4   5
HETATM    5  C   UNL     1      -6.267   5.652  69.185  1.00  0.00    -0.029 C  
BRANCH   5   6
HETATM    6  C   UNL     1      -6.365   7.197  69.302  1.00  0.00    -0.035 C  
HETATM    7  C   UNL     1      -7.319   7.772  70.410  1.00  0.00    -0.069 C  
HETATM    8  C   UNL     1      -8.794   7.330  70.210  1.00  0.00    -0.147 A  
HETATM    9  C   UNL     1      -6.799   7.594  71.870  1.00  0.00    -0.062 A  
HETATM   10  C   UNL     1      -5.767   6.705  72.194  1.00  0.00    -0.037 A  
HETATM   11  C   UNL     1      -9.565   7.613  69.062  1.00  0.00    -0.151 A  
HETATM   12  C   UNL     1     -10.924   7.251  69.002  1.00  0.00    -0.077 A  
HETATM   13  C   UNL     1      -5.505   6.284  73.497  1.00  0.00    -0.041 A  
HETATM   14  C   UNL     1      -7.187   7.794  74.276  1.00  0.00    -0.164 A  
HETATM   15  C   UNL     1     -11.536   6.572  70.056  1.00  0.00    -0.476 A  
HETATM   16  C   UNL     1      -6.247   6.801  74.541  1.00  0.00    -0.076 A  
HETATM   17  C   UNL     1      -9.456   6.630  71.248  1.00  0.00    -0.166 A  
HETATM   18  C   UNL     1     -10.807   6.256  71.198  1.00  0.00    -0.320 A  
HETATM   19  C   UNL     1      -7.434   8.222  72.961  1.00  0.00    -0.158 A  
BRANCH  11  20
HETATM   20  O   UNL     1      -9.009   8.361  67.987  1.00  0.00    -0.137 OA 
BRANCH  20  21
HETATM   21  C   UNL     1      -9.288   9.737  67.873  1.00  0.00    -0.127 C  
HETATM   22  O   UNL     1      -8.725  10.640  68.479  1.00  0.00    -0.127 OA 
HETATM   23  C   UNL     1     -10.412   9.969  66.871  1.00  0.00    -0.284 C  
HETATM   24  C   UNL     1      -9.852  10.086  65.454  1.00  0.00    -0.384 C  
HETATM   25  C   UNL     1     -11.180  11.243  67.228  1.00  0.00    -0.364 C  
ENDBRANCH  20  21
ENDBRANCH  11  20
BRANCH  18  26
HETATM   26  C   UNL     1     -11.488   5.627  72.392  1.00  0.00    -0.251 C  
HETATM   27  O   UNL     1     -11.342   6.402  73.578  1.00  0.00    -0.415 OA 
HETATM   28  H   UNL     1     -11.770   6.007  74.328  1.00  0.00     0.000 HD 
ENDBRANCH  18  26
ENDBRANCH   5   6
ENDBRANCH   4   5
BRANCH   4  29
HETATM   29  C   UNL     1      -6.672   4.662  66.962  1.00  0.00    -0.051 C  
HETATM   30  C   UNL     1      -6.927   5.696  65.854  1.00  0.00    -0.066 C  
HETATM   31  C   UNL     1      -5.129   4.533  67.021  1.00  0.00    -0.008 C  
ENDBRANCH   4  29
ENDBRANCH   2   4
TORSDOF 7
ENDMDL
MODEL      148
REMARK 921   NORMALIZED FREE ENERGY PREDICTED BY IDOCK:   -3.64 KCAL/MOL
REMARK 922        TOTAL FREE ENERGY PREDICTED BY IDOCK:   -6.54 KCAL/MOL
REMARK 923 INTER-LIGAND FREE ENERGY PREDICTED BY IDOCK:   -5.94 KCAL/MOL
REMARK 924 INTRA-LIGAND FREE ENERGY PREDICTED BY IDOCK:   -0.60 KCAL/MOL
REMARK 927      BINDING AFFINITY PREDICTED BY RF-SCORE:    0.00 PKD
ROOT
HETATM    1  C   UNL     1      -6.419   8.799  69.294  1.00  0.00    -0.042 C  
HETATM    2  C   UNL     1      -7.954   8.931  69.435  1.00  0.00    -0.100 C  
HETATM    3  C   UNL     1      -8.173   9.112  70.946  1.00  0.00    -0.220 C  
ENDROOT
BRANCH   2   4
HETATM    4  N   UNL     1      -8.554   9.982  68.544  1.00  0.00    -0.116 NA 
BRANCH   4   5
HETATM    5  C   UNL     1      -9.979  10.295  68.880  1.00  0.00    -0.201 C  
BRANCH   5   6
HETATM    6  C   UNL     1     -11.057   9.736  67.913  1.00  0.00    -0.161 C  
HETATM    7  C   UNL     1     -10.687   8.448  67.094  1.00  0.00    -0.222 C  
HETATM    8  C   UNL     1      -9.455   8.662  66.176  1.00  0.00    -0.308 A  
HETATM    9  C   UNL     1     -10.625   7.138  67.940  1.00  0.00    -0.269 A  
HETATM   10  C   UNL     1     -10.554   7.152  69.338  1.00  0.00    -0.246 A  
HETATM   11  C   UNL     1      -9.382   9.626  65.147  1.00  0.00    -0.259 A  
HETATM   12  C   UNL     1      -8.257   9.693  64.302  1.00  0.00    -0.156 A  
HETATM   13  C   UNL     1     -10.172   6.044  70.092  1.00  0.00    -0.267 A  
HETATM   14  C   UNL     1     -10.101   4.753  68.081  1.00  0.00    -0.105 A  
HETATM   15  C   UNL     1      -7.171   8.836  64.481  1.00  0.00    -0.096 A  
HETATM   16  C   UNL     1      -9.903   4.847  69.457  1.00  0.00    -0.287 A  
HETATM   17  C   UNL     1      -8.323   7.824  66.323  1.00  0.00    -0.131 A  
HETATM   18  C   UNL     1      -7.193   7.884  65.495  1.00  0.00    -0.067 A  
HETATM   19  C   UNL     1     -10.500   5.873  67.331  1.00  0.00    -0.311 A  
BRANCH  11  20
HETATM   20  O   UNL     1     -10.488  10.480  64.881  1.00  0.00    -0.301 OA 
BRANCH  20  21
HETATM   21  C   UNL     1     -10.271  11.849  64.629  1.00  0.00    -0.278 C  
HETATM   22  O   UNL     1      -9.728  12.324  63.638  1.00  0.00    -0.251 OA 
HETATM   23  C   UNL     1     -10.809  12.693  65.777  1.00  0.00    -0.304 C  
HETATM   24  C   UNL     1     -12.289  13.010  65.562  1.00  0.00    -0.527 C  
HETATM   25  C   UNL     1     -10.014  13.995  65.892  1.00  0.00    -0.325 C  
ENDBRANCH  20  21
ENDBRANCH  11  20
BRANCH  18  26
HETATM   26  C   UNL     1      -6.076   6.874  65.622  1.00  0.00    -0.036 C  
HETATM   27  O   UNL     1      -6.501   5.546  65.332  1.00  0.00    -0.037 OA 
HETATM   28  H   UNL     1      -5.799   4.911  65.411  1.00  0.00     0.000 HD 
ENDBRANCH  18  26
ENDBRANCH   5   6
ENDBRANCH   4   5
BRANCH   4  29
HETATM   29  C   UNL     1      -7.766  11.235  68.326  1.00  0.00    -0.122 C  
HETATM   30  C   UNL     1      -7.196  11.421  66.911  1.00  0.00    -0.144 C  
HETATM   31  C   UNL     1      -8.607  12.512  68.574  1.00  0.00    -0.054 C  
ENDBRANCH   4  29
ENDBRANCH   2   4
TORSDOF 7
ENDMDL
MODEL      149
REMARK 921   NORMALIZED FREE ENERGY PREDICTED BY IDOCK:   -3.64 KCAL/MOL
REMARK 922        TOTAL FREE ENERGY PREDICTED BY IDOCK:   -6.54 KCAL/MOL
REMARK 923 INTER-LIGAND FREE ENERGY PREDICTED BY IDOCK:   -5.77 KCAL/MOL
REMARK 924 INTRA-LIGAND FREE ENERGY PREDICTED BY IDOCK:   -0.77 KCAL/MOL
REMARK 927      BINDING AFFINITY PREDICTED BY RF-SCORE:    0.00 PKD
ROOT
HETATM    1  C   UNL     1      -8.792   8.771  64.189  1.00  0.00     0.083 C  
HETATM    2  C   UNL     1      -7.776   7.751  64.758  1.00  0.00    -0.119 C  
HETATM    3  C   UNL     1      -6.464   8.548  64.851  1.00  0.00    -0.064 C  
ENDROOT
BRANCH   2   4
HETATM    4  N   UNL     1      -8.239   7.080  66.021  1.00  0.00    -0.122 NA 
BRANCH   4   5
HETATM    5  C   UNL     1      -9.084   7.965  66.881  1.00  0.00    -0.143 C  
BRANCH   5   6
HETATM    6  C   UNL     1      -8.584   9.422  67.079  1.00  0.00    -0.131 C  
HETATM    7  C   UNL     1      -8.353   9.907  68.555  1.00  0.00    -0.108 C  
HETATM    8  C   UNL     1      -9.650   9.851  69.407  1.00  0.00    -0.229 A  
HETATM    9  C   UNL     1      -7.109   9.278  69.257  1.00  0.00    -0.057 A  
HETATM   10  C   UNL     1      -6.466   8.138  68.760  1.00  0.00    -0.053 A  
HETATM   11  C   UNL     1     -10.834  10.558  69.107  1.00  0.00    -0.237 A  
HETATM   12  C   UNL     1     -11.936  10.520  69.983  1.00  0.00    -0.367 A  
HETATM   13  C   UNL     1      -5.581   7.373  69.518  1.00  0.00    -0.023 A  
HETATM   14  C   UNL     1      -5.770   8.977  71.280  1.00  0.00    -0.051 A  
HETATM   15  C   UNL     1     -11.901   9.756  71.150  1.00  0.00    -0.466 A  
HETATM   16  C   UNL     1      -5.262   7.772  70.802  1.00  0.00    -0.023 A  
HETATM   17  C   UNL     1      -9.669   9.082  70.596  1.00  0.00    -0.287 A  
HETATM   18  C   UNL     1     -10.761   9.028  71.474  1.00  0.00    -0.421 A  
HETATM   19  C   UNL     1      -6.651   9.749  70.504  1.00  0.00    -0.117 A  
BRANCH  11  20
HETATM   20  O   UNL     1     -10.899  11.403  67.964  1.00  0.00    -0.193 OA 
BRANCH  20  21
HETATM   21  C   UNL     1     -10.602  12.775  68.091  1.00  0.00    -0.229 C  
HETATM   22  O   UNL     1      -9.494  13.258  68.293  1.00  0.00    -0.214 OA 
HETATM   23  C   UNL     1     -11.868  13.608  67.940  1.00  0.00    -0.402 C  
HETATM   24  C   UNL     1     -12.132  13.923  66.469  1.00  0.00    -0.484 C  
HETATM   25  C   UNL     1     -11.737  14.912  68.731  1.00  0.00    -0.353 C  
ENDBRANCH  20  21
ENDBRANCH  11  20
BRANCH  18  26
HETATM   26  C   UNL     1     -10.669   8.294  72.791  1.00  0.00    -0.243 C  
HETATM   27  O   UNL     1      -9.330   7.957  73.139  1.00  0.00    -0.220 OA 
HETATM   28  H   UNL     1      -9.272   7.495  73.967  1.00  0.00     0.000 HD 
ENDBRANCH  18  26
ENDBRANCH   5   6
ENDBRANCH   4   5
BRANCH   4  29
HETATM   29  C   UNL     1      -8.842   5.717  65.897  1.00  0.00    -0.150 C  
HETATM   30  C   UNL     1      -8.119   4.600  66.667  1.00  0.00    -0.103 C  
HETATM   31  C   UNL     1     -10.299   5.666  66.420  1.00  0.00    -0.241 C  
ENDBRANCH   4  29
ENDBRANCH   2   4
TORSDOF 7
ENDMDL
MODEL      150
REMARK 921   NORMALIZED FREE ENERGY PREDICTED BY IDOCK:   -3.63 KCAL/MOL
REMARK 922        TOTAL FREE ENERGY PREDICTED BY IDOCK:   -6.52 KCAL/MOL
REMARK 923 INTER-LIGAND FREE ENERGY PREDICTED BY IDOCK:   -6.13 KCAL/MOL
REMARK 924 INTRA-LIGAND FREE ENERGY PREDICTED BY IDOCK:   -0.39 KCAL/MOL
REMARK 927      BINDING AFFINITY PREDICTED BY RF-SCORE:    0.00 PKD
ROOT
HETATM    1  C   UNL     1      -7.742   4.439  69.610  1.00  0.00    -0.054 C  
HETATM    2  C   UNL     1      -9.052   3.766  69.135  1.00  0.00    -0.137 C  
HETATM    3  C   UNL     1      -9.646   3.163  70.418  1.00  0.00    -0.192 C  
ENDROOT
BRANCH   2   4
HETATM    4  N   UNL     1      -9.951   4.681  68.350  1.00  0.00    -0.108 NA 
BRANCH   4   5
HETATM    5  C   UNL     1     -10.599   5.733  69.194  1.00  0.00    -0.294 C  
BRANCH   5   6
HETATM    6  C   UNL     1      -9.971   5.984  70.592  1.00  0.00    -0.232 C  
HETATM    7  C   UNL     1     -10.173   7.408  71.223  1.00  0.00    -0.197 C  
HETATM    8  C   UNL     1      -9.567   8.537  70.346  1.00  0.00    -0.189 A  
HETATM    9  C   UNL     1     -11.626   7.700  71.712  1.00  0.00    -0.307 A  
HETATM   10  C   UNL     1     -12.720   6.922  71.316  1.00  0.00    -0.368 A  
HETATM   11  C   UNL     1      -8.205   8.627  69.988  1.00  0.00    -0.122 A  
HETATM   12  C   UNL     1      -7.724   9.734  69.264  1.00  0.00    -0.101 A  
HETATM   13  C   UNL     1     -14.043   7.338  71.461  1.00  0.00    -0.515 A  
HETATM   14  C   UNL     1     -13.260   9.281  72.613  1.00  0.00    -0.333 A  
HETATM   15  C   UNL     1      -8.583  10.751  68.848  1.00  0.00    -0.155 A  
HETATM   16  C   UNL     1     -14.314   8.545  72.077  1.00  0.00    -0.537 A  
HETATM   17  C   UNL     1     -10.401   9.588  69.891  1.00  0.00    -0.265 A  
HETATM   18  C   UNL     1      -9.936  10.692  69.161  1.00  0.00    -0.228 A  
HETATM   19  C   UNL     1     -11.931   8.847  72.474  1.00  0.00    -0.219 A  
BRANCH  11  20
HETATM   20  O   UNL     1      -7.275   7.651  70.443  1.00  0.00    -0.061 OA 
BRANCH  20  21
HETATM   21  C   UNL     1      -6.673   7.793  71.708  1.00  0.00    -0.050 C  
HETATM   22  O   UNL     1      -6.260   8.838  72.198  1.00  0.00    -0.074 OA 
HETATM   23  C   UNL     1      -6.596   6.446  72.415  1.00  0.00    -0.060 C  
HETATM   24  C   UNL     1      -7.884   6.173  73.190  1.00  0.00    -0.104 C  
HETATM   25  C   UNL     1      -5.403   6.421  73.372  1.00  0.00    -0.037 C  
ENDBRANCH  20  21
ENDBRANCH  11  20
BRANCH  18  26
HETATM   26  C   UNL     1     -10.853  11.844  68.820  1.00  0.00    -0.231 C  
HETATM   27  O   UNL     1     -10.464  13.061  69.449  1.00  0.00    -0.415 OA 
HETATM   28  H   UNL     1     -11.040  13.785  69.234  1.00  0.00     0.000 HD 
ENDBRANCH  18  26
ENDBRANCH   5   6
ENDBRANCH   4   5
BRANCH   4  29
HETATM   29  C   UNL     1      -9.407   5.266  67.086  1.00  0.00    -0.122 C  
HETATM   30  C   UNL     1     -10.071   4.775  65.789  1.00  0.00    -0.236 C  
HETATM   31  C   UNL     1      -9.556   6.807  67.036  1.00  0.00    -0.188 C  
ENDBRANCH   4  29
ENDBRANCH   2   4
TORSDOF 7
ENDMDL
MODEL      151
REMARK 921   NORMALIZED FREE ENERGY PREDICTED BY IDOCK:   -3.63 KCAL/MOL
REMARK 922        TOTAL FREE ENERGY PREDICTED BY IDOCK:   -6.52 KCAL/MOL
REMARK 923 INTER-LIGAND FREE ENERGY PREDICTED BY IDOCK:   -4.93 KCAL/MOL
REMARK 924 INTRA-LIGAND FREE ENERGY PREDICTED BY IDOCK:   -1.59 KCAL/MOL
REMARK 927      BINDING AFFINITY PREDICTED BY RF-SCORE:    0.00 PKD
ROOT
HETATM    1  C   UNL     1     -11.936  10.918  68.272  1.00  0.00    -0.024 C  
HETATM    2  C   UNL     1     -10.789  11.207  69.270  1.00  0.00    -0.229 C  
HETATM    3  C   UNL     1     -11.067  10.250  70.440  1.00  0.00    -0.391 C  
ENDROOT
BRANCH   2   4
HETATM    4  N   UNL     1      -9.420  11.129  68.654  1.00  0.00    -0.196 NA 
BRANCH   4   5
HETATM    5  C   UNL     1      -9.081   9.763  68.146  1.00  0.00    -0.125 C  
BRANCH   5   6
HETATM    6  C   UNL     1      -7.836   9.079  68.773  1.00  0.00    -0.096 C  
HETATM    7  C   UNL     1      -7.228   7.854  68.003  1.00  0.00    -0.090 C  
HETATM    8  C   UNL     1      -8.240   6.688  67.849  1.00  0.00    -0.120 A  
HETATM    9  C   UNL     1      -6.484   8.222  66.681  1.00  0.00    -0.056 A  
HETATM   10  C   UNL     1      -6.641   9.465  66.056  1.00  0.00    -0.073 A  
HETATM   11  C   UNL     1      -8.851   6.011  68.927  1.00  0.00    -0.120 A  
HETATM   12  C   UNL     1      -9.691   4.905  68.699  1.00  0.00    -0.225 A  
HETATM   13  C   UNL     1      -6.264   9.706  64.735  1.00  0.00    -0.087 A  
HETATM   14  C   UNL     1      -5.347   7.500  64.640  1.00  0.00    -0.029 A  
HETATM   15  C   UNL     1      -9.973   4.469  67.403  1.00  0.00    -0.171 A  
HETATM   16  C   UNL     1      -5.650   8.704  64.009  1.00  0.00    -0.065 A  
HETATM   17  C   UNL     1      -8.567   6.215  66.554  1.00  0.00    -0.126 A  
HETATM   18  C   UNL     1      -9.408   5.120  66.311  1.00  0.00    -0.155 A  
HETATM   19  C   UNL     1      -5.719   7.272  65.976  1.00  0.00    -0.032 A  
BRANCH  11  20
HETATM   20  O   UNL     1      -8.546   6.372  70.269  1.00  0.00    -0.132 OA 
BRANCH  20  21
HETATM   21  C   UNL     1      -9.325   5.861  71.326  1.00  0.00    -0.156 C  
HETATM   22  O   UNL     1      -9.180   4.772  71.868  1.00  0.00    -0.132 OA 
HETATM   23  C   UNL     1     -10.404   6.861  71.722  1.00  0.00    -0.217 C  
HETATM   24  C   UNL     1      -9.866   7.849  72.756  1.00  0.00    -0.335 C  
HETATM   25  C   UNL     1     -11.618   6.125  72.296  1.00  0.00    -0.362 C  
ENDBRANCH  20  21
ENDBRANCH  11  20
BRANCH  18  26
HETATM   26  C   UNL     1      -9.611   4.585  64.912  1.00  0.00    -0.117 C  
HETATM   27  O   UNL     1     -10.798   3.809  64.788  1.00  0.00    -0.507 OA 
HETATM   28  H   UNL     1     -10.926   3.473  63.908  1.00  0.00     0.000 HD 
ENDBRANCH  18  26
ENDBRANCH   5   6
ENDBRANCH   4   5
BRANCH   4  29
HETATM   29  C   UNL     1      -9.051  12.180  67.657  1.00  0.00    -0.181 C  
HETATM   30  C   UNL     1      -7.587  12.650  67.701  1.00  0.00    -0.152 C  
HETATM   31  C   UNL     1      -9.260  11.708  66.197  1.00  0.00    -0.228 C  
ENDBRANCH   4  29
ENDBRANCH   2   4
TORSDOF 7
ENDMDL
MODEL      152
REMARK 921   NORMALIZED FREE ENERGY PREDICTED BY IDOCK:   -3.61 KCAL/MOL
REMARK 922        TOTAL FREE ENERGY PREDICTED BY IDOCK:   -6.50 KCAL/MOL
REMARK 923 INTER-LIGAND FREE ENERGY PREDICTED BY IDOCK:   -5.27 KCAL/MOL
REMARK 924 INTRA-LIGAND FREE ENERGY PREDICTED BY IDOCK:   -1.23 KCAL/MOL
REMARK 927      BINDING AFFINITY PREDICTED BY RF-SCORE:    0.00 PKD
ROOT
HETATM    1  C   UNL     1      -9.205  10.783  68.442  1.00  0.00    -0.164 C  
HETATM    2  C   UNL     1      -7.923  10.179  67.821  1.00  0.00    -0.102 C  
HETATM    3  C   UNL     1      -7.139  11.404  67.323  1.00  0.00    -0.119 C  
ENDROOT
BRANCH   2   4
HETATM    4  N   UNL     1      -7.188   9.247  68.744  1.00  0.00    -0.073 NA 
BRANCH   4   5
HETATM    5  C   UNL     1      -8.101   8.364  69.536  1.00  0.00    -0.113 C  
BRANCH   5   6
HETATM    6  C   UNL     1      -9.097   7.492  68.725  1.00  0.00    -0.135 C  
HETATM    7  C   UNL     1     -10.147   6.656  69.542  1.00  0.00    -0.197 C  
HETATM    8  C   UNL     1      -9.476   5.639  70.503  1.00  0.00    -0.203 A  
HETATM    9  C   UNL     1     -11.276   7.504  70.206  1.00  0.00    -0.253 A  
HETATM   10  C   UNL     1     -11.176   8.892  70.363  1.00  0.00    -0.259 A  
HETATM   11  C   UNL     1      -8.612   4.601  70.094  1.00  0.00    -0.078 A  
HETATM   12  C   UNL     1      -8.118   3.667  71.024  1.00  0.00    -0.069 A  
HETATM   13  C   UNL     1     -11.992   9.621  71.226  1.00  0.00    -0.462 A  
HETATM   14  C   UNL     1     -13.217   7.621  71.688  1.00  0.00    -0.395 A  
HETATM   15  C   UNL     1      -8.437   3.763  72.379  1.00  0.00    -0.093 A  
HETATM   16  C   UNL     1     -12.994   8.975  71.925  1.00  0.00    -0.451 A  
HETATM   17  C   UNL     1      -9.760   5.701  71.890  1.00  0.00    -0.191 A  
HETATM   18  C   UNL     1      -9.268   4.783  72.829  1.00  0.00    -0.143 A  
HETATM   19  C   UNL     1     -12.398   6.897  70.806  1.00  0.00    -0.314 A  
BRANCH  11  20
HETATM   20  O   UNL     1      -8.308   4.418  68.716  1.00  0.00    -0.083 OA 
BRANCH  20  21
HETATM   21  C   UNL     1      -9.045   3.491  67.953  1.00  0.00    -0.157 C  
HETATM   22  O   UNL     1      -9.773   2.610  68.395  1.00  0.00    -0.118 OA 
HETATM   23  C   UNL     1      -8.817   3.726  66.466  1.00  0.00    -0.126 C  
HETATM   24  C   UNL     1      -9.800   4.766  65.930  1.00  0.00    -0.225 C  
HETATM   25  C   UNL     1      -8.984   2.415  65.694  1.00  0.00    -0.121 C  
ENDBRANCH  20  21
ENDBRANCH  11  20
BRANCH  18  26
HETATM   26  C   UNL     1      -9.715   4.827  74.272  1.00  0.00    -0.143 C  
HETATM   27  O   UNL     1     -10.678   5.847  74.518  1.00  0.00    -0.358 OA 
HETATM   28  H   UNL     1     -10.960   5.875  75.425  1.00  0.00     0.000 HD 
ENDBRANCH  18  26
ENDBRANCH   5   6
ENDBRANCH   4   5
BRANCH   4  29
HETATM   29  C   UNL     1      -6.048   8.467  68.173  1.00  0.00    -0.050 C  
HETATM   30  C   UNL     1      -5.570   7.276  69.020  1.00  0.00    -0.019 C  
HETATM   31  C   UNL     1      -6.387   7.848  66.795  1.00  0.00    -0.054 C  
ENDBRANCH   4  29
ENDBRANCH   2   4
TORSDOF 7
ENDMDL
MODEL      153
REMARK 921   NORMALIZED FREE ENERGY PREDICTED BY IDOCK:   -3.60 KCAL/MOL
REMARK 922        TOTAL FREE ENERGY PREDICTED BY IDOCK:   -6.48 KCAL/MOL
REMARK 923 INTER-LIGAND FREE ENERGY PREDICTED BY IDOCK:   -5.13 KCAL/MOL
REMARK 924 INTRA-LIGAND FREE ENERGY PREDICTED BY IDOCK:   -1.35 KCAL/MOL
REMARK 927      BINDING AFFINITY PREDICTED BY RF-SCORE:    0.00 PKD
ROOT
HETATM    1  C   UNL     1     -10.278   6.082  71.312  1.00  0.00    -0.253 C  
HETATM    2  C   UNL     1      -9.328   6.966  70.469  1.00  0.00    -0.159 C  
HETATM    3  C   UNL     1      -8.151   6.034  70.139  1.00  0.00    -0.114 C  
ENDROOT
BRANCH   2   4
HETATM    4  N   UNL     1     -10.001   7.630  69.300  1.00  0.00    -0.176 NA 
BRANCH   4   5
HETATM    5  C   UNL     1     -11.147   6.838  68.754  1.00  0.00    -0.168 C  
BRANCH   5   6
HETATM    6  C   UNL     1     -11.255   6.750  67.208  1.00  0.00    -0.279 C  
HETATM    7  C   UNL     1      -9.922   6.524  66.409  1.00  0.00    -0.086 C  
HETATM    8  C   UNL     1      -8.894   7.665  66.635  1.00  0.00    -0.159 A  
HETATM    9  C   UNL     1      -9.317   5.092  66.548  1.00  0.00    -0.142 A  
HETATM   10  C   UNL     1      -9.716   4.206  67.556  1.00  0.00    -0.185 A  
HETATM   11  C   UNL     1      -9.127   9.023  66.329  1.00  0.00    -0.179 A  
HETATM   12  C   UNL     1      -8.106   9.980  66.483  1.00  0.00    -0.119 A  
HETATM   13  C   UNL     1      -8.983   3.073  67.908  1.00  0.00    -0.191 A  
HETATM   14  C   UNL     1      -7.485   3.535  66.102  1.00  0.00    -0.077 A  
HETATM   15  C   UNL     1      -6.851   9.621  66.976  1.00  0.00    -0.084 A  
HETATM   16  C   UNL     1      -7.837   2.757  67.203  1.00  0.00    -0.074 A  
HETATM   17  C   UNL     1      -7.609   7.353  67.142  1.00  0.00    -0.107 A  
HETATM   18  C   UNL     1      -6.585   8.298  67.309  1.00  0.00    -0.058 A  
HETATM   19  C   UNL     1      -8.238   4.666  65.747  1.00  0.00    -0.111 A  
BRANCH  11  20
HETATM   20  O   UNL     1     -10.366   9.431  65.763  1.00  0.00    -0.139 OA 
BRANCH  20  21
HETATM   21  C   UNL     1     -10.700  10.799  65.721  1.00  0.00    -0.070 C  
HETATM   22  O   UNL     1     -10.732  11.564  66.678  1.00  0.00    -0.245 OA 
HETATM   23  C   UNL     1     -11.028  11.223  64.295  1.00  0.00    -0.358 C  
HETATM   24  C   UNL     1      -9.757  11.633  63.552  1.00  0.00    -0.342 C  
HETATM   25  C   UNL     1     -12.017  12.391  64.307  1.00  0.00    -0.489 C  
ENDBRANCH  20  21
ENDBRANCH  11  20
BRANCH  18  26
HETATM   26  C   UNL     1      -5.196   7.877  67.730  1.00  0.00    -0.032 C  
HETATM   27  O   UNL     1      -5.139   6.520  68.157  1.00  0.00    -0.007 OA 
HETATM   28  H   UNL     1      -4.266   6.255  68.421  1.00  0.00     0.000 HD 
ENDBRANCH  18  26
ENDBRANCH   5   6
ENDBRANCH   4   5
BRANCH   4  29
HETATM   29  C   UNL     1     -10.364   9.074  69.442  1.00  0.00    -0.213 C  
HETATM   30  C   UNL     1     -11.489   9.378  70.444  1.00  0.00    -0.272 C  
HETATM   31  C   UNL     1      -9.173   9.938  69.925  1.00  0.00    -0.245 C  
ENDBRANCH   4  29
ENDBRANCH   2   4
TORSDOF 7
ENDMDL
MODEL      154
REMARK 921   NORMALIZED FREE ENERGY PREDICTED BY IDOCK:   -3.59 KCAL/MOL
REMARK 922        TOTAL FREE ENERGY PREDICTED BY IDOCK:   -6.46 KCAL/MOL
REMARK 923 INTER-LIGAND FREE ENERGY PREDICTED BY IDOCK:   -5.49 KCAL/MOL
REMARK 924 INTRA-LIGAND FREE ENERGY PREDICTED BY IDOCK:   -0.97 KCAL/MOL
REMARK 927      BINDING AFFINITY PREDICTED BY RF-SCORE:    0.00 PKD
ROOT
HETATM    1  C   UNL     1     -10.361   7.301  68.314  1.00  0.00    -0.227 C  
HETATM    2  C   UNL     1      -9.864   8.579  69.031  1.00  0.00    -0.183 C  
HETATM    3  C   UNL     1      -8.385   8.285  69.328  1.00  0.00    -0.122 C  
ENDROOT
BRANCH   2   4
HETATM    4  N   UNL     1     -10.153   9.846  68.274  1.00  0.00    -0.155 NA 
BRANCH   4   5
HETATM    5  C   UNL     1     -10.847   9.605  66.970  1.00  0.00    -0.078 C  
BRANCH   5   6
HETATM    6  C   UNL     1     -10.258  10.328  65.728  1.00  0.00    -0.289 C  
HETATM    7  C   UNL     1      -8.708  10.579  65.714  1.00  0.00    -0.188 C  
HETATM    8  C   UNL     1      -8.238  11.461  66.901  1.00  0.00    -0.157 A  
HETATM    9  C   UNL     1      -7.845   9.296  65.500  1.00  0.00    -0.099 A  
HETATM   10  C   UNL     1      -8.369   8.007  65.660  1.00  0.00    -0.146 A  
HETATM   11  C   UNL     1      -8.690  12.775  67.148  1.00  0.00    -0.202 A  
HETATM   12  C   UNL     1      -8.144  13.538  68.199  1.00  0.00    -0.154 A  
HETATM   13  C   UNL     1      -7.570   6.873  65.799  1.00  0.00    -0.091 A  
HETATM   14  C   UNL     1      -5.643   8.236  65.421  1.00  0.00    -0.043 A  
HETATM   15  C   UNL     1      -7.172  13.004  69.046  1.00  0.00     0.014 A  
HETATM   16  C   UNL     1      -6.196   6.994  65.721  1.00  0.00    -0.037 A  
HETATM   17  C   UNL     1      -7.260  10.961  67.796  1.00  0.00    -0.091 A  
HETATM   18  C   UNL     1      -6.714  11.706  68.851  1.00  0.00    -0.088 A  
HETATM   19  C   UNL     1      -6.457   9.371  65.268  1.00  0.00    -0.074 A  
BRANCH  11  20
HETATM   20  O   UNL     1      -9.630  13.390  66.276  1.00  0.00    -0.274 OA 
BRANCH  20  21
HETATM   21  C   UNL     1     -10.221  14.617  66.635  1.00  0.00    -0.274 C  
HETATM   22  O   UNL     1     -11.031  14.791  67.538  1.00  0.00    -0.286 OA 
HETATM   23  C   UNL     1      -9.713  15.736  65.735  1.00  0.00    -0.372 C  
HETATM   24  C   UNL     1      -8.421  16.330  66.294  1.00  0.00    -0.369 C  
HETATM   25  C   UNL     1     -10.773  16.833  65.609  1.00  0.00    -0.199 C  
ENDBRANCH  20  21
ENDBRANCH  11  20
BRANCH  18  26
HETATM   26  C   UNL     1      -5.579  11.160  69.687  1.00  0.00    -0.052 C  
HETATM   27  O   UNL     1      -5.938  10.985  71.054  1.00  0.00    -0.352 OA 
HETATM   28  H   UNL     1      -5.225  10.642  71.579  1.00  0.00     0.000 HD 
ENDBRANCH  18  26
ENDBRANCH   5   6
ENDBRANCH   4   5
BRANCH   4  29
HETATM   29  C   UNL     1     -10.795  10.967  69.026  1.00  0.00    -0.229 C  
HETATM   30  C   UNL     1     -12.000  11.625  68.333  1.00  0.00    -0.266 C  
HETATM   31  C   UNL     1     -11.341  10.519  70.404  1.00  0.00    -0.411 C  
ENDBRANCH   4  29
ENDBRANCH   2   4
TORSDOF 7
ENDMDL
MODEL      155
REMARK 921   NORMALIZED FREE ENERGY PREDICTED BY IDOCK:   -3.57 KCAL/MOL
REMARK 922        TOTAL FREE ENERGY PREDICTED BY IDOCK:   -6.44 KCAL/MOL
REMARK 923 INTER-LIGAND FREE ENERGY PREDICTED BY IDOCK:   -4.61 KCAL/MOL
REMARK 924 INTRA-LIGAND FREE ENERGY PREDICTED BY IDOCK:   -1.83 KCAL/MOL
REMARK 927      BINDING AFFINITY PREDICTED BY RF-SCORE:    0.00 PKD
ROOT
HETATM    1  C   UNL     1     -10.803   7.004  66.695  1.00  0.00    -0.046 C  
HETATM    2  C   UNL     1      -9.887   5.771  66.883  1.00  0.00    -0.157 C  
HETATM    3  C   UNL     1      -9.937   5.061  65.520  1.00  0.00    -0.039 C  
ENDROOT
BRANCH   2   4
HETATM    4  N   UNL     1      -8.520   6.109  67.409  1.00  0.00    -0.108 NA 
BRANCH   4   5
HETATM    5  C   UNL     1      -7.882   4.980  68.157  1.00  0.00    -0.087 C  
BRANCH   5   6
HETATM    6  C   UNL     1      -7.137   5.351  69.468  1.00  0.00    -0.063 C  
HETATM    7  C   UNL     1      -8.013   5.560  70.754  1.00  0.00    -0.111 C  
HETATM    8  C   UNL     1      -9.045   6.707  70.589  1.00  0.00    -0.155 A  
HETATM    9  C   UNL     1      -8.615   4.249  71.350  1.00  0.00    -0.123 A  
HETATM   10  C   UNL     1      -8.671   3.054  70.623  1.00  0.00    -0.131 A  
HETATM   11  C   UNL     1      -8.711   8.050  70.308  1.00  0.00    -0.134 A  
HETATM   12  C   UNL     1      -9.706   9.044  70.263  1.00  0.00    -0.229 A  
HETATM   13  C   UNL     1      -9.480   1.979  70.987  1.00  0.00    -0.209 A  
HETATM   14  C   UNL     1     -10.086   3.163  72.973  1.00  0.00    -0.220 A  
HETATM   15  C   UNL     1     -11.051   8.727  70.457  1.00  0.00    -0.278 A  
HETATM   16  C   UNL     1     -10.224   2.049  72.149  1.00  0.00    -0.214 A  
HETATM   17  C   UNL     1     -10.424   6.434  70.767  1.00  0.00    -0.270 A  
HETATM   18  C   UNL     1     -11.427   7.413  70.716  1.00  0.00    -0.313 A  
HETATM   19  C   UNL     1      -9.258   4.237  72.604  1.00  0.00    -0.138 A  
BRANCH  11  20
HETATM   20  O   UNL     1      -7.350   8.439  70.168  1.00  0.00    -0.056 OA 
BRANCH  20  21
HETATM   21  C   UNL     1      -6.760   9.283  71.129  1.00  0.00    -0.072 C  
HETATM   22  O   UNL     1      -6.507  10.473  70.986  1.00  0.00    -0.346 OA 
HETATM   23  C   UNL     1      -6.466   8.508  72.407  1.00  0.00    -0.090 C  
HETATM   24  C   UNL     1      -7.685   8.510  73.328  1.00  0.00    -0.049 C  
HETATM   25  C   UNL     1      -5.270   9.127  73.134  1.00  0.00    -0.082 C  
ENDBRANCH  20  21
ENDBRANCH  11  20
BRANCH  18  26
HETATM   26  C   UNL     1     -12.863   7.078  71.045  1.00  0.00    -0.196 C  
HETATM   27  O   UNL     1     -13.263   7.567  72.321  1.00  0.00    -0.499 OA 
HETATM   28  H   UNL     1     -14.166   7.356  72.528  1.00  0.00     0.000 HD 
ENDBRANCH  18  26
ENDBRANCH   5   6
ENDBRANCH   4   5
BRANCH   4  29
HETATM   29  C   UNL     1      -7.552   6.741  66.461  1.00  0.00    -0.089 C  
HETATM   30  C   UNL     1      -7.121   8.175  66.812  1.00  0.00    -0.077 C  
HETATM   31  C   UNL     1      -6.223   5.952  66.361  1.00  0.00    -0.034 C  
ENDBRANCH   4  29
ENDBRANCH   2   4
TORSDOF 7
ENDMDL
MODEL      156
REMARK 921   NORMALIZED FREE ENERGY PREDICTED BY IDOCK:   -3.57 KCAL/MOL
REMARK 922        TOTAL FREE ENERGY PREDICTED BY IDOCK:   -6.43 KCAL/MOL
REMARK 923 INTER-LIGAND FREE ENERGY PREDICTED BY IDOCK:   -5.13 KCAL/MOL
REMARK 924 INTRA-LIGAND FREE ENERGY PREDICTED BY IDOCK:   -1.30 KCAL/MOL
REMARK 927      BINDING AFFINITY PREDICTED BY RF-SCORE:    0.00 PKD
ROOT
HETATM    1  C   UNL     1     -11.237   6.840  71.611  1.00  0.00    -0.293 C  
HETATM    2  C   UNL     1     -10.884   8.298  71.993  1.00  0.00    -0.301 C  
HETATM    3  C   UNL     1      -9.678   8.153  72.935  1.00  0.00    -0.340 C  
ENDROOT
BRANCH   2   4
HETATM    4  N   UNL     1     -10.699   9.204  70.807  1.00  0.00    -0.241 NA 
BRANCH   4   5
HETATM    5  C   UNL     1      -9.934   8.563  69.692  1.00  0.00    -0.192 C  
BRANCH   5   6
HETATM    6  C   UNL     1      -8.421   8.315  69.943  1.00  0.00    -0.127 C  
HETATM    7  C   UNL     1      -7.439   8.621  68.757  1.00  0.00    -0.091 C  
HETATM    8  C   UNL     1      -7.742   7.765  67.498  1.00  0.00    -0.117 A  
HETATM    9  C   UNL     1      -7.241  10.139  68.454  1.00  0.00    -0.076 A  
HETATM   10  C   UNL     1      -8.112  11.120  68.945  1.00  0.00    -0.115 A  
HETATM   11  C   UNL     1      -7.719   6.354  67.467  1.00  0.00    -0.101 A  
HETATM   12  C   UNL     1      -7.920   5.657  66.260  1.00  0.00    -0.102 A  
HETATM   13  C   UNL     1      -8.160  12.418  68.438  1.00  0.00    -0.143 A  
HETATM   14  C   UNL     1      -6.300  11.891  67.031  1.00  0.00    -0.141 A  
HETATM   15  C   UNL     1      -8.183   6.339  65.071  1.00  0.00    -0.132 A  
HETATM   16  C   UNL     1      -7.276  12.795  67.445  1.00  0.00    -0.134 A  
HETATM   17  C   UNL     1      -8.025   8.409  66.269  1.00  0.00    -0.099 A  
HETATM   18  C   UNL     1      -8.235   7.728  65.061  1.00  0.00    -0.123 A  
HETATM   19  C   UNL     1      -6.251  10.590  67.558  1.00  0.00    -0.056 A  
BRANCH  11  20
HETATM   20  O   UNL     1      -7.391   5.612  68.636  1.00  0.00    -0.075 OA 
BRANCH  20  21
HETATM   21  C   UNL     1      -7.581   4.217  68.657  1.00  0.00    -0.059 C  
HETATM   22  O   UNL     1      -6.705   3.368  68.539  1.00  0.00    -0.043 OA 
HETATM   23  C   UNL     1      -9.054   3.883  68.850  1.00  0.00    -0.196 C  
HETATM   24  C   UNL     1      -9.403   3.833  70.336  1.00  0.00    -0.235 C  
HETATM   25  C   UNL     1      -9.379   2.537  68.198  1.00  0.00    -0.261 C  
ENDBRANCH  20  21
ENDBRANCH  11  20
BRANCH  18  26
HETATM   26  C   UNL     1      -8.400   8.480  63.760  1.00  0.00    -0.080 C  
HETATM   27  O   UNL     1      -8.448   9.891  63.943  1.00  0.00    -0.152 OA 
HETATM   28  H   UNL     1      -8.552  10.364  63.126  1.00  0.00     0.000 HD 
ENDBRANCH  18  26
ENDBRANCH   5   6
ENDBRANCH   4   5
BRANCH   4  29
HETATM   29  C   UNL     1     -11.906   9.919  70.289  1.00  0.00    -0.184 C  
HETATM   30  C   UNL     1     -13.035  10.138  71.310  1.00  0.00    -0.510 C  
HETATM   31  C   UNL     1     -11.574  11.340  69.771  1.00  0.00    -0.408 C  
ENDBRANCH   4  29
ENDBRANCH   2   4
TORSDOF 7
ENDMDL
MODEL      157
REMARK 921   NORMALIZED FREE ENERGY PREDICTED BY IDOCK:   -3.51 KCAL/MOL
REMARK 922        TOTAL FREE ENERGY PREDICTED BY IDOCK:   -6.36 KCAL/MOL
REMARK 923 INTER-LIGAND FREE ENERGY PREDICTED BY IDOCK:   -6.00 KCAL/MOL
REMARK 924 INTRA-LIGAND FREE ENERGY PREDICTED BY IDOCK:   -0.36 KCAL/MOL
REMARK 927      BINDING AFFINITY PREDICTED BY RF-SCORE:    0.00 PKD
ROOT
HETATM    1  C   UNL     1      -7.051   6.290  68.245  1.00  0.00    -0.083 C  
HETATM    2  C   UNL     1      -6.278   7.336  69.084  1.00  0.00    -0.035 C  
HETATM    3  C   UNL     1      -5.151   7.802  68.147  1.00  0.00    -0.030 C  
ENDROOT
BRANCH   2   4
HETATM    4  N   UNL     1      -7.154   8.413  69.660  1.00  0.00    -0.051 NA 
BRANCH   4   5
HETATM    5  C   UNL     1      -7.180   8.410  71.157  1.00  0.00    -0.068 C  
BRANCH   5   6
HETATM    6  C   UNL     1      -8.538   8.752  71.828  1.00  0.00    -0.198 C  
HETATM    7  C   UNL     1      -9.757   7.820  71.491  1.00  0.00    -0.195 C  
HETATM    8  C   UNL     1     -10.095   7.809  69.976  1.00  0.00    -0.201 A  
HETATM    9  C   UNL     1      -9.684   6.399  72.132  1.00  0.00    -0.161 A  
HETATM   10  C   UNL     1      -8.497   5.876  72.659  1.00  0.00    -0.119 A  
HETATM   11  C   UNL     1     -10.454   8.952  69.229  1.00  0.00    -0.224 A  
HETATM   12  C   UNL     1     -10.832   8.837  67.877  1.00  0.00    -0.078 A  
HETATM   13  C   UNL     1      -8.318   4.521  72.932  1.00  0.00    -0.103 A  
HETATM   14  C   UNL     1     -10.607   4.146  72.351  1.00  0.00    -0.116 A  
HETATM   15  C   UNL     1     -10.825   7.601  67.230  1.00  0.00    -0.263 A  
HETATM   16  C   UNL     1      -9.367   3.642  72.738  1.00  0.00    -0.145 A  
HETATM   17  C   UNL     1     -10.092   6.581  69.271  1.00  0.00    -0.192 A  
HETATM   18  C   UNL     1     -10.457   6.453  67.923  1.00  0.00    -0.276 A  
HETATM   19  C   UNL     1     -10.781   5.515  72.091  1.00  0.00    -0.288 A  
BRANCH  11  20
HETATM   20  O   UNL     1     -10.541  10.225  69.857  1.00  0.00    -0.258 OA 
BRANCH  20  21
HETATM   21  C   UNL     1     -11.795  10.852  69.997  1.00  0.00    -0.347 C  
HETATM   22  O   UNL     1     -12.437  11.391  69.103  1.00  0.00    -0.325 OA 
HETATM   23  C   UNL     1     -12.268  10.776  71.443  1.00  0.00    -0.374 C  
HETATM   24  C   UNL     1     -13.026   9.472  71.691  1.00  0.00    -0.483 C  
HETATM   25  C   UNL     1     -13.173  11.967  71.764  1.00  0.00    -0.421 C  
ENDBRANCH  20  21
ENDBRANCH  11  20
BRANCH  18  26
HETATM   26  C   UNL     1     -10.560   5.096  67.267  1.00  0.00    -0.066 C  
HETATM   27  O   UNL     1     -11.303   5.127  66.053  1.00  0.00    -0.714 OA 
HETATM   28  H   UNL     1     -11.368   4.274  65.640  1.00  0.00     0.000 HD 
ENDBRANCH  18  26
ENDBRANCH   5   6
ENDBRANCH   4   5
BRANCH   4  29
HETATM   29  C   UNL     1      -6.985   9.800  69.128  1.00  0.00    -0.055 C  
HETATM   30  C   UNL     1      -5.614  10.446  69.388  1.00  0.00    -0.037 C  
HETATM   31  C   UNL     1      -7.158   9.868  67.591  1.00  0.00    -0.087 C  
ENDBRANCH   4  29
ENDBRANCH   2   4
TORSDOF 7
ENDMDL
MODEL      158
REMARK 921   NORMALIZED FREE ENERGY PREDICTED BY IDOCK:   -3.42 KCAL/MOL
REMARK 922        TOTAL FREE ENERGY PREDICTED BY IDOCK:   -6.22 KCAL/MOL
REMARK 923 INTER-LIGAND FREE ENERGY PREDICTED BY IDOCK:   -4.59 KCAL/MOL
REMARK 924 INTRA-LIGAND FREE ENERGY PREDICTED BY IDOCK:   -1.63 KCAL/MOL
REMARK 927      BINDING AFFINITY PREDICTED BY RF-SCORE:    0.00 PKD
ROOT
HETATM    1  C   UNL     1     -11.787  10.747  70.997  1.00  0.00    -0.349 C  
HETATM    2  C   UNL     1     -11.520   9.651  69.936  1.00  0.00    -0.100 C  
HETATM    3  C   UNL     1     -11.348  10.438  68.627  1.00  0.00    -0.277 C  
ENDROOT
BRANCH   2   4
HETATM    4  N   UNL     1     -10.403   8.715  70.304  1.00  0.00    -0.193 NA 
BRANCH   4   5
HETATM    5  C   UNL     1      -9.158   9.426  70.734  1.00  0.00    -0.204 C  
BRANCH   5   6
HETATM    6  C   UNL     1      -7.816   8.688  70.480  1.00  0.00    -0.096 C  
HETATM    7  C   UNL     1      -7.141   8.892  69.076  1.00  0.00    -0.064 C  
HETATM    8  C   UNL     1      -8.044   8.413  67.908  1.00  0.00    -0.123 A  
HETATM    9  C   UNL     1      -6.520  10.306  68.855  1.00  0.00    -0.051 A  
HETATM   10  C   UNL     1      -6.835  11.398  69.672  1.00  0.00    -0.068 A  
HETATM   11  C   UNL     1      -8.518   7.092  67.754  1.00  0.00    -0.120 A  
HETATM   12  C   UNL     1      -9.259   6.722  66.615  1.00  0.00    -0.184 A  
HETATM   13  C   UNL     1      -6.566  12.719  69.316  1.00  0.00    -0.086 A  
HETATM   14  C   UNL     1      -5.447  11.918  67.361  1.00  0.00    -0.107 A  
HETATM   15  C   UNL     1      -9.577   7.656  65.629  1.00  0.00     0.474 A  
HETATM   16  C   UNL     1      -5.904  12.984  68.132  1.00  0.00    -0.093 A  
HETATM   17  C   UNL     1      -8.403   9.325  66.886  1.00  0.00    -0.123 A  
HETATM   18  C   UNL     1      -9.148   8.973  65.751  1.00  0.00    -0.272 A  
HETATM   19  C   UNL     1      -5.712  10.590  67.736  1.00  0.00    -0.044 A  
BRANCH  11  20
HETATM   20  O   UNL     1      -8.167   6.086  68.697  1.00  0.00    -0.106 OA 
BRANCH  20  21
HETATM   21  C   UNL     1      -8.993   4.956  68.856  1.00  0.00    -0.106 C  
HETATM   22  O   UNL     1     -10.187   4.969  69.134  1.00  0.00    -0.207 OA 
HETATM   23  C   UNL     1      -8.195   3.678  68.632  1.00  0.00    -0.084 C  
HETATM   24  C   UNL     1      -8.177   3.309  67.150  1.00  0.00    -0.083 C  
HETATM   25  C   UNL     1      -8.802   2.531  69.442  1.00  0.00    -0.150 C  
ENDBRANCH  20  21
ENDBRANCH  11  20
BRANCH  18  26
HETATM   26  C   UNL     1      -9.384   9.963  64.634  1.00  0.00    -0.277 C  
HETATM   27  O   UNL     1      -9.528   9.335  63.365  1.00  0.00    -0.422 OA 
HETATM   28  H   UNL     1      -9.676   9.957  62.662  1.00  0.00     0.000 HD 
ENDBRANCH  18  26
ENDBRANCH   5   6
ENDBRANCH   4   5
BRANCH   4  29
HETATM   29  C   UNL     1     -10.725   7.587  71.231  1.00  0.00    -0.225 C  
HETATM   30  C   UNL     1     -10.690   7.930  72.729  1.00  0.00    -0.435 C  
HETATM   31  C   UNL     1     -12.147   7.018  70.999  1.00  0.00    -0.413 C  
ENDBRANCH   4  29
ENDBRANCH   2   4
TORSDOF 7
ENDMDL
MODEL      159
REMARK 921   NORMALIZED FREE ENERGY PREDICTED BY IDOCK:   -3.42 KCAL/MOL
REMARK 922        TOTAL FREE ENERGY PREDICTED BY IDOCK:   -6.22 KCAL/MOL
REMARK 923 INTER-LIGAND FREE ENERGY PREDICTED BY IDOCK:   -5.89 KCAL/MOL
REMARK 924 INTRA-LIGAND FREE ENERGY PREDICTED BY IDOCK:   -0.34 KCAL/MOL
REMARK 927      BINDING AFFINITY PREDICTED BY RF-SCORE:    0.00 PKD
ROOT
HETATM    1  C   UNL     1     -12.573  14.641  64.443  1.00  0.00    -0.157 C  
HETATM    2  C   UNL     1     -12.083  14.227  65.851  1.00  0.00    -0.404 C  
HETATM    3  C   UNL     1     -12.422  12.730  65.935  1.00  0.00    -0.160 C  
ENDROOT
BRANCH   2   4
HETATM    4  N   UNL     1     -10.654  14.604  66.128  1.00  0.00    -0.303 NA 
BRANCH   4   5
HETATM    5  C   UNL     1      -9.686  13.504  65.820  1.00  0.00    -0.136 C  
BRANCH   5   6
HETATM    6  C   UNL     1      -8.551  13.271  66.853  1.00  0.00    -0.116 C  
HETATM    7  C   UNL     1      -8.973  12.769  68.280  1.00  0.00    -0.175 C  
HETATM    8  C   UNL     1      -9.920  13.763  69.003  1.00  0.00     0.052 A  
HETATM    9  C   UNL     1      -9.458  11.286  68.329  1.00  0.00    -0.190 A  
HETATM   10  C   UNL     1      -9.820  10.579  67.176  1.00  0.00    -0.213 A  
HETATM   11  C   UNL     1      -9.591  15.101  69.309  1.00  0.00    -0.218 A  
HETATM   12  C   UNL     1     -10.478  15.909  70.047  1.00  0.00    -0.295 A  
HETATM   13  C   UNL     1     -10.554   9.394  67.209  1.00  0.00    -0.314 A  
HETATM   14  C   UNL     1     -10.435   9.438  69.596  1.00  0.00    -0.236 A  
HETATM   15  C   UNL     1     -11.718  15.423  70.463  1.00  0.00    -0.356 A  
HETATM   16  C   UNL     1     -10.900   8.841  68.427  1.00  0.00    -0.019 A  
HETATM   17  C   UNL     1     -11.194  13.321  69.436  1.00  0.00    -0.220 A  
HETATM   18  C   UNL     1     -12.090  14.117  70.164  1.00  0.00    -0.411 A  
HETATM   19  C   UNL     1      -9.685  10.625  69.552  1.00  0.00    -0.085 A  
BRANCH  11  20
HETATM   20  O   UNL     1      -8.314  15.626  68.966  1.00  0.00    -0.197 OA 
BRANCH  20  21
HETATM   21  C   UNL     1      -8.146  17.016  68.811  1.00  0.00    -0.250 C  
HETATM   22  O   UNL     1      -9.027  17.864  68.905  1.00  0.00    -0.233 OA 
HETATM   23  C   UNL     1      -6.692  17.345  68.504  1.00  0.00    -0.195 C  
HETATM   24  C   UNL     1      -5.895  17.514  69.797  1.00  0.00    -0.244 C  
HETATM   25  C   UNL     1      -6.606  18.629  67.675  1.00  0.00    -0.205 C  
ENDBRANCH  20  21
ENDBRANCH  11  20
BRANCH  18  26
HETATM   26  C   UNL     1     -13.377  13.543  70.711  1.00  0.00     0.198 C  
HETATM   27  O   UNL     1     -14.111  14.484  71.488  1.00  0.00    -0.409 OA 
HETATM   28  H   UNL     1     -14.920  14.123  71.832  1.00  0.00     0.000 HD 
ENDBRANCH  18  26
ENDBRANCH   5   6
ENDBRANCH   4   5
BRANCH   4  29
HETATM   29  C   UNL     1     -10.169  15.912  65.592  1.00  0.00    -0.379 C  
HETATM   30  C   UNL     1     -10.833  17.162  66.194  1.00  0.00     0.026 C  
HETATM   31  C   UNL     1      -8.654  16.125  65.835  1.00  0.00    -0.039 C  
ENDBRANCH   4  29
ENDBRANCH   2   4
TORSDOF 7
ENDMDL
MODEL      160
REMARK 921   NORMALIZED FREE ENERGY PREDICTED BY IDOCK:   -3.41 KCAL/MOL
REMARK 922        TOTAL FREE ENERGY PREDICTED BY IDOCK:   -6.21 KCAL/MOL
REMARK 923 INTER-LIGAND FREE ENERGY PREDICTED BY IDOCK:   -4.11 KCAL/MOL
REMARK 924 INTRA-LIGAND FREE ENERGY PREDICTED BY IDOCK:   -2.11 KCAL/MOL
REMARK 927      BINDING AFFINITY PREDICTED BY RF-SCORE:    0.00 PKD
ROOT
HETATM    1  C   UNL     1      -9.469   3.238  67.858  1.00  0.00    -0.219 C  
HETATM    2  C   UNL     1      -7.944   3.354  68.092  1.00  0.00    -0.074 C  
HETATM    3  C   UNL     1      -7.464   1.894  68.136  1.00  0.00    -0.050 C  
ENDROOT
BRANCH   2   4
HETATM    4  N   UNL     1      -7.250   4.256  67.110  1.00  0.00    -0.068 NA 
BRANCH   4   5
HETATM    5  C   UNL     1      -6.161   5.074  67.730  1.00  0.00    -0.039 C  
BRANCH   5   6
HETATM    6  C   UNL     1      -6.164   6.592  67.405  1.00  0.00    -0.033 C  
HETATM    7  C   UNL     1      -7.107   7.507  68.265  1.00  0.00    -0.084 C  
HETATM    8  C   UNL     1      -8.601   7.107  68.136  1.00  0.00    -0.129 A  
HETATM    9  C   UNL     1      -6.635   7.722  69.737  1.00  0.00    -0.035 A  
HETATM   10  C   UNL     1      -5.670   6.906  70.341  1.00  0.00    -0.024 A  
HETATM   11  C   UNL     1      -9.323   7.095  66.924  1.00  0.00    -0.155 A  
HETATM   12  C   UNL     1     -10.701   6.805  66.910  1.00  0.00    -0.394 A  
HETATM   13  C   UNL     1      -5.469   6.858  71.719  1.00  0.00    -0.036 A  
HETATM   14  C   UNL     1      -7.070   8.615  71.972  1.00  0.00    -0.077 A  
HETATM   15  C   UNL     1     -11.381   6.485  68.086  1.00  0.00    -0.105 A  
HETATM   16  C   UNL     1      -6.203   7.688  72.545  1.00  0.00    -0.047 A  
HETATM   17  C   UNL     1      -9.333   6.766  69.300  1.00  0.00    -0.144 A  
HETATM   18  C   UNL     1     -10.703   6.466  69.300  1.00  0.00    -0.349 A  
HETATM   19  C   UNL     1      -7.256   8.666  70.580  1.00  0.00    -0.058 A  
BRANCH  11  20
HETATM   20  O   UNL     1      -8.694   7.477  65.706  1.00  0.00    -0.155 OA 
BRANCH  20  21
HETATM   21  C   UNL     1      -8.832   8.795  65.230  1.00  0.00    -0.162 C  
HETATM   22  O   UNL     1      -9.792   9.534  65.418  1.00  0.00    -0.302 OA 
HETATM   23  C   UNL     1      -7.603   9.202  64.428  1.00  0.00    -0.115 C  
HETATM   24  C   UNL     1      -6.526   9.774  65.349  1.00  0.00    -0.083 C  
HETATM   25  C   UNL     1      -7.984  10.242  63.372  1.00  0.00    -0.147 C  
ENDBRANCH  20  21
ENDBRANCH  11  20
BRANCH  18  26
HETATM   26  C   UNL     1     -11.452   6.239  70.593  1.00  0.00    -0.329 C  
HETATM   27  O   UNL     1     -12.724   6.879  70.610  1.00  0.00    -0.559 OA 
HETATM   28  H   UNL     1     -13.195   6.736  71.422  1.00  0.00     0.000 HD 
ENDBRANCH  18  26
ENDBRANCH   5   6
ENDBRANCH   4   5
BRANCH   4  29
HETATM   29  C   UNL     1      -6.799   3.652  65.818  1.00  0.00    -0.057 C  
HETATM   30  C   UNL     1      -7.305   4.353  64.547  1.00  0.00    -0.071 C  
HETATM   31  C   UNL     1      -5.257   3.655  65.672  1.00  0.00    -0.009 C  
ENDBRANCH   4  29
ENDBRANCH   2   4
TORSDOF 7
ENDMDL
MODEL      161
REMARK 921   NORMALIZED FREE ENERGY PREDICTED BY IDOCK:   -3.41 KCAL/MOL
REMARK 922        TOTAL FREE ENERGY PREDICTED BY IDOCK:   -6.21 KCAL/MOL
REMARK 923 INTER-LIGAND FREE ENERGY PREDICTED BY IDOCK:   -4.18 KCAL/MOL
REMARK 924 INTRA-LIGAND FREE ENERGY PREDICTED BY IDOCK:   -2.03 KCAL/MOL
REMARK 927      BINDING AFFINITY PREDICTED BY RF-SCORE:    0.00 PKD
ROOT
HETATM    1  C   UNL     1     -11.862  12.063  66.887  1.00  0.00    -0.250 C  
HETATM    2  C   UNL     1     -10.721  11.017  66.922  1.00  0.00    -0.274 C  
HETATM    3  C   UNL     1      -9.458  11.855  67.179  1.00  0.00    -0.180 C  
ENDROOT
BRANCH   2   4
HETATM    4  N   UNL     1     -10.973   9.881  67.873  1.00  0.00    -0.260 NA 
BRANCH   4   5
HETATM    5  C   UNL     1     -10.556   8.552  67.325  1.00  0.00    -0.245 C  
BRANCH   5   6
HETATM    6  C   UNL     1      -9.686   8.575  66.039  1.00  0.00    -0.195 C  
HETATM    7  C   UNL     1      -8.437   7.624  66.001  1.00  0.00    -0.149 C  
HETATM    8  C   UNL     1      -7.420   7.935  67.131  1.00  0.00    -0.092 A  
HETATM    9  C   UNL     1      -8.780   6.108  65.862  1.00  0.00    -0.158 A  
HETATM   10  C   UNL     1     -10.066   5.606  66.101  1.00  0.00    -0.096 A  
HETATM   11  C   UNL     1      -6.768   9.176  67.300  1.00  0.00    -0.069 A  
HETATM   12  C   UNL     1      -5.791   9.345  68.300  1.00  0.00    -0.041 A  
HETATM   13  C   UNL     1     -10.329   4.253  66.305  1.00  0.00    -0.020 A  
HETATM   14  C   UNL     1      -8.033   3.780  65.835  1.00  0.00    -0.093 A  
HETATM   15  C   UNL     1      -5.468   8.306  69.174  1.00  0.00    -0.031 A  
HETATM   16  C   UNL     1      -9.298   3.337  66.212  1.00  0.00    -0.135 A  
HETATM   17  C   UNL     1      -7.065   6.917  68.049  1.00  0.00    -0.086 A  
HETATM   18  C   UNL     1      -6.100   7.073  69.055  1.00  0.00    -0.027 A  
HETATM   19  C   UNL     1      -7.780   5.145  65.618  1.00  0.00    -0.087 A  
BRANCH  11  20
HETATM   20  O   UNL     1      -7.013  10.248  66.397  1.00  0.00    -0.098 OA 
BRANCH  20  21
HETATM   21  C   UNL     1      -5.996  10.668  65.517  1.00  0.00    -0.117 C  
HETATM   22  O   UNL     1      -5.132  11.503  65.759  1.00  0.00    -0.314 OA 
HETATM   23  C   UNL     1      -6.107   9.933  64.187  1.00  0.00    -0.123 C  
HETATM   24  C   UNL     1      -5.349   8.608  64.241  1.00  0.00    -0.055 C  
HETATM   25  C   UNL     1      -5.548  10.802  63.058  1.00  0.00    -0.119 C  
ENDBRANCH  20  21
ENDBRANCH  11  20
BRANCH  18  26
HETATM   26  C   UNL     1      -5.673   5.907  69.916  1.00  0.00    -0.016 C  
HETATM   27  O   UNL     1      -6.469   4.746  69.701  1.00  0.00    -0.030 OA 
HETATM   28  H   UNL     1      -6.201   4.012  70.242  1.00  0.00     0.000 HD 
ENDBRANCH  18  26
ENDBRANCH   5   6
ENDBRANCH   4   5
BRANCH   4  29
HETATM   29  C   UNL     1     -10.513  10.048  69.286  1.00  0.00    -0.225 C  
HETATM   30  C   UNL     1     -11.618  10.347  70.312  1.00  0.00    -0.410 C  
HETATM   31  C   UNL     1      -9.812   8.779  69.833  1.00  0.00    -0.189 C  
ENDBRANCH   4  29
ENDBRANCH   2   4
TORSDOF 7
ENDMDL
MODEL      162
REMARK 921   NORMALIZED FREE ENERGY PREDICTED BY IDOCK:   -3.32 KCAL/MOL
REMARK 922        TOTAL FREE ENERGY PREDICTED BY IDOCK:   -6.09 KCAL/MOL
REMARK 923 INTER-LIGAND FREE ENERGY PREDICTED BY IDOCK:   -5.90 KCAL/MOL
REMARK 924 INTRA-LIGAND FREE ENERGY PREDICTED BY IDOCK:   -0.19 KCAL/MOL
REMARK 927      BINDING AFFINITY PREDICTED BY RF-SCORE:    0.00 PKD
ROOT
HETATM    1  C   UNL     1     -12.473  14.915  70.197  1.00  0.00    -0.353 C  
HETATM    2  C   UNL     1     -11.965  13.700  69.383  1.00  0.00    -0.342 C  
HETATM    3  C   UNL     1     -10.458  13.961  69.229  1.00  0.00    -0.001 C  
ENDROOT
BRANCH   2   4
HETATM    4  N   UNL     1     -12.356  12.373  69.973  1.00  0.00    -0.149 NA 
BRANCH   4   5
HETATM    5  C   UNL     1     -11.210  11.416  70.074  1.00  0.00    -0.078 C  
BRANCH   5   6
HETATM    6  C   UNL     1     -11.227  10.208  69.098  1.00  0.00    -0.234 C  
HETATM    7  C   UNL     1     -10.155   9.084  69.330  1.00  0.00    -0.197 C  
HETATM    8  C   UNL     1      -8.702   9.618  69.219  1.00  0.00    -0.159 A  
HETATM    9  C   UNL     1     -10.407   8.197  70.589  1.00  0.00    -0.214 A  
HETATM   10  C   UNL     1     -11.290   8.577  71.607  1.00  0.00    -0.362 A  
HETATM   11  C   UNL     1      -8.160  10.229  68.067  1.00  0.00    -0.106 A  
HETATM   12  C   UNL     1      -6.804  10.604  68.023  1.00  0.00    -0.072 A  
HETATM   13  C   UNL     1     -11.293   7.988  72.870  1.00  0.00    -0.364 A  
HETATM   14  C   UNL     1      -9.642   6.438  72.104  1.00  0.00    -0.155 A  
HETATM   15  C   UNL     1      -5.969  10.418  69.125  1.00  0.00    -0.037 A  
HETATM   16  C   UNL     1     -10.435   6.938  73.135  1.00  0.00    -0.313 A  
HETATM   17  C   UNL     1      -7.817   9.462  70.314  1.00  0.00    -0.165 A  
HETATM   18  C   UNL     1      -6.467   9.838  70.287  1.00  0.00    -0.093 A  
HETATM   19  C   UNL     1      -9.656   7.029  70.830  1.00  0.00    -0.167 A  
BRANCH  11  20
HETATM   20  O   UNL     1      -8.950  10.383  66.894  1.00  0.00    -0.139 OA 
BRANCH  20  21
HETATM   21  C   UNL     1      -9.503  11.640  66.582  1.00  0.00    -0.201 C  
HETATM   22  O   UNL     1      -9.066  12.729  66.936  1.00  0.00    -0.213 OA 
HETATM   23  C   UNL     1     -10.750  11.474  65.723  1.00  0.00    -0.325 C  
HETATM   24  C   UNL     1     -10.377  11.404  64.243  1.00  0.00    -0.383 C  
HETATM   25  C   UNL     1     -11.710  12.643  65.958  1.00  0.00    -0.470 C  
ENDBRANCH  20  21
ENDBRANCH  11  20
BRANCH  18  26
HETATM   26  C   UNL     1      -5.545   9.523  71.442  1.00  0.00    -0.073 C  
HETATM   27  O   UNL     1      -6.250   9.141  72.618  1.00  0.00    -0.278 OA 
HETATM   28  H   UNL     1      -5.670   8.942  73.345  1.00  0.00     0.000 HD 
ENDBRANCH  18  26
ENDBRANCH   5   6
ENDBRANCH   4   5
BRANCH   4  29
HETATM   29  C   UNL     1     -13.157  12.388  71.235  1.00  0.00    -0.126 C  
HETATM   30  C   UNL     1     -13.389  11.016  71.888  1.00  0.00    -0.423 C  
HETATM   31  C   UNL     1     -12.492  13.237  72.347  1.00  0.00     0.294 C  
ENDBRANCH   4  29
ENDBRANCH   2   4
TORSDOF 7
ENDMDL
MODEL      163
REMARK 921   NORMALIZED FREE ENERGY PREDICTED BY IDOCK:   -3.31 KCAL/MOL
REMARK 922        TOTAL FREE ENERGY PREDICTED BY IDOCK:   -6.07 KCAL/MOL
REMARK 923 INTER-LIGAND FREE ENERGY PREDICTED BY IDOCK:   -4.34 KCAL/MOL
REMARK 924 INTRA-LIGAND FREE ENERGY PREDICTED BY IDOCK:   -1.73 KCAL/MOL
REMARK 927      BINDING AFFINITY PREDICTED BY RF-SCORE:    0.00 PKD
ROOT
HETATM    1  C   UNL     1      -7.214   6.182  67.077  1.00  0.00    -0.074 C  
HETATM    2  C   UNL     1      -6.891   7.380  68.001  1.00  0.00    -0.070 C  
HETATM    3  C   UNL     1      -5.639   8.009  67.369  1.00  0.00    -0.038 C  
ENDROOT
BRANCH   2   4
HETATM    4  N   UNL     1      -8.059   8.300  68.225  1.00  0.00    -0.122 NA 
BRANCH   4   5
HETATM    5  C   UNL     1      -7.793   9.344  69.265  1.00  0.00    -0.085 C  
BRANCH   5   6
HETATM    6  C   UNL     1      -8.814   9.436  70.431  1.00  0.00    -0.290 C  
HETATM    7  C   UNL     1      -8.824   8.258  71.469  1.00  0.00    -0.216 C  
HETATM    8  C   UNL     1      -9.149   6.890  70.812  1.00  0.00    -0.154 A  
HETATM    9  C   UNL     1      -7.588   8.223  72.422  1.00  0.00    -0.160 A  
HETATM   10  C   UNL     1      -6.418   8.945  72.157  1.00  0.00    -0.010 A  
HETATM   11  C   UNL     1     -10.341   6.602  70.114  1.00  0.00    -0.203 A  
HETATM   12  C   UNL     1     -10.593   5.305  69.625  1.00  0.00    -0.261 A  
HETATM   13  C   UNL     1      -5.205   8.687  72.792  1.00  0.00    -0.049 A  
HETATM   14  C   UNL     1      -6.315   7.078  74.168  1.00  0.00    -0.074 A  
HETATM   15  C   UNL     1      -9.658   4.282  69.783  1.00  0.00    -0.279 A  
HETATM   16  C   UNL     1      -5.142   7.719  73.776  1.00  0.00    -0.041 A  
HETATM   17  C   UNL     1      -8.227   5.822  70.936  1.00  0.00    -0.121 A  
HETATM   18  C   UNL     1      -8.461   4.528  70.447  1.00  0.00    -0.096 A  
HETATM   19  C   UNL     1      -7.537   7.355  73.531  1.00  0.00    -0.116 A  
BRANCH  11  20
HETATM   20  O   UNL     1     -11.356   7.590  69.983  1.00  0.00    -0.212 OA 
BRANCH  20  21
HETATM   21  C   UNL     1     -12.451   7.592  70.869  1.00  0.00    -0.131 C  
HETATM   22  O   UNL     1     -13.406   6.824  70.839  1.00  0.00    -0.053 OA 
HETATM   23  C   UNL     1     -12.296   8.700  71.902  1.00  0.00    -0.414 C  
HETATM   24  C   UNL     1     -11.481   8.210  73.098  1.00  0.00     0.160 C  
HETATM   25  C   UNL     1     -13.672   9.175  72.376  1.00  0.00    -0.543 C  
ENDBRANCH  20  21
ENDBRANCH  11  20
BRANCH  18  26
HETATM   26  C   UNL     1      -7.494   3.401  70.727  1.00  0.00    -0.040 C  
HETATM   27  O   UNL     1      -8.123   2.124  70.720  1.00  0.00    -0.048 OA 
HETATM   28  H   UNL     1      -7.516   1.415  70.896  1.00  0.00     0.000 HD 
ENDBRANCH  18  26
ENDBRANCH   5   6
ENDBRANCH   4   5
BRANCH   4  29
HETATM   29  C   UNL     1      -8.709   8.897  67.019  1.00  0.00    -0.123 C  
HETATM   30  C   UNL     1     -10.245   8.836  66.995  1.00  0.00    -0.351 C  
HETATM   31  C   UNL     1      -8.381  10.402  66.855  1.00  0.00    -0.124 C  
ENDBRANCH   4  29
ENDBRANCH   2   4
TORSDOF 7
ENDMDL
MODEL      164
REMARK 921   NORMALIZED FREE ENERGY PREDICTED BY IDOCK:   -3.31 KCAL/MOL
REMARK 922        TOTAL FREE ENERGY PREDICTED BY IDOCK:   -6.07 KCAL/MOL
REMARK 923 INTER-LIGAND FREE ENERGY PREDICTED BY IDOCK:   -5.39 KCAL/MOL
REMARK 924 INTRA-LIGAND FREE ENERGY PREDICTED BY IDOCK:   -0.68 KCAL/MOL
REMARK 927      BINDING AFFINITY PREDICTED BY RF-SCORE:    0.00 PKD
ROOT
HETATM    1  C   UNL     1      -7.790  19.165  69.519  1.00  0.00     0.136 C  
HETATM    2  C   UNL     1      -9.250  18.720  69.261  1.00  0.00     0.087 C  
HETATM    3  C   UNL     1     -10.093  19.760  70.016  1.00  0.00     0.405 C  
ENDROOT
BRANCH   2   4
HETATM    4  N   UNL     1      -9.573  18.529  67.805  1.00  0.00    -0.284 NA 
BRANCH   4   5
HETATM    5  C   UNL     1      -9.968  17.125  67.471  1.00  0.00    -0.279 C  
BRANCH   5   6
HETATM    6  C   UNL     1      -9.354  16.521  66.178  1.00  0.00    -0.339 C  
HETATM    7  C   UNL     1      -8.652  15.122  66.304  1.00  0.00    -0.020 C  
HETATM    8  C   UNL     1      -7.458  15.144  67.295  1.00  0.00    -0.228 A  
HETATM    9  C   UNL     1      -9.628  13.924  66.519  1.00  0.00    -0.299 A  
HETATM   10  C   UNL     1     -10.959  14.105  66.914  1.00  0.00    -0.302 A  
HETATM   11  C   UNL     1      -6.320  15.969  67.158  1.00  0.00    -0.079 A  
HETATM   12  C   UNL     1      -5.241  15.861  68.056  1.00  0.00    -0.130 A  
HETATM   13  C   UNL     1     -11.748  13.075  67.424  1.00  0.00    -0.427 A  
HETATM   14  C   UNL     1      -9.964  11.546  66.981  1.00  0.00    -0.225 A  
HETATM   15  C   UNL     1      -5.281  14.965  69.125  1.00  0.00    -0.093 A  
HETATM   16  C   UNL     1     -11.234  11.795  67.497  1.00  0.00    -0.354 A  
HETATM   17  C   UNL     1      -7.455  14.260  68.402  1.00  0.00    -0.122 A  
HETATM   18  C   UNL     1      -6.391  14.148  69.309  1.00  0.00    -0.112 A  
HETATM   19  C   UNL     1      -9.182  12.588  66.456  1.00  0.00    -0.210 A  
BRANCH  11  20
HETATM   20  O   UNL     1      -6.200  16.852  66.050  1.00  0.00    -0.109 OA 
BRANCH  20  21
HETATM   21  C   UNL     1      -5.904  18.212  66.267  1.00  0.00    -0.181 C  
HETATM   22  O   UNL     1      -5.243  18.668  67.193  1.00  0.00    -0.130 OA 
HETATM   23  C   UNL     1      -6.526  19.073  65.175  1.00  0.00    -0.276 C  
HETATM   24  C   UNL     1      -5.585  19.182  63.976  1.00  0.00    -0.328 C  
HETATM   25  C   UNL     1      -6.835  20.470  65.718  1.00  0.00    -0.240 C  
ENDBRANCH  20  21
ENDBRANCH  11  20
BRANCH  18  26
HETATM   26  C   UNL     1      -6.396  13.092  70.390  1.00  0.00     0.159 C  
HETATM   27  O   UNL     1      -5.930  13.586  71.642  1.00  0.00    -0.558 OA 
HETATM   28  H   UNL     1      -5.932  12.923  72.322  1.00  0.00     0.000 HD 
ENDBRANCH  18  26
ENDBRANCH   5   6
ENDBRANCH   4   5
BRANCH   4  29
HETATM   29  C   UNL     1     -10.501  19.514  67.169  1.00  0.00    -0.474 C  
HETATM   30  C   UNL     1      -9.965  20.951  67.054  1.00  0.00    -0.087 C  
HETATM   31  C   UNL     1     -10.871  19.124  65.716  1.00  0.00    -0.290 C  
ENDBRANCH   4  29
ENDBRANCH   2   4
TORSDOF 7
ENDMDL
MODEL      165
REMARK 921   NORMALIZED FREE ENERGY PREDICTED BY IDOCK:   -3.20 KCAL/MOL
REMARK 922        TOTAL FREE ENERGY PREDICTED BY IDOCK:   -5.92 KCAL/MOL
REMARK 923 INTER-LIGAND FREE ENERGY PREDICTED BY IDOCK:   -4.60 KCAL/MOL
REMARK 924 INTRA-LIGAND FREE ENERGY PREDICTED BY IDOCK:   -1.32 KCAL/MOL
REMARK 927      BINDING AFFINITY PREDICTED BY RF-SCORE:    0.00 PKD
ROOT
HETATM    1  C   UNL     1     -10.715   9.193  69.855  1.00  0.00    -0.246 C  
HETATM    2  C   UNL     1      -9.890   7.918  69.557  1.00  0.00    -0.176 C  
HETATM    3  C   UNL     1     -10.269   7.561  68.111  1.00  0.00    -0.228 C  
ENDROOT
BRANCH   2   4
HETATM    4  N   UNL     1      -8.422   8.068  69.844  1.00  0.00    -0.125 NA 
BRANCH   4   5
HETATM    5  C   UNL     1      -7.939   9.478  69.708  1.00  0.00    -0.133 C  
BRANCH   5   6
HETATM    6  C   UNL     1      -7.050   9.789  68.473  1.00  0.00    -0.068 C  
HETATM    7  C   UNL     1      -7.238  11.191  67.791  1.00  0.00    -0.091 C  
HETATM    8  C   UNL     1      -8.681  11.405  67.261  1.00  0.00    -0.148 A  
HETATM    9  C   UNL     1      -6.684  12.394  68.617  1.00  0.00    -0.083 A  
HETATM   10  C   UNL     1      -6.372  12.286  69.978  1.00  0.00    -0.019 A  
HETATM   11  C   UNL     1      -9.309  10.587  66.298  1.00  0.00    -0.170 A  
HETATM   12  C   UNL     1     -10.590  10.906  65.807  1.00  0.00    -0.230 A  
HETATM   13  C   UNL     1      -6.195  13.393  70.807  1.00  0.00     0.175 A  
HETATM   14  C   UNL     1      -6.432  14.810  68.897  1.00  0.00    -0.089 A  
HETATM   15  C   UNL     1     -11.288  12.015  66.286  1.00  0.00    -0.415 A  
HETATM   16  C   UNL     1      -6.265  14.664  70.272  1.00  0.00    -0.173 A  
HETATM   17  C   UNL     1      -9.435  12.512  67.723  1.00  0.00    -0.197 A  
HETATM   18  C   UNL     1     -10.715  12.837  67.250  1.00  0.00    -0.256 A  
HETATM   19  C   UNL     1      -6.596  13.689  68.067  1.00  0.00    -0.136 A  
BRANCH  11  20
HETATM   20  O   UNL     1      -8.615   9.482  65.729  1.00  0.00    -0.129 OA 
BRANCH  20  21
HETATM   21  C   UNL     1      -7.535   9.709  64.854  1.00  0.00    -0.118 C  
HETATM   22  O   UNL     1      -6.408  10.067  65.177  1.00  0.00    -0.098 OA 
HETATM   23  C   UNL     1      -7.953   9.445  63.414  1.00  0.00    -0.143 C  
HETATM   24  C   UNL     1      -7.771   7.968  63.064  1.00  0.00    -0.136 C  
HETATM   25  C   UNL     1      -7.123  10.306  62.459  1.00  0.00    -0.151 C  
ENDBRANCH  20  21
ENDBRANCH  11  20
BRANCH  18  26
HETATM   26  C   UNL     1     -11.411  14.105  67.687  1.00  0.00    -0.319 C  
HETATM   27  O   UNL     1     -12.313  14.604  66.705  1.00  0.00    -0.407 OA 
HETATM   28  H   UNL     1     -12.750  15.401  66.980  1.00  0.00     0.000 HD 
ENDBRANCH  18  26
ENDBRANCH   5   6
ENDBRANCH   4   5
BRANCH   4  29
HETATM   29  C   UNL     1      -7.895   7.438  71.094  1.00  0.00    -0.092 C  
HETATM   30  C   UNL     1      -8.947   6.765  71.991  1.00  0.00    -0.138 C  
HETATM   31  C   UNL     1      -6.864   6.319  70.801  1.00  0.00    -0.063 C  
ENDBRANCH   4  29
ENDBRANCH   2   4
TORSDOF 7
ENDMDL
MODEL      166
REMARK 921   NORMALIZED FREE ENERGY PREDICTED BY IDOCK:   -3.14 KCAL/MOL
REMARK 922        TOTAL FREE ENERGY PREDICTED BY IDOCK:   -5.84 KCAL/MOL
REMARK 923 INTER-LIGAND FREE ENERGY PREDICTED BY IDOCK:   -5.78 KCAL/MOL
REMARK 924 INTRA-LIGAND FREE ENERGY PREDICTED BY IDOCK:   -0.06 KCAL/MOL
REMARK 927      BINDING AFFINITY PREDICTED BY RF-SCORE:    0.00 PKD
ROOT
HETATM    1  C   UNL     1     -11.403  13.627  68.972  1.00  0.00    -0.333 C  
HETATM    2  C   UNL     1     -12.138  12.518  68.180  1.00  0.00    -0.067 C  
HETATM    3  C   UNL     1     -11.733  12.776  66.719  1.00  0.00    -0.459 C  
ENDROOT
BRANCH   2   4
HETATM    4  N   UNL     1     -11.887  11.133  68.707  1.00  0.00    -0.448 NA 
BRANCH   4   5
HETATM    5  C   UNL     1     -10.905  10.360  67.884  1.00  0.00    -0.279 C  
BRANCH   5   6
HETATM    6  C   UNL     1      -9.722   9.706  68.649  1.00  0.00    -0.162 C  
HETATM    7  C   UNL     1      -8.291   9.857  68.019  1.00  0.00    -0.113 C  
HETATM    8  C   UNL     1      -8.197   9.229  66.602  1.00  0.00    -0.115 A  
HETATM    9  C   UNL     1      -7.689  11.294  68.113  1.00  0.00    -0.112 A  
HETATM   10  C   UNL     1      -8.473  12.416  68.406  1.00  0.00    -0.131 A  
HETATM   11  C   UNL     1      -8.442   7.870  66.313  1.00  0.00    -0.135 A  
HETATM   12  C   UNL     1      -8.247   7.365  65.013  1.00  0.00    -0.101 A  
HETATM   13  C   UNL     1      -8.046  13.724  68.179  1.00  0.00    -0.155 A  
HETATM   14  C   UNL     1      -5.910  12.867  67.531  1.00  0.00    -0.115 A  
HETATM   15  C   UNL     1      -7.843   8.199  63.970  1.00  0.00    -0.143 A  
HETATM   16  C   UNL     1      -6.771  13.950  67.699  1.00  0.00    -0.189 A  
HETATM   17  C   UNL     1      -7.801  10.036  65.508  1.00  0.00    -0.134 A  
HETATM   18  C   UNL     1      -7.611   9.549  64.207  1.00  0.00    -0.122 A  
HETATM   19  C   UNL     1      -6.346  11.554  67.775  1.00  0.00    -0.063 A  
BRANCH  11  20
HETATM   20  O   UNL     1      -8.791   6.963  67.352  1.00  0.00    -0.119 OA 
BRANCH  20  21
HETATM   21  C   UNL     1      -9.464   5.766  67.040  1.00  0.00    -0.124 C  
HETATM   22  O   UNL     1     -10.559   5.673  66.498  1.00  0.00    -0.269 OA 
HETATM   23  C   UNL     1      -8.637   4.563  67.474  1.00  0.00    -0.105 C  
HETATM   24  C   UNL     1      -7.657   4.160  66.373  1.00  0.00    -0.089 C  
HETATM   25  C   UNL     1      -9.555   3.384  67.804  1.00  0.00    -0.166 C  
ENDBRANCH  20  21
ENDBRANCH  11  20
BRANCH  18  26
HETATM   26  C   UNL     1      -7.060  10.435  63.113  1.00  0.00    -0.061 C  
HETATM   27  O   UNL     1      -8.078  11.155  62.426  1.00  0.00    -0.412 OA 
HETATM   28  H   UNL     1      -7.732  11.713  61.738  1.00  0.00     0.000 HD 
ENDBRANCH  18  26
ENDBRANCH   5   6
ENDBRANCH   4   5
BRANCH   4  29
HETATM   29  C   UNL     1     -11.593  10.993  70.167  1.00  0.00    -0.334 C  
HETATM   30  C   UNL     1     -12.502  11.801  71.106  1.00  0.00    -0.390 C  
HETATM   31  C   UNL     1     -11.731   9.531  70.659  1.00  0.00    -0.330 C  
ENDBRANCH   4  29
ENDBRANCH   2   4
TORSDOF 7
ENDMDL
MODEL      167
REMARK 921   NORMALIZED FREE ENERGY PREDICTED BY IDOCK:   -3.11 KCAL/MOL
REMARK 922        TOTAL FREE ENERGY PREDICTED BY IDOCK:   -5.79 KCAL/MOL
REMARK 923 INTER-LIGAND FREE ENERGY PREDICTED BY IDOCK:   -4.83 KCAL/MOL
REMARK 924 INTRA-LIGAND FREE ENERGY PREDICTED BY IDOCK:   -0.96 KCAL/MOL
REMARK 927      BINDING AFFINITY PREDICTED BY RF-SCORE:    0.00 PKD
ROOT
HETATM    1  C   UNL     1      -5.449  11.367  69.877  1.00  0.00    -0.075 C  
HETATM    2  C   UNL     1      -6.702  12.224  69.575  1.00  0.00    -0.000 C  
HETATM    3  C   UNL     1      -6.126  13.549  69.051  1.00  0.00    -0.086 C  
ENDROOT
BRANCH   2   4
HETATM    4  N   UNL     1      -7.704  11.535  68.690  1.00  0.00    -0.136 NA 
BRANCH   4   5
HETATM    5  C   UNL     1      -8.494  10.485  69.405  1.00  0.00    -0.094 C  
BRANCH   5   6
HETATM    6  C   UNL     1      -9.189   9.416  68.518  1.00  0.00    -0.131 C  
HETATM    7  C   UNL     1      -9.718   8.123  69.235  1.00  0.00    -0.170 C  
HETATM    8  C   UNL     1      -8.585   7.329  69.937  1.00  0.00    -0.141 A  
HETATM    9  C   UNL     1     -10.979   8.347  70.126  1.00  0.00    -0.216 A  
HETATM   10  C   UNL     1     -11.391   9.621  70.534  1.00  0.00    -0.360 A  
HETATM   11  C   UNL     1      -7.459   6.790  69.279  1.00  0.00    -0.095 A  
HETATM   12  C   UNL     1      -6.523   6.005  69.979  1.00  0.00    -0.039 A  
HETATM   13  C   UNL     1     -12.294   9.832  71.575  1.00  0.00    -0.495 A  
HETATM   14  C   UNL     1     -12.593   7.466  71.739  1.00  0.00    -0.367 A  
HETATM   15  C   UNL     1      -6.662   5.769  71.347  1.00  0.00    -0.061 A  
HETATM   16  C   UNL     1     -12.868   8.748  72.210  1.00  0.00    -0.465 A  
HETATM   17  C   UNL     1      -8.675   7.070  71.327  1.00  0.00    -0.130 A  
HETATM   18  C   UNL     1      -7.746   6.298  72.039  1.00  0.00    -0.096 A  
HETATM   19  C   UNL     1     -11.692   7.264  70.680  1.00  0.00    -0.310 A  
BRANCH  11  20
HETATM   20  O   UNL     1      -7.304   6.946  67.873  1.00  0.00    -0.092 OA 
BRANCH  20  21
HETATM   21  C   UNL     1      -7.960   6.062  66.994  1.00  0.00    -0.102 C  
HETATM   22  O   UNL     1      -8.901   5.329  67.277  1.00  0.00    -0.108 OA 
HETATM   23  C   UNL     1      -7.335   6.130  65.607  1.00  0.00    -0.080 C  
HETATM   24  C   UNL     1      -7.981   7.241  64.781  1.00  0.00    -0.122 C  
HETATM   25  C   UNL     1      -7.502   4.789  64.888  1.00  0.00    -0.076 C  
ENDBRANCH  20  21
ENDBRANCH  11  20
BRANCH  18  26
HETATM   26  C   UNL     1      -7.970   5.950  73.493  1.00  0.00    -0.104 C  
HETATM   27  O   UNL     1      -9.062   6.663  74.066  1.00  0.00    -0.146 OA 
HETATM   28  H   UNL     1      -9.203   6.445  74.980  1.00  0.00     0.000 HD 
ENDBRANCH  18  26
ENDBRANCH   5   6
ENDBRANCH   4   5
BRANCH   4  29
HETATM   29  C   UNL     1      -8.591  12.398  67.851  1.00  0.00    -0.171 C  
HETATM   30  C   UNL     1      -8.956  11.828  66.471  1.00  0.00    -0.196 C  
HETATM   31  C   UNL     1      -9.957  12.674  68.527  1.00  0.00    -0.166 C  
ENDBRANCH   4  29
ENDBRANCH   2   4
TORSDOF 7
ENDMDL
MODEL      168
REMARK 921   NORMALIZED FREE ENERGY PREDICTED BY IDOCK:   -3.05 KCAL/MOL
REMARK 922        TOTAL FREE ENERGY PREDICTED BY IDOCK:   -5.71 KCAL/MOL
REMARK 923 INTER-LIGAND FREE ENERGY PREDICTED BY IDOCK:   -5.56 KCAL/MOL
REMARK 924 INTRA-LIGAND FREE ENERGY PREDICTED BY IDOCK:   -0.15 KCAL/MOL
REMARK 927      BINDING AFFINITY PREDICTED BY RF-SCORE:    0.00 PKD
ROOT
HETATM    1  C   UNL     1      -6.888   6.444  68.698  1.00  0.00    -0.074 C  
HETATM    2  C   UNL     1      -6.326   7.680  69.442  1.00  0.00    -0.035 C  
HETATM    3  C   UNL     1      -5.135   8.123  68.577  1.00  0.00    -0.032 C  
ENDROOT
BRANCH   2   4
HETATM    4  N   UNL     1      -7.361   8.728  69.739  1.00  0.00    -0.051 NA 
BRANCH   4   5
HETATM    5  C   UNL     1      -7.737   8.789  71.187  1.00  0.00    -0.123 C  
BRANCH   5   6
HETATM    6  C   UNL     1      -9.174   9.279  71.510  1.00  0.00    -0.006 C  
HETATM    7  C   UNL     1     -10.359   8.313  71.147  1.00  0.00    -0.247 C  
HETATM    8  C   UNL     1     -10.419   7.992  69.630  1.00  0.00    -0.224 A  
HETATM    9  C   UNL     1     -10.474   7.056  72.064  1.00  0.00    -0.232 A  
HETATM   10  C   UNL     1      -9.429   6.639  72.897  1.00  0.00    -0.151 A  
HETATM   11  C   UNL     1     -10.581   8.959  68.614  1.00  0.00    -0.147 A  
HETATM   12  C   UNL     1     -10.714   8.571  67.267  1.00  0.00    -0.219 A  
HETATM   13  C   UNL     1      -9.371   5.368  73.467  1.00  0.00    -0.134 A  
HETATM   14  C   UNL     1     -11.533   4.908  72.558  1.00  0.00    -0.013 A  
HETATM   15  C   UNL     1     -10.654   7.227  66.895  1.00  0.00    -0.375 A  
HETATM   16  C   UNL     1     -10.410   4.481  73.262  1.00  0.00    -0.239 A  
HETATM   17  C   UNL     1     -10.352   6.644  69.201  1.00  0.00    -0.220 A  
HETATM   18  C   UNL     1     -10.475   6.244  67.862  1.00  0.00    -0.285 A  
HETATM   19  C   UNL     1     -11.589   6.196  71.999  1.00  0.00    -0.364 A  
BRANCH  11  20
HETATM   20  O   UNL     1     -10.714  10.336  68.944  1.00  0.00    -0.203 OA 
BRANCH  20  21
HETATM   21  C   UNL     1     -11.126  11.255  67.960  1.00  0.00    -0.266 C  
HETATM   22  O   UNL     1     -12.238  11.760  67.863  1.00  0.00    -0.538 OA 
HETATM   23  C   UNL     1      -9.981  11.553  67.000  1.00  0.00    -0.225 C  
HETATM   24  C   UNL     1      -9.116  12.694  67.534  1.00  0.00    -0.192 C  
HETATM   25  C   UNL     1     -10.533  11.927  65.622  1.00  0.00    -0.302 C  
ENDBRANCH  20  21
ENDBRANCH  11  20
BRANCH  18  26
HETATM   26  C   UNL     1     -10.527   4.781  67.486  1.00  0.00     0.100 C  
HETATM   27  O   UNL     1     -10.939   4.574  66.139  1.00  0.00    -0.507 OA 
HETATM   28  H   UNL     1     -10.972   3.655  65.903  1.00  0.00     0.000 HD 
ENDBRANCH  18  26
ENDBRANCH   5   6
ENDBRANCH   4   5
BRANCH   4  29
HETATM   29  C   UNL     1      -7.137  10.098  69.184  1.00  0.00    -0.073 C  
HETATM   30  C   UNL     1      -6.045  10.925  69.883  1.00  0.00    -0.105 C  
HETATM   31  C   UNL     1      -6.705  10.068  67.697  1.00  0.00    -0.075 C  
ENDBRANCH   4  29
ENDBRANCH   2   4
TORSDOF 7
ENDMDL
MODEL      169
REMARK 921   NORMALIZED FREE ENERGY PREDICTED BY IDOCK:   -3.03 KCAL/MOL
REMARK 922        TOTAL FREE ENERGY PREDICTED BY IDOCK:   -5.68 KCAL/MOL
REMARK 923 INTER-LIGAND FREE ENERGY PREDICTED BY IDOCK:   -4.05 KCAL/MOL
REMARK 924 INTRA-LIGAND FREE ENERGY PREDICTED BY IDOCK:   -1.63 KCAL/MOL
REMARK 927      BINDING AFFINITY PREDICTED BY RF-SCORE:    0.00 PKD
ROOT
HETATM    1  C   UNL     1      -9.412  11.047  68.401  1.00  0.00    -0.182 C  
HETATM    2  C   UNL     1      -8.320  10.500  67.449  1.00  0.00    -0.121 C  
HETATM    3  C   UNL     1      -7.812  11.750  66.712  1.00  0.00    -0.103 C  
ENDROOT
BRANCH   2   4
HETATM    4  N   UNL     1      -7.280   9.665  68.142  1.00  0.00    -0.079 NA 
BRANCH   4   5
HETATM    5  C   UNL     1      -7.866   8.655  69.079  1.00  0.00    -0.100 C  
BRANCH   5   6
HETATM    6  C   UNL     1      -8.896   7.663  68.473  1.00  0.00    -0.130 C  
HETATM    7  C   UNL     1      -9.243   6.386  69.318  1.00  0.00    -0.135 C  
HETATM    8  C   UNL     1      -8.000   5.497  69.588  1.00  0.00    -0.093 A  
HETATM    9  C   UNL     1     -10.108   6.664  70.588  1.00  0.00    -0.205 A  
HETATM   10  C   UNL     1     -10.263   7.949  71.120  1.00  0.00    -0.221 A  
HETATM   11  C   UNL     1      -7.206   4.907  68.581  1.00  0.00    -0.058 A  
HETATM   12  C   UNL     1      -6.147   4.040  68.915  1.00  0.00    -0.027 A  
HETATM   13  C   UNL     1     -10.742   8.187  72.408  1.00  0.00    -0.404 A  
HETATM   14  C   UNL     1     -11.139   5.841  72.646  1.00  0.00    -0.325 A  
HETATM   15  C   UNL     1      -5.831   3.771  70.247  1.00  0.00    -0.018 A  
HETATM   16  C   UNL     1     -11.144   7.123  73.192  1.00  0.00    -0.302 A  
HETATM   17  C   UNL     1      -7.631   5.202  70.923  1.00  0.00    -0.079 A  
HETATM   18  C   UNL     1      -6.575   4.347  71.271  1.00  0.00    -0.030 A  
HETATM   19  C   UNL     1     -10.667   5.613  71.343  1.00  0.00    -0.310 A  
BRANCH  11  20
HETATM   20  O   UNL     1      -7.525   5.096  67.208  1.00  0.00    -0.081 OA 
BRANCH  20  21
HETATM   21  C   UNL     1      -8.259   4.111  66.518  1.00  0.00    -0.101 C  
HETATM   22  O   UNL     1      -8.137   2.898  66.646  1.00  0.00    -0.079 OA 
HETATM   23  C   UNL     1      -9.252   4.759  65.562  1.00  0.00    -0.155 C  
HETATM   24  C   UNL     1     -10.566   5.065  66.280  1.00  0.00    -0.332 C  
HETATM   25  C   UNL     1      -9.518   3.835  64.372  1.00  0.00    -0.161 C  
ENDBRANCH  20  21
ENDBRANCH  11  20
BRANCH  18  26
HETATM   26  C   UNL     1      -6.317   3.970  72.712  1.00  0.00    -0.017 C  
HETATM   27  O   UNL     1      -7.312   3.097  73.237  1.00  0.00    -0.047 OA 
HETATM   28  H   UNL     1      -7.150   2.859  74.142  1.00  0.00     0.000 HD 
ENDBRANCH  18  26
ENDBRANCH   5   6
ENDBRANCH   4   5
BRANCH   4  29
HETATM   29  C   UNL     1      -6.209   9.055  67.296  1.00  0.00    -0.059 C  
HETATM   30  C   UNL     1      -5.351   7.981  67.986  1.00  0.00    -0.033 C  
HETATM   31  C   UNL     1      -6.778   8.347  66.042  1.00  0.00    -0.061 C  
ENDBRANCH   4  29
ENDBRANCH   2   4
TORSDOF 7
ENDMDL
MODEL      170
REMARK 921   NORMALIZED FREE ENERGY PREDICTED BY IDOCK:   -2.97 KCAL/MOL
REMARK 922        TOTAL FREE ENERGY PREDICTED BY IDOCK:   -5.59 KCAL/MOL
REMARK 923 INTER-LIGAND FREE ENERGY PREDICTED BY IDOCK:   -5.58 KCAL/MOL
REMARK 924 INTRA-LIGAND FREE ENERGY PREDICTED BY IDOCK:   -0.00 KCAL/MOL
REMARK 927      BINDING AFFINITY PREDICTED BY RF-SCORE:    0.00 PKD
ROOT
HETATM    1  C   UNL     1      -8.112   5.288  69.151  1.00  0.00    -0.089 C  
HETATM    2  C   UNL     1      -9.577   4.828  68.960  1.00  0.00    -0.165 C  
HETATM    3  C   UNL     1     -10.221   5.062  70.336  1.00  0.00    -0.324 C  
ENDROOT
BRANCH   2   4
HETATM    4  N   UNL     1     -10.262   5.469  67.785  1.00  0.00    -0.182 NA 
BRANCH   4   5
HETATM    5  C   UNL     1     -10.510   6.933  67.977  1.00  0.00    -0.211 C  
BRANCH   5   6
HETATM    6  C   UNL     1      -9.417   7.726  68.744  1.00  0.00    -0.149 C  
HETATM    7  C   UNL     1      -9.638   9.272  68.910  1.00  0.00    -0.155 C  
HETATM    8  C   UNL     1      -9.728  10.008  67.546  1.00  0.00    -0.189 A  
HETATM    9  C   UNL     1     -10.768   9.662  69.914  1.00  0.00    -0.283 A  
HETATM   10  C   UNL     1     -11.727   8.742  70.356  1.00  0.00    -0.034 A  
HETATM   11  C   UNL     1      -8.705  10.017  66.574  1.00  0.00    -0.132 A  
HETATM   12  C   UNL     1      -8.835  10.785  65.401  1.00  0.00    -0.202 A  
HETATM   13  C   UNL     1     -12.916   9.122  70.975  1.00  0.00    -0.133 A  
HETATM   14  C   UNL     1     -12.164  11.390  70.935  1.00  0.00    -0.447 A  
HETATM   15  C   UNL     1      -9.990  11.526  65.150  1.00  0.00    -0.304 A  
HETATM   16  C   UNL     1     -13.156  10.458  71.230  1.00  0.00    -0.494 A  
HETATM   17  C   UNL     1     -10.884  10.767  67.240  1.00  0.00    -0.344 A  
HETATM   18  C   UNL     1     -11.030  11.530  66.072  1.00  0.00    -0.316 A  
HETATM   19  C   UNL     1     -10.962  10.997  70.323  1.00  0.00     0.043 A  
BRANCH  11  20
HETATM   20  O   UNL     1      -7.481   9.331  66.809  1.00  0.00    -0.086 OA 
BRANCH  20  21
HETATM   21  C   UNL     1      -6.633   9.751  67.852  1.00  0.00    -0.061 C  
HETATM   22  O   UNL     1      -6.075   9.024  68.666  1.00  0.00    -0.044 OA 
HETATM   23  C   UNL     1      -6.491  11.267  67.844  1.00  0.00    -0.058 C  
HETATM   24  C   UNL     1      -5.359  11.695  66.911  1.00  0.00    -0.125 C  
HETATM   25  C   UNL     1      -6.213  11.778  69.260  1.00  0.00    -0.092 C  
ENDBRANCH  20  21
ENDBRANCH  11  20
BRANCH  18  26
HETATM   26  C   UNL     1     -12.233  12.421  65.867  1.00  0.00    -0.144 C  
HETATM   27  O   UNL     1     -12.120  13.662  66.557  1.00  0.00    -0.404 OA 
HETATM   28  H   UNL     1     -12.876  14.223  66.428  1.00  0.00     0.000 HD 
ENDBRANCH  18  26
ENDBRANCH   5   6
ENDBRANCH   4   5
BRANCH   4  29
HETATM   29  C   UNL     1      -9.705   5.191  66.426  1.00  0.00    -0.173 C  
HETATM   30  C   UNL     1      -8.640   6.184  65.931  1.00  0.00    -0.147 C  
HETATM   31  C   UNL     1      -9.012   3.809  66.343  1.00  0.00    -0.139 C  
ENDBRANCH   4  29
ENDBRANCH   2   4
TORSDOF 7
ENDMDL
MODEL      171
REMARK 921   NORMALIZED FREE ENERGY PREDICTED BY IDOCK:   -2.93 KCAL/MOL
REMARK 922        TOTAL FREE ENERGY PREDICTED BY IDOCK:   -5.53 KCAL/MOL
REMARK 923 INTER-LIGAND FREE ENERGY PREDICTED BY IDOCK:   -5.47 KCAL/MOL
REMARK 924 INTRA-LIGAND FREE ENERGY PREDICTED BY IDOCK:   -0.06 KCAL/MOL
REMARK 927      BINDING AFFINITY PREDICTED BY RF-SCORE:    0.00 PKD
ROOT
HETATM    1  C   UNL     1     -13.150  14.032  66.060  1.00  0.00     0.143 C  
HETATM    2  C   UNL     1     -12.229  12.902  65.539  1.00  0.00    -0.474 C  
HETATM    3  C   UNL     1     -12.856  12.505  64.192  1.00  0.00    -0.333 C  
ENDROOT
BRANCH   2   4
HETATM    4  N   UNL     1     -10.773  13.275  65.513  1.00  0.00    -0.283 NA 
BRANCH   4   5
HETATM    5  C   UNL     1      -9.875  12.116  65.209  1.00  0.00    -0.196 C  
BRANCH   5   6
HETATM    6  C   UNL     1      -8.622  11.955  66.112  1.00  0.00     0.052 C  
HETATM    7  C   UNL     1      -8.864  11.507  67.598  1.00  0.00    -0.152 C  
HETATM    8  C   UNL     1      -9.749  12.510  68.384  1.00  0.00    -0.189 A  
HETATM    9  C   UNL     1      -9.298  10.017  67.764  1.00  0.00    -0.154 A  
HETATM   10  C   UNL     1      -9.770   9.251  66.691  1.00  0.00    -0.281 A  
HETATM   11  C   UNL     1      -9.425  13.867  68.595  1.00  0.00    -0.123 A  
HETATM   12  C   UNL     1     -10.243  14.686  69.397  1.00  0.00    -0.099 A  
HETATM   13  C   UNL     1     -10.462   8.053  66.857  1.00  0.00    -0.387 A  
HETATM   14  C   UNL     1     -10.072   8.204  69.211  1.00  0.00    -0.202 A  
HETATM   15  C   UNL     1     -11.413  14.190  69.973  1.00  0.00    -0.258 A  
HETATM   16  C   UNL     1     -10.651   7.546  68.129  1.00  0.00    -0.201 A  
HETATM   17  C   UNL     1     -10.952  12.058  68.980  1.00  0.00    -0.260 A  
HETATM   18  C   UNL     1     -11.781  12.864  69.774  1.00  0.00    -0.351 A  
HETATM   19  C   UNL     1      -9.365   9.405  69.032  1.00  0.00    -0.153 A  
BRANCH  11  20
HETATM   20  O   UNL     1      -8.211  14.406  68.086  1.00  0.00    -0.133 OA 
BRANCH  20  21
HETATM   21  C   UNL     1      -6.994  14.134  68.742  1.00  0.00    -0.104 C  
HETATM   22  O   UNL     1      -6.186  13.266  68.433  1.00  0.00    -0.072 OA 
HETATM   23  C   UNL     1      -6.802  15.081  69.919  1.00  0.00    -0.162 C  
HETATM   24  C   UNL     1      -6.129  16.375  69.463  1.00  0.00    -0.188 C  
HETATM   25  C   UNL     1      -5.951  14.411  71.001  1.00  0.00    -0.159 C  
ENDBRANCH  20  21
ENDBRANCH  11  20
BRANCH  18  26
HETATM   26  C   UNL     1     -12.980  12.286  70.489  1.00  0.00     0.311 C  
HETATM   27  O   UNL     1     -13.189  12.869  71.771  1.00  0.00    -0.422 OA 
HETATM   28  H   UNL     1     -13.943  12.505  72.221  1.00  0.00     0.000 HD 
ENDBRANCH  18  26
ENDBRANCH   5   6
ENDBRANCH   4   5
BRANCH   4  29
HETATM   29  C   UNL     1     -10.383  14.480  64.718  1.00  0.00    -0.287 C  
HETATM   30  C   UNL     1     -11.545  15.372  64.254  1.00  0.00    -0.196 C  
HETATM   31  C   UNL     1      -9.456  15.435  65.510  1.00  0.00    -0.160 C  
ENDBRANCH   4  29
ENDBRANCH   2   4
TORSDOF 7
ENDMDL
MODEL      172
REMARK 921   NORMALIZED FREE ENERGY PREDICTED BY IDOCK:   -2.77 KCAL/MOL
REMARK 922        TOTAL FREE ENERGY PREDICTED BY IDOCK:   -5.31 KCAL/MOL
REMARK 923 INTER-LIGAND FREE ENERGY PREDICTED BY IDOCK:   -5.06 KCAL/MOL
REMARK 924 INTRA-LIGAND FREE ENERGY PREDICTED BY IDOCK:   -0.25 KCAL/MOL
REMARK 927      BINDING AFFINITY PREDICTED BY RF-SCORE:    0.00 PKD
ROOT
HETATM    1  C   UNL     1      -7.932   9.915  64.682  1.00  0.00    -0.141 C  
HETATM    2  C   UNL     1      -8.366   9.711  66.154  1.00  0.00    -0.119 C  
HETATM    3  C   UNL     1      -9.809   9.194  66.046  1.00  0.00    -0.342 C  
ENDROOT
BRANCH   2   4
HETATM    4  N   UNL     1      -7.412   8.866  66.951  1.00  0.00    -0.083 NA 
BRANCH   4   5
HETATM    5  C   UNL     1      -7.963   8.454  68.281  1.00  0.00    -0.119 C  
BRANCH   5   6
HETATM    6  C   UNL     1      -8.966   7.269  68.278  1.00  0.00    -0.125 C  
HETATM    7  C   UNL     1      -9.619   6.880  69.653  1.00  0.00    -0.146 C  
HETATM    8  C   UNL     1      -8.566   6.460  70.712  1.00  0.00    -0.135 A  
HETATM    9  C   UNL     1     -10.674   7.902  70.181  1.00  0.00    -0.244 A  
HETATM   10  C   UNL     1     -10.777   9.202  69.673  1.00  0.00    -0.236 A  
HETATM   11  C   UNL     1      -7.667   5.382  70.563  1.00  0.00    -0.084 A  
HETATM   12  C   UNL     1      -6.804   5.014  71.613  1.00  0.00    -0.048 A  
HETATM   13  C   UNL     1     -11.464  10.223  70.327  1.00  0.00    -0.395 A  
HETATM   14  C   UNL     1     -12.174   8.635  71.967  1.00  0.00    -0.439 A  
HETATM   15  C   UNL     1      -6.785   5.727  72.813  1.00  0.00    -0.073 A  
HETATM   16  C   UNL     1     -12.133   9.948  71.504  1.00  0.00    -0.496 A  
HETATM   17  C   UNL     1      -8.500   7.158  71.943  1.00  0.00    -0.112 A  
HETATM   18  C   UNL     1      -7.640   6.809  72.994  1.00  0.00    -0.086 A  
HETATM   19  C   UNL     1     -11.490   7.610  71.293  1.00  0.00    -0.293 A  
BRANCH  11  20
HETATM   20  O   UNL     1      -7.691   4.583  69.387  1.00  0.00    -0.055 OA 
BRANCH  20  21
HETATM   21  C   UNL     1      -8.623   3.532  69.272  1.00  0.00    -0.069 C  
HETATM   22  O   UNL     1      -9.221   2.994  70.196  1.00  0.00    -0.116 OA 
HETATM   23  C   UNL     1      -8.800   3.137  67.812  1.00  0.00    -0.161 C  
HETATM   24  C   UNL     1      -9.871   4.001  67.148  1.00  0.00    -0.144 C  
HETATM   25  C   UNL     1      -9.193   1.661  67.710  1.00  0.00    -0.187 C  
ENDBRANCH  20  21
ENDBRANCH  11  20
BRANCH  18  26
HETATM   26  C   UNL     1      -7.713   7.512  74.330  1.00  0.00    -0.147 C  
HETATM   27  O   UNL     1      -8.251   8.826  74.230  1.00  0.00    -0.347 OA 
HETATM   28  H   UNL     1      -8.297   9.269  75.069  1.00  0.00     0.000 HD 
ENDBRANCH  18  26
ENDBRANCH   5   6
ENDBRANCH   4   5
BRANCH   4  29
HETATM   29  C   UNL     1      -6.766   7.710  66.256  1.00  0.00    -0.057 C  
HETATM   30  C   UNL     1      -5.957   8.062  64.997  1.00  0.00    -0.045 C  
HETATM   31  C   UNL     1      -5.759   6.962  67.165  1.00  0.00    -0.017 C  
ENDBRANCH   4  29
ENDBRANCH   2   4
TORSDOF 7
ENDMDL
MODEL      173
REMARK 921   NORMALIZED FREE ENERGY PREDICTED BY IDOCK:   -2.72 KCAL/MOL
REMARK 922        TOTAL FREE ENERGY PREDICTED BY IDOCK:   -5.24 KCAL/MOL
REMARK 923 INTER-LIGAND FREE ENERGY PREDICTED BY IDOCK:   -4.98 KCAL/MOL
REMARK 924 INTRA-LIGAND FREE ENERGY PREDICTED BY IDOCK:   -0.26 KCAL/MOL
REMARK 927      BINDING AFFINITY PREDICTED BY RF-SCORE:    0.00 PKD
ROOT
HETATM    1  C   UNL     1      -8.421   7.127  65.083  1.00  0.00    -0.023 C  
HETATM    2  C   UNL     1      -8.753   7.107  66.594  1.00  0.00    -0.128 C  
HETATM    3  C   UNL     1     -10.284   6.968  66.635  1.00  0.00    -0.218 C  
ENDROOT
BRANCH   2   4
HETATM    4  N   UNL     1      -7.970   6.084  67.370  1.00  0.00    -0.102 NA 
BRANCH   4   5
HETATM    5  C   UNL     1      -8.137   6.217  68.852  1.00  0.00    -0.108 C  
BRANCH   5   6
HETATM    6  C   UNL     1      -9.247   5.348  69.504  1.00  0.00    -0.152 C  
HETATM    7  C   UNL     1      -9.744   5.776  70.931  1.00  0.00    -0.218 C  
HETATM    8  C   UNL     1      -8.606   5.760  71.986  1.00  0.00    -0.130 A  
HETATM    9  C   UNL     1     -10.608   7.075  70.955  1.00  0.00    -0.238 A  
HETATM   10  C   UNL     1     -10.645   7.968  69.877  1.00  0.00    -0.242 A  
HETATM   11  C   UNL     1      -7.850   4.618  72.330  1.00  0.00    -0.093 A  
HETATM   12  C   UNL     1      -6.895   4.672  73.363  1.00  0.00    -0.068 A  
HETATM   13  C   UNL     1     -11.130   9.271  69.985  1.00  0.00    -0.228 A  
HETATM   14  C   UNL     1     -11.770   8.801  72.239  1.00  0.00    -0.398 A  
HETATM   15  C   UNL     1      -6.642   5.861  74.048  1.00  0.00    -0.075 A  
HETATM   16  C   UNL     1     -11.659   9.704  71.185  1.00  0.00    -0.456 A  
HETATM   17  C   UNL     1      -8.303   6.944  72.702  1.00  0.00    -0.117 A  
HETATM   18  C   UNL     1      -7.349   7.014  73.728  1.00  0.00    -0.093 A  
HETATM   19  C   UNL     1     -11.291   7.486  72.117  1.00  0.00    -0.326 A  
BRANCH  11  20
HETATM   20  O   UNL     1      -8.114   3.366  71.708  1.00  0.00    -0.060 OA 
BRANCH  20  21
HETATM   21  C   UNL     1      -9.328   2.698  71.965  1.00  0.00    -0.104 C  
HETATM   22  O   UNL     1     -10.024   2.122  71.137  1.00  0.00    -0.101 OA 
HETATM   23  C   UNL     1      -9.678   2.784  73.444  1.00  0.00    -0.144 C  
HETATM   24  C   UNL     1      -9.024   1.640  74.218  1.00  0.00    -0.061 C  
HETATM   25  C   UNL     1     -11.197   2.728  73.630  1.00  0.00    -0.311 C  
ENDBRANCH  20  21
ENDBRANCH  11  20
BRANCH  18  26
HETATM   26  C   UNL     1      -7.169   8.275  74.541  1.00  0.00    -0.195 C  
HETATM   27  O   UNL     1      -6.518   9.311  73.812  1.00  0.00    -0.324 OA 
HETATM   28  H   UNL     1      -6.404  10.103  74.323  1.00  0.00     0.000 HD 
ENDBRANCH  18  26
ENDBRANCH   5   6
ENDBRANCH   4   5
BRANCH   4  29
HETATM   29  C   UNL     1      -8.084   4.656  66.942  1.00  0.00    -0.103 C  
HETATM   30  C   UNL     1      -8.260   4.430  65.431  1.00  0.00    -0.110 C  
HETATM   31  C   UNL     1      -6.830   3.826  67.312  1.00  0.00    -0.051 C  
ENDBRANCH   4  29
ENDBRANCH   2   4
TORSDOF 7
ENDMDL
MODEL      174
REMARK 921   NORMALIZED FREE ENERGY PREDICTED BY IDOCK:   -2.67 KCAL/MOL
REMARK 922        TOTAL FREE ENERGY PREDICTED BY IDOCK:   -5.17 KCAL/MOL
REMARK 923 INTER-LIGAND FREE ENERGY PREDICTED BY IDOCK:   -4.41 KCAL/MOL
REMARK 924 INTRA-LIGAND FREE ENERGY PREDICTED BY IDOCK:   -0.76 KCAL/MOL
REMARK 927      BINDING AFFINITY PREDICTED BY RF-SCORE:    0.00 PKD
ROOT
HETATM    1  C   UNL     1     -11.909  12.607  65.966  1.00  0.00    -0.492 C  
HETATM    2  C   UNL     1     -10.734  11.757  66.507  1.00  0.00    -0.265 C  
HETATM    3  C   UNL     1      -9.633  12.790  66.796  1.00  0.00    -0.244 C  
ENDROOT
BRANCH   2   4
HETATM    4  N   UNL     1     -11.118  10.854  67.646  1.00  0.00    -0.295 NA 
BRANCH   4   5
HETATM    5  C   UNL     1     -10.550   9.475  67.519  1.00  0.00    -0.275 C  
BRANCH   5   6
HETATM    6  C   UNL     1      -9.205   9.347  66.754  1.00  0.00    -0.179 C  
HETATM    7  C   UNL     1      -8.276   8.140  67.136  1.00  0.00    -0.120 C  
HETATM    8  C   UNL     1      -7.842   8.174  68.626  1.00  0.00    -0.114 A  
HETATM    9  C   UNL     1      -8.793   6.747  66.661  1.00  0.00    -0.142 A  
HETATM   10  C   UNL     1     -10.116   6.541  66.249  1.00  0.00     0.040 A  
HETATM   11  C   UNL     1      -7.121   9.229  69.226  1.00  0.00    -0.057 A  
HETATM   12  C   UNL     1      -6.690   9.137  70.563  1.00  0.00    -0.069 A  
HETATM   13  C   UNL     1     -10.689   5.275  66.136  1.00  0.00    -0.211 A  
HETATM   14  C   UNL     1      -8.562   4.313  66.651  1.00  0.00    -0.112 A  
HETATM   15  C   UNL     1      -6.997   8.021  71.343  1.00  0.00    -0.054 A  
HETATM   16  C   UNL     1      -9.919   4.154  66.379  1.00  0.00    -0.177 A  
HETATM   17  C   UNL     1      -8.138   7.069  69.462  1.00  0.00    -0.130 A  
HETATM   18  C   UNL     1      -7.723   6.968  70.798  1.00  0.00    -0.095 A  
HETATM   19  C   UNL     1      -7.990   5.592  66.750  1.00  0.00    -0.102 A  
BRANCH  11  20
HETATM   20  O   UNL     1      -6.726  10.359  68.457  1.00  0.00    -0.056 OA 
BRANCH  20  21
HETATM   21  C   UNL     1      -6.830  11.651  69.009  1.00  0.00    -0.105 C  
HETATM   22  O   UNL     1      -7.859  12.308  69.119  1.00  0.00     0.118 OA 
HETATM   23  C   UNL     1      -5.464  12.147  69.464  1.00  0.00    -0.074 C  
HETATM   24  C   UNL     1      -5.177  11.690  70.894  1.00  0.00    -0.134 C  
HETATM   25  C   UNL     1      -5.406  13.674  69.390  1.00  0.00    -0.083 C  
ENDBRANCH  20  21
ENDBRANCH  11  20
BRANCH  18  26
HETATM   26  C   UNL     1      -7.958   5.706  71.595  1.00  0.00    -0.117 C  
HETATM   27  O   UNL     1      -9.015   4.911  71.067  1.00  0.00    -0.128 OA 
HETATM   28  H   UNL     1      -9.163   4.117  71.567  1.00  0.00     0.000 HD 
ENDBRANCH  18  26
ENDBRANCH   5   6
ENDBRANCH   4   5
BRANCH   4  29
HETATM   29  C   UNL     1     -10.943  11.382  69.034  1.00  0.00    -0.236 C  
HETATM   30  C   UNL     1     -12.212  11.945  69.694  1.00  0.00    -0.216 C  
HETATM   31  C   UNL     1     -10.446  10.296  70.020  1.00  0.00    -0.293 C  
ENDBRANCH   4  29
ENDBRANCH   2   4
TORSDOF 7
ENDMDL
MODEL      175
REMARK 921   NORMALIZED FREE ENERGY PREDICTED BY IDOCK:   -2.62 KCAL/MOL
REMARK 922        TOTAL FREE ENERGY PREDICTED BY IDOCK:   -5.09 KCAL/MOL
REMARK 923 INTER-LIGAND FREE ENERGY PREDICTED BY IDOCK:   -5.59 KCAL/MOL
REMARK 924 INTRA-LIGAND FREE ENERGY PREDICTED BY IDOCK:    0.50 KCAL/MOL
REMARK 927      BINDING AFFINITY PREDICTED BY RF-SCORE:    0.00 PKD
ROOT
HETATM    1  C   UNL     1     -11.948  13.727  69.638  1.00  0.00    -0.399 C  
HETATM    2  C   UNL     1     -11.429  12.588  68.728  1.00  0.00    -0.310 C  
HETATM    3  C   UNL     1      -9.899  12.721  68.804  1.00  0.00     0.020 C  
ENDROOT
BRANCH   2   4
HETATM    4  N   UNL     1     -11.999  11.239  69.066  1.00  0.00    -0.400 NA 
BRANCH   4   5
HETATM    5  C   UNL     1     -11.067  10.111  68.752  1.00  0.00    -0.203 C  
BRANCH   5   6
HETATM    6  C   UNL     1     -11.324   9.348  67.424  1.00  0.00     0.739 C  
HETATM    7  C   UNL     1     -10.213   8.346  66.947  1.00  0.00    -0.383 C  
HETATM    8  C   UNL     1      -8.849   9.046  66.702  1.00  0.00    -0.152 A  
HETATM    9  C   UNL     1     -10.110   7.040  67.794  1.00  0.00    -0.205 A  
HETATM   10  C   UNL     1     -10.697   6.920  69.059  1.00  0.00    -0.259 A  
HETATM   11  C   UNL     1      -8.641  10.091  65.777  1.00  0.00    -0.145 A  
HETATM   12  C   UNL     1      -7.351  10.608  65.554  1.00  0.00    -0.056 A  
HETATM   13  C   UNL     1     -10.357   5.916  69.964  1.00  0.00    -0.309 A  
HETATM   14  C   UNL     1      -8.945   4.949  68.295  1.00  0.00    -0.126 A  
HETATM   15  C   UNL     1      -6.251  10.131  66.268  1.00  0.00    -0.078 A  
HETATM   16  C   UNL     1      -9.443   4.947  69.595  1.00  0.00    -0.216 A  
HETATM   17  C   UNL     1      -7.704   8.604  67.409  1.00  0.00    -0.098 A  
HETATM   18  C   UNL     1      -6.414   9.116  67.204  1.00  0.00    -0.060 A  
HETATM   19  C   UNL     1      -9.304   5.958  67.385  1.00  0.00    -0.111 A  
BRANCH  11  20
HETATM   20  O   UNL     1      -9.716  10.569  64.977  1.00  0.00    -0.242 OA 
BRANCH  20  21
HETATM   21  C   UNL     1     -10.218  11.869  65.183  1.00  0.00    -0.277 C  
HETATM   22  O   UNL     1      -9.613  12.803  65.698  1.00  0.00    -0.175 OA 
HETATM   23  C   UNL     1     -11.648  11.974  64.671  1.00  0.00    -0.364 C  
HETATM   24  C   UNL     1     -11.662  12.333  63.186  1.00  0.00    -0.309 C  
HETATM   25  C   UNL     1     -12.415  13.034  65.465  1.00  0.00    -0.496 C  
ENDBRANCH  20  21
ENDBRANCH  11  20
BRANCH  18  26
HETATM   26  C   UNL     1      -5.215   8.509  67.895  1.00  0.00    -0.034 C  
HETATM   27  O   UNL     1      -5.287   8.613  69.313  1.00  0.00    -0.034 OA 
HETATM   28  H   UNL     1      -4.533   8.232  69.748  1.00  0.00     0.000 HD 
ENDBRANCH  18  26
ENDBRANCH   5   6
ENDBRANCH   4   5
BRANCH   4  29
HETATM   29  C   UNL     1     -12.613  11.068  70.419  1.00  0.00    -0.267 C  
HETATM   30  C   UNL     1     -12.079   9.885  71.243  1.00  0.00    -0.485 C  
HETATM   31  C   UNL     1     -12.392  12.302  71.328  1.00  0.00    -0.161 C  
ENDBRANCH   4  29
ENDBRANCH   2   4
TORSDOF 7
ENDMDL
MODEL      176
REMARK 921   NORMALIZED FREE ENERGY PREDICTED BY IDOCK:   -2.58 KCAL/MOL
REMARK 922        TOTAL FREE ENERGY PREDICTED BY IDOCK:   -5.04 KCAL/MOL
REMARK 923 INTER-LIGAND FREE ENERGY PREDICTED BY IDOCK:   -3.27 KCAL/MOL
REMARK 924 INTRA-LIGAND FREE ENERGY PREDICTED BY IDOCK:   -1.77 KCAL/MOL
REMARK 927      BINDING AFFINITY PREDICTED BY RF-SCORE:    0.00 PKD
ROOT
HETATM    1  C   UNL     1      -5.436   8.933  72.655  1.00  0.00    -0.071 C  
HETATM    2  C   UNL     1      -6.207   7.631  72.980  1.00  0.00    -0.061 C  
HETATM    3  C   UNL     1      -7.502   8.125  73.646  1.00  0.00    -0.202 C  
ENDROOT
BRANCH   2   4
HETATM    4  N   UNL     1      -6.372   6.717  71.798  1.00  0.00    -0.042 NA 
BRANCH   4   5
HETATM    5  C   UNL     1      -6.480   7.451  70.498  1.00  0.00    -0.039 C  
BRANCH   5   6
HETATM    6  C   UNL     1      -7.826   8.175  70.222  1.00  0.00    -0.093 C  
HETATM    7  C   UNL     1      -8.436   8.027  68.782  1.00  0.00    -0.127 C  
HETATM    8  C   UNL     1      -7.494   8.581  67.679  1.00  0.00    -0.094 A  
HETATM    9  C   UNL     1      -9.017   6.614  68.465  1.00  0.00    -0.120 A  
HETATM   10  C   UNL     1      -8.714   5.489  69.242  1.00  0.00    -0.107 A  
HETATM   11  C   UNL     1      -7.042   9.916  67.610  1.00  0.00    -0.087 A  
HETATM   12  C   UNL     1      -6.261  10.356  66.525  1.00  0.00    -0.078 A  
HETATM   13  C   UNL     1      -8.939   4.183  68.810  1.00  0.00    -0.160 A  
HETATM   14  C   UNL     1      -9.990   5.058  66.849  1.00  0.00    -0.238 A  
HETATM   15  C   UNL     1      -5.881   9.478  65.509  1.00  0.00    -0.059 A  
HETATM   16  C   UNL     1      -9.544   3.965  67.587  1.00  0.00    -0.205 A  
HETATM   17  C   UNL     1      -7.073   7.727  66.631  1.00  0.00    -0.079 A  
HETATM   18  C   UNL     1      -6.288   8.149  65.548  1.00  0.00    -0.048 A  
HETATM   19  C   UNL     1      -9.770   6.371  67.299  1.00  0.00    -0.155 A  
BRANCH  11  20
HETATM   20  O   UNL     1      -7.454  10.868  68.585  1.00  0.00    -0.091 OA 
BRANCH  20  21
HETATM   21  C   UNL     1      -8.277  11.947  68.205  1.00  0.00    -0.157 C  
HETATM   22  O   UNL     1      -7.894  13.049  67.829  1.00  0.00    -0.129 OA 
HETATM   23  C   UNL     1      -9.746  11.563  68.325  1.00  0.00    -0.198 C  
HETATM   24  C   UNL     1     -10.232  10.896  67.039  1.00  0.00    -0.256 C  
HETATM   25  C   UNL     1     -10.593  12.805  68.613  1.00  0.00    -0.256 C  
ENDBRANCH  20  21
ENDBRANCH  11  20
BRANCH  18  26
HETATM   26  C   UNL     1      -5.983   7.220  64.395  1.00  0.00    -0.037 C  
HETATM   27  O   UNL     1      -6.815   6.064  64.388  1.00  0.00    -0.044 OA 
HETATM   28  H   UNL     1      -6.623   5.480  63.663  1.00  0.00     0.000 HD 
ENDBRANCH  18  26
ENDBRANCH   5   6
ENDBRANCH   4   5
BRANCH   4  29
HETATM   29  C   UNL     1      -5.432   5.560  71.685  1.00  0.00    -0.016 C  
HETATM   30  C   UNL     1      -5.871   4.276  72.408  1.00  0.00    -0.015 C  
HETATM   31  C   UNL     1      -5.213   5.118  70.216  1.00  0.00    -0.004 C  
ENDBRANCH   4  29
ENDBRANCH   2   4
TORSDOF 7
ENDMDL
MODEL      177
REMARK 921   NORMALIZED FREE ENERGY PREDICTED BY IDOCK:   -2.54 KCAL/MOL
REMARK 922        TOTAL FREE ENERGY PREDICTED BY IDOCK:   -4.99 KCAL/MOL
REMARK 923 INTER-LIGAND FREE ENERGY PREDICTED BY IDOCK:   -5.88 KCAL/MOL
REMARK 924 INTRA-LIGAND FREE ENERGY PREDICTED BY IDOCK:    0.89 KCAL/MOL
REMARK 927      BINDING AFFINITY PREDICTED BY RF-SCORE:    0.00 PKD
ROOT
HETATM    1  C   UNL     1     -10.623  17.038  69.247  1.00  0.00    -0.276 C  
HETATM    2  C   UNL     1     -10.169  15.661  69.791  1.00  0.00    -0.300 C  
HETATM    3  C   UNL     1     -10.883  15.545  71.147  1.00  0.00    -0.147 C  
ENDROOT
BRANCH   2   4
HETATM    4  N   UNL     1     -10.385  14.530  68.824  1.00  0.00    -0.240 NA 
BRANCH   4   5
HETATM    5  C   UNL     1      -9.471  13.370  69.063  1.00  0.00     0.348 C  
BRANCH   5   6
HETATM    6  C   UNL     1      -8.416  13.080  67.961  1.00  0.00    -0.181 C  
HETATM    7  C   UNL     1      -7.926  14.298  67.099  1.00  0.00    -0.128 C  
HETATM    8  C   UNL     1      -9.084  14.979  66.322  1.00  0.00    -0.288 A  
HETATM    9  C   UNL     1      -7.001  15.299  67.860  1.00  0.00    -0.162 A  
HETATM   10  C   UNL     1      -6.901  15.312  69.256  1.00  0.00    -0.155 A  
HETATM   11  C   UNL     1      -9.900  14.329  65.371  1.00  0.00    -0.221 A  
HETATM   12  C   UNL     1     -10.871  15.046  64.646  1.00  0.00    -0.290 A  
HETATM   13  C   UNL     1      -6.356  16.379  69.970  1.00  0.00    -0.038 A  
HETATM   14  C   UNL     1      -5.782  17.419  67.895  1.00  0.00    -0.136 A  
HETATM   15  C   UNL     1     -11.080  16.407  64.873  1.00  0.00    -0.249 A  
HETATM   16  C   UNL     1      -5.830  17.458  69.286  1.00  0.00    -0.210 A  
HETATM   17  C   UNL     1      -9.343  16.357  66.524  1.00  0.00    -0.300 A  
HETATM   18  C   UNL     1     -10.312  17.082  65.816  1.00  0.00    -0.275 A  
HETATM   19  C   UNL     1      -6.322  16.333  67.184  1.00  0.00    -0.195 A  
BRANCH  11  20
HETATM   20  O   UNL     1      -9.685  12.959  65.054  1.00  0.00    -0.090 OA 
BRANCH  20  21
HETATM   21  C   UNL     1     -10.728  12.028  65.229  1.00  0.00    -0.288 C  
HETATM   22  O   UNL     1     -11.826  12.065  64.687  1.00  0.00    -0.330 OA 
HETATM   23  C   UNL     1     -10.308  10.937  66.205  1.00  0.00    -0.305 C  
HETATM   24  C   UNL     1      -9.584   9.809  65.470  1.00  0.00    -0.348 C  
HETATM   25  C   UNL     1     -11.534  10.377  66.928  1.00  0.00     0.563 C  
ENDBRANCH  20  21
ENDBRANCH  11  20
BRANCH  18  26
HETATM   26  C   UNL     1     -10.447  18.578  65.985  1.00  0.00    -0.400 C  
HETATM   27  O   UNL     1      -9.189  19.245  66.000  1.00  0.00    -0.430 OA 
HETATM   28  H   UNL     1      -9.273  20.185  66.107  1.00  0.00     0.000 HD 
ENDBRANCH  18  26
ENDBRANCH   5   6
ENDBRANCH   4   5
BRANCH   4  29
HETATM   29  C   UNL     1     -11.790  14.070  68.603  1.00  0.00    -0.361 C  
HETATM   30  C   UNL     1     -12.347  14.297  67.187  1.00  0.00    -0.169 C  
HETATM   31  C   UNL     1     -11.958  12.549  68.844  1.00  0.00    -0.282 C  
ENDBRANCH   4  29
ENDBRANCH   2   4
TORSDOF 7
ENDMDL
MODEL      178
REMARK 921   NORMALIZED FREE ENERGY PREDICTED BY IDOCK:   -2.18 KCAL/MOL
REMARK 922        TOTAL FREE ENERGY PREDICTED BY IDOCK:   -4.48 KCAL/MOL
REMARK 923 INTER-LIGAND FREE ENERGY PREDICTED BY IDOCK:   -4.09 KCAL/MOL
REMARK 924 INTRA-LIGAND FREE ENERGY PREDICTED BY IDOCK:   -0.38 KCAL/MOL
REMARK 927      BINDING AFFINITY PREDICTED BY RF-SCORE:    0.00 PKD
ROOT
HETATM    1  C   UNL     1      -7.854   7.453  63.558  1.00  0.00    -0.111 C  
HETATM    2  C   UNL     1      -7.910   7.659  65.091  1.00  0.00    -0.124 C  
HETATM    3  C   UNL     1      -9.111   8.597  65.295  1.00  0.00    -0.100 C  
ENDROOT
BRANCH   2   4
HETATM    4  N   UNL     1      -7.926   6.375  65.872  1.00  0.00    -0.112 NA 
BRANCH   4   5
HETATM    5  C   UNL     1      -7.902   6.587  67.353  1.00  0.00    -0.112 C  
BRANCH   5   6
HETATM    6  C   UNL     1      -8.972   7.553  67.932  1.00  0.00    -0.131 C  
HETATM    7  C   UNL     1      -8.574   8.382  69.205  1.00  0.00    -0.130 C  
HETATM    8  C   UNL     1      -8.213   7.477  70.414  1.00  0.00    -0.123 A  
HETATM    9  C   UNL     1      -7.543   9.523  68.941  1.00  0.00    -0.075 A  
HETATM   10  C   UNL     1      -6.778   9.583  67.770  1.00  0.00    -0.067 A  
HETATM   11  C   UNL     1      -9.092   6.542  71.003  1.00  0.00    -0.150 A  
HETATM   12  C   UNL     1      -8.712   5.825  72.154  1.00  0.00    -0.133 A  
HETATM   13  C   UNL     1      -5.639  10.378  67.645  1.00  0.00    -0.044 A  
HETATM   14  C   UNL     1      -6.077  11.273  69.818  1.00  0.00    -0.112 A  
HETATM   15  C   UNL     1      -7.448   5.989  72.720  1.00  0.00    -0.094 A  
HETATM   16  C   UNL     1      -5.262  11.198  68.691  1.00  0.00    -0.040 A  
HETATM   17  C   UNL     1      -6.938   7.599  71.018  1.00  0.00    -0.049 A  
HETATM   18  C   UNL     1      -6.544   6.885  72.159  1.00  0.00    -0.057 A  
HETATM   19  C   UNL     1      -7.230  10.478  69.929  1.00  0.00    -0.136 A  
BRANCH  11  20
HETATM   20  O   UNL     1     -10.415   6.384  70.505  1.00  0.00    -0.204 OA 
BRANCH  20  21
HETATM   21  C   UNL     1     -11.514   6.749  71.307  1.00  0.00    -0.302 C  
HETATM   22  O   UNL     1     -12.161   5.999  72.029  1.00  0.00    -0.280 OA 
HETATM   23  C   UNL     1     -11.807   8.236  71.163  1.00  0.00    -0.302 C  
HETATM   24  C   UNL     1     -10.968   9.047  72.150  1.00  0.00    -0.258 C  
HETATM   25  C   UNL     1     -13.293   8.506  71.406  1.00  0.00    -0.245 C  
ENDBRANCH  20  21
ENDBRANCH  11  20
BRANCH  18  26
HETATM   26  C   UNL     1      -5.219   7.158  72.832  1.00  0.00    -0.037 C  
HETATM   27  O   UNL     1      -5.157   8.456  73.416  1.00  0.00    -0.041 OA 
HETATM   28  H   UNL     1      -4.324   8.628  73.839  1.00  0.00     0.000 HD 
ENDBRANCH  18  26
ENDBRANCH   5   6
ENDBRANCH   4   5
BRANCH   4  29
HETATM   29  C   UNL     1      -8.945   5.349  65.493  1.00  0.00    -0.144 C  
HETATM   30  C   UNL     1      -8.456   3.891  65.510  1.00  0.00    -0.109 C  
HETATM   31  C   UNL     1     -10.170   5.355  66.440  1.00  0.00    -0.268 C  
ENDBRANCH   4  29
ENDBRANCH   2   4
TORSDOF 7
ENDMDL
MODEL      179
REMARK 921   NORMALIZED FREE ENERGY PREDICTED BY IDOCK:   -2.09 KCAL/MOL
REMARK 922        TOTAL FREE ENERGY PREDICTED BY IDOCK:   -4.36 KCAL/MOL
REMARK 923 INTER-LIGAND FREE ENERGY PREDICTED BY IDOCK:   -4.77 KCAL/MOL
REMARK 924 INTRA-LIGAND FREE ENERGY PREDICTED BY IDOCK:    0.41 KCAL/MOL
REMARK 927      BINDING AFFINITY PREDICTED BY RF-SCORE:    0.00 PKD
ROOT
HETATM    1  C   UNL     1     -10.050  18.535  69.509  1.00  0.00     0.247 C  
HETATM    2  C   UNL     1     -10.795  17.424  68.730  1.00  0.00    -0.081 C  
HETATM    3  C   UNL     1     -10.761  17.908  67.271  1.00  0.00    -0.278 C  
ENDROOT
BRANCH   2   4
HETATM    4  N   UNL     1     -10.257  16.044  68.988  1.00  0.00    -0.222 NA 
BRANCH   4   5
HETATM    5  C   UNL     1      -9.034  16.041  69.851  1.00  0.00     0.438 C  
BRANCH   5   6
HETATM    6  C   UNL     1      -7.735  15.481  69.210  1.00  0.00    -0.223 C  
HETATM    7  C   UNL     1      -7.582  15.630  67.655  1.00  0.00    -0.179 C  
HETATM    8  C   UNL     1      -8.711  14.905  66.874  1.00  0.00    -0.276 A  
HETATM    9  C   UNL     1      -7.312  17.088  67.166  1.00  0.00    -0.202 A  
HETATM   10  C   UNL     1      -7.535  18.203  67.982  1.00  0.00    -0.242 A  
HETATM   11  C   UNL     1      -8.977  13.521  66.955  1.00  0.00    -0.231 A  
HETATM   12  C   UNL     1      -9.965  12.930  66.144  1.00  0.00    -0.274 A  
HETATM   13  C   UNL     1      -7.621  19.504  67.487  1.00  0.00    -0.290 A  
HETATM   14  C   UNL     1      -7.056  18.669  65.319  1.00  0.00     0.164 A  
HETATM   15  C   UNL     1     -10.732  13.699  65.268  1.00  0.00    -0.340 A  
HETATM   16  C   UNL     1      -7.421  19.734  66.139  1.00  0.00    -0.321 A  
HETATM   17  C   UNL     1      -9.523  15.643  65.979  1.00  0.00    -0.390 A  
HETATM   18  C   UNL     1     -10.516  15.070  65.172  1.00  0.00    -0.438 A  
HETATM   19  C   UNL     1      -6.958  17.364  65.830  1.00  0.00    -0.141 A  
BRANCH  11  20
HETATM   20  O   UNL     1      -8.182  12.682  67.783  1.00  0.00    -0.146 OA 
BRANCH  20  21
HETATM   21  C   UNL     1      -7.646  11.488  67.261  1.00  0.00    -0.143 C  
HETATM   22  O   UNL     1      -6.578  11.374  66.670  1.00  0.00    -0.136 OA 
HETATM   23  C   UNL     1      -8.587  10.321  67.530  1.00  0.00    -0.118 C  
HETATM   24  C   UNL     1      -8.304   9.708  68.901  1.00  0.00    -0.116 C  
HETATM   25  C   UNL     1      -8.425   9.254  66.445  1.00  0.00    -0.128 C  
ENDBRANCH  20  21
ENDBRANCH  11  20
BRANCH  18  26
HETATM   26  C   UNL     1     -11.257  15.892  64.142  1.00  0.00     0.097 C  
HETATM   27  O   UNL     1     -12.505  15.313  63.772  1.00  0.00    -1.004 OA 
HETATM   28  H   UNL     1     -12.971  15.830  63.125  1.00  0.00     0.000 HD 
ENDBRANCH  18  26
ENDBRANCH   5   6
ENDBRANCH   4   5
BRANCH   4  29
HETATM   29  C   UNL     1     -11.228  14.996  69.429  1.00  0.00    -0.284 C  
HETATM   30  C   UNL     1     -12.338  14.654  68.420  1.00  0.00     0.009 C  
HETATM   31  C   UNL     1     -10.541  13.639  69.720  1.00  0.00     0.475 C  
ENDBRANCH   4  29
ENDBRANCH   2   4
TORSDOF 7
ENDMDL
MODEL      180
REMARK 921   NORMALIZED FREE ENERGY PREDICTED BY IDOCK:   -2.08 KCAL/MOL
REMARK 922        TOTAL FREE ENERGY PREDICTED BY IDOCK:   -4.34 KCAL/MOL
REMARK 923 INTER-LIGAND FREE ENERGY PREDICTED BY IDOCK:   -3.84 KCAL/MOL
REMARK 924 INTRA-LIGAND FREE ENERGY PREDICTED BY IDOCK:   -0.50 KCAL/MOL
REMARK 927      BINDING AFFINITY PREDICTED BY RF-SCORE:    0.00 PKD
ROOT
HETATM    1  C   UNL     1     -12.793  12.985  64.453  1.00  0.00    -0.171 C  
HETATM    2  C   UNL     1     -11.778  14.111  64.139  1.00  0.00    -0.282 C  
HETATM    3  C   UNL     1     -12.661  15.335  63.849  1.00  0.00     0.492 C  
ENDROOT
BRANCH   2   4
HETATM    4  N   UNL     1     -10.724  14.284  65.197  1.00  0.00    -0.368 NA 
BRANCH   4   5
HETATM    5  C   UNL     1      -9.854  13.077  65.363  1.00  0.00    -0.112 C  
BRANCH   5   6
HETATM    6  C   UNL     1     -10.432  11.919  66.222  1.00  0.00    -0.274 C  
HETATM    7  C   UNL     1     -10.184  11.984  67.771  1.00  0.00    -0.211 C  
HETATM    8  C   UNL     1      -8.674  11.982  68.131  1.00  0.00    -0.177 A  
HETATM    9  C   UNL     1     -11.009  13.080  68.515  1.00  0.00    -0.290 A  
HETATM   10  C   UNL     1     -11.637  14.132  67.838  1.00  0.00    -0.370 A  
HETATM   11  C   UNL     1      -7.772  10.952  67.788  1.00  0.00    -0.107 A  
HETATM   12  C   UNL     1      -6.436  10.989  68.232  1.00  0.00    -0.057 A  
HETATM   13  C   UNL     1     -12.092  15.285  68.477  1.00  0.00    -0.115 A  
HETATM   14  C   UNL     1     -11.495  14.305  70.574  1.00  0.00    -0.151 A  
HETATM   15  C   UNL     1      -5.958  12.059  68.989  1.00  0.00    -0.068 A  
HETATM   16  C   UNL     1     -11.983  15.390  69.850  1.00  0.00    -0.384 A  
HETATM   17  C   UNL     1      -8.138  13.051  68.890  1.00  0.00     0.206 A  
HETATM   18  C   UNL     1      -6.808  13.105  69.332  1.00  0.00     0.032 A  
HETATM   19  C   UNL     1     -11.051  13.142  69.922  1.00  0.00     0.206 A  
BRANCH  11  20
HETATM   20  O   UNL     1      -8.223   9.807  67.075  1.00  0.00    -0.116 OA 
BRANCH  20  21
HETATM   21  C   UNL     1      -7.827   9.615  65.736  1.00  0.00    -0.106 C  
HETATM   22  O   UNL     1      -7.135  10.378  65.072  1.00  0.00    -0.128 OA 
HETATM   23  C   UNL     1      -8.382   8.302  65.201  1.00  0.00    -0.167 C  
HETATM   24  C   UNL     1      -7.434   7.147  65.522  1.00  0.00    -0.083 C  
HETATM   25  C   UNL     1      -8.587   8.395  63.687  1.00  0.00     0.112 C  
ENDBRANCH  20  21
ENDBRANCH  11  20
BRANCH  18  26
HETATM   26  C   UNL     1      -6.334  14.209  70.249  1.00  0.00    -0.121 C  
HETATM   27  O   UNL     1      -6.270  13.800  71.612  1.00  0.00    -0.554 OA 
HETATM   28  H   UNL     1      -5.972  14.493  72.189  1.00  0.00     0.000 HD 
ENDBRANCH  18  26
ENDBRANCH   5   6
ENDBRANCH   4   5
BRANCH   4  29
HETATM   29  C   UNL     1      -9.906  15.535  65.158  1.00  0.00    -0.051 C  
HETATM   30  C   UNL     1     -10.648  16.824  65.548  1.00  0.00    -0.243 C  
HETATM   31  C   UNL     1      -8.696  15.480  66.124  1.00  0.00    -0.186 C  
ENDBRANCH   4  29
ENDBRANCH   2   4
TORSDOF 7
ENDMDL
MODEL      181
REMARK 921   NORMALIZED FREE ENERGY PREDICTED BY IDOCK:   -2.08 KCAL/MOL
REMARK 922        TOTAL FREE ENERGY PREDICTED BY IDOCK:   -4.34 KCAL/MOL
REMARK 923 INTER-LIGAND FREE ENERGY PREDICTED BY IDOCK:   -4.11 KCAL/MOL
REMARK 924 INTRA-LIGAND FREE ENERGY PREDICTED BY IDOCK:   -0.23 KCAL/MOL
REMARK 927      BINDING AFFINITY PREDICTED BY RF-SCORE:    0.00 PKD
ROOT
HETATM    1  C   UNL     1      -8.530   5.645  64.711  1.00  0.00    -0.102 C  
HETATM    2  C   UNL     1      -9.425   4.987  65.789  1.00  0.00    -0.157 C  
HETATM    3  C   UNL     1     -10.512   4.265  64.978  1.00  0.00    -0.189 C  
ENDROOT
BRANCH   2   4
HETATM    4  N   UNL     1      -8.662   4.150  66.777  1.00  0.00    -0.112 NA 
BRANCH   4   5
HETATM    5  C   UNL     1      -9.011   4.457  68.200  1.00  0.00    -0.119 C  
BRANCH   5   6
HETATM    6  C   UNL     1      -8.381   5.740  68.807  1.00  0.00    -0.104 C  
HETATM    7  C   UNL     1      -8.078   5.730  70.347  1.00  0.00    -0.106 C  
HETATM    8  C   UNL     1      -9.356   5.516  71.202  1.00  0.00    -0.181 A  
HETATM    9  C   UNL     1      -6.879   4.824  70.767  1.00  0.00    -0.036 A  
HETATM   10  C   UNL     1      -6.349   3.845  69.919  1.00  0.00    -0.028 A  
HETATM   11  C   UNL     1     -10.480   6.369  71.186  1.00  0.00    -0.221 A  
HETATM   12  C   UNL     1     -11.562   6.150  72.060  1.00  0.00    -0.364 A  
HETATM   13  C   UNL     1      -5.518   2.818  70.366  1.00  0.00    -0.012 A  
HETATM   14  C   UNL     1      -5.529   3.816  72.539  1.00  0.00     0.000 A  
HETATM   15  C   UNL     1     -11.570   5.065  72.938  1.00  0.00    -0.261 A  
HETATM   16  C   UNL     1      -5.138   2.779  71.694  1.00  0.00     0.000 A  
HETATM   17  C   UNL     1      -9.417   4.423  72.101  1.00  0.00    -0.186 A  
HETATM   18  C   UNL     1     -10.492   4.188  72.972  1.00  0.00    -0.247 A  
HETATM   19  C   UNL     1      -6.355   4.853  72.075  1.00  0.00    -0.030 A  
BRANCH  11  20
HETATM   20  O   UNL     1     -10.495   7.526  70.359  1.00  0.00    -0.215 OA 
BRANCH  20  21
HETATM   21  C   UNL     1      -9.636   8.605  70.647  1.00  0.00    -0.186 C  
HETATM   22  O   UNL     1      -9.674   9.716  70.131  1.00  0.00    -0.226 OA 
HETATM   23  C   UNL     1      -8.623   8.207  71.712  1.00  0.00    -0.191 C  
HETATM   24  C   UNL     1      -9.193   8.442  73.110  1.00  0.00    -0.222 C  
HETATM   25  C   UNL     1      -7.333   9.012  71.539  1.00  0.00    -0.034 C  
ENDBRANCH  20  21
ENDBRANCH  11  20
BRANCH  18  26
HETATM   26  C   UNL     1     -10.436   3.080  73.998  1.00  0.00    -0.173 C  
HETATM   27  O   UNL     1     -10.728   1.802  73.444  1.00  0.00    -0.107 OA 
HETATM   28  H   UNL     1     -10.693   1.106  74.089  1.00  0.00     0.000 HD 
ENDBRANCH  18  26
ENDBRANCH   5   6
ENDBRANCH   4   5
BRANCH   4  29
HETATM   29  C   UNL     1      -8.617   2.674  66.542  1.00  0.00    -0.112 C  
HETATM   30  C   UNL     1      -7.345   2.152  65.852  1.00  0.00    -0.065 C  
HETATM   31  C   UNL     1      -8.702   1.863  67.858  1.00  0.00    -0.124 C  
ENDBRANCH   4  29
ENDBRANCH   2   4
TORSDOF 7
ENDMDL
MODEL      182
REMARK 921   NORMALIZED FREE ENERGY PREDICTED BY IDOCK:   -1.96 KCAL/MOL
REMARK 922        TOTAL FREE ENERGY PREDICTED BY IDOCK:   -4.17 KCAL/MOL
REMARK 923 INTER-LIGAND FREE ENERGY PREDICTED BY IDOCK:   -3.97 KCAL/MOL
REMARK 924 INTRA-LIGAND FREE ENERGY PREDICTED BY IDOCK:   -0.21 KCAL/MOL
REMARK 927      BINDING AFFINITY PREDICTED BY RF-SCORE:    0.00 PKD
ROOT
HETATM    1  C   UNL     1      -8.948  18.408  67.896  1.00  0.00    -0.296 C  
HETATM    2  C   UNL     1      -8.583  16.927  67.635  1.00  0.00    -0.208 C  
HETATM    3  C   UNL     1      -8.577  16.811  66.102  1.00  0.00    -0.299 C  
ENDROOT
BRANCH   2   4
HETATM    4  N   UNL     1      -7.334  16.480  68.342  1.00  0.00    -0.171 NA 
BRANCH   4   5
HETATM    5  C   UNL     1      -7.266  14.997  68.535  1.00  0.00    -0.115 C  
BRANCH   5   6
HETATM    6  C   UNL     1      -8.192  14.397  69.628  1.00  0.00     0.433 C  
HETATM    7  C   UNL     1      -9.229  13.311  69.171  1.00  0.00     0.608 C  
HETATM    8  C   UNL     1     -10.226  13.851  68.111  1.00  0.00    -0.249 A  
HETATM    9  C   UNL     1      -8.602  11.930  68.803  1.00  0.00     0.046 A  
HETATM   10  C   UNL     1      -7.233  11.770  68.560  1.00  0.00    -0.095 A  
HETATM   11  C   UNL     1     -11.098  14.941  68.316  1.00  0.00    -0.282 A  
HETATM   12  C   UNL     1     -12.034  15.309  67.330  1.00  0.00     0.169 A  
HETATM   13  C   UNL     1      -6.698  10.653  67.922  1.00  0.00    -0.064 A  
HETATM   14  C   UNL     1      -8.878   9.671  67.908  1.00  0.00    -0.119 A  
HETATM   15  C   UNL     1     -12.099  14.632  66.111  1.00  0.00    -0.213 A  
HETATM   16  C   UNL     1      -7.531   9.613  67.555  1.00  0.00    -0.091 A  
HETATM   17  C   UNL     1     -10.323  13.204  66.854  1.00  0.00    -0.247 A  
HETATM   18  C   UNL     1     -11.244  13.565  65.860  1.00  0.00    -0.310 A  
HETATM   19  C   UNL     1      -9.405  10.796  68.563  1.00  0.00    -0.174 A  
BRANCH  11  20
HETATM   20  O   UNL     1     -11.118  15.623  69.564  1.00  0.00    -0.253 OA 
BRANCH  20  21
HETATM   21  C   UNL     1     -11.493  14.933  70.733  1.00  0.00    -0.267 C  
HETATM   22  O   UNL     1     -10.826  14.831  71.756  1.00  0.00     0.292 OA 
HETATM   23  C   UNL     1     -12.873  14.310  70.563  1.00  0.00    -0.336 C  
HETATM   24  C   UNL     1     -13.963  15.310  70.946  1.00  0.00    -0.250 C  
HETATM   25  C   UNL     1     -12.995  13.056  71.432  1.00  0.00    -0.373 C  
ENDBRANCH  20  21
ENDBRANCH  11  20
BRANCH  18  26
HETATM   26  C   UNL     1     -11.386  12.751  64.595  1.00  0.00    -0.321 C  
HETATM   27  O   UNL     1     -11.932  13.503  63.516  1.00  0.00    -0.696 OA 
HETATM   28  H   UNL     1     -12.021  12.991  62.720  1.00  0.00     0.000 HD 
ENDBRANCH  18  26
ENDBRANCH   5   6
ENDBRANCH   4   5
BRANCH   4  29
HETATM   29  C   UNL     1      -6.030  17.017  67.847  1.00  0.00    -0.134 C  
HETATM   30  C   UNL     1      -5.170  16.030  67.040  1.00  0.00     0.246 C  
HETATM   31  C   UNL     1      -6.212  18.231  66.902  1.00  0.00    -0.196 C  
ENDBRANCH   4  29
ENDBRANCH   2   4
TORSDOF 7
ENDMDL
MODEL      183
REMARK 921   NORMALIZED FREE ENERGY PREDICTED BY IDOCK:   -1.86 KCAL/MOL
REMARK 922        TOTAL FREE ENERGY PREDICTED BY IDOCK:   -4.03 KCAL/MOL
REMARK 923 INTER-LIGAND FREE ENERGY PREDICTED BY IDOCK:   -3.61 KCAL/MOL
REMARK 924 INTRA-LIGAND FREE ENERGY PREDICTED BY IDOCK:   -0.42 KCAL/MOL
REMARK 927      BINDING AFFINITY PREDICTED BY RF-SCORE:    0.00 PKD
ROOT
HETATM    1  C   UNL     1      -7.994   5.289  64.252  1.00  0.00    -0.111 C  
HETATM    2  C   UNL     1      -8.693   4.474  65.366  1.00  0.00    -0.129 C  
HETATM    3  C   UNL     1      -9.578   3.479  64.598  1.00  0.00    -0.168 C  
ENDROOT
BRANCH   2   4
HETATM    4  N   UNL     1      -7.741   3.883  66.369  1.00  0.00    -0.088 NA 
BRANCH   4   5
HETATM    5  C   UNL     1      -7.992   4.356  67.767  1.00  0.00    -0.088 C  
BRANCH   5   6
HETATM    6  C   UNL     1      -7.196   5.606  68.229  1.00  0.00    -0.075 C  
HETATM    7  C   UNL     1      -7.340   6.031  69.734  1.00  0.00    -0.079 C  
HETATM    8  C   UNL     1      -8.805   6.375  70.116  1.00  0.00    -0.150 A  
HETATM    9  C   UNL     1      -6.630   5.081  70.748  1.00  0.00    -0.035 A  
HETATM   10  C   UNL     1      -6.209   3.792  70.396  1.00  0.00    -0.023 A  
HETATM   11  C   UNL     1      -9.572   7.391  69.507  1.00  0.00    -0.155 A  
HETATM   12  C   UNL     1     -10.864   7.695  69.976  1.00  0.00    -0.250 A  
HETATM   13  C   UNL     1      -5.880   2.817  71.336  1.00  0.00    -0.013 A  
HETATM   14  C   UNL     1      -6.180   4.441  73.064  1.00  0.00    -0.024 A  
HETATM   15  C   UNL     1     -11.436   6.978  71.028  1.00  0.00    -0.343 A  
HETATM   16  C   UNL     1      -5.905   3.130  72.681  1.00  0.00    -0.008 A  
HETATM   17  C   UNL     1      -9.433   5.669  71.170  1.00  0.00    -0.191 A  
HETATM   18  C   UNL     1     -10.723   5.955  71.642  1.00  0.00    -0.308 A  
HETATM   19  C   UNL     1      -6.497   5.421  72.109  1.00  0.00    -0.055 A  
BRANCH  11  20
HETATM   20  O   UNL     1      -9.013   8.196  68.475  1.00  0.00    -0.137 OA 
BRANCH  20  21
HETATM   21  C   UNL     1      -7.794   8.868  68.694  1.00  0.00    -0.102 C  
HETATM   22  O   UNL     1      -7.281   9.094  69.783  1.00  0.00    -0.056 OA 
HETATM   23  C   UNL     1      -7.176   9.292  67.368  1.00  0.00    -0.080 C  
HETATM   24  C   UNL     1      -6.315   8.167  66.794  1.00  0.00    -0.055 C  
HETATM   25  C   UNL     1      -6.321  10.546  67.563  1.00  0.00    -0.057 C  
ENDBRANCH  20  21
ENDBRANCH  11  20
BRANCH  18  26
HETATM   26  C   UNL     1     -11.283   5.253  72.857  1.00  0.00    -0.312 C  
HETATM   27  O   UNL     1     -12.707   5.230  72.870  1.00  0.00    -0.355 OA 
HETATM   28  H   UNL     1     -13.060   4.789  73.634  1.00  0.00     0.000 HD 
ENDBRANCH  18  26
ENDBRANCH   5   6
ENDBRANCH   4   5
BRANCH   4  29
HETATM   29  C   UNL     1      -7.530   2.404  66.332  1.00  0.00    -0.070 C  
HETATM   30  C   UNL     1      -6.063   1.945  66.284  1.00  0.00    -0.023 C  
HETATM   31  C   UNL     1      -8.115   1.692  67.578  1.00  0.00    -0.066 C  
ENDBRANCH   4  29
ENDBRANCH   2   4
TORSDOF 7
ENDMDL
MODEL      184
REMARK 921   NORMALIZED FREE ENERGY PREDICTED BY IDOCK:   -1.85 KCAL/MOL
REMARK 922        TOTAL FREE ENERGY PREDICTED BY IDOCK:   -4.02 KCAL/MOL
REMARK 923 INTER-LIGAND FREE ENERGY PREDICTED BY IDOCK:   -3.26 KCAL/MOL
REMARK 924 INTRA-LIGAND FREE ENERGY PREDICTED BY IDOCK:   -0.76 KCAL/MOL
REMARK 927      BINDING AFFINITY PREDICTED BY RF-SCORE:    0.00 PKD
ROOT
HETATM    1  C   UNL     1     -12.442  13.395  69.771  1.00  0.00    -0.112 C  
HETATM    2  C   UNL     1     -11.990  14.301  68.600  1.00  0.00    -0.313 C  
HETATM    3  C   UNL     1     -12.558  15.683  68.961  1.00  0.00     0.422 C  
ENDROOT
BRANCH   2   4
HETATM    4  N   UNL     1     -10.514  14.238  68.324  1.00  0.00    -0.241 NA 
BRANCH   4   5
HETATM    5  C   UNL     1     -10.166  13.320  67.194  1.00  0.00    -0.246 C  
BRANCH   5   6
HETATM    6  C   UNL     1      -8.673  12.915  67.063  1.00  0.00    -0.195 C  
HETATM    7  C   UNL     1      -8.367  11.455  66.573  1.00  0.00    -0.164 C  
HETATM    8  C   UNL     1      -8.953  10.375  67.522  1.00  0.00    -0.138 A  
HETATM    9  C   UNL     1      -8.671  11.200  65.064  1.00  0.00     0.040 A  
HETATM   10  C   UNL     1      -9.464  12.068  64.303  1.00  0.00     0.115 A  
HETATM   11  C   UNL     1      -8.617  10.243  68.887  1.00  0.00    -0.150 A  
HETATM   12  C   UNL     1      -9.129   9.179  69.654  1.00  0.00    -0.163 A  
HETATM   13  C   UNL     1     -10.018  11.713  63.074  1.00  0.00    -0.321 A  
HETATM   14  C   UNL     1      -8.836   9.638  63.190  1.00  0.00    -0.254 A  
HETATM   15  C   UNL     1     -10.009   8.249  69.099  1.00  0.00    -0.196 A  
HETATM   16  C   UNL     1      -9.736  10.474  62.532  1.00  0.00    -0.154 A  
HETATM   17  C   UNL     1      -9.858   9.414  67.009  1.00  0.00    -0.258 A  
HETATM   18  C   UNL     1     -10.382   8.354  67.763  1.00  0.00    -0.297 A  
HETATM   19  C   UNL     1      -8.273  10.010  64.422  1.00  0.00    -0.165 A  
BRANCH  11  20
HETATM   20  O   UNL     1      -7.674  11.124  69.485  1.00  0.00    -0.043 OA 
BRANCH  20  21
HETATM   21  C   UNL     1      -6.432  10.626  69.927  1.00  0.00    -0.124 C  
HETATM   22  O   UNL     1      -5.726   9.819  69.333  1.00  0.00    -0.034 OA 
HETATM   23  C   UNL     1      -6.066  11.232  71.275  1.00  0.00     0.726 C  
HETATM   24  C   UNL     1      -5.331  12.558  71.086  1.00  0.00    -0.131 C  
HETATM   25  C   UNL     1      -5.184  10.262  72.066  1.00  0.00     0.031 C  
ENDBRANCH  20  21
ENDBRANCH  11  20
BRANCH  18  26
HETATM   26  C   UNL     1     -11.239   7.288  67.121  1.00  0.00     0.155 C  
HETATM   27  O   UNL     1     -10.554   6.578  66.094  1.00  0.00    -0.416 OA 
HETATM   28  H   UNL     1     -11.092   5.907  65.690  1.00  0.00     0.000 HD 
ENDBRANCH  18  26
ENDBRANCH   5   6
ENDBRANCH   4   5
BRANCH   4  29
HETATM   29  C   UNL     1      -9.776  15.533  68.210  1.00  0.00    -0.201 C  
HETATM   30  C   UNL     1      -8.334  15.524  68.744  1.00  0.00    -0.187 C  
HETATM   31  C   UNL     1      -9.640  16.009  66.743  1.00  0.00    -0.248 C  
ENDBRANCH   4  29
ENDBRANCH   2   4
TORSDOF 7
ENDMDL
MODEL      185
REMARK 921   NORMALIZED FREE ENERGY PREDICTED BY IDOCK:   -1.81 KCAL/MOL
REMARK 922        TOTAL FREE ENERGY PREDICTED BY IDOCK:   -3.96 KCAL/MOL
REMARK 923 INTER-LIGAND FREE ENERGY PREDICTED BY IDOCK:   -3.96 KCAL/MOL
REMARK 924 INTRA-LIGAND FREE ENERGY PREDICTED BY IDOCK:   -0.00 KCAL/MOL
REMARK 927      BINDING AFFINITY PREDICTED BY RF-SCORE:    0.00 PKD
ROOT
HETATM    1  C   UNL     1     -12.603  13.177  70.453  1.00  0.00    -0.186 C  
HETATM    2  C   UNL     1     -12.370  12.546  69.059  1.00  0.00     0.212 C  
HETATM    3  C   UNL     1     -11.377  13.503  68.380  1.00  0.00    -0.327 C  
ENDROOT
BRANCH   2   4
HETATM    4  N   UNL     1     -11.970  11.098  69.113  1.00  0.00    -0.358 NA 
BRANCH   4   5
HETATM    5  C   UNL     1     -11.018  10.711  68.024  1.00  0.00    -0.282 C  
BRANCH   5   6
HETATM    6  C   UNL     1      -9.791  11.639  67.814  1.00  0.00    -0.186 C  
HETATM    7  C   UNL     1      -8.760  11.224  66.704  1.00  0.00    -0.174 C  
HETATM    8  C   UNL     1      -8.121   9.836  66.977  1.00  0.00    -0.113 A  
HETATM    9  C   UNL     1      -9.274  11.406  65.241  1.00  0.00    -0.146 A  
HETATM   10  C   UNL     1     -10.630  11.582  64.941  1.00  0.00    -0.360 A  
HETATM   11  C   UNL     1      -7.372   9.513  68.129  1.00  0.00    -0.078 A  
HETATM   12  C   UNL     1      -6.752   8.255  68.255  1.00  0.00    -0.065 A  
HETATM   13  C   UNL     1     -11.153  11.420  63.659  1.00  0.00    -0.411 A  
HETATM   14  C   UNL     1      -8.931  11.089  62.841  1.00  0.00    -0.292 A  
HETATM   15  C   UNL     1      -6.891   7.282  67.265  1.00  0.00    -0.077 A  
HETATM   16  C   UNL     1     -10.304  11.131  62.608  1.00  0.00     0.197 A  
HETATM   17  C   UNL     1      -8.242   8.811  66.007  1.00  0.00    -0.118 A  
HETATM   18  C   UNL     1      -7.637   7.551  66.122  1.00  0.00    -0.088 A  
HETATM   19  C   UNL     1      -8.412  11.266  64.135  1.00  0.00     0.487 A  
BRANCH  11  20
HETATM   20  O   UNL     1      -7.145  10.490  69.138  1.00  0.00    -0.071 OA 
BRANCH  20  21
HETATM   21  C   UNL     1      -6.157  11.476  68.947  1.00  0.00    -0.052 C  
HETATM   22  O   UNL     1      -5.173  11.382  68.223  1.00  0.00    -0.040 OA 
HETATM   23  C   UNL     1      -6.473  12.713  69.779  1.00  0.00    -0.010 C  
HETATM   24  C   UNL     1      -7.395  13.657  69.009  1.00  0.00    -0.014 C  
HETATM   25  C   UNL     1      -5.180  13.443  70.149  1.00  0.00    -0.097 C  
ENDBRANCH  20  21
ENDBRANCH  11  20
BRANCH  18  26
HETATM   26  C   UNL     1      -7.696   6.550  64.992  1.00  0.00    -0.103 C  
HETATM   27  O   UNL     1      -8.779   6.792  64.100  1.00  0.00    -0.260 OA 
HETATM   28  H   UNL     1      -8.816   6.163  63.389  1.00  0.00     0.000 HD 
ENDBRANCH  18  26
ENDBRANCH   5   6
ENDBRANCH   4   5
BRANCH   4  29
HETATM   29  C   UNL     1     -11.527  10.551  70.432  1.00  0.00    -0.341 C  
HETATM   30  C   UNL     1     -12.438   9.474  71.042  1.00  0.00    -0.347 C  
HETATM   31  C   UNL     1     -10.133   9.880  70.356  1.00  0.00    -0.258 C  
ENDBRANCH   4  29
ENDBRANCH   2   4
TORSDOF 7
ENDMDL
MODEL      186
REMARK 921   NORMALIZED FREE ENERGY PREDICTED BY IDOCK:   -1.50 KCAL/MOL
REMARK 922        TOTAL FREE ENERGY PREDICTED BY IDOCK:   -3.53 KCAL/MOL
REMARK 923 INTER-LIGAND FREE ENERGY PREDICTED BY IDOCK:   -3.21 KCAL/MOL
REMARK 924 INTRA-LIGAND FREE ENERGY PREDICTED BY IDOCK:   -0.31 KCAL/MOL
REMARK 927      BINDING AFFINITY PREDICTED BY RF-SCORE:    0.00 PKD
ROOT
HETATM    1  C   UNL     1      -7.929  11.354  67.557  1.00  0.00    -0.127 C  
HETATM    2  C   UNL     1      -6.983  11.828  68.687  1.00  0.00    -0.093 C  
HETATM    3  C   UNL     1      -7.560  13.190  69.106  1.00  0.00     0.239 C  
ENDROOT
BRANCH   2   4
HETATM    4  N   UNL     1      -6.799  10.816  69.783  1.00  0.00    -0.143 NA 
BRANCH   4   5
HETATM    5  C   UNL     1      -8.068  10.115  70.155  1.00  0.00     0.035 C  
BRANCH   5   6
HETATM    6  C   UNL     1      -8.905   9.528  68.986  1.00  0.00    -0.143 C  
HETATM    7  C   UNL     1     -10.113   8.600  69.365  1.00  0.00    -0.204 C  
HETATM    8  C   UNL     1      -9.669   7.342  70.159  1.00  0.00    -0.175 A  
HETATM    9  C   UNL     1     -11.332   9.346  69.993  1.00  0.00    -0.172 A  
HETATM   10  C   UNL     1     -11.233  10.648  70.498  1.00  0.00    -0.270 A  
HETATM   11  C   UNL     1      -8.765   6.371  69.677  1.00  0.00    -0.138 A  
HETATM   12  C   UNL     1      -8.486   5.213  70.429  1.00  0.00    -0.112 A  
HETATM   13  C   UNL     1     -12.187  11.211  71.344  1.00  0.00    -0.237 A  
HETATM   14  C   UNL     1     -13.524   9.248  71.071  1.00  0.00    -0.120 A  
HETATM   15  C   UNL     1      -9.064   5.012  71.683  1.00  0.00    -0.166 A  
HETATM   16  C   UNL     1     -13.321  10.491  71.667  1.00  0.00    -0.423 A  
HETATM   17  C   UNL     1     -10.220   7.098  71.441  1.00  0.00    -0.203 A  
HETATM   18  C   UNL     1      -9.944   5.954  72.204  1.00  0.00    -0.196 A  
HETATM   19  C   UNL     1     -12.563   8.695  70.208  1.00  0.00     0.856 A  
BRANCH  11  20
HETATM   20  O   UNL     1      -8.199   6.494  68.378  1.00  0.00    -0.113 OA 
BRANCH  20  21
HETATM   21  C   UNL     1      -8.915   6.033  67.256  1.00  0.00    -0.109 C  
HETATM   22  O   UNL     1      -9.828   5.216  67.268  1.00  0.00    -0.145 OA 
HETATM   23  C   UNL     1      -8.397   6.695  65.986  1.00  0.00    -0.134 C  
HETATM   24  C   UNL     1      -9.111   8.025  65.745  1.00  0.00    -0.109 C  
HETATM   25  C   UNL     1      -8.611   5.771  64.785  1.00  0.00    -0.040 C  
ENDBRANCH  20  21
ENDBRANCH  11  20
BRANCH  18  26
HETATM   26  C   UNL     1     -10.666   5.691  73.505  1.00  0.00    -0.275 C  
HETATM   27  O   UNL     1     -12.069   5.518  73.329  1.00  0.00    -0.393 OA 
HETATM   28  H   UNL     1     -12.523   5.352  74.148  1.00  0.00     0.000 HD 
ENDBRANCH  18  26
ENDBRANCH   5   6
ENDBRANCH   4   5
BRANCH   4  29
HETATM   29  C   UNL     1      -5.671   9.845  69.645  1.00  0.00    -0.037 C  
HETATM   30  C   UNL     1      -5.880   8.484  70.329  1.00  0.00    -0.027 C  
HETATM   31  C   UNL     1      -5.374   9.491  68.166  1.00  0.00    -0.037 C  
ENDBRANCH   4  29
ENDBRANCH   2   4
TORSDOF 7
ENDMDL
MODEL      187
REMARK 921   NORMALIZED FREE ENERGY PREDICTED BY IDOCK:   -1.28 KCAL/MOL
REMARK 922        TOTAL FREE ENERGY PREDICTED BY IDOCK:   -3.21 KCAL/MOL
REMARK 923 INTER-LIGAND FREE ENERGY PREDICTED BY IDOCK:   -3.68 KCAL/MOL
REMARK 924 INTRA-LIGAND FREE ENERGY PREDICTED BY IDOCK:    0.47 KCAL/MOL
REMARK 927      BINDING AFFINITY PREDICTED BY RF-SCORE:    0.00 PKD
ROOT
HETATM    1  C   UNL     1     -10.317   8.070  68.449  1.00  0.00    -0.236 C  
HETATM    2  C   UNL     1     -10.778   9.524  68.186  1.00  0.00    -0.197 C  
HETATM    3  C   UNL     1     -12.139   9.615  68.893  1.00  0.00     1.262 C  
ENDROOT
BRANCH   2   4
HETATM    4  N   UNL     1      -9.756  10.558  68.568  1.00  0.00    -0.159 NA 
BRANCH   4   5
HETATM    5  C   UNL     1     -10.367  11.851  69.011  1.00  0.00    -0.030 C  
BRANCH   5   6
HETATM    6  C   UNL     1     -11.802  12.151  68.500  1.00  0.00    -0.365 C  
HETATM    7  C   UNL     1     -11.946  13.220  67.358  1.00  0.00    -0.383 C  
HETATM    8  C   UNL     1     -11.414  14.615  67.781  1.00  0.00    -0.359 A  
HETATM    9  C   UNL     1     -11.439  12.748  65.960  1.00  0.00    -0.396 A  
HETATM   10  C   UNL     1     -10.616  11.627  65.802  1.00  0.00    -0.320 A  
HETATM   11  C   UNL     1     -11.909  15.363  68.871  1.00  0.00    -0.329 A  
HETATM   12  C   UNL     1     -11.428  16.661  69.131  1.00  0.00     0.051 A  
HETATM   13  C   UNL     1      -9.890  11.374  64.639  1.00  0.00    -0.302 A  
HETATM   14  C   UNL     1     -10.936  13.268  63.624  1.00  0.00     0.024 A  
HETATM   15  C   UNL     1     -10.425  17.228  68.344  1.00  0.00    -0.381 A  
HETATM   16  C   UNL     1     -10.019  12.222  63.556  1.00  0.00    -0.254 A  
HETATM   17  C   UNL     1     -10.389  15.230  67.020  1.00  0.00    -0.277 A  
HETATM   18  C   UNL     1      -9.895  16.518  67.272  1.00  0.00    -0.254 A  
HETATM   19  C   UNL     1     -11.673  13.508  64.796  1.00  0.00    -0.397 A  
BRANCH  11  20
HETATM   20  O   UNL     1     -12.976  14.859  69.665  1.00  0.00     0.075 OA 
BRANCH  20  21
HETATM   21  C   UNL     1     -12.702  14.274  70.918  1.00  0.00    -0.357 C  
HETATM   22  O   UNL     1     -11.613  13.858  71.297  1.00  0.00     0.107 OA 
HETATM   23  C   UNL     1     -13.964  14.222  71.768  1.00  0.00    -0.526 C  
HETATM   24  C   UNL     1     -14.140  15.524  72.548  1.00  0.00    -0.595 C  
HETATM   25  C   UNL     1     -13.895  13.044  72.741  1.00  0.00     0.070 C  
ENDBRANCH  20  21
ENDBRANCH  11  20
BRANCH  18  26
HETATM   26  C   UNL     1      -8.895  17.166  66.342  1.00  0.00    -0.255 C  
HETATM   27  O   UNL     1      -8.498  16.307  65.278  1.00  0.00     0.574 OA 
HETATM   28  H   UNL     1      -7.869  16.715  64.694  1.00  0.00     0.000 HD 
ENDBRANCH  18  26
ENDBRANCH   5   6
ENDBRANCH   4   5
BRANCH   4  29
HETATM   29  C   UNL     1      -8.659  10.137  69.492  1.00  0.00    -0.164 C  
HETATM   30  C   UNL     1      -7.473  11.110  69.599  1.00  0.00     0.097 C  
HETATM   31  C   UNL     1      -9.149   9.965  70.951  1.00  0.00     0.592 C  
ENDBRANCH   4  29
ENDBRANCH   2   4
TORSDOF 7
ENDMDL
MODEL      188
REMARK 921   NORMALIZED FREE ENERGY PREDICTED BY IDOCK:   -1.23 KCAL/MOL
REMARK 922        TOTAL FREE ENERGY PREDICTED BY IDOCK:   -3.15 KCAL/MOL
REMARK 923 INTER-LIGAND FREE ENERGY PREDICTED BY IDOCK:   -2.71 KCAL/MOL
REMARK 924 INTRA-LIGAND FREE ENERGY PREDICTED BY IDOCK:   -0.44 KCAL/MOL
REMARK 927      BINDING AFFINITY PREDICTED BY RF-SCORE:    0.00 PKD
ROOT
HETATM    1  C   UNL     1      -7.515   9.144  70.992  1.00  0.00    -0.120 C  
HETATM    2  C   UNL     1      -7.355   7.981  69.983  1.00  0.00    -0.062 C  
HETATM    3  C   UNL     1      -8.778   7.757  69.447  1.00  0.00    -0.135 C  
ENDROOT
BRANCH   2   4
HETATM    4  N   UNL     1      -6.284   8.218  68.954  1.00  0.00    -0.043 NA 
BRANCH   4   5
HETATM    5  C   UNL     1      -5.613   9.548  69.101  1.00  0.00    -0.036 C  
BRANCH   5   6
HETATM    6  C   UNL     1      -5.298  10.314  67.788  1.00  0.00    -0.041 C  
HETATM    7  C   UNL     1      -6.376  11.337  67.279  1.00  0.00    -0.081 C  
HETATM    8  C   UNL     1      -7.742  10.661  66.985  1.00  0.00    -0.117 A  
HETATM    9  C   UNL     1      -6.486  12.640  68.131  1.00  0.00    -0.080 A  
HETATM   10  C   UNL     1      -5.940  12.743  69.416  1.00  0.00    -0.104 A  
HETATM   11  C   UNL     1      -7.936   9.625  66.046  1.00  0.00    -0.108 A  
HETATM   12  C   UNL     1      -9.227   9.130  65.778  1.00  0.00    -0.294 A  
HETATM   13  C   UNL     1      -6.295  13.747  70.315  1.00  0.00    -0.035 A  
HETATM   14  C   UNL     1      -7.633  14.747  68.605  1.00  0.00    -0.126 A  
HETATM   15  C   UNL     1     -10.342   9.622  66.457  1.00  0.00    -0.264 A  
HETATM   16  C   UNL     1      -7.179  14.733  69.922  1.00  0.00    -0.044 A  
HETATM   17  C   UNL     1      -8.903  11.118  67.655  1.00  0.00    -0.136 A  
HETATM   18  C   UNL     1     -10.194  10.629  67.404  1.00  0.00    -0.243 A  
HETATM   19  C   UNL     1      -7.260  13.738  67.702  1.00  0.00    -0.183 A  
BRANCH  11  20
HETATM   20  O   UNL     1      -6.843   9.134  65.280  1.00  0.00    -0.075 OA 
BRANCH  20  21
HETATM   21  C   UNL     1      -7.080   8.529  64.030  1.00  0.00    -0.090 C  
HETATM   22  O   UNL     1      -6.364   8.615  63.039  1.00  0.00    -0.089 OA 
HETATM   23  C   UNL     1      -8.377   7.731  64.063  1.00  0.00     0.090 C  
HETATM   24  C   UNL     1      -8.122   6.312  64.567  1.00  0.00    -0.102 C  
HETATM   25  C   UNL     1      -8.998   7.678  62.665  1.00  0.00     0.801 C  
ENDBRANCH  20  21
ENDBRANCH  11  20
BRANCH  18  26
HETATM   26  C   UNL     1     -11.406  11.251  68.058  1.00  0.00    -0.304 C  
HETATM   27  O   UNL     1     -12.147  10.319  68.839  1.00  0.00    -0.657 OA 
HETATM   28  H   UNL     1     -12.909  10.710  69.250  1.00  0.00     0.000 HD 
ENDBRANCH  18  26
ENDBRANCH   5   6
ENDBRANCH   4   5
BRANCH   4  29
HETATM   29  C   UNL     1      -5.281   7.131  68.738  1.00  0.00    -0.017 C  
HETATM   30  C   UNL     1      -5.580   5.802  69.452  1.00  0.00    -0.008 C  
HETATM   31  C   UNL     1      -5.143   6.743  67.245  1.00  0.00    -0.008 C  
ENDBRANCH   4  29
ENDBRANCH   2   4
TORSDOF 7
ENDMDL
MODEL      189
REMARK 921   NORMALIZED FREE ENERGY PREDICTED BY IDOCK:   -0.92 KCAL/MOL
REMARK 922        TOTAL FREE ENERGY PREDICTED BY IDOCK:   -2.71 KCAL/MOL
REMARK 923 INTER-LIGAND FREE ENERGY PREDICTED BY IDOCK:   -5.04 KCAL/MOL
REMARK 924 INTRA-LIGAND FREE ENERGY PREDICTED BY IDOCK:    2.33 KCAL/MOL
REMARK 927      BINDING AFFINITY PREDICTED BY RF-SCORE:    0.00 PKD
ROOT
HETATM    1  C   UNL     1     -11.680  16.187  71.260  1.00  0.00    -0.480 C  
HETATM    2  C   UNL     1     -11.846  15.157  70.116  1.00  0.00    -0.313 C  
HETATM    3  C   UNL     1     -13.347  15.205  69.789  1.00  0.00     0.764 C  
ENDROOT
BRANCH   2   4
HETATM    4  N   UNL     1     -10.905  15.378  68.965  1.00  0.00    -0.232 NA 
BRANCH   4   5
HETATM    5  C   UNL     1     -10.666  16.827  68.672  1.00  0.00    -0.352 C  
BRANCH   5   6
HETATM    6  C   UNL     1     -10.528  17.217  67.175  1.00  0.00    -0.297 C  
HETATM    7  C   UNL     1      -9.781  16.204  66.236  1.00  0.00    -0.332 C  
HETATM    8  C   UNL     1      -8.315  15.953  66.681  1.00  0.00    -0.328 A  
HETATM    9  C   UNL     1     -10.578  14.899  65.925  1.00  0.00    -0.334 A  
HETATM   10  C   UNL     1     -11.689  14.503  66.679  1.00  0.00    -0.384 A  
HETATM   11  C   UNL     1      -7.327  16.956  66.782  1.00  0.00    -0.237 A  
HETATM   12  C   UNL     1      -5.998  16.626  67.107  1.00  0.00    -0.198 A  
HETATM   13  C   UNL     1     -12.213  13.212  66.643  1.00  0.00    -0.331 A  
HETATM   14  C   UNL     1     -10.651  12.673  64.916  1.00  0.00    -0.332 A  
HETATM   15  C   UNL     1      -5.628  15.308  67.376  1.00  0.00     0.161 A  
HETATM   16  C   UNL     1     -11.664  12.278  65.786  1.00  0.00    -0.445 A  
HETATM   17  C   UNL     1      -7.893  14.633  66.974  1.00  0.00    -0.056 A  
HETATM   18  C   UNL     1      -6.574  14.291  67.308  1.00  0.00     0.271 A  
HETATM   19  C   UNL     1     -10.138  13.981  64.950  1.00  0.00    -0.288 A  
BRANCH  11  20
HETATM   20  O   UNL     1      -7.635  18.306  66.455  1.00  0.00    -0.226 OA 
BRANCH  20  21
HETATM   21  C   UNL     1      -7.122  19.353  67.246  1.00  0.00    -0.200 C  
HETATM   22  O   UNL     1      -6.381  20.250  66.862  1.00  0.00    -0.191 OA 
HETATM   23  C   UNL     1      -7.616  19.226  68.681  1.00  0.00    -0.385 C  
HETATM   24  C   UNL     1      -8.966  19.923  68.847  1.00  0.00    -0.063 C  
HETATM   25  C   UNL     1      -6.598  19.840  69.644  1.00  0.00    -0.378 C  
ENDBRANCH  20  21
ENDBRANCH  11  20
BRANCH  18  26
HETATM   26  C   UNL     1      -6.162  12.847  67.479  1.00  0.00    -0.152 C  
HETATM   27  O   UNL     1      -6.009  12.169  66.236  1.00  0.00    -0.426 OA 
HETATM   28  H   UNL     1      -5.749  11.261  66.344  1.00  0.00     0.000 HD 
ENDBRANCH  18  26
ENDBRANCH   5   6
ENDBRANCH   4   5
BRANCH   4  29
HETATM   29  C   UNL     1      -9.622  14.611  68.964  1.00  0.00    -0.145 C  
HETATM   30  C   UNL     1      -8.623  14.990  70.070  1.00  0.00     0.436 C  
HETATM   31  C   UNL     1      -9.843  13.090  69.150  1.00  0.00     0.432 C  
ENDBRANCH   4  29
ENDBRANCH   2   4
TORSDOF 7
ENDMDL
MODEL      190
REMARK 921   NORMALIZED FREE ENERGY PREDICTED BY IDOCK:   -0.15 KCAL/MOL
REMARK 922        TOTAL FREE ENERGY PREDICTED BY IDOCK:   -1.61 KCAL/MOL
REMARK 923 INTER-LIGAND FREE ENERGY PREDICTED BY IDOCK:   -3.43 KCAL/MOL
REMARK 924 INTRA-LIGAND FREE ENERGY PREDICTED BY IDOCK:    1.81 KCAL/MOL
REMARK 927      BINDING AFFINITY PREDICTED BY RF-SCORE:    0.00 PKD
ROOT
HETATM    1  C   UNL     1     -11.244  16.500  70.659  1.00  0.00    -0.086 C  
HETATM    2  C   UNL     1     -10.736  15.038  70.668  1.00  0.00    -0.030 C  
HETATM    3  C   UNL     1     -11.890  14.248  71.306  1.00  0.00    -0.219 C  
ENDROOT
BRANCH   2   4
HETATM    4  N   UNL     1     -10.260  14.557  69.326  1.00  0.00    -0.164 NA 
BRANCH   4   5
HETATM    5  C   UNL     1      -9.300  13.412  69.419  1.00  0.00     1.009 C  
BRANCH   5   6
HETATM    6  C   UNL     1      -7.968  13.559  68.635  1.00  0.00    -0.073 C  
HETATM    7  C   UNL     1      -8.042  14.219  67.213  1.00  0.00    -0.199 C  
HETATM    8  C   UNL     1      -8.949  13.424  66.236  1.00  0.00     0.109 A  
HETATM    9  C   UNL     1      -8.321  15.755  67.224  1.00  0.00    -0.213 A  
HETATM   10  C   UNL     1      -8.807  16.419  68.356  1.00  0.00    -0.214 A  
HETATM   11  C   UNL     1      -8.737  12.079  65.863  1.00  0.00     0.207 A  
HETATM   12  C   UNL     1      -9.559  11.461  64.901  1.00  0.00    -0.244 A  
HETATM   13  C   UNL     1      -9.367  17.694  68.309  1.00  0.00    -0.290 A  
HETATM   14  C   UNL     1      -8.800  17.811  65.989  1.00  0.00    -0.022 A  
HETATM   15  C   UNL     1     -10.626  12.146  64.319  1.00  0.00    -0.385 A  
HETATM   16  C   UNL     1      -9.402  18.379  67.109  1.00  0.00    -0.271 A  
HETATM   17  C   UNL     1     -10.052  14.072  65.626  1.00  0.00    -0.342 A  
HETATM   18  C   UNL     1     -10.883  13.466  64.673  1.00  0.00    -0.405 A  
HETATM   19  C   UNL     1      -8.225  16.530  66.050  1.00  0.00    -0.113 A  
BRANCH  11  20
HETATM   20  O   UNL     1      -7.625  11.356  66.377  1.00  0.00    -0.117 OA 
BRANCH  20  21
HETATM   21  C   UNL     1      -7.768   9.996  66.713  1.00  0.00    -0.103 C  
HETATM   22  O   UNL     1      -7.238   9.051  66.140  1.00  0.00    -0.087 OA 
HETATM   23  C   UNL     1      -8.693   9.839  67.913  1.00  0.00    -0.125 C  
HETATM   24  C   UNL     1      -7.905   9.955  69.217  1.00  0.00    -0.117 C  
HETATM   25  C   UNL     1      -9.402   8.484  67.858  1.00  0.00    -0.148 C  
ENDBRANCH  20  21
ENDBRANCH  11  20
BRANCH  18  26
HETATM   26  C   UNL     1     -11.960  14.253  63.963  1.00  0.00    -0.297 C  
HETATM   27  O   UNL     1     -13.128  14.427  64.759  1.00  0.00    -0.548 OA 
HETATM   28  H   UNL     1     -13.805  14.922  64.313  1.00  0.00     0.000 HD 
ENDBRANCH  18  26
ENDBRANCH   5   6
ENDBRANCH   4   5
BRANCH   4  29
HETATM   29  C   UNL     1     -11.294  14.308  68.275  1.00  0.00    -0.289 C  
HETATM   30  C   UNL     1     -12.003  12.947  68.354  1.00  0.00    -0.289 C  
HETATM   31  C   UNL     1     -12.443  15.345  68.320  1.00  0.00     0.638 C  
ENDBRANCH   4  29
ENDBRANCH   2   4
TORSDOF 7
ENDMDL
MODEL      191
REMARK 921   NORMALIZED FREE ENERGY PREDICTED BY IDOCK:   -0.10 KCAL/MOL
REMARK 922        TOTAL FREE ENERGY PREDICTED BY IDOCK:   -1.54 KCAL/MOL
REMARK 923 INTER-LIGAND FREE ENERGY PREDICTED BY IDOCK:   -0.47 KCAL/MOL
REMARK 924 INTRA-LIGAND FREE ENERGY PREDICTED BY IDOCK:   -1.07 KCAL/MOL
REMARK 927      BINDING AFFINITY PREDICTED BY RF-SCORE:    0.00 PKD
ROOT
HETATM    1  C   UNL     1      -8.594   2.515  68.537  1.00  0.00    -0.111 C  
HETATM    2  C   UNL     1      -8.438   2.552  66.997  1.00  0.00    -0.101 C  
HETATM    3  C   UNL     1      -9.882   2.655  66.480  1.00  0.00     0.638 C  
ENDROOT
BRANCH   2   4
HETATM    4  N   UNL     1      -7.479   3.605  66.514  1.00  0.00    -0.076 NA 
BRANCH   4   5
HETATM    5  C   UNL     1      -7.849   4.985  66.960  1.00  0.00    -0.096 C  
BRANCH   5   6
HETATM    6  C   UNL     1      -6.703   6.033  66.993  1.00  0.00    -0.058 C  
HETATM    7  C   UNL     1      -6.829   7.199  68.037  1.00  0.00    -0.070 C  
HETATM    8  C   UNL     1      -8.101   8.060  67.815  1.00  0.00    -0.128 A  
HETATM    9  C   UNL     1      -6.611   6.767  69.521  1.00  0.00    -0.048 A  
HETATM   10  C   UNL     1      -6.652   5.426  69.924  1.00  0.00    -0.046 A  
HETATM   11  C   UNL     1      -8.387   8.771  66.629  1.00  0.00    -0.108 A  
HETATM   12  C   UNL     1      -9.521   9.601  66.545  1.00  0.00    -0.233 A  
HETATM   13  C   UNL     1      -6.789   5.035  71.255  1.00  0.00    -0.040 A  
HETATM   14  C   UNL     1      -6.648   7.333  71.899  1.00  0.00    -0.051 A  
HETATM   15  C   UNL     1     -10.412   9.715  67.613  1.00  0.00    -0.317 A  
HETATM   16  C   UNL     1      -6.828   5.996  72.247  1.00  0.00    -0.073 A  
HETATM   17  C   UNL     1      -9.040   8.199  68.865  1.00  0.00    -0.147 A  
HETATM   18  C   UNL     1     -10.178   9.016  68.792  1.00  0.00    -0.226 A  
HETATM   19  C   UNL     1      -6.497   7.716  70.556  1.00  0.00    -0.038 A  
BRANCH  11  20
HETATM   20  O   UNL     1      -7.479   8.742  65.535  1.00  0.00    -0.083 OA 
BRANCH  20  21
HETATM   21  C   UNL     1      -6.249   9.423  65.627  1.00  0.00    -0.064 C  
HETATM   22  O   UNL     1      -5.155   8.912  65.836  1.00  0.00    -0.029 OA 
HETATM   23  C   UNL     1      -6.454  10.919  65.429  1.00  0.00     0.121 C  
HETATM   24  C   UNL     1      -6.404  11.276  63.945  1.00  0.00     1.447 C  
HETATM   25  C   UNL     1      -5.377  11.702  66.184  1.00  0.00     0.182 C  
ENDBRANCH  20  21
ENDBRANCH  11  20
BRANCH  18  26
HETATM   26  C   UNL     1     -11.069   9.223  69.995  1.00  0.00    -0.205 C  
HETATM   27  O   UNL     1     -12.064  10.219  69.777  1.00  0.00    -0.459 OA 
HETATM   28  H   UNL     1     -12.624  10.349  70.533  1.00  0.00     0.000 HD 
ENDBRANCH  18  26
ENDBRANCH   5   6
ENDBRANCH   4   5
BRANCH   4  29
HETATM   29  C   UNL     1      -6.019   3.350  66.708  1.00  0.00    -0.024 C  
HETATM   30  C   UNL     1      -5.667   2.263  67.737  1.00  0.00    -0.019 C  
HETATM   31  C   UNL     1      -5.321   2.888  65.405  1.00  0.00    -0.009 C  
ENDBRANCH   4  29
ENDBRANCH   2   4
TORSDOF 7
ENDMDL
MODEL      192
REMARK 921   NORMALIZED FREE ENERGY PREDICTED BY IDOCK:   -0.01 KCAL/MOL
REMARK 922        TOTAL FREE ENERGY PREDICTED BY IDOCK:   -1.42 KCAL/MOL
REMARK 923 INTER-LIGAND FREE ENERGY PREDICTED BY IDOCK:   -1.61 KCAL/MOL
REMARK 924 INTRA-LIGAND FREE ENERGY PREDICTED BY IDOCK:    0.19 KCAL/MOL
REMARK 927      BINDING AFFINITY PREDICTED BY RF-SCORE:    0.00 PKD
ROOT
HETATM    1  C   UNL     1      -7.923   6.595  63.261  1.00  0.00    -0.076 C  
HETATM    2  C   UNL     1      -8.090   6.618  64.799  1.00  0.00    -0.099 C  
HETATM    3  C   UNL     1      -9.533   7.104  65.008  1.00  0.00     1.358 C  
ENDROOT
BRANCH   2   4
HETATM    4  N   UNL     1      -7.719   5.322  65.465  1.00  0.00    -0.086 NA 
BRANCH   4   5
HETATM    5  C   UNL     1      -7.544   5.451  66.946  1.00  0.00    -0.089 C  
BRANCH   5   6
HETATM    6  C   UNL     1      -8.817   5.259  67.814  1.00  0.00    -0.105 C  
HETATM    7  C   UNL     1      -8.921   6.109  69.130  1.00  0.00    -0.126 C  
HETATM    8  C   UNL     1      -7.761   5.817  70.119  1.00  0.00    -0.087 A  
HETATM    9  C   UNL     1      -9.186   7.630  68.900  1.00  0.00    -0.139 A  
HETATM   10  C   UNL     1      -8.999   8.242  67.655  1.00  0.00    -0.140 A  
HETATM   11  C   UNL     1      -7.486   4.550  70.677  1.00  0.00    -0.053 A  
HETATM   12  C   UNL     1      -6.467   4.392  71.636  1.00  0.00    -0.019 A  
HETATM   13  C   UNL     1      -8.908   9.624  67.493  1.00  0.00    -0.129 A  
HETATM   14  C   UNL     1      -9.396   9.887  69.818  1.00  0.00    -0.248 A  
HETATM   15  C   UNL     1      -5.679   5.472  72.034  1.00  0.00    -0.021 A  
HETATM   16  C   UNL     1      -9.067  10.451  68.588  1.00  0.00    -0.157 A  
HETATM   17  C   UNL     1      -6.926   6.879  70.546  1.00  0.00    -0.063 A  
HETATM   18  C   UNL     1      -5.903   6.734  71.495  1.00  0.00    -0.036 A  
HETATM   19  C   UNL     1      -9.499   8.494  69.969  1.00  0.00    -0.165 A  
BRANCH  11  20
HETATM   20  O   UNL     1      -8.301   3.429  70.355  1.00  0.00    -0.055 OA 
BRANCH  20  21
HETATM   21  C   UNL     1      -8.641   2.500  71.358  1.00  0.00    -0.064 C  
HETATM   22  O   UNL     1      -7.941   1.574  71.751  1.00  0.00    -0.040 OA 
HETATM   23  C   UNL     1     -10.029   2.797  71.910  1.00  0.00    -0.210 C  
HETATM   24  C   UNL     1      -9.947   3.815  73.048  1.00  0.00    -0.201 C  
HETATM   25  C   UNL     1     -10.681   1.509  72.417  1.00  0.00    -0.178 C  
ENDBRANCH  20  21
ENDBRANCH  11  20
BRANCH  18  26
HETATM   26  C   UNL     1      -5.136   7.933  72.005  1.00  0.00    -0.035 C  
HETATM   27  O   UNL     1      -5.582   8.365  73.286  1.00  0.00    -0.054 OA 
HETATM   28  H   UNL     1      -5.100   9.119  73.606  1.00  0.00     0.000 HD 
ENDBRANCH  18  26
ENDBRANCH   5   6
ENDBRANCH   4   5
BRANCH   4  29
HETATM   29  C   UNL     1      -8.531   4.113  65.124  1.00  0.00    -0.114 C  
HETATM   30  C   UNL     1      -8.523   3.706  63.641  1.00  0.00    -0.091 C  
HETATM   31  C   UNL     1      -8.049   2.847  65.874  1.00  0.00    -0.087 C  
ENDBRANCH   4  29
ENDBRANCH   2   4
TORSDOF 7
ENDMDL
MODEL      193
REMARK 921   NORMALIZED FREE ENERGY PREDICTED BY IDOCK:    0.65 KCAL/MOL
REMARK 922        TOTAL FREE ENERGY PREDICTED BY IDOCK:   -0.49 KCAL/MOL
REMARK 923 INTER-LIGAND FREE ENERGY PREDICTED BY IDOCK:   -0.75 KCAL/MOL
REMARK 924 INTRA-LIGAND FREE ENERGY PREDICTED BY IDOCK:    0.26 KCAL/MOL
REMARK 927      BINDING AFFINITY PREDICTED BY RF-SCORE:    0.00 PKD
ROOT
HETATM    1  C   UNL     1      -8.901  17.248  65.392  1.00  0.00     1.283 C  
HETATM    2  C   UNL     1      -9.771  16.102  65.961  1.00  0.00    -0.344 C  
HETATM    3  C   UNL     1     -10.997  16.822  66.545  1.00  0.00     0.142 C  
ENDROOT
BRANCH   2   4
HETATM    4  N   UNL     1     -10.050  15.008  64.968  1.00  0.00    -0.319 NA 
BRANCH   4   5
HETATM    5  C   UNL     1      -9.426  13.700  65.344  1.00  0.00     0.263 C  
BRANCH   5   6
HETATM    6  C   UNL     1      -8.253  13.759  66.360  1.00  0.00     0.819 C  
HETATM    7  C   UNL     1      -8.376  12.869  67.648  1.00  0.00    -0.176 C  
HETATM    8  C   UNL     1      -9.616  13.235  68.506  1.00  0.00    -0.127 A  
HETATM    9  C   UNL     1      -8.213  11.337  67.396  1.00  0.00    -0.135 A  
HETATM   10  C   UNL     1      -8.302  10.776  66.116  1.00  0.00    -0.166 A  
HETATM   11  C   UNL     1      -9.848  14.507  69.073  1.00  0.00    -0.138 A  
HETATM   12  C   UNL     1     -10.956  14.728  69.913  1.00  0.00    -0.229 A  
HETATM   13  C   UNL     1      -8.489   9.412  65.895  1.00  0.00    -0.135 A  
HETATM   14  C   UNL     1      -8.302   9.048  68.251  1.00  0.00    -0.121 A  
HETATM   15  C   UNL     1     -11.873  13.711  70.179  1.00  0.00    -0.351 A  
HETATM   16  C   UNL     1      -8.530   8.546  66.971  1.00  0.00    -0.114 A  
HETATM   17  C   UNL     1     -10.581  12.240  68.796  1.00  0.00    -0.223 A  
HETATM   18  C   UNL     1     -11.694  12.448  69.624  1.00  0.00    -0.377 A  
HETATM   19  C   UNL     1      -8.102  10.422  68.462  1.00  0.00    -0.116 A  
BRANCH  11  20
HETATM   20  O   UNL     1      -8.910  15.560  68.888  1.00  0.00    -0.184 OA 
BRANCH  20  21
HETATM   21  C   UNL     1      -9.300  16.894  69.123  1.00  0.00    -0.121 C  
HETATM   22  O   UNL     1     -10.401  17.267  69.509  1.00  0.00    -0.240 OA 
HETATM   23  C   UNL     1      -8.146  17.844  68.829  1.00  0.00    -0.238 C  
HETATM   24  C   UNL     1      -7.260  18.010  70.063  1.00  0.00     1.026 C  
HETATM   25  C   UNL     1      -8.685  19.208  68.394  1.00  0.00    -0.387 C  
ENDBRANCH  20  21
ENDBRANCH  11  20
BRANCH  18  26
HETATM   26  C   UNL     1     -12.612  11.308  69.999  1.00  0.00    -0.104 C  
HETATM   27  O   UNL     1     -11.979  10.344  70.834  1.00  0.00    -0.319 OA 
HETATM   28  H   UNL     1     -12.556   9.628  71.070  1.00  0.00     0.000 HD 
ENDBRANCH  18  26
ENDBRANCH   5   6
ENDBRANCH   4   5
BRANCH   4  29
HETATM   29  C   UNL     1     -11.467  14.820  64.528  1.00  0.00    -0.329 C  
HETATM   30  C   UNL     1     -12.021  15.911  63.597  1.00  0.00     1.074 C  
HETATM   31  C   UNL     1     -11.671  13.502  63.741  1.00  0.00    -0.367 C  
ENDBRANCH   4  29
ENDBRANCH   2   4
TORSDOF 7
ENDMDL
MODEL      194
REMARK 921   NORMALIZED FREE ENERGY PREDICTED BY IDOCK:    1.24 KCAL/MOL
REMARK 922        TOTAL FREE ENERGY PREDICTED BY IDOCK:    0.34 KCAL/MOL
REMARK 923 INTER-LIGAND FREE ENERGY PREDICTED BY IDOCK:   -1.59 KCAL/MOL
REMARK 924 INTRA-LIGAND FREE ENERGY PREDICTED BY IDOCK:    1.93 KCAL/MOL
REMARK 927      BINDING AFFINITY PREDICTED BY RF-SCORE:    0.00 PKD
ROOT
HETATM    1  C   UNL     1      -8.820   2.323  67.459  1.00  0.00    -0.161 C  
HETATM    2  C   UNL     1      -8.507   2.611  65.971  1.00  0.00    -0.098 C  
HETATM    3  C   UNL     1      -9.893   2.750  65.321  1.00  0.00     0.256 C  
ENDROOT
BRANCH   2   4
HETATM    4  N   UNL     1      -7.556   3.758  65.766  1.00  0.00    -0.081 NA 
BRANCH   4   5
HETATM    5  C   UNL     1      -7.973   5.002  66.486  1.00  0.00    -0.107 C  
BRANCH   5   6
HETATM    6  C   UNL     1      -6.833   5.945  66.957  1.00  0.00    -0.063 C  
HETATM    7  C   UNL     1      -6.996   6.617  68.367  1.00  0.00    -0.080 C  
HETATM    8  C   UNL     1      -8.263   7.509  68.457  1.00  0.00    -0.125 A  
HETATM    9  C   UNL     1      -6.823   5.642  69.573  1.00  0.00    -0.061 A  
HETATM   10  C   UNL     1      -6.871   4.251  69.424  1.00  0.00    -0.046 A  
HETATM   11  C   UNL     1      -8.514   8.626  67.631  1.00  0.00    -0.125 A  
HETATM   12  C   UNL     1      -9.649   9.433  67.841  1.00  0.00    -0.155 A  
HETATM   13  C   UNL     1      -7.048   3.376  70.495  1.00  0.00    -0.034 A  
HETATM   14  C   UNL     1      -6.935   5.244  71.983  1.00  0.00    -0.078 A  
HETATM   15  C   UNL     1     -10.572   9.132  68.842  1.00  0.00    -0.214 A  
HETATM   16  C   UNL     1      -7.122   3.878  71.780  1.00  0.00    -0.041 A  
HETATM   17  C   UNL     1      -9.235   7.238  69.451  1.00  0.00    -0.148 A  
HETATM   18  C   UNL     1     -10.373   8.029  69.665  1.00  0.00    -0.220 A  
HETATM   19  C   UNL     1      -6.744   6.116  70.899  1.00  0.00    -0.061 A  
BRANCH  11  20
HETATM   20  O   UNL     1      -7.572   9.015  66.639  1.00  0.00    -0.088 OA 
BRANCH  20  21
HETATM   21  C   UNL     1      -8.016   9.657  65.466  1.00  0.00    -0.115 C  
HETATM   22  O   UNL     1      -7.760  10.808  65.132  1.00  0.00    -0.048 OA 
HETATM   23  C   UNL     1      -8.879   8.714  64.638  1.00  0.00     0.006 C  
HETATM   24  C   UNL     1      -8.011   7.870  63.706  1.00  0.00    -0.119 C  
HETATM   25  C   UNL     1      -9.893   9.513  63.816  1.00  0.00     1.029 C  
ENDBRANCH  20  21
ENDBRANCH  11  20
BRANCH  18  26
HETATM   26  C   UNL     1     -11.302   7.762  70.827  1.00  0.00    -0.279 C  
HETATM   27  O   UNL     1     -10.923   8.465  72.006  1.00  0.00    -0.276 OA 
HETATM   28  H   UNL     1     -11.507   8.297  72.736  1.00  0.00     0.000 HD 
ENDBRANCH  18  26
ENDBRANCH   5   6
ENDBRANCH   4   5
BRANCH   4  29
HETATM   29  C   UNL     1      -6.098   3.488  65.959  1.00  0.00    -0.028 C  
HETATM   30  C   UNL     1      -5.149   4.584  65.447  1.00  0.00    -0.009 C  
HETATM   31  C   UNL     1      -5.721   3.319  67.452  1.00  0.00    -0.022 C  
ENDBRANCH   4  29
ENDBRANCH   2   4
TORSDOF 7
ENDMDL
MODEL      195
REMARK 921   NORMALIZED FREE ENERGY PREDICTED BY IDOCK:    2.62 KCAL/MOL
REMARK 922        TOTAL FREE ENERGY PREDICTED BY IDOCK:    2.29 KCAL/MOL
REMARK 923 INTER-LIGAND FREE ENERGY PREDICTED BY IDOCK:    2.57 KCAL/MOL
REMARK 924 INTRA-LIGAND FREE ENERGY PREDICTED BY IDOCK:   -0.29 KCAL/MOL
REMARK 927      BINDING AFFINITY PREDICTED BY RF-SCORE:    0.00 PKD
ROOT
HETATM    1  C   UNL     1      -5.528  15.253  69.860  1.00  0.00    -0.112 C  
HETATM    2  C   UNL     1      -5.761  14.264  68.693  1.00  0.00    -0.088 C  
HETATM    3  C   UNL     1      -5.370  12.898  69.281  1.00  0.00    -0.074 C  
ENDROOT
BRANCH   2   4
HETATM    4  N   UNL     1      -7.133  14.360  68.085  1.00  0.00    -0.109 NA 
BRANCH   4   5
HETATM    5  C   UNL     1      -8.199  14.673  69.088  1.00  0.00    -0.068 C  
BRANCH   5   6
HETATM    6  C   UNL     1      -8.872  13.460  69.786  1.00  0.00     2.082 C  
HETATM    7  C   UNL     1      -9.901  12.628  68.941  1.00  0.00     0.138 C  
HETATM    8  C   UNL     1     -11.105  13.483  68.462  1.00  0.00    -0.300 A  
HETATM    9  C   UNL     1      -9.262  11.754  67.817  1.00  0.00    -0.181 A  
HETATM   10  C   UNL     1      -7.950  11.953  67.369  1.00  0.00    -0.162 A  
HETATM   11  C   UNL     1     -11.996  14.161  69.322  1.00  0.00    -0.340 A  
HETATM   12  C   UNL     1     -13.115  14.842  68.805  1.00  0.00     1.827 A  
HETATM   13  C   UNL     1      -7.466  11.427  66.172  1.00  0.00     0.120 A  
HETATM   14  C   UNL     1      -9.544  10.280  65.886  1.00  0.00    -0.263 A  
HETATM   15  C   UNL     1     -13.353  14.898  67.432  1.00  0.00     4.187 A  
HETATM   16  C   UNL     1      -8.282  10.619  65.404  1.00  0.00    -0.125 A  
HETATM   17  C   UNL     1     -11.383  13.579  67.077  1.00  0.00    -0.348 A  
HETATM   18  C   UNL     1     -12.489  14.261  66.548  1.00  0.00    -0.242 A  
HETATM   19  C   UNL     1     -10.018  10.805  67.101  1.00  0.00    -0.230 A  
BRANCH  11  20
HETATM   20  O   UNL     1     -11.836  14.081  70.733  1.00  0.00    -0.297 OA 
BRANCH  20  21
HETATM   21  C   UNL     1     -12.043  15.227  71.527  1.00  0.00    -0.359 C  
HETATM   22  O   UNL     1     -11.604  16.349  71.303  1.00  0.00    -0.414 OA 
HETATM   23  C   UNL     1     -12.907  14.887  72.734  1.00  0.00    -0.515 C  
HETATM   24  C   UNL     1     -14.390  15.008  72.384  1.00  0.00    -0.430 C  
HETATM   25  C   UNL     1     -12.575  15.822  73.899  1.00  0.00    -0.754 C  
ENDBRANCH  20  21
ENDBRANCH  11  20
BRANCH  18  26
HETATM   26  C   UNL     1     -12.802  14.214  65.070  1.00  0.00    -0.221 C  
HETATM   27  O   UNL     1     -12.073  13.199  64.387  1.00  0.00    -0.375 OA 
HETATM   28  H   UNL     1     -12.269  13.170  63.457  1.00  0.00     0.000 HD 
ENDBRANCH  18  26
ENDBRANCH   5   6
ENDBRANCH   4   5
BRANCH   4  29
HETATM   29  C   UNL     1      -7.287  15.199  66.858  1.00  0.00     0.213 C  
HETATM   30  C   UNL     1      -8.601  15.004  66.083  1.00  0.00     0.232 C  
HETATM   31  C   UNL     1      -7.245  16.715  67.170  1.00  0.00    -0.219 C  
ENDBRANCH   4  29
ENDBRANCH   2   4
TORSDOF 7
ENDMDL
MODEL      196
REMARK 921   NORMALIZED FREE ENERGY PREDICTED BY IDOCK:    2.76 KCAL/MOL
REMARK 922        TOTAL FREE ENERGY PREDICTED BY IDOCK:    2.49 KCAL/MOL
REMARK 923 INTER-LIGAND FREE ENERGY PREDICTED BY IDOCK:   -1.53 KCAL/MOL
REMARK 924 INTRA-LIGAND FREE ENERGY PREDICTED BY IDOCK:    4.02 KCAL/MOL
REMARK 927      BINDING AFFINITY PREDICTED BY RF-SCORE:    0.00 PKD
ROOT
HETATM    1  C   UNL     1      -5.925  16.792  69.112  1.00  0.00    -0.165 C  
HETATM    2  C   UNL     1      -6.192  15.798  67.955  1.00  0.00    -0.135 C  
HETATM    3  C   UNL     1      -5.132  14.704  68.155  1.00  0.00    -0.117 C  
ENDROOT
BRANCH   2   4
HETATM    4  N   UNL     1      -7.621  15.337  67.874  1.00  0.00    -0.129 NA 
BRANCH   4   5
HETATM    5  C   UNL     1      -7.967  14.727  66.552  1.00  0.00     0.565 C  
BRANCH   5   6
HETATM    6  C   UNL     1      -8.866  15.575  65.612  1.00  0.00     0.487 C  
HETATM    7  C   UNL     1     -10.075  16.332  66.268  1.00  0.00    -0.340 C  
HETATM    8  C   UNL     1     -11.079  15.366  66.953  1.00  0.00    -0.256 A  
HETATM    9  C   UNL     1      -9.674  17.554  67.151  1.00  0.00    -0.279 A  
HETATM   10  C   UNL     1      -8.364  17.751  67.605  1.00  0.00    -0.228 A  
HETATM   11  C   UNL     1     -11.776  14.334  66.288  1.00  0.00    -0.393 A  
HETATM   12  C   UNL     1     -12.736  13.561  66.968  1.00  0.00     0.430 A  
HETATM   13  C   UNL     1      -8.041  18.626  68.641  1.00  0.00    -0.352 A  
HETATM   14  C   UNL     1     -10.326  19.328  68.703  1.00  0.00    -0.330 A  
HETATM   15  C   UNL     1     -12.997  13.766  68.324  1.00  0.00     1.980 A  
HETATM   16  C   UNL     1      -9.035  19.390  69.223  1.00  0.00    -0.052 A  
HETATM   17  C   UNL     1     -11.371  15.526  68.330  1.00  0.00    -0.360 A  
HETATM   18  C   UNL     1     -12.318  14.758  69.022  1.00  0.00    -0.083 A  
HETATM   19  C   UNL     1     -10.639  18.453  67.649  1.00  0.00    -0.437 A  
BRANCH  11  20
HETATM   20  O   UNL     1     -11.596  14.126  64.892  1.00  0.00    -0.345 OA 
BRANCH  20  21
HETATM   21  C   UNL     1     -11.010  12.931  64.432  1.00  0.00    -0.371 C  
HETATM   22  O   UNL     1     -10.581  12.725  63.303  1.00  0.00    -0.201 OA 
HETATM   23  C   UNL     1     -10.975  11.893  65.547  1.00  0.00    -0.347 C  
HETATM   24  C   UNL     1      -9.708  12.051  66.387  1.00  0.00    -0.239 C  
HETATM   25  C   UNL     1     -11.028  10.483  64.955  1.00  0.00     0.393 C  
ENDBRANCH  20  21
ENDBRANCH  11  20
BRANCH  18  26
HETATM   26  C   UNL     1     -12.677  15.068  70.457  1.00  0.00    -0.357 C  
HETATM   27  O   UNL     1     -11.875  16.106  71.012  1.00  0.00    -0.505 OA 
HETATM   28  H   UNL     1     -12.100  16.301  71.914  1.00  0.00     0.000 HD 
ENDBRANCH  18  26
ENDBRANCH   5   6
ENDBRANCH   4   5
BRANCH   4  29
HETATM   29  C   UNL     1      -8.142  14.506  69.002  1.00  0.00    -0.085 C  
HETATM   30  C   UNL     1      -7.906  12.992  68.875  1.00  0.00     0.131 C  
HETATM   31  C   UNL     1      -7.500  14.883  70.360  1.00  0.00     0.589 C  
ENDBRANCH   4  29
ENDBRANCH   2   4
TORSDOF 7
ENDMDL
MODEL      197
REMARK 921   NORMALIZED FREE ENERGY PREDICTED BY IDOCK:    3.00 KCAL/MOL
REMARK 922        TOTAL FREE ENERGY PREDICTED BY IDOCK:    2.81 KCAL/MOL
REMARK 923 INTER-LIGAND FREE ENERGY PREDICTED BY IDOCK:    0.14 KCAL/MOL
REMARK 924 INTRA-LIGAND FREE ENERGY PREDICTED BY IDOCK:    2.67 KCAL/MOL
REMARK 927      BINDING AFFINITY PREDICTED BY RF-SCORE:    0.00 PKD
ROOT
HETATM    1  C   UNL     1     -12.845  11.821  64.145  1.00  0.00    -0.070 C  
HETATM    2  C   UNL     1     -12.008  13.045  63.701  1.00  0.00    -0.539 C  
HETATM    3  C   UNL     1     -12.654  13.474  62.374  1.00  0.00     2.793 C  
ENDROOT
BRANCH   2   4
HETATM    4  N   UNL     1     -11.887  14.108  64.758  1.00  0.00    -0.394 NA 
BRANCH   4   5
HETATM    5  C   UNL     1     -11.729  13.549  66.138  1.00  0.00    -0.365 C  
BRANCH   5   6
HETATM    6  C   UNL     1     -10.286  13.515  66.711  1.00  0.00    -0.264 C  
HETATM    7  C   UNL     1     -10.050  12.661  68.008  1.00  0.00    -0.229 C  
HETATM    8  C   UNL     1     -10.904  13.155  69.206  1.00  0.00    -0.055 A  
HETATM    9  C   UNL     1     -10.105  11.118  67.786  1.00  0.00    -0.200 A  
HETATM   10  C   UNL     1     -10.656  10.546  66.633  1.00  0.00    -0.263 A  
HETATM   11  C   UNL     1     -10.832  14.451  69.759  1.00  0.00    -0.051 A  
HETATM   12  C   UNL     1     -11.579  14.787  70.905  1.00  0.00    -0.316 A  
HETATM   13  C   UNL     1     -11.015   9.202  66.547  1.00  0.00     0.491 A  
HETATM   14  C   UNL     1     -10.094   8.860  68.726  1.00  0.00    -0.215 A  
HETATM   15  C   UNL     1     -12.438  13.863  71.501  1.00  0.00    -0.384 A  
HETATM   16  C   UNL     1     -10.770   8.361  67.616  1.00  0.00    -0.191 A  
HETATM   17  C   UNL     1     -11.798  12.257  69.840  1.00  0.00    -0.383 A  
HETATM   18  C   UNL     1     -12.554  12.580  70.976  1.00  0.00    -0.350 A  
HETATM   19  C   UNL     1      -9.723  10.214  68.798  1.00  0.00    -0.174 A  
BRANCH  11  20
HETATM   20  O   UNL     1      -9.924  15.411  69.230  1.00  0.00    -0.225 OA 
BRANCH  20  21
HETATM   21  C   UNL     1     -10.291  16.770  69.183  1.00  0.00    -0.326 C  
HETATM   22  O   UNL     1     -10.309  17.546  70.132  1.00  0.00     0.355 OA 
HETATM   23  C   UNL     1     -10.675  17.168  67.764  1.00  0.00    -0.329 C  
HETATM   24  C   UNL     1      -9.440  17.597  66.974  1.00  0.00    -0.266 C  
HETATM   25  C   UNL     1     -11.691  18.313  67.795  1.00  0.00     1.710 C  
ENDBRANCH  20  21
ENDBRANCH  11  20
BRANCH  18  26
HETATM   26  C   UNL     1     -13.388  11.536  71.682  1.00  0.00    -0.161 C  
HETATM   27  O   UNL     1     -14.285  12.101  72.633  1.00  0.00    -0.235 OA 
HETATM   28  H   UNL     1     -14.810  11.445  73.077  1.00  0.00     0.000 HD 
ENDBRANCH  18  26
ENDBRANCH   5   6
ENDBRANCH   4   5
BRANCH   4  29
HETATM   29  C   UNL     1     -10.915  15.217  64.513  1.00  0.00    -0.192 C  
HETATM   30  C   UNL     1     -11.176  16.513  65.299  1.00  0.00     0.049 C  
HETATM   31  C   UNL     1      -9.464  14.825  64.889  1.00  0.00     0.923 C  
ENDBRANCH   4  29
ENDBRANCH   2   4
TORSDOF 7
ENDMDL
MODEL      198
REMARK 921   NORMALIZED FREE ENERGY PREDICTED BY IDOCK:    3.13 KCAL/MOL
REMARK 922        TOTAL FREE ENERGY PREDICTED BY IDOCK:    3.00 KCAL/MOL
REMARK 923 INTER-LIGAND FREE ENERGY PREDICTED BY IDOCK:    2.71 KCAL/MOL
REMARK 924 INTRA-LIGAND FREE ENERGY PREDICTED BY IDOCK:    0.29 KCAL/MOL
REMARK 927      BINDING AFFINITY PREDICTED BY RF-SCORE:    0.00 PKD
ROOT
HETATM    1  C   UNL     1      -5.130  12.016  69.441  1.00  0.00    -0.060 C  
HETATM    2  C   UNL     1      -6.302  11.058  69.120  1.00  0.00    -0.057 C  
HETATM    3  C   UNL     1      -6.954  10.799  70.488  1.00  0.00     0.483 C  
ENDROOT
BRANCH   2   4
HETATM    4  N   UNL     1      -7.211  11.560  68.033  1.00  0.00    -0.081 NA 
BRANCH   4   5
HETATM    5  C   UNL     1      -7.797  12.905  68.331  1.00  0.00    -0.133 C  
BRANCH   5   6
HETATM    6  C   UNL     1      -9.109  12.921  69.162  1.00  0.00     0.708 C  
HETATM    7  C   UNL     1     -10.412  12.408  68.452  1.00  0.00    -0.245 C  
HETATM    8  C   UNL     1     -10.771  13.245  67.195  1.00  0.00    -0.264 A  
HETATM    9  C   UNL     1     -10.461  10.866  68.219  1.00  0.00    -0.205 A  
HETATM   10  C   UNL     1      -9.320  10.060  68.306  1.00  0.00    -0.136 A  
HETATM   11  C   UNL     1     -11.035  14.631  67.206  1.00  0.00    -0.317 A  
HETATM   12  C   UNL     1     -11.441  15.296  66.032  1.00  0.00    -0.085 A  
HETATM   13  C   UNL     1      -9.262   8.765  67.794  1.00  0.00    -0.146 A  
HETATM   14  C   UNL     1     -11.583   8.925  67.244  1.00  0.00     2.276 A  
HETATM   15  C   UNL     1     -11.556  14.612  64.821  1.00  0.00    -0.418 A  
HETATM   16  C   UNL     1     -10.389   8.207  67.221  1.00  0.00    -0.373 A  
HETATM   17  C   UNL     1     -10.891  12.599  65.940  1.00  0.00    -0.300 A  
HETATM   18  C   UNL     1     -11.286  13.249  64.761  1.00  0.00    -0.350 A  
HETATM   19  C   UNL     1     -11.635  10.224  67.775  1.00  0.00     0.292 A  
BRANCH  11  20
HETATM   20  O   UNL     1     -10.996  15.363  68.425  1.00  0.00    -0.259 OA 
BRANCH  20  21
HETATM   21  C   UNL     1     -12.141  15.420  69.244  1.00  0.00    -0.255 C  
HETATM   22  O   UNL     1     -13.268  15.745  68.888  1.00  0.00     1.312 OA 
HETATM   23  C   UNL     1     -11.795  15.016  70.671  1.00  0.00    -0.364 C  
HETATM   24  C   UNL     1     -11.896  13.500  70.839  1.00  0.00    -0.015 C  
HETATM   25  C   UNL     1     -12.737  15.708  71.658  1.00  0.00    -0.522 C  
ENDBRANCH  20  21
ENDBRANCH  11  20
BRANCH  18  26
HETATM   26  C   UNL     1     -11.522  12.476  63.485  1.00  0.00    -0.496 C  
HETATM   27  O   UNL     1     -12.769  11.790  63.481  1.00  0.00    -0.574 OA 
HETATM   28  H   UNL     1     -12.918  11.304  62.678  1.00  0.00     0.000 HD 
ENDBRANCH  18  26
ENDBRANCH   5   6
ENDBRANCH   4   5
BRANCH   4  29
HETATM   29  C   UNL     1      -6.708  11.493  66.626  1.00  0.00    -0.077 C  
HETATM   30  C   UNL     1      -7.759  11.136  65.563  1.00  0.00     0.265 C  
HETATM   31  C   UNL     1      -6.116  12.842  66.146  1.00  0.00     3.107 C  
ENDBRANCH   4  29
ENDBRANCH   2   4
TORSDOF 7
ENDMDL
MODEL      199
REMARK 921   NORMALIZED FREE ENERGY PREDICTED BY IDOCK:    4.34 KCAL/MOL
REMARK 922        TOTAL FREE ENERGY PREDICTED BY IDOCK:    4.70 KCAL/MOL
REMARK 923 INTER-LIGAND FREE ENERGY PREDICTED BY IDOCK:    3.94 KCAL/MOL
REMARK 924 INTRA-LIGAND FREE ENERGY PREDICTED BY IDOCK:    0.76 KCAL/MOL
REMARK 927      BINDING AFFINITY PREDICTED BY RF-SCORE:    0.00 PKD
ROOT
HETATM    1  C   UNL     1     -11.030  18.524  69.590  1.00  0.00     1.973 C  
HETATM    2  C   UNL     1     -11.472  18.131  68.160  1.00  0.00     1.164 C  
HETATM    3  C   UNL     1     -12.185  19.387  67.634  1.00  0.00     3.274 C  
ENDROOT
BRANCH   2   4
HETATM    4  N   UNL     1     -10.355  17.592  67.311  1.00  0.00    -0.346 NA 
BRANCH   4   5
HETATM    5  C   UNL     1      -9.850  16.263  67.778  1.00  0.00    -0.237 C  
BRANCH   5   6
HETATM    6  C   UNL     1      -8.918  15.493  66.803  1.00  0.00    -0.295 C  
HETATM    7  C   UNL     1      -8.001  14.378  67.420  1.00  0.00    -0.220 C  
HETATM    8  C   UNL     1      -7.024  14.937  68.489  1.00  0.00    -0.107 A  
HETATM    9  C   UNL     1      -8.759  13.090  67.870  1.00  0.00    -0.189 A  
HETATM   10  C   UNL     1     -10.148  13.060  68.039  1.00  0.00    -0.235 A  
HETATM   11  C   UNL     1      -6.054  15.933  68.242  1.00  0.00    -0.110 A  
HETATM   12  C   UNL     1      -5.148  16.318  69.249  1.00  0.00    -0.111 A  
HETATM   13  C   UNL     1     -10.808  12.052  68.740  1.00  0.00    -0.267 A  
HETATM   14  C   UNL     1      -8.721  10.911  68.978  1.00  0.00    -0.108 A  
HETATM   15  C   UNL     1      -5.206  15.756  70.524  1.00  0.00    -0.163 A  
HETATM   16  C   UNL     1     -10.085  10.991  69.249  1.00  0.00    -0.121 A  
HETATM   17  C   UNL     1      -7.050  14.406  69.801  1.00  0.00    -0.007 A  
HETATM   18  C   UNL     1      -6.159  14.786  70.816  1.00  0.00    -0.070 A  
HETATM   19  C   UNL     1      -8.067  11.925  68.259  1.00  0.00    -0.154 A  
BRANCH  11  20
HETATM   20  O   UNL     1      -5.909  16.491  66.942  1.00  0.00    -0.279 OA 
BRANCH  20  21
HETATM   21  C   UNL     1      -5.743  17.882  66.792  1.00  0.00    -0.153 C  
HETATM   22  O   UNL     1      -5.273  18.451  65.814  1.00  0.00    -0.140 OA 
HETATM   23  C   UNL     1      -6.237  18.613  68.033  1.00  0.00    -0.198 C  
HETATM   24  C   UNL     1      -7.734  18.900  67.928  1.00  0.00    -0.286 C  
HETATM   25  C   UNL     1      -5.471  19.927  68.209  1.00  0.00    -0.228 C  
ENDBRANCH  20  21
ENDBRANCH  11  20
BRANCH  18  26
HETATM   26  C   UNL     1      -6.156  14.086  72.155  1.00  0.00     0.537 C  
HETATM   27  O   UNL     1      -5.382  14.774  73.132  1.00  0.00    -0.174 OA 
HETATM   28  H   UNL     1      -5.380  14.334  73.974  1.00  0.00     0.000 HD 
ENDBRANCH  18  26
ENDBRANCH   5   6
ENDBRANCH   4   5
BRANCH   4  29
HETATM   29  C   UNL     1     -10.548  17.602  65.828  1.00  0.00    -0.177 C  
HETATM   30  C   UNL     1     -11.567  16.586  65.286  1.00  0.00     0.629 C  
HETATM   31  C   UNL     1     -11.055  18.970  65.308  1.00  0.00     0.747 C  
ENDBRANCH   4  29
ENDBRANCH   2   4
TORSDOF 7
ENDMDL
MODEL      200
REMARK 921   NORMALIZED FREE ENERGY PREDICTED BY IDOCK:    4.92 KCAL/MOL
REMARK 922        TOTAL FREE ENERGY PREDICTED BY IDOCK:    5.53 KCAL/MOL
REMARK 923 INTER-LIGAND FREE ENERGY PREDICTED BY IDOCK:   -1.66 KCAL/MOL
REMARK 924 INTRA-LIGAND FREE ENERGY PREDICTED BY IDOCK:    7.18 KCAL/MOL
REMARK 927      BINDING AFFINITY PREDICTED BY RF-SCORE:    0.00 PKD
ROOT
HETATM    1  C   UNL     1      -6.640   8.534  65.612  1.00  0.00    -0.059 C  
HETATM    2  C   UNL     1      -7.969   7.780  65.857  1.00  0.00    -0.107 C  
HETATM    3  C   UNL     1      -8.794   8.060  64.590  1.00  0.00     0.329 C  
ENDROOT
BRANCH   2   4
HETATM    4  N   UNL     1      -7.783   6.335  66.227  1.00  0.00    -0.097 NA 
BRANCH   4   5
HETATM    5  C   UNL     1      -6.590   6.101  67.100  1.00  0.00    -0.055 C  
BRANCH   5   6
HETATM    6  C   UNL     1      -6.131   7.294  67.981  1.00  0.00    -0.031 C  
HETATM    7  C   UNL     1      -6.791   7.432  69.400  1.00  0.00    -0.053 C  
HETATM    8  C   UNL     1      -8.330   7.610  69.324  1.00  0.00    -0.134 A  
HETATM    9  C   UNL     1      -6.330   6.360  70.436  1.00  0.00    -0.036 A  
HETATM   10  C   UNL     1      -5.672   5.184  70.054  1.00  0.00    -0.016 A  
HETATM   11  C   UNL     1      -8.980   8.670  68.656  1.00  0.00    -0.142 A  
HETATM   12  C   UNL     1     -10.381   8.804  68.712  1.00  0.00    -0.234 A  
HETATM   13  C   UNL     1      -5.543   4.078  70.892  1.00  0.00    -0.012 A  
HETATM   14  C   UNL     1      -6.560   5.343  72.648  1.00  0.00    -0.065 A  
HETATM   15  C   UNL     1     -11.166   7.876  69.396  1.00  0.00     0.181 A  
HETATM   16  C   UNL     1      -6.027   4.142  72.185  1.00  0.00    -0.012 A  
HETATM   17  C   UNL     1      -9.172   6.688  69.993  1.00  0.00    -0.158 A  
HETATM   18  C   UNL     1     -10.568   6.805  70.050  1.00  0.00    -0.256 A  
HETATM   19  C   UNL     1      -6.673   6.457  71.800  1.00  0.00    -0.063 A  
BRANCH  11  20
HETATM   20  O   UNL     1      -8.223   9.680  67.999  1.00  0.00    -0.109 OA 
BRANCH  20  21
HETATM   21  C   UNL     1      -8.885  10.696  67.282  1.00  0.00    -0.136 C  
HETATM   22  O   UNL     1      -9.825  11.370  67.686  1.00  0.00    -0.173 OA 
HETATM   23  C   UNL     1      -8.268  10.858  65.899  1.00  0.00    -0.133 C  
HETATM   24  C   UNL     1      -7.087  11.826  65.948  1.00  0.00     0.883 C  
HETATM   25  C   UNL     1      -9.317  11.374  64.912  1.00  0.00    -0.137 C  
ENDBRANCH  20  21
ENDBRANCH  11  20
BRANCH  18  26
HETATM   26  C   UNL     1     -11.397   5.861  70.892  1.00  0.00    -0.148 C  
HETATM   27  O   UNL     1     -11.894   6.475  72.077  1.00  0.00    -0.308 OA 
HETATM   28  H   UNL     1     -12.415   5.882  72.606  1.00  0.00     0.000 HD 
ENDBRANCH  18  26
ENDBRANCH   5   6
ENDBRANCH   4   5
BRANCH   4  29
HETATM   29  C   UNL     1      -8.977   5.594  66.739  1.00  0.00    -0.116 C  
HETATM   30  C   UNL     1      -9.202   4.200  66.131  1.00  0.00    -0.150 C  
HETATM   31  C   UNL     1      -8.905   5.342  68.266  1.00  0.00    -0.108 C  
ENDBRANCH   4  29
ENDBRANCH   2   4
TORSDOF 7
ENDMDL
MODEL      201
REMARK 921   NORMALIZED FREE ENERGY PREDICTED BY IDOCK:    5.37 KCAL/MOL
REMARK 922        TOTAL FREE ENERGY PREDICTED BY IDOCK:    6.17 KCAL/MOL
REMARK 923 INTER-LIGAND FREE ENERGY PREDICTED BY IDOCK:    3.75 KCAL/MOL
REMARK 924 INTRA-LIGAND FREE ENERGY PREDICTED BY IDOCK:    2.41 KCAL/MOL
REMARK 927      BINDING AFFINITY PREDICTED BY RF-SCORE:    0.00 PKD
ROOT
HETATM    1  C   UNL     1      -7.919  10.578  69.137  1.00  0.00    -0.145 C  
HETATM    2  C   UNL     1      -7.194  11.004  70.437  1.00  0.00     0.934 C  
HETATM    3  C   UNL     1      -7.877  12.325  70.825  1.00  0.00     5.954 C  
ENDROOT
BRANCH   2   4
HETATM    4  N   UNL     1      -7.166   9.932  71.490  1.00  0.00     0.199 NA 
BRANCH   4   5
HETATM    5  C   UNL     1      -8.352   9.021  71.434  1.00  0.00    -0.070 C  
BRANCH   5   6
HETATM    6  C   UNL     1      -9.076   8.910  70.065  1.00  0.00    -0.174 C  
HETATM    7  C   UNL     1     -10.278   7.905  69.970  1.00  0.00    -0.208 C  
HETATM    8  C   UNL     1      -9.855   6.443  70.274  1.00  0.00    -0.192 A  
HETATM    9  C   UNL     1     -11.566   8.360  70.726  1.00  0.00    -0.252 A  
HETATM   10  C   UNL     1     -11.549   9.381  71.684  1.00  0.00    -0.466 A  
HETATM   11  C   UNL     1      -8.885   5.723  69.544  1.00  0.00    -0.117 A  
HETATM   12  C   UNL     1      -8.626   4.369  69.833  1.00  0.00    -0.098 A  
HETATM   13  C   UNL     1     -12.583   9.585  72.596  1.00  0.00     0.047 A  
HETATM   14  C   UNL     1     -13.830   7.863  71.503  1.00  0.00    -0.415 A  
HETATM   15  C   UNL     1      -9.291   3.714  70.870  1.00  0.00    -0.218 A  
HETATM   16  C   UNL     1     -13.714   8.794  72.532  1.00  0.00    -0.425 A  
HETATM   17  C   UNL     1     -10.494   5.737  71.324  1.00  0.00    -0.295 A  
HETATM   18  C   UNL     1     -10.239   4.392  71.628  1.00  0.00    -0.186 A  
HETATM   19  C   UNL     1     -12.788   7.673  70.580  1.00  0.00     0.240 A  
BRANCH  11  20
HETATM   20  O   UNL     1      -8.226   6.323  68.436  1.00  0.00    -0.114 OA 
BRANCH  20  21
HETATM   21  C   UNL     1      -6.878   6.718  68.552  1.00  0.00    -0.074 C  
HETATM   22  O   UNL     1      -6.226   6.761  69.589  1.00  0.00    -0.031 OA 
HETATM   23  C   UNL     1      -6.316   7.096  67.189  1.00  0.00    -0.053 C  
HETATM   24  C   UNL     1      -5.768   5.862  66.473  1.00  0.00    -0.017 C  
HETATM   25  C   UNL     1      -5.204   8.136  67.348  1.00  0.00    -0.033 C  
ENDBRANCH  20  21
ENDBRANCH  11  20
BRANCH  18  26
HETATM   26  C   UNL     1     -11.050   3.661  72.673  1.00  0.00     0.266 C  
HETATM   27  O   UNL     1     -10.514   3.808  73.985  1.00  0.00    -0.161 OA 
HETATM   28  H   UNL     1     -11.024   3.349  74.642  1.00  0.00     0.000 HD 
ENDBRANCH  18  26
ENDBRANCH   5   6
ENDBRANCH   4   5
BRANCH   4  29
HETATM   29  C   UNL     1      -5.898   9.155  71.651  1.00  0.00    -0.073 C  
HETATM   30  C   UNL     1      -6.060   7.733  72.213  1.00  0.00    -0.040 C  
HETATM   31  C   UNL     1      -5.153   8.956  70.307  1.00  0.00    -0.028 C  
ENDBRANCH   4  29
ENDBRANCH   2   4
TORSDOF 7
ENDMDL
MODEL      202
REMARK 921   NORMALIZED FREE ENERGY PREDICTED BY IDOCK:    7.07 KCAL/MOL
REMARK 922        TOTAL FREE ENERGY PREDICTED BY IDOCK:    8.55 KCAL/MOL
REMARK 923 INTER-LIGAND FREE ENERGY PREDICTED BY IDOCK:    1.59 KCAL/MOL
REMARK 924 INTRA-LIGAND FREE ENERGY PREDICTED BY IDOCK:    6.96 KCAL/MOL
REMARK 927      BINDING AFFINITY PREDICTED BY RF-SCORE:    0.00 PKD
ROOT
HETATM    1  C   UNL     1      -7.414  11.113  65.608  1.00  0.00     0.240 C  
HETATM    2  C   UNL     1      -7.793   9.908  66.503  1.00  0.00    -0.110 C  
HETATM    3  C   UNL     1      -6.437   9.318  66.923  1.00  0.00    -0.067 C  
ENDROOT
BRANCH   2   4
HETATM    4  N   UNL     1      -8.742  10.257  67.615  1.00  0.00    -0.122 NA 
BRANCH   4   5
HETATM    5  C   UNL     1      -9.277  11.651  67.514  1.00  0.00    -0.172 C  
BRANCH   5   6
HETATM    6  C   UNL     1     -10.729  11.800  66.982  1.00  0.00    -0.286 C  
HETATM    7  C   UNL     1     -11.466  13.153  67.283  1.00  0.00    -0.375 C  
HETATM    8  C   UNL     1     -11.609  13.426  68.805  1.00  0.00    -0.363 A  
HETATM    9  C   UNL     1     -10.937  14.376  66.470  1.00  0.00    -0.316 A  
HETATM   10  C   UNL     1      -9.705  14.355  65.805  1.00  0.00    -0.283 A  
HETATM   11  C   UNL     1     -12.287  12.579  69.708  1.00  0.00    -0.020 A  
HETATM   12  C   UNL     1     -12.446  12.948  71.058  1.00  0.00    -0.374 A  
HETATM   13  C   UNL     1      -9.063  15.508  65.357  1.00  0.00     0.588 A  
HETATM   14  C   UNL     1     -10.967  16.782  66.039  1.00  0.00     0.117 A  
HETATM   15  C   UNL     1     -11.907  14.138  71.547  1.00  0.00     0.017 A  
HETATM   16  C   UNL     1      -9.678  16.735  65.512  1.00  0.00     0.125 A  
HETATM   17  C   UNL     1     -11.071  14.616  69.352  1.00  0.00    -0.293 A  
HETATM   18  C   UNL     1     -11.214  14.992  70.696  1.00  0.00    -0.280 A  
HETATM   19  C   UNL     1     -11.612  15.613  66.476  1.00  0.00     0.284 A  
BRANCH  11  20
HETATM   20  O   UNL     1     -12.912  11.387  69.248  1.00  0.00     0.204 OA 
BRANCH  20  21
HETATM   21  C   UNL     1     -12.737  10.185  69.961  1.00  0.00     0.148 C  
HETATM   22  O   UNL     1     -13.350   9.140  69.775  1.00  0.00     1.958 OA 
HETATM   23  C   UNL     1     -11.658  10.349  71.023  1.00  0.00    -0.384 C  
HETATM   24  C   UNL     1     -10.277  10.062  70.435  1.00  0.00    -0.218 C  
HETATM   25  C   UNL     1     -11.925   9.403  72.196  1.00  0.00    -0.240 C  
ENDBRANCH  20  21
ENDBRANCH  11  20
BRANCH  18  26
HETATM   26  C   UNL     1     -10.729  16.336  71.187  1.00  0.00     0.645 C  
HETATM   27  O   UNL     1      -9.535  16.761  70.536  1.00  0.00     1.810 OA 
HETATM   28  H   UNL     1      -9.231  17.606  70.844  1.00  0.00     0.000 HD 
ENDBRANCH  18  26
ENDBRANCH   5   6
ENDBRANCH   4   5
BRANCH   4  29
HETATM   29  C   UNL     1      -9.835   9.283  67.921  1.00  0.00    -0.167 C  
HETATM   30  C   UNL     1     -11.248   9.881  68.013  1.00  0.00    -0.129 C  
HETATM   31  C   UNL     1      -9.954   8.173  66.848  1.00  0.00    -0.343 C  
ENDBRANCH   4  29
ENDBRANCH   2   4
TORSDOF 7
ENDMDL
MODEL      203
REMARK 921   NORMALIZED FREE ENERGY PREDICTED BY IDOCK:    9.12 KCAL/MOL
REMARK 922        TOTAL FREE ENERGY PREDICTED BY IDOCK:   11.44 KCAL/MOL
REMARK 923 INTER-LIGAND FREE ENERGY PREDICTED BY IDOCK:   10.62 KCAL/MOL
REMARK 924 INTRA-LIGAND FREE ENERGY PREDICTED BY IDOCK:    0.81 KCAL/MOL
REMARK 927      BINDING AFFINITY PREDICTED BY RF-SCORE:    0.00 PKD
ROOT
HETATM    1  C   UNL     1     -12.968  17.139  66.741  1.00  0.00     7.268 C  
HETATM    2  C   UNL     1     -11.815  17.042  67.769  1.00  0.00     1.134 C  
HETATM    3  C   UNL     1     -12.290  15.966  68.758  1.00  0.00     0.375 C  
ENDROOT
BRANCH   2   4
HETATM    4  N   UNL     1     -10.465  16.824  67.143  1.00  0.00    -0.317 NA 
BRANCH   4   5
HETATM    5  C   UNL     1     -10.241  15.409  66.710  1.00  0.00    -0.271 C  
BRANCH   5   6
HETATM    6  C   UNL     1      -9.084  15.169  65.702  1.00  0.00     0.253 C  
HETATM    7  C   UNL     1      -7.764  14.532  66.265  1.00  0.00     1.868 C  
HETATM    8  C   UNL     1      -7.107  15.405  67.366  1.00  0.00    -0.229 A  
HETATM    9  C   UNL     1      -7.882  13.022  66.643  1.00  0.00     0.501 A  
HETATM   10  C   UNL     1      -9.119  12.385  66.802  1.00  0.00    -0.212 A  
HETATM   11  C   UNL     1      -6.668  16.733  67.178  1.00  0.00    -0.189 A  
HETATM   12  C   UNL     1      -6.000  17.423  68.208  1.00  0.00    -0.157 A  
HETATM   13  C   UNL     1      -9.265  11.157  67.446  1.00  0.00    -0.157 A  
HETATM   14  C   UNL     1      -6.886  11.023  67.637  1.00  0.00    -0.081 A  
HETATM   15  C   UNL     1      -5.787  16.829  69.452  1.00  0.00    -0.178 A  
HETATM   16  C   UNL     1      -8.145  10.490  67.904  1.00  0.00    -0.107 A  
HETATM   17  C   UNL     1      -6.878  14.851  68.650  1.00  0.00    -0.106 A  
HETATM   18  C   UNL     1      -6.222  15.529  69.687  1.00  0.00    -0.156 A  
HETATM   19  C   UNL     1      -6.748  12.254  66.975  1.00  0.00    -0.042 A  
BRANCH  11  20
HETATM   20  O   UNL     1      -6.801  17.363  65.909  1.00  0.00    -0.224 OA 
BRANCH  20  21
HETATM   21  C   UNL     1      -6.919  18.764  65.831  1.00  0.00    -0.268 C  
HETATM   22  O   UNL     1      -7.115  19.525  66.772  1.00  0.00    -0.202 OA 
HETATM   23  C   UNL     1      -6.769  19.232  64.390  1.00  0.00     0.730 C  
HETATM   24  C   UNL     1      -5.296  19.456  64.049  1.00  0.00    -0.282 C  
HETATM   25  C   UNL     1      -7.551  20.528  64.172  1.00  0.00     1.493 C  
ENDBRANCH  20  21
ENDBRANCH  11  20
BRANCH  18  26
HETATM   26  C   UNL     1      -5.892  14.835  70.988  1.00  0.00    -0.057 C  
HETATM   27  O   UNL     1      -6.553  13.581  71.124  1.00  0.00    -0.241 OA 
HETATM   28  H   UNL     1      -6.346  13.144  71.942  1.00  0.00     0.000 HD 
ENDBRANCH  18  26
ENDBRANCH   5   6
ENDBRANCH   4   5
BRANCH   4  29
HETATM   29  C   UNL     1     -10.032  17.786  66.083  1.00  0.00    -0.276 C  
HETATM   30  C   UNL     1     -10.977  17.911  64.877  1.00  0.00     1.197 C  
HETATM   31  C   UNL     1      -9.896  19.233  66.619  1.00  0.00    -0.442 C  
ENDBRANCH   4  29
ENDBRANCH   2   4
TORSDOF 7
ENDMDL
MODEL      204
REMARK 921   NORMALIZED FREE ENERGY PREDICTED BY IDOCK:   10.44 KCAL/MOL
REMARK 922        TOTAL FREE ENERGY PREDICTED BY IDOCK:   13.30 KCAL/MOL
REMARK 923 INTER-LIGAND FREE ENERGY PREDICTED BY IDOCK:   10.74 KCAL/MOL
REMARK 924 INTRA-LIGAND FREE ENERGY PREDICTED BY IDOCK:    2.57 KCAL/MOL
REMARK 927      BINDING AFFINITY PREDICTED BY RF-SCORE:    0.00 PKD
ROOT
HETATM    1  C   UNL     1      -5.592  12.095  69.329  1.00  0.00    -0.069 C  
HETATM    2  C   UNL     1      -6.911  11.321  69.093  1.00  0.00    -0.114 C  
HETATM    3  C   UNL     1      -7.618  11.367  70.457  1.00  0.00     2.613 C  
ENDROOT
BRANCH   2   4
HETATM    4  N   UNL     1      -7.701  11.820  67.915  1.00  0.00    -0.116 NA 
BRANCH   4   5
HETATM    5  C   UNL     1      -8.230  13.207  68.108  1.00  0.00    -0.160 C  
BRANCH   5   6
HETATM    6  C   UNL     1      -9.674  13.325  68.666  1.00  0.00    -0.074 C  
HETATM    7  C   UNL     1     -10.747  14.000  67.739  1.00  0.00    -0.248 C  
HETATM    8  C   UNL     1     -10.380  15.463  67.373  1.00  0.00    -0.262 A  
HETATM    9  C   UNL     1     -11.184  13.135  66.516  1.00  0.00    -0.339 A  
HETATM   10  C   UNL     1     -10.447  12.026  66.083  1.00  0.00    -0.271 A  
HETATM   11  C   UNL     1     -10.193  16.499  68.314  1.00  0.00    -0.268 A  
HETATM   12  C   UNL     1      -9.948  17.820  67.890  1.00  0.00    -0.322 A  
HETATM   13  C   UNL     1     -10.618  11.442  64.829  1.00  0.00    -0.377 A  
HETATM   14  C   UNL     1     -12.443  12.933  64.429  1.00  0.00    -0.447 A  
HETATM   15  C   UNL     1      -9.847  18.134  66.534  1.00  0.00    -0.362 A  
HETATM   16  C   UNL     1     -11.594  11.925  63.979  1.00  0.00    -0.476 A  
HETATM   17  C   UNL     1     -10.255  15.830  66.011  1.00  0.00    -0.352 A  
HETATM   18  C   UNL     1     -10.004  17.139  65.575  1.00  0.00     0.085 A  
HETATM   19  C   UNL     1     -12.272  13.507  65.700  1.00  0.00    -0.500 A  
BRANCH  11  20
HETATM   20  O   UNL     1     -10.350  16.247  69.705  1.00  0.00    -0.275 OA 
BRANCH  20  21
HETATM   21  C   UNL     1     -11.643  16.129  70.253  1.00  0.00    -0.259 C  
HETATM   22  O   UNL     1     -12.569  16.916  70.093  1.00  0.00     1.987 OA 
HETATM   23  C   UNL     1     -11.750  14.865  71.095  1.00  0.00    -0.377 C  
HETATM   24  C   UNL     1     -12.140  13.671  70.224  1.00  0.00    -0.427 C  
HETATM   25  C   UNL     1     -12.788  15.056  72.203  1.00  0.00    -0.414 C  
ENDBRANCH  20  21
ENDBRANCH  11  20
BRANCH  18  26
HETATM   26  C   UNL     1     -10.014  17.488  64.104  1.00  0.00     6.829 C  
HETATM   27  O   UNL     1     -11.330  17.543  63.563  1.00  0.00     2.348 OA 
HETATM   28  H   UNL     1     -11.337  17.762  62.638  1.00  0.00     0.000 HD 
ENDBRANCH  18  26
ENDBRANCH   5   6
ENDBRANCH   4   5
BRANCH   4  29
HETATM   29  C   UNL     1      -7.092  11.662  66.559  1.00  0.00     0.049 C  
HETATM   30  C   UNL     1      -8.086  11.634  65.386  1.00  0.00     0.753 C  
HETATM   31  C   UNL     1      -6.117  12.814  66.210  1.00  0.00     2.582 C  
ENDBRANCH   4  29
ENDBRANCH   2   4
TORSDOF 7
ENDMDL
MODEL      205
REMARK 921   NORMALIZED FREE ENERGY PREDICTED BY IDOCK:   10.91 KCAL/MOL
REMARK 922        TOTAL FREE ENERGY PREDICTED BY IDOCK:   13.96 KCAL/MOL
REMARK 923 INTER-LIGAND FREE ENERGY PREDICTED BY IDOCK:   -0.49 KCAL/MOL
REMARK 924 INTRA-LIGAND FREE ENERGY PREDICTED BY IDOCK:   14.45 KCAL/MOL
REMARK 927      BINDING AFFINITY PREDICTED BY RF-SCORE:    0.00 PKD
ROOT
HETATM    1  C   UNL     1      -6.636   8.638  65.624  1.00  0.00    -0.060 C  
HETATM    2  C   UNL     1      -8.020   8.179  66.143  1.00  0.00    -0.102 C  
HETATM    3  C   UNL     1      -8.957   8.401  64.945  1.00  0.00     0.128 C  
ENDROOT
BRANCH   2   4
HETATM    4  N   UNL     1      -8.013   6.798  66.738  1.00  0.00    -0.107 NA 
BRANCH   4   5
HETATM    5  C   UNL     1      -6.674   6.395  67.272  1.00  0.00    -0.060 C  
BRANCH   5   6
HETATM    6  C   UNL     1      -5.670   7.543  67.564  1.00  0.00    -0.035 C  
HETATM    7  C   UNL     1      -5.884   8.362  68.886  1.00  0.00    -0.040 C  
HETATM    8  C   UNL     1      -7.264   9.070  68.929  1.00  0.00    -0.073 A  
HETATM    9  C   UNL     1      -5.531   7.587  70.194  1.00  0.00    -0.023 A  
HETATM   10  C   UNL     1      -5.378   6.195  70.221  1.00  0.00    -0.013 A  
HETATM   11  C   UNL     1      -7.704  10.023  67.986  1.00  0.00    -0.089 A  
HETATM   12  C   UNL     1      -8.937  10.682  68.151  1.00  0.00    -0.141 A  
HETATM   13  C   UNL     1      -5.391   5.451  71.399  1.00  0.00    -0.009 A  
HETATM   14  C   UNL     1      -5.505   7.493  72.637  1.00  0.00    -0.037 A  
HETATM   15  C   UNL     1      -9.774  10.386  69.227  1.00  0.00    -0.231 A  
HETATM   16  C   UNL     1      -5.496   6.100  72.614  1.00  0.00    -0.032 A  
HETATM   17  C   UNL     1      -8.154   8.796  69.997  1.00  0.00    -0.111 A  
HETATM   18  C   UNL     1      -9.389   9.439  70.169  1.00  0.00    -0.276 A  
HETATM   19  C   UNL     1      -5.479   8.235  71.444  1.00  0.00    -0.034 A  
BRANCH  11  20
HETATM   20  O   UNL     1      -6.862  10.410  66.906  1.00  0.00    -0.081 OA 
BRANCH  20  21
HETATM   21  C   UNL     1      -7.353  11.278  65.912  1.00  0.00     0.210 C  
HETATM   22  O   UNL     1      -7.950  12.331  66.103  1.00  0.00     0.363 OA 
HETATM   23  C   UNL     1      -7.042  10.729  64.526  1.00  0.00     0.349 C  
HETATM   24  C   UNL     1      -5.655  11.181  64.068  1.00  0.00     0.683 C  
HETATM   25  C   UNL     1      -8.095  11.202  63.522  1.00  0.00     0.486 C  
ENDBRANCH  20  21
ENDBRANCH  11  20
BRANCH  18  26
HETATM   26  C   UNL     1     -10.230   9.196  71.401  1.00  0.00    -0.332 C  
HETATM   27  O   UNL     1     -11.626   9.319  71.146  1.00  0.00    -0.279 OA 
HETATM   28  H   UNL     1     -12.155   9.167  71.920  1.00  0.00     0.000 HD 
ENDBRANCH  18  26
ENDBRANCH   5   6
ENDBRANCH   4   5
BRANCH   4  29
HETATM   29  C   UNL     1      -9.101   6.457  67.705  1.00  0.00    -0.114 C  
HETATM   30  C   UNL     1      -9.770   7.655  68.398  1.00  0.00    -0.164 C  
HETATM   31  C   UNL     1     -10.272   5.698  67.032  1.00  0.00    -0.265 C  
ENDBRANCH   4  29
ENDBRANCH   2   4
TORSDOF 7
ENDMDL
MODEL      206
REMARK 921   NORMALIZED FREE ENERGY PREDICTED BY IDOCK:   12.59 KCAL/MOL
REMARK 922        TOTAL FREE ENERGY PREDICTED BY IDOCK:   16.33 KCAL/MOL
REMARK 923 INTER-LIGAND FREE ENERGY PREDICTED BY IDOCK:   11.96 KCAL/MOL
REMARK 924 INTRA-LIGAND FREE ENERGY PREDICTED BY IDOCK:    4.38 KCAL/MOL
REMARK 927      BINDING AFFINITY PREDICTED BY RF-SCORE:    0.00 PKD
ROOT
HETATM    1  C   UNL     1     -12.471   8.795  70.945  1.00  0.00    -0.050 C  
HETATM    2  C   UNL     1     -11.774   7.491  70.487  1.00  0.00    -0.158 C  
HETATM    3  C   UNL     1     -12.248   7.308  69.036  1.00  0.00     2.012 C  
ENDROOT
BRANCH   2   4
HETATM    4  N   UNL     1     -10.288   7.491  70.709  1.00  0.00    -0.202 NA 
BRANCH   4   5
HETATM    5  C   UNL     1      -9.586   8.599  69.986  1.00  0.00    -0.170 C  
BRANCH   5   6
HETATM    6  C   UNL     1     -10.110   8.939  68.564  1.00  0.00    -0.209 C  
HETATM    7  C   UNL     1      -9.472  10.179  67.844  1.00  0.00    -0.154 C  
HETATM    8  C   UNL     1      -9.686  11.499  68.632  1.00  0.00    -0.172 A  
HETATM    9  C   UNL     1      -8.004   9.964  67.360  1.00  0.00    -0.106 A  
HETATM   10  C   UNL     1      -7.209   8.910  67.826  1.00  0.00    -0.084 A  
HETATM   11  C   UNL     1     -10.949  12.038  68.961  1.00  0.00    -0.210 A  
HETATM   12  C   UNL     1     -11.052  13.287  69.602  1.00  0.00    -0.001 A  
HETATM   13  C   UNL     1      -5.824   8.877  67.675  1.00  0.00    -0.043 A  
HETATM   14  C   UNL     1      -5.959  10.884  66.383  1.00  0.00    -0.131 A  
HETATM   15  C   UNL     1      -9.913  14.008  69.964  1.00  0.00     1.243 A  
HETATM   16  C   UNL     1      -5.189   9.891  66.985  1.00  0.00    -0.041 A  
HETATM   17  C   UNL     1      -8.561  12.262  69.031  1.00  0.00     0.406 A  
HETATM   18  C   UNL     1      -8.650  13.503  69.677  1.00  0.00     1.513 A  
HETATM   19  C   UNL     1      -7.357  10.901  66.529  1.00  0.00    -0.142 A  
BRANCH  11  20
HETATM   20  O   UNL     1     -12.142  11.376  68.557  1.00  0.00    -0.550 OA 
BRANCH  20  21
HETATM   21  C   UNL     1     -12.113  10.484  67.468  1.00  0.00     1.949 C  
HETATM   22  O   UNL     1     -12.403   9.294  67.502  1.00  0.00     4.108 OA 
HETATM   23  C   UNL     1     -11.664  11.204  66.203  1.00  0.00     0.696 C  
HETATM   24  C   UNL     1     -12.858  11.842  65.495  1.00  0.00     1.991 C  
HETATM   25  C   UNL     1     -10.969  10.222  65.257  1.00  0.00     0.675 C  
ENDBRANCH  20  21
ENDBRANCH  11  20
BRANCH  18  26
HETATM   26  C   UNL     1      -7.414  14.328  69.957  1.00  0.00     0.460 C  
HETATM   27  O   UNL     1      -6.279  13.881  69.222  1.00  0.00    -0.095 OA 
HETATM   28  H   UNL     1      -5.502  14.400  69.398  1.00  0.00     0.000 HD 
ENDBRANCH  18  26
ENDBRANCH   5   6
ENDBRANCH   4   5
BRANCH   4  29
HETATM   29  C   UNL     1      -9.800   7.376  72.118  1.00  0.00    -0.172 C  
HETATM   30  C   UNL     1      -8.932   6.143  72.419  1.00  0.00    -0.136 C  
HETATM   31  C   UNL     1      -8.919   8.579  72.538  1.00  0.00    -0.270 C  
ENDBRANCH   4  29
ENDBRANCH   2   4
TORSDOF 7
ENDMDL
MODEL      207
REMARK 921   NORMALIZED FREE ENERGY PREDICTED BY IDOCK:   16.62 KCAL/MOL
REMARK 922        TOTAL FREE ENERGY PREDICTED BY IDOCK:   22.02 KCAL/MOL
REMARK 923 INTER-LIGAND FREE ENERGY PREDICTED BY IDOCK:   13.22 KCAL/MOL
REMARK 924 INTRA-LIGAND FREE ENERGY PREDICTED BY IDOCK:    8.80 KCAL/MOL
REMARK 927      BINDING AFFINITY PREDICTED BY RF-SCORE:    0.00 PKD
ROOT
HETATM    1  C   UNL     1      -8.947  17.766  67.204  1.00  0.00    -0.249 C  
HETATM    2  C   UNL     1      -8.953  16.266  67.587  1.00  0.00    -0.192 C  
HETATM    3  C   UNL     1      -9.740  15.597  66.448  1.00  0.00    -0.302 C  
ENDROOT
BRANCH   2   4
HETATM    4  N   UNL     1      -7.586  15.710  67.870  1.00  0.00    -0.124 NA 
BRANCH   4   5
HETATM    5  C   UNL     1      -7.547  14.837  69.085  1.00  0.00    -0.151 C  
BRANCH   5   6
HETATM    6  C   UNL     1      -8.831  14.020  69.394  1.00  0.00     0.604 C  
HETATM    7  C   UNL     1      -8.837  12.508  68.970  1.00  0.00     0.484 C  
HETATM    8  C   UNL     1      -8.648  12.319  67.441  1.00  0.00    -0.178 A  
HETATM    9  C   UNL     1      -7.923  11.587  69.838  1.00  0.00     1.314 A  
HETATM   10  C   UNL     1      -6.928  12.100  70.679  1.00  0.00     2.239 A  
HETATM   11  C   UNL     1      -9.512  12.845  66.457  1.00  0.00    -0.251 A  
HETATM   12  C   UNL     1      -9.315  12.550  65.095  1.00  0.00     0.332 A  
HETATM   13  C   UNL     1      -5.899  11.319  71.203  1.00  0.00     0.208 A  
HETATM   14  C   UNL     1      -6.923   9.391  70.230  1.00  0.00    -0.087 A  
HETATM   15  C   UNL     1      -8.242  11.763  64.676  1.00  0.00     1.507 A  
HETATM   16  C   UNL     1      -5.872   9.962  70.944  1.00  0.00    -0.088 A  
HETATM   17  C   UNL     1      -7.567  11.537  66.965  1.00  0.00    -0.154 A  
HETATM   18  C   UNL     1      -7.354  11.242  65.611  1.00  0.00     0.383 A  
HETATM   19  C   UNL     1      -7.964  10.184  69.717  1.00  0.00    -0.172 A  
BRANCH  11  20
HETATM   20  O   UNL     1     -10.659  13.598  66.834  1.00  0.00    -0.269 OA 
BRANCH  20  21
HETATM   21  C   UNL     1     -11.254  13.385  68.094  1.00  0.00    -0.273 C  
HETATM   22  O   UNL     1     -11.865  14.218  68.753  1.00  0.00    -0.316 OA 
HETATM   23  C   UNL     1     -11.036  11.948  68.548  1.00  0.00    -0.290 C  
HETATM   24  C   UNL     1     -12.140  11.041  68.006  1.00  0.00     0.229 C  
HETATM   25  C   UNL     1     -11.015  11.877  70.076  1.00  0.00     0.390 C  
ENDBRANCH  20  21
ENDBRANCH  11  20
BRANCH  18  26
HETATM   26  C   UNL     1      -6.259  10.293  65.181  1.00  0.00    -0.127 C  
HETATM   27  O   UNL     1      -5.831  10.518  63.841  1.00  0.00    -0.247 OA 
HETATM   28  H   UNL     1      -5.143   9.921  63.571  1.00  0.00     0.000 HD 
ENDBRANCH  18  26
ENDBRANCH   5   6
ENDBRANCH   4   5
BRANCH   4  29
HETATM   29  C   UNL     1      -6.847  15.080  66.732  1.00  0.00     1.081 C  
HETATM   30  C   UNL     1      -7.139  15.674  65.344  1.00  0.00     6.642 C  
HETATM   31  C   UNL     1      -5.311  15.199  66.888  1.00  0.00     1.274 C  
ENDBRANCH   4  29
ENDBRANCH   2   4
TORSDOF 7
ENDMDL
MODEL      208
REMARK 921   NORMALIZED FREE ENERGY PREDICTED BY IDOCK:   18.80 KCAL/MOL
REMARK 922        TOTAL FREE ENERGY PREDICTED BY IDOCK:   25.08 KCAL/MOL
REMARK 923 INTER-LIGAND FREE ENERGY PREDICTED BY IDOCK:   24.70 KCAL/MOL
REMARK 924 INTRA-LIGAND FREE ENERGY PREDICTED BY IDOCK:    0.38 KCAL/MOL
REMARK 927      BINDING AFFINITY PREDICTED BY RF-SCORE:    0.00 PKD
ROOT
HETATM    1  C   UNL     1     -11.762  16.124  69.505  1.00  0.00    -0.198 C  
HETATM    2  C   UNL     1     -11.371  16.315  68.020  1.00  0.00    -0.205 C  
HETATM    3  C   UNL     1     -12.102  17.603  67.608  1.00  0.00     2.665 C  
ENDROOT
BRANCH   2   4
HETATM    4  N   UNL     1      -9.888  16.284  67.778  1.00  0.00    -0.235 NA 
BRANCH   4   5
HETATM    5  C   UNL     1      -9.465  15.179  66.861  1.00  0.00    -0.238 C  
BRANCH   5   6
HETATM    6  C   UNL     1      -7.937  14.941  66.719  1.00  0.00     0.066 C  
HETATM    7  C   UNL     1      -7.390  13.531  67.140  1.00  0.00     0.117 C  
HETATM    8  C   UNL     1      -7.669  13.207  68.632  1.00  0.00    -0.073 A  
HETATM    9  C   UNL     1      -7.761  12.373  66.162  1.00  0.00     1.049 A  
HETATM   10  C   UNL     1      -8.771  12.500  65.200  1.00  0.00     1.404 A  
HETATM   11  C   UNL     1      -7.201  13.977  69.718  1.00  0.00     0.250 A  
HETATM   12  C   UNL     1      -7.427  13.560  71.045  1.00  0.00     3.957 A  
HETATM   13  C   UNL     1      -9.343  11.409  64.548  1.00  0.00    -0.095 A  
HETATM   14  C   UNL     1      -7.768   9.983  65.644  1.00  0.00    -0.136 A  
HETATM   15  C   UNL     1      -8.148  12.399  71.322  1.00  0.00    10.645 A  
HETATM   16  C   UNL     1      -8.867  10.137  64.802  1.00  0.00    -0.219 A  
HETATM   17  C   UNL     1      -8.405  12.043  68.965  1.00  0.00     0.279 A  
HETATM   18  C   UNL     1      -8.644  11.621  70.281  1.00  0.00     3.584 A  
HETATM   19  C   UNL     1      -7.189  11.091  66.286  1.00  0.00    -0.095 A  
BRANCH  11  20
HETATM   20  O   UNL     1      -6.405  15.134  69.492  1.00  0.00    -0.120 OA 
BRANCH  20  21
HETATM   21  C   UNL     1      -5.823  15.808  70.583  1.00  0.00     0.050 C  
HETATM   22  O   UNL     1      -5.142  15.298  71.466  1.00  0.00    -0.168 OA 
HETATM   23  C   UNL     1      -6.154  17.293  70.529  1.00  0.00     0.419 C  
HETATM   24  C   UNL     1      -5.131  18.040  69.675  1.00  0.00    -0.186 C  
HETATM   25  C   UNL     1      -6.173  17.880  71.942  1.00  0.00     2.550 C  
ENDBRANCH  20  21
ENDBRANCH  11  20
BRANCH  18  26
HETATM   26  C   UNL     1      -9.322  10.301  70.567  1.00  0.00     0.772 C  
HETATM   27  O   UNL     1      -8.497   9.409  71.308  1.00  0.00    -0.302 OA 
HETATM   28  H   UNL     1      -8.923   8.579  71.488  1.00  0.00     0.000 HD 
ENDBRANCH  18  26
ENDBRANCH   5   6
ENDBRANCH   4   5
BRANCH   4  29
HETATM   29  C   UNL     1      -9.220  17.571  67.412  1.00  0.00    -0.238 C  
HETATM   30  C   UNL     1      -8.780  18.449  68.594  1.00  0.00    -0.306 C  
HETATM   31  C   UNL     1      -7.925  17.352  66.591  1.00  0.00    -0.293 C  
ENDBRANCH   4  29
ENDBRANCH   2   4
TORSDOF 7
ENDMDL
MODEL      209
REMARK 921   NORMALIZED FREE ENERGY PREDICTED BY IDOCK:   21.05 KCAL/MOL
REMARK 922        TOTAL FREE ENERGY PREDICTED BY IDOCK:   28.26 KCAL/MOL
REMARK 923 INTER-LIGAND FREE ENERGY PREDICTED BY IDOCK:   20.73 KCAL/MOL
REMARK 924 INTRA-LIGAND FREE ENERGY PREDICTED BY IDOCK:    7.53 KCAL/MOL
REMARK 927      BINDING AFFINITY PREDICTED BY RF-SCORE:    0.00 PKD
ROOT
HETATM    1  C   UNL     1     -12.745  20.036  66.945  1.00  0.00     4.781 C  
HETATM    2  C   UNL     1     -11.964  19.074  66.018  1.00  0.00     3.730 C  
HETATM    3  C   UNL     1     -12.110  19.704  64.623  1.00  0.00     6.140 C  
ENDROOT
BRANCH   2   4
HETATM    4  N   UNL     1     -10.561  18.797  66.481  1.00  0.00    -0.405 NA 
BRANCH   4   5
HETATM    5  C   UNL     1     -10.501  17.844  67.634  1.00  0.00    -0.397 C  
BRANCH   5   6
HETATM    6  C   UNL     1      -9.317  16.839  67.642  1.00  0.00    -0.228 C  
HETATM    7  C   UNL     1      -9.645  15.349  68.011  1.00  0.00    -0.206 C  
HETATM    8  C   UNL     1     -10.246  15.209  69.436  1.00  0.00    -0.244 A  
HETATM    9  C   UNL     1     -10.432  14.566  66.914  1.00  0.00    -0.269 A  
HETATM   10  C   UNL     1     -11.091  15.213  65.861  1.00  0.00    -0.319 A  
HETATM   11  C   UNL     1      -9.594  15.611  70.621  1.00  0.00     1.178 A  
HETATM   12  C   UNL     1     -10.176  15.366  71.880  1.00  0.00     1.936 A  
HETATM   13  C   UNL     1     -12.055  14.591  65.071  1.00  0.00    -0.390 A  
HETATM   14  C   UNL     1     -11.614  12.542  66.220  1.00  0.00    -0.449 A  
HETATM   15  C   UNL     1     -11.426  14.755  71.989  1.00  0.00    -0.056 A  
HETATM   16  C   UNL     1     -12.350  13.257  65.278  1.00  0.00    -0.525 A  
HETATM   17  C   UNL     1     -11.517  14.605  69.598  1.00  0.00    -0.329 A  
HETATM   18  C   UNL     1     -12.112  14.363  70.845  1.00  0.00    -0.414 A  
HETATM   19  C   UNL     1     -10.634  13.174  67.003  1.00  0.00    -0.259 A  
BRANCH  11  20
HETATM   20  O   UNL     1      -8.291  16.177  70.570  1.00  0.00     1.703 OA 
BRANCH  20  21
HETATM   21  C   UNL     1      -7.331  15.648  69.685  1.00  0.00    -0.144 C  
HETATM   22  O   UNL     1      -6.250  16.153  69.405  1.00  0.00    -0.149 OA 
HETATM   23  C   UNL     1      -7.818  14.328  69.101  1.00  0.00     0.018 C  
HETATM   24  C   UNL     1      -7.441  13.164  70.017  1.00  0.00     1.451 C  
HETATM   25  C   UNL     1      -7.210  14.110  67.714  1.00  0.00    -0.187 C  
ENDBRANCH  20  21
ENDBRANCH  11  20
BRANCH  18  26
HETATM   26  C   UNL     1     -13.410  13.595  70.955  1.00  0.00     0.041 C  
HETATM   27  O   UNL     1     -14.372  14.003  69.988  1.00  0.00     2.033 OA 
HETATM   28  H   UNL     1     -15.188  13.520  70.056  1.00  0.00     0.000 HD 
ENDBRANCH  18  26
ENDBRANCH   5   6
ENDBRANCH   4   5
BRANCH   4  29
HETATM   29  C   UNL     1      -9.547  18.445  65.440  1.00  0.00     1.224 C  
HETATM   30  C   UNL     1      -8.131  18.995  65.682  1.00  0.00     0.318 C  
HETATM   31  C   UNL     1      -9.348  16.916  65.302  1.00  0.00     1.150 C  
ENDBRANCH   4  29
ENDBRANCH   2   4
TORSDOF 7
ENDMDL
MODEL      210
REMARK 921   NORMALIZED FREE ENERGY PREDICTED BY IDOCK:   22.06 KCAL/MOL
REMARK 922        TOTAL FREE ENERGY PREDICTED BY IDOCK:   29.69 KCAL/MOL
REMARK 923 INTER-LIGAND FREE ENERGY PREDICTED BY IDOCK:   26.78 KCAL/MOL
REMARK 924 INTRA-LIGAND FREE ENERGY PREDICTED BY IDOCK:    2.91 KCAL/MOL
REMARK 927      BINDING AFFINITY PREDICTED BY RF-SCORE:    0.00 PKD
ROOT
HETATM    1  C   UNL     1      -7.687  16.788  68.007  1.00  0.00    -0.174 C  
HETATM    2  C   UNL     1      -9.165  16.429  68.292  1.00  0.00    -0.207 C  
HETATM    3  C   UNL     1      -9.753  17.721  68.883  1.00  0.00    -0.262 C  
ENDROOT
BRANCH   2   4
HETATM    4  N   UNL     1      -9.885  15.850  67.106  1.00  0.00    -0.229 NA 
BRANCH   4   5
HETATM    5  C   UNL     1     -10.697  14.640  67.446  1.00  0.00    -0.280 C  
BRANCH   5   6
HETATM    6  C   UNL     1     -10.560  13.422  66.491  1.00  0.00    -0.287 C  
HETATM    7  C   UNL     1     -10.319  12.018  67.152  1.00  0.00    -0.235 C  
HETATM    8  C   UNL     1      -9.011  11.972  67.987  1.00  0.00    -0.187 A  
HETATM    9  C   UNL     1     -11.560  11.426  67.889  1.00  0.00    -0.337 A  
HETATM   10  C   UNL     1     -12.668  12.209  68.237  1.00  0.00     1.829 A  
HETATM   11  C   UNL     1      -7.722  12.215  67.467  1.00  0.00    -0.159 A  
HETATM   12  C   UNL     1      -6.580  12.065  68.277  1.00  0.00    -0.055 A  
HETATM   13  C   UNL     1     -13.626  11.803  69.164  1.00  0.00     4.853 A  
HETATM   14  C   UNL     1     -12.526   9.686  69.309  1.00  0.00     1.537 A  
HETATM   15  C   UNL     1      -6.692  11.709  69.622  1.00  0.00    -0.059 A  
HETATM   16  C   UNL     1     -13.532  10.549  69.736  1.00  0.00     1.275 A  
HETATM   17  C   UNL     1      -9.074  11.625  69.359  1.00  0.00     0.729 A  
HETATM   18  C   UNL     1      -7.945  11.480  70.179  1.00  0.00     2.117 A  
HETATM   19  C   UNL     1     -11.572  10.099  68.364  1.00  0.00     0.043 A  
BRANCH  11  20
HETATM   20  O   UNL     1      -7.546  12.516  66.088  1.00  0.00     0.830 OA 
BRANCH  20  21
HETATM   21  C   UNL     1      -6.552  11.847  65.346  1.00  0.00     2.548 C  
HETATM   22  O   UNL     1      -6.012  12.260  64.327  1.00  0.00     4.573 OA 
HETATM   23  C   UNL     1      -6.222  10.506  65.988  1.00  0.00    -0.123 C  
HETATM   24  C   UNL     1      -5.143  10.673  67.057  1.00  0.00    -0.042 C  
HETATM   25  C   UNL     1      -5.744   9.516  64.924  1.00  0.00    -0.065 C  
ENDBRANCH  20  21
ENDBRANCH  11  20
BRANCH  18  26
HETATM   26  C   UNL     1      -8.072  10.979  71.600  1.00  0.00     8.100 C  
HETATM   27  O   UNL     1      -6.810  10.708  72.201  1.00  0.00     1.739 OA 
HETATM   28  H   UNL     1      -6.890  10.393  73.094  1.00  0.00     0.000 HD 
ENDBRANCH  18  26
ENDBRANCH   5   6
ENDBRANCH   4   5
BRANCH   4  29
HETATM   29  C   UNL     1     -10.659  16.792  66.241  1.00  0.00    -0.190 C  
HETATM   30  C   UNL     1     -10.099  18.221  66.151  1.00  0.00    -0.354 C  
HETATM   31  C   UNL     1     -10.737  16.314  64.770  1.00  0.00    -0.150 C  
ENDBRANCH   4  29
ENDBRANCH   2   4
TORSDOF 7
ENDMDL
MODEL      211
REMARK 921   NORMALIZED FREE ENERGY PREDICTED BY IDOCK:   32.94 KCAL/MOL
REMARK 922        TOTAL FREE ENERGY PREDICTED BY IDOCK:   45.01 KCAL/MOL
REMARK 923 INTER-LIGAND FREE ENERGY PREDICTED BY IDOCK:    9.18 KCAL/MOL
REMARK 924 INTRA-LIGAND FREE ENERGY PREDICTED BY IDOCK:   35.83 KCAL/MOL
REMARK 927      BINDING AFFINITY PREDICTED BY RF-SCORE:    0.00 PKD
ROOT
HETATM    1  C   UNL     1      -8.936  17.767  67.131  1.00  0.00    -0.249 C  
HETATM    2  C   UNL     1      -9.019  16.242  67.382  1.00  0.00    -0.187 C  
HETATM    3  C   UNL     1      -9.822  15.713  66.182  1.00  0.00    -0.340 C  
ENDROOT
BRANCH   2   4
HETATM    4  N   UNL     1      -7.684  15.598  67.627  1.00  0.00    -0.143 NA 
BRANCH   4   5
HETATM    5  C   UNL     1      -7.716  14.577  68.721  1.00  0.00    -0.140 C  
BRANCH   5   6
HETATM    6  C   UNL     1      -9.102  14.288  69.358  1.00  0.00     0.400 C  
HETATM    7  C   UNL     1      -9.971  13.156  68.701  1.00  0.00    -0.117 C  
HETATM    8  C   UNL     1     -10.311  13.456  67.217  1.00  0.00    -0.244 A  
HETATM    9  C   UNL     1      -9.444  11.708  68.948  1.00  0.00     0.014 A  
HETATM   10  C   UNL     1      -8.145  11.452  69.403  1.00  0.00     0.311 A  
HETATM   11  C   UNL     1     -11.024  14.590  66.773  1.00  0.00    -0.316 A  
HETATM   12  C   UNL     1     -11.367  14.739  65.415  1.00  0.00    -0.356 A  
HETATM   13  C   UNL     1      -7.543  10.197  69.321  1.00  0.00    -0.117 A  
HETATM   14  C   UNL     1      -9.605   9.310  68.498  1.00  0.00    -0.155 A  
HETATM   15  C   UNL     1     -10.980  13.791  64.467  1.00  0.00    -0.399 A  
HETATM   16  C   UNL     1      -8.264   9.127  68.827  1.00  0.00    -0.109 A  
HETATM   17  C   UNL     1      -9.932  12.529  66.215  1.00  0.00    -0.263 A  
HETATM   18  C   UNL     1     -10.259  12.668  64.858  1.00  0.00    -0.295 A  
HETATM   19  C   UNL     1     -10.207  10.576  68.597  1.00  0.00    -0.197 A  
BRANCH  11  20
HETATM   20  O   UNL     1     -11.498  15.553  67.706  1.00  0.00    -0.322 OA 
BRANCH  20  21
HETATM   21  C   UNL     1     -10.580  16.347  68.422  1.00  0.00    -0.311 C  
HETATM   22  O   UNL     1      -9.927  17.280  67.970  1.00  0.00    -0.278 OA 
HETATM   23  C   UNL     1     -10.495  15.886  69.871  1.00  0.00    -0.311 C  
HETATM   24  C   UNL     1     -11.566  16.574  70.716  1.00  0.00     0.017 C  
HETATM   25  C   UNL     1      -9.110  16.196  70.442  1.00  0.00     1.689 C  
ENDBRANCH  20  21
ENDBRANCH  11  20
BRANCH  18  26
HETATM   26  C   UNL     1      -9.939  11.578  63.862  1.00  0.00    -0.324 C  
HETATM   27  O   UNL     1      -9.824  12.068  62.530  1.00  0.00    -0.227 OA 
HETATM   28  H   UNL     1      -9.623  11.382  61.903  1.00  0.00     0.000 HD 
ENDBRANCH  18  26
ENDBRANCH   5   6
ENDBRANCH   4   5
BRANCH   4  29
HETATM   29  C   UNL     1      -6.934  15.088  66.438  1.00  0.00     2.387 C  
HETATM   30  C   UNL     1      -7.192  15.838  65.121  1.00  0.00     7.675 C  
HETATM   31  C   UNL     1      -5.399  15.164  66.630  1.00  0.00     2.090 C  
ENDBRANCH   4  29
ENDBRANCH   2   4
TORSDOF 7
ENDMDL
MODEL      212
REMARK 921   NORMALIZED FREE ENERGY PREDICTED BY IDOCK:   33.80 KCAL/MOL
REMARK 922        TOTAL FREE ENERGY PREDICTED BY IDOCK:   46.22 KCAL/MOL
REMARK 923 INTER-LIGAND FREE ENERGY PREDICTED BY IDOCK:   23.83 KCAL/MOL
REMARK 924 INTRA-LIGAND FREE ENERGY PREDICTED BY IDOCK:   22.39 KCAL/MOL
REMARK 927      BINDING AFFINITY PREDICTED BY RF-SCORE:    0.00 PKD
ROOT
HETATM    1  C   UNL     1      -5.322  12.817  68.355  1.00  0.00    -0.061 C  
HETATM    2  C   UNL     1      -6.807  12.401  68.480  1.00  0.00    -0.082 C  
HETATM    3  C   UNL     1      -7.348  13.292  69.610  1.00  0.00     0.564 C  
ENDROOT
BRANCH   2   4
HETATM    4  N   UNL     1      -7.558  12.447  67.178  1.00  0.00    -0.137 NA 
BRANCH   4   5
HETATM    5  C   UNL     1      -7.214  13.640  66.343  1.00  0.00     2.508 C  
BRANCH   5   6
HETATM    6  C   UNL     1      -7.285  15.022  67.047  1.00  0.00     0.130 C  
HETATM    7  C   UNL     1      -8.632  15.391  67.765  1.00  0.00    -0.162 C  
HETATM    8  C   UNL     1      -9.837  15.421  66.788  1.00  0.00    -0.255 A  
HETATM    9  C   UNL     1      -8.905  14.597  69.080  1.00  0.00    -0.024 A  
HETATM   10  C   UNL     1      -8.207  13.427  69.406  1.00  0.00     0.830 A  
HETATM   11  C   UNL     1      -9.932  16.263  65.660  1.00  0.00    -0.274 A  
HETATM   12  C   UNL     1     -11.101  16.289  64.876  1.00  0.00    -0.301 A  
HETATM   13  C   UNL     1      -8.639  12.530  70.382  1.00  0.00     5.616 A  
HETATM   14  C   UNL     1     -10.414  14.038  70.921  1.00  0.00     2.380 A  
HETATM   15  C   UNL     1     -12.183  15.457  65.170  1.00  0.00     0.336 A  
HETATM   16  C   UNL     1      -9.773  12.816  71.117  1.00  0.00    10.334 A  
HETATM   17  C   UNL     1     -10.956  14.588  67.037  1.00  0.00    -0.312 A  
HETATM   18  C   UNL     1     -12.124  14.596  66.261  1.00  0.00    -0.213 A  
HETATM   19  C   UNL     1      -9.963  14.941  69.945  1.00  0.00     0.080 A  
BRANCH  11  20
HETATM   20  O   UNL     1      -8.885  17.178  65.354  1.00  0.00    -0.004 OA 
BRANCH  20  21
HETATM   21  C   UNL     1      -8.640  18.272  66.206  1.00  0.00    -0.184 C  
HETATM   22  O   UNL     1      -9.459  19.118  66.548  1.00  0.00    -0.328 OA 
HETATM   23  C   UNL     1      -7.188  18.274  66.665  1.00  0.00    -0.244 C  
HETATM   24  C   UNL     1      -7.019  17.414  67.916  1.00  0.00    -0.181 C  
HETATM   25  C   UNL     1      -6.730  19.705  66.957  1.00  0.00    -0.212 C  
ENDBRANCH  20  21
ENDBRANCH  11  20
BRANCH  18  26
HETATM   26  C   UNL     1     -13.332  13.779  66.658  1.00  0.00     2.473 C  
HETATM   27  O   UNL     1     -13.088  12.958  67.796  1.00  0.00     1.447 OA 
HETATM   28  H   UNL     1     -13.848  12.444  68.046  1.00  0.00     0.000 HD 
ENDBRANCH  18  26
ENDBRANCH   5   6
ENDBRANCH   4   5
BRANCH   4  29
HETATM   29  C   UNL     1      -7.582  11.201  66.351  1.00  0.00    -0.109 C  
HETATM   30  C   UNL     1      -8.805  11.040  65.433  1.00  0.00    -0.157 C  
HETATM   31  C   UNL     1      -6.367  11.103  65.396  1.00  0.00     0.374 C  
ENDBRANCH   4  29
ENDBRANCH   2   4
TORSDOF 7
ENDMDL
MODEL      213
REMARK 921   NORMALIZED FREE ENERGY PREDICTED BY IDOCK:   42.95 KCAL/MOL
REMARK 922        TOTAL FREE ENERGY PREDICTED BY IDOCK:   59.12 KCAL/MOL
REMARK 923 INTER-LIGAND FREE ENERGY PREDICTED BY IDOCK:   58.25 KCAL/MOL
REMARK 924 INTRA-LIGAND FREE ENERGY PREDICTED BY IDOCK:    0.87 KCAL/MOL
REMARK 927      BINDING AFFINITY PREDICTED BY RF-SCORE:    0.00 PKD
ROOT
HETATM    1  C   UNL     1     -11.366  14.041  65.211  1.00  0.00    -0.321 C  
HETATM    2  C   UNL     1      -9.931  14.598  65.376  1.00  0.00    -0.330 C  
HETATM    3  C   UNL     1      -9.643  15.284  64.030  1.00  0.00     5.398 C  
ENDROOT
BRANCH   2   4
HETATM    4  N   UNL     1      -9.750  15.442  66.607  1.00  0.00    -0.241 NA 
BRANCH   4   5
HETATM    5  C   UNL     1      -9.764  14.644  67.873  1.00  0.00    -0.216 C  
BRANCH   5   6
HETATM    6  C   UNL     1      -8.381  14.297  68.489  1.00  0.00    -0.156 C  
HETATM    7  C   UNL     1      -8.171  12.825  68.992  1.00  0.00     0.389 C  
HETATM    8  C   UNL     1      -9.174  12.431  70.110  1.00  0.00     4.065 A  
HETATM    9  C   UNL     1      -8.044  11.762  67.856  1.00  0.00    -0.144 A  
HETATM   10  C   UNL     1      -8.429  12.028  66.537  1.00  0.00    -0.065 A  
HETATM   11  C   UNL     1      -9.287  13.093  71.352  1.00  0.00    12.955 A  
HETATM   12  C   UNL     1     -10.163  12.614  72.345  1.00  0.00    15.542 A  
HETATM   13  C   UNL     1      -8.636  11.027  65.588  1.00  0.00    -0.131 A  
HETATM   14  C   UNL     1      -7.878   9.417  67.184  1.00  0.00    -0.098 A  
HETATM   15  C   UNL     1     -10.968  11.498  72.117  1.00  0.00     7.600 A  
HETATM   16  C   UNL     1      -8.399   9.709  65.926  1.00  0.00    -0.124 A  
HETATM   17  C   UNL     1     -10.020  11.311  69.924  1.00  0.00     0.885 A  
HETATM   18  C   UNL     1     -10.903  10.828  70.901  1.00  0.00     0.857 A  
HETATM   19  C   UNL     1      -7.659  10.434  68.129  1.00  0.00    -0.091 A  
BRANCH  11  20
HETATM   20  O   UNL     1      -8.443  14.196  71.660  1.00  0.00     4.928 OA 
BRANCH  20  21
HETATM   21  C   UNL     1      -7.043  14.034  71.640  1.00  0.00     3.098 C  
HETATM   22  O   UNL     1      -6.293  14.353  70.726  1.00  0.00    -0.178 OA 
HETATM   23  C   UNL     1      -6.565  13.392  72.936  1.00  0.00     3.501 C  
HETATM   24  C   UNL     1      -6.307  14.459  73.999  1.00  0.00     1.043 C  
HETATM   25  C   UNL     1      -5.284  12.593  72.686  1.00  0.00     0.334 C  
ENDBRANCH  20  21
ENDBRANCH  11  20
BRANCH  18  26
HETATM   26  C   UNL     1     -11.681   9.550  70.687  1.00  0.00    -0.262 C  
HETATM   27  O   UNL     1     -11.458   8.592  71.717  1.00  0.00    -0.280 OA 
HETATM   28  H   UNL     1     -11.947   7.789  71.583  1.00  0.00     0.000 HD 
ENDBRANCH  18  26
ENDBRANCH   5   6
ENDBRANCH   4   5
BRANCH   4  29
HETATM   29  C   UNL     1      -8.629  16.431  66.607  1.00  0.00    -0.260 C  
HETATM   30  C   UNL     1      -8.443  17.221  67.913  1.00  0.00    -0.218 C  
HETATM   31  C   UNL     1      -7.253  15.764  66.360  1.00  0.00     0.772 C  
ENDBRANCH   4  29
ENDBRANCH   2   4
TORSDOF 7
ENDMDL
MODEL      214
REMARK 921   NORMALIZED FREE ENERGY PREDICTED BY IDOCK:   43.56 KCAL/MOL
REMARK 922        TOTAL FREE ENERGY PREDICTED BY IDOCK:   59.97 KCAL/MOL
REMARK 923 INTER-LIGAND FREE ENERGY PREDICTED BY IDOCK:   23.81 KCAL/MOL
REMARK 924 INTRA-LIGAND FREE ENERGY PREDICTED BY IDOCK:   36.16 KCAL/MOL
REMARK 927      BINDING AFFINITY PREDICTED BY RF-SCORE:    0.00 PKD
ROOT
HETATM    1  C   UNL     1      -8.622  13.511  63.083  1.00  0.00     9.997 C  
HETATM    2  C   UNL     1     -10.036  14.045  63.419  1.00  0.00     4.891 C  
HETATM    3  C   UNL     1     -10.977  13.131  62.619  1.00  0.00     3.204 C  
ENDROOT
BRANCH   2   4
HETATM    4  N   UNL     1     -10.304  14.151  64.895  1.00  0.00    -0.428 NA 
BRANCH   4   5
HETATM    5  C   UNL     1     -10.278  12.827  65.593  1.00  0.00    -0.279 C  
BRANCH   5   6
HETATM    6  C   UNL     1      -9.160  12.624  66.652  1.00  0.00    -0.193 C  
HETATM    7  C   UNL     1      -9.553  12.833  68.158  1.00  0.00    -0.223 C  
HETATM    8  C   UNL     1     -10.065  14.270  68.444  1.00  0.00    -0.243 A  
HETATM    9  C   UNL     1     -10.459  11.710  68.753  1.00  0.00    -0.226 A  
HETATM   10  C   UNL     1     -11.146  10.796  67.946  1.00  0.00    -0.369 A  
HETATM   11  C   UNL     1      -9.311  15.444  68.230  1.00  0.00    -0.193 A  
HETATM   12  C   UNL     1      -9.821  16.703  68.601  1.00  0.00    -0.252 A  
HETATM   13  C   UNL     1     -12.197  10.009  68.412  1.00  0.00     1.821 A  
HETATM   14  C   UNL     1     -11.806  10.864  70.610  1.00  0.00    -0.453 A  
HETATM   15  C   UNL     1     -11.096  16.830  69.154  1.00  0.00    -0.141 A  
HETATM   16  C   UNL     1     -12.558  10.073  69.744  1.00  0.00     0.358 A  
HETATM   17  C   UNL     1     -11.356  14.452  68.997  1.00  0.00    -0.297 A  
HETATM   18  C   UNL     1     -11.880  15.700  69.363  1.00  0.00    -0.391 A  
HETATM   19  C   UNL     1     -10.739  11.643  70.133  1.00  0.00     0.831 A  
BRANCH  11  20
HETATM   20  O   UNL     1      -7.982  15.366  67.731  1.00  0.00    -0.131 OA 
BRANCH  20  21
HETATM   21  C   UNL     1      -7.161  14.279  68.090  1.00  0.00    -0.127 C  
HETATM   22  O   UNL     1      -6.961  13.871  69.228  1.00  0.00    -0.114 OA 
HETATM   23  C   UNL     1      -6.535  13.653  66.850  1.00  0.00     1.279 C  
HETATM   24  C   UNL     1      -7.466  12.600  66.252  1.00  0.00     1.342 C  
HETATM   25  C   UNL     1      -5.192  13.012  67.206  1.00  0.00     0.167 C  
ENDBRANCH  20  21
ENDBRANCH  11  20
BRANCH  18  26
HETATM   26  C   UNL     1     -13.212  15.812  70.069  1.00  0.00     0.768 C  
HETATM   27  O   UNL     1     -14.310  15.872  69.164  1.00  0.00     3.519 OA 
HETATM   28  H   UNL     1     -15.147  15.942  69.608  1.00  0.00     0.000 HD 
ENDBRANCH  18  26
ENDBRANCH   5   6
ENDBRANCH   4   5
BRANCH   4  29
HETATM   29  C   UNL     1      -9.539  15.180  65.664  1.00  0.00    -0.260 C  
HETATM   30  C   UNL     1     -10.349  15.963  66.710  1.00  0.00    -0.298 C  
HETATM   31  C   UNL     1      -8.365  14.565  66.466  1.00  0.00     0.253 C  
ENDBRANCH   4  29
ENDBRANCH   2   4
TORSDOF 7
ENDMDL
MODEL      215
REMARK 921   NORMALIZED FREE ENERGY PREDICTED BY IDOCK:   47.12 KCAL/MOL
REMARK 922        TOTAL FREE ENERGY PREDICTED BY IDOCK:   64.99 KCAL/MOL
REMARK 923 INTER-LIGAND FREE ENERGY PREDICTED BY IDOCK:   63.52 KCAL/MOL
REMARK 924 INTRA-LIGAND FREE ENERGY PREDICTED BY IDOCK:    1.47 KCAL/MOL
REMARK 927      BINDING AFFINITY PREDICTED BY RF-SCORE:    0.00 PKD
ROOT
HETATM    1  C   UNL     1      -9.412  14.346  64.749  1.00  0.00     1.186 C  
HETATM    2  C   UNL     1      -8.435  15.545  64.749  1.00  0.00     6.034 C  
HETATM    3  C   UNL     1      -9.025  16.505  63.703  1.00  0.00    14.102 C  
ENDROOT
BRANCH   2   4
HETATM    4  N   UNL     1      -8.185  16.120  66.115  1.00  0.00    -0.236 NA 
BRANCH   4   5
HETATM    5  C   UNL     1      -8.136  15.079  67.190  1.00  0.00    -0.214 C  
BRANCH   5   6
HETATM    6  C   UNL     1      -9.478  14.752  67.899  1.00  0.00    -0.201 C  
HETATM    7  C   UNL     1      -9.489  14.804  69.469  1.00  0.00     0.079 C  
HETATM    8  C   UNL     1      -8.491  13.801  70.104  1.00  0.00     2.515 A  
HETATM    9  C   UNL     1      -9.408  16.242  70.070  1.00  0.00     0.741 A  
HETATM   10  C   UNL     1      -9.008  17.349  69.311  1.00  0.00     0.198 A  
HETATM   11  C   UNL     1      -8.532  12.403  69.913  1.00  0.00     2.747 A  
HETATM   12  C   UNL     1      -7.640  11.556  70.599  1.00  0.00     3.360 A  
HETATM   13  C   UNL     1      -8.613  18.559  69.880  1.00  0.00     1.391 A  
HETATM   14  C   UNL     1      -9.194  17.689  72.030  1.00  0.00    12.089 A  
HETATM   15  C   UNL     1      -6.669  12.076  71.455  1.00  0.00     4.052 A  
HETATM   16  C   UNL     1      -8.667  18.717  71.251  1.00  0.00     6.382 A  
HETATM   17  C   UNL     1      -7.480  14.280  70.973  1.00  0.00     2.288 A  
HETATM   18  C   UNL     1      -6.580  13.449  71.657  1.00  0.00     2.349 A  
HETATM   19  C   UNL     1      -9.602  16.478  71.446  1.00  0.00     4.993 A  
BRANCH  11  20
HETATM   20  O   UNL     1      -9.543  11.816  69.102  1.00  0.00     0.080 OA 
BRANCH  20  21
HETATM   21  C   UNL     1      -9.254  10.661  68.349  1.00  0.00    -0.159 C  
HETATM   22  O   UNL     1      -8.156  10.344  67.907  1.00  0.00    -0.102 OA 
HETATM   23  C   UNL     1     -10.514   9.830  68.145  1.00  0.00    -0.258 C  
HETATM   24  C   UNL     1     -10.719   8.870  69.316  1.00  0.00    -0.177 C  
HETATM   25  C   UNL     1     -10.417   9.038  66.840  1.00  0.00    -0.293 C  
ENDBRANCH  20  21
ENDBRANCH  11  20
BRANCH  18  26
HETATM   26  C   UNL     1      -5.612  14.014  72.671  1.00  0.00    -0.053 C  
HETATM   27  O   UNL     1      -6.237  14.906  73.589  1.00  0.00     0.725 OA 
HETATM   28  H   UNL     1      -5.629  15.261  74.227  1.00  0.00     0.000 HD 
ENDBRANCH  18  26
ENDBRANCH   5   6
ENDBRANCH   4   5
BRANCH   4  29
HETATM   29  C   UNL     1      -7.061  17.095  66.260  1.00  0.00    -0.245 C  
HETATM   30  C   UNL     1      -7.047  18.246  65.241  1.00  0.00     0.339 C  
HETATM   31  C   UNL     1      -7.064  17.800  67.638  1.00  0.00    -0.194 C  
ENDBRANCH   4  29
ENDBRANCH   2   4
TORSDOF 7
ENDMDL
MODEL      216
REMARK 921   NORMALIZED FREE ENERGY PREDICTED BY IDOCK:   63.24 KCAL/MOL
REMARK 922        TOTAL FREE ENERGY PREDICTED BY IDOCK:   87.72 KCAL/MOL
REMARK 923 INTER-LIGAND FREE ENERGY PREDICTED BY IDOCK:   89.13 KCAL/MOL
REMARK 924 INTRA-LIGAND FREE ENERGY PREDICTED BY IDOCK:   -1.41 KCAL/MOL
REMARK 927      BINDING AFFINITY PREDICTED BY RF-SCORE:    0.00 PKD
ROOT
HETATM    1  C   UNL     1      -7.981  19.043  66.288  1.00  0.00    -0.302 C  
HETATM    2  C   UNL     1      -8.542  17.639  66.622  1.00  0.00    -0.257 C  
HETATM    3  C   UNL     1      -8.194  16.797  65.384  1.00  0.00     1.732 C  
ENDROOT
BRANCH   2   4
HETATM    4  N   UNL     1      -8.075  17.103  67.946  1.00  0.00    -0.197 NA 
BRANCH   4   5
HETATM    5  C   UNL     1      -9.186  16.547  68.780  1.00  0.00    -0.252 C  
BRANCH   5   6
HETATM    6  C   UNL     1     -10.204  15.626  68.053  1.00  0.00    -0.227 C  
HETATM    7  C   UNL     1     -11.276  14.901  68.942  1.00  0.00    -0.282 C  
HETATM    8  C   UNL     1     -10.633  13.964  70.000  1.00  0.00     0.628 A  
HETATM    9  C   UNL     1     -12.383  15.838  69.518  1.00  0.00    -0.084 A  
HETATM   10  C   UNL     1     -12.247  17.231  69.540  1.00  0.00     3.815 A  
HETATM   11  C   UNL     1      -9.797  12.869  69.696  1.00  0.00     1.526 A  
HETATM   12  C   UNL     1      -9.328  12.017  70.715  1.00  0.00     7.695 A  
HETATM   13  C   UNL     1     -13.045  18.062  70.325  1.00  0.00    17.118 A  
HETATM   14  C   UNL     1     -14.323  16.148  70.974  1.00  0.00     2.236 A  
HETATM   15  C   UNL     1      -9.646  12.252  72.053  1.00  0.00    18.458 A  
HETATM   16  C   UNL     1     -14.064  17.512  71.080  1.00  0.00    15.460 A  
HETATM   17  C   UNL     1     -10.917  14.167  71.373  1.00  0.00     1.760 A  
HETATM   18  C   UNL     1     -10.451  13.332  72.399  1.00  0.00    10.294 A  
HETATM   19  C   UNL     1     -13.521  15.321  70.169  1.00  0.00     0.343 A  
BRANCH  11  20
HETATM   20  O   UNL     1      -9.496  12.547  68.344  1.00  0.00    -0.214 OA 
BRANCH  20  21
HETATM   21  C   UNL     1     -10.270  11.586  67.664  1.00  0.00    -0.184 C  
HETATM   22  O   UNL     1     -10.365  10.399  67.954  1.00  0.00    -0.170 OA 
HETATM   23  C   UNL     1     -10.997  12.224  66.488  1.00  0.00    -0.320 C  
HETATM   24  C   UNL     1     -12.335  12.810  66.937  1.00  0.00     0.116 C  
HETATM   25  C   UNL     1     -11.232  11.186  65.388  1.00  0.00     0.021 C  
ENDBRANCH  20  21
ENDBRANCH  11  20
BRANCH  18  26
HETATM   26  C   UNL     1     -10.898  13.527  73.829  1.00  0.00     8.387 C  
HETATM   27  O   UNL     1     -10.674  14.852  74.299  1.00  0.00     2.415 OA 
HETATM   28  H   UNL     1     -10.955  14.975  75.198  1.00  0.00     0.000 HD 
ENDBRANCH  18  26
ENDBRANCH   5   6
ENDBRANCH   4   5
BRANCH   4  29
HETATM   29  C   UNL     1      -6.895  16.185  67.942  1.00  0.00    -0.137 C  
HETATM   30  C   UNL     1      -5.542  16.842  68.261  1.00  0.00    -0.122 C  
HETATM   31  C   UNL     1      -7.027  15.048  68.986  1.00  0.00    -0.127 C  
ENDBRANCH   4  29
ENDBRANCH   2   4
TORSDOF 7
ENDMDL
MODEL      217
REMARK 921   NORMALIZED FREE ENERGY PREDICTED BY IDOCK:   64.25 KCAL/MOL
REMARK 922        TOTAL FREE ENERGY PREDICTED BY IDOCK:   89.13 KCAL/MOL
REMARK 923 INTER-LIGAND FREE ENERGY PREDICTED BY IDOCK:   88.71 KCAL/MOL
REMARK 924 INTRA-LIGAND FREE ENERGY PREDICTED BY IDOCK:    0.42 KCAL/MOL
REMARK 927      BINDING AFFINITY PREDICTED BY RF-SCORE:    0.00 PKD
ROOT
HETATM    1  C   UNL     1     -11.770  16.150  69.504  1.00  0.00    -0.198 C  
HETATM    2  C   UNL     1     -11.251  16.604  68.119  1.00  0.00    -0.202 C  
HETATM    3  C   UNL     1     -12.128  17.819  67.774  1.00  0.00     2.764 C  
ENDROOT
BRANCH   2   4
HETATM    4  N   UNL     1      -9.764  16.820  68.073  1.00  0.00    -0.238 NA 
BRANCH   4   5
HETATM    5  C   UNL     1      -8.991  15.550  67.900  1.00  0.00    -0.173 C  
BRANCH   5   6
HETATM    6  C   UNL     1      -7.458  15.636  68.130  1.00  0.00    -0.129 C  
HETATM    7  C   UNL     1      -6.836  14.658  69.189  1.00  0.00    -0.126 C  
HETATM    8  C   UNL     1      -7.426  14.868  70.609  1.00  0.00     0.981 A  
HETATM    9  C   UNL     1      -6.786  13.163  68.742  1.00  0.00    -0.102 A  
HETATM   10  C   UNL     1      -7.535  12.680  67.662  1.00  0.00    -0.143 A  
HETATM   11  C   UNL     1      -7.355  16.078  71.333  1.00  0.00     4.330 A  
HETATM   12  C   UNL     1      -7.839  16.156  72.653  1.00  0.00    12.984 A  
HETATM   13  C   UNL     1      -7.767  11.323  67.443  1.00  0.00    -0.128 A  
HETATM   14  C   UNL     1      -6.325  10.824  69.283  1.00  0.00    -0.061 A  
HETATM   15  C   UNL     1      -8.434  15.054  73.268  1.00  0.00     9.718 A  
HETATM   16  C   UNL     1      -7.192  10.390  68.284  1.00  0.00    -0.083 A  
HETATM   17  C   UNL     1      -8.048  13.783  71.273  1.00  0.00     6.431 A  
HETATM   18  C   UNL     1      -8.542  13.848  72.584  1.00  0.00    11.276 A  
HETATM   19  C   UNL     1      -6.086  12.193  69.488  1.00  0.00    -0.117 A  
BRANCH  11  20
HETATM   20  O   UNL     1      -6.701  17.213  70.778  1.00  0.00     1.447 OA 
BRANCH  20  21
HETATM   21  C   UNL     1      -6.531  18.374  71.557  1.00  0.00     2.401 C  
HETATM   22  O   UNL     1      -6.027  18.427  72.673  1.00  0.00     0.936 OA 
HETATM   23  C   UNL     1      -7.067  19.593  70.817  1.00  0.00     0.727 C  
HETATM   24  C   UNL     1      -5.990  20.188  69.911  1.00  0.00    -0.386 C  
HETATM   25  C   UNL     1      -7.539  20.650  71.818  1.00  0.00     2.235 C  
ENDBRANCH  20  21
ENDBRANCH  11  20
BRANCH  18  26
HETATM   26  C   UNL     1      -9.076  12.617  73.280  1.00  0.00    22.957 C  
HETATM   27  O   UNL     1     -10.420  12.775  73.722  1.00  0.00    12.519 OA 
HETATM   28  H   UNL     1     -10.755  12.002  74.159  1.00  0.00     0.000 HD 
ENDBRANCH  18  26
ENDBRANCH   5   6
ENDBRANCH   4   5
BRANCH   4  29
HETATM   29  C   UNL     1      -9.250  17.890  67.165  1.00  0.00    -0.258 C  
HETATM   30  C   UNL     1      -9.209  19.305  67.765  1.00  0.00    -0.367 C  
HETATM   31  C   UNL     1      -7.795  17.625  66.704  1.00  0.00    -0.283 C  
ENDBRANCH   4  29
ENDBRANCH   2   4
TORSDOF 7
ENDMDL
