MODEL        1
REMARK 921   NORMALIZED FREE ENERGY PREDICTED BY IDOCK:   -7.69 KCAL/MOL
REMARK 922        TOTAL FREE ENERGY PREDICTED BY IDOCK:  -12.74 KCAL/MOL
REMARK 923 INTER-LIGAND FREE ENERGY PREDICTED BY IDOCK:  -10.39 KCAL/MOL
REMARK 924 INTRA-LIGAND FREE ENERGY PREDICTED BY IDOCK:   -2.35 KCAL/MOL
REMARK 927      BINDING AFFINITY PREDICTED BY RF-SCORE:    0.00 PKD
ROOT
HETATM    1  C   UNL     1     -11.120   9.845  70.647  1.00  0.00    -0.409 C  
HETATM    2  C   UNL     1     -10.037   8.940  70.014  1.00  0.00    -0.207 C  
HETATM    3  C   UNL     1     -10.566   7.492  70.029  1.00  0.00    -0.237 C  
HETATM    4  O   UNL     1     -11.669   7.154  70.437  1.00  0.00    -0.289 OA 
HETATM    5  C   UNL     1      -8.774   8.971  70.896  1.00  0.00    -0.280 C  
HETATM    6  O   UNL     1      -9.697   6.570  69.542  1.00  0.00    -0.151 OA 
ENDROOT
BRANCH   2   7
HETATM    7  C   UNL     1      -9.737   9.485  68.609  1.00  0.00    -0.163 A  
HETATM    8  C   UNL     1     -10.695   9.358  67.586  1.00  0.00    -0.295 A  
HETATM    9  C   UNL     1     -10.396   9.698  66.267  1.00  0.00    -0.230 A  
HETATM   10  C   UNL     1      -9.136  10.212  65.941  1.00  0.00    -0.190 A  
HETATM   11  C   UNL     1      -8.493  10.034  68.274  1.00  0.00    -0.111 A  
HETATM   12  C   UNL     1      -8.212  10.425  66.969  1.00  0.00    -0.123 A  
BRANCH  10  13
HETATM   13  C   UNL     1      -8.754  10.455  64.500  1.00  0.00    -0.194 C  
HETATM   14  O   UNL     1      -8.005   9.329  64.065  1.00  0.00    -0.123 OA 
HETATM   15  H   UNL     1      -7.764   9.482  63.158  1.00  0.00     0.000 HD 
BRANCH  13  16
HETATM   16  C   UNL     1     -10.013  10.721  63.653  1.00  0.00    -0.405 C  
BRANCH  16  17
HETATM   17  C   UNL     1     -10.318  12.199  63.394  1.00  0.00    -0.438 C  
BRANCH  17  18
HETATM   18  C   UNL     1     -11.778  12.608  63.632  1.00  0.00    -0.522 C  
BRANCH  18  19
HETATM   19  N   UNL     1     -11.915  13.868  64.383  1.00  0.00    -0.432 NA 
HETATM   20  C   UNL     1     -12.771  13.751  65.568  1.00  0.00    -0.488 C  
HETATM   21  C   UNL     1     -12.127  13.004  66.742  1.00  0.00    -0.366 C  
HETATM   22  C   UNL     1     -10.744  13.558  67.173  1.00  0.00    -0.282 C  
HETATM   23  C   UNL     1     -10.825  14.845  68.100  1.00  0.00    -0.256 C  
HETATM   24  C   UNL     1      -9.899  13.700  65.880  1.00  0.00    -0.263 C  
HETATM   25  C   UNL     1      -9.413  15.395  68.398  1.00  0.00    -0.200 A  
HETATM   26  C   UNL     1     -11.646  14.626  69.402  1.00  0.00    -0.342 A  
HETATM   27  C   UNL     1     -10.612  14.443  64.747  1.00  0.00    -0.393 C  
HETATM   28  O   UNL     1     -11.517  15.859  67.349  1.00  0.00    -0.134 OA 
HETATM   29  C   UNL     1      -8.849  16.403  67.587  1.00  0.00    -0.191 A  
HETATM   30  C   UNL     1     -11.822  13.362  69.998  1.00  0.00    -0.364 A  
HETATM   31  H   UNL     1     -11.566  16.629  67.903  1.00  0.00     0.000 HD 
HETATM   32  C   UNL     1     -12.650  13.191  71.113  1.00  0.00    -0.403 A  
HETATM   33  C   UNL     1      -7.549  16.870  67.792  1.00  0.00    -0.180 A  
HETATM   34  C   UNL     1     -13.299  14.283  71.679  1.00  0.00    -0.442 A  
HETATM   35  C   UNL     1      -6.784  16.355  68.832  1.00  0.00    -0.174 A  
HETATM   36  C   UNL     1      -7.318  15.371  69.658  1.00  0.00    -0.177 A  
HETATM   37  C   UNL     1     -13.098  15.552  71.148  1.00  0.00    -0.573 A  
HETATM   38  C   UNL     1      -8.615  14.887  69.438  1.00  0.00    -0.054 A  
HETATM   39  C   UNL     1     -12.271  15.724  70.033  1.00  0.00    -0.309 A  
ENDBRANCH  18  19
ENDBRANCH  17  18
ENDBRANCH  16  17
ENDBRANCH  13  16
ENDBRANCH  10  13
ENDBRANCH   2   7
TORSDOF 6
ENDMDL
MODEL        2
REMARK 921   NORMALIZED FREE ENERGY PREDICTED BY IDOCK:   -7.15 KCAL/MOL
REMARK 922        TOTAL FREE ENERGY PREDICTED BY IDOCK:  -12.01 KCAL/MOL
REMARK 923 INTER-LIGAND FREE ENERGY PREDICTED BY IDOCK:   -9.04 KCAL/MOL
REMARK 924 INTRA-LIGAND FREE ENERGY PREDICTED BY IDOCK:   -2.98 KCAL/MOL
REMARK 927      BINDING AFFINITY PREDICTED BY RF-SCORE:    0.00 PKD
ROOT
HETATM    1  C   UNL     1      -7.676   7.659  67.847  1.00  0.00    -0.115 C  
HETATM    2  C   UNL     1      -8.563   6.395  67.766  1.00  0.00    -0.116 C  
HETATM    3  C   UNL     1      -7.630   5.169  67.687  1.00  0.00    -0.087 C  
HETATM    4  O   UNL     1      -6.408   5.217  67.727  1.00  0.00    -0.037 OA 
HETATM    5  C   UNL     1      -9.376   6.430  66.457  1.00  0.00    -0.181 C  
HETATM    6  O   UNL     1      -8.272   3.979  67.564  1.00  0.00    -0.094 OA 
ENDROOT
BRANCH   2   7
HETATM    7  C   UNL     1      -9.494   6.398  68.988  1.00  0.00    -0.131 A  
HETATM    8  C   UNL     1     -10.877   6.200  68.819  1.00  0.00    -0.402 A  
HETATM    9  C   UNL     1     -11.766   6.352  69.883  1.00  0.00    -0.309 A  
HETATM   10  C   UNL     1     -11.289   6.672  71.158  1.00  0.00    -0.355 A  
HETATM   11  C   UNL     1      -9.027   6.681  70.277  1.00  0.00    -0.152 A  
HETATM   12  C   UNL     1      -9.907   6.780  71.351  1.00  0.00    -0.188 A  
BRANCH  10  13
HETATM   13  C   UNL     1     -12.248   6.972  72.286  1.00  0.00    -0.136 C  
HETATM   14  O   UNL     1     -11.476   7.441  73.384  1.00  0.00    -0.593 OA 
HETATM   15  H   UNL     1     -12.079   7.629  74.093  1.00  0.00     0.000 HD 
BRANCH  13  16
HETATM   16  C   UNL     1     -13.322   7.973  71.818  1.00  0.00    -0.370 C  
BRANCH  16  17
HETATM   17  C   UNL     1     -12.975   9.447  72.045  1.00  0.00    -0.508 C  
BRANCH  17  18
HETATM   18  C   UNL     1     -12.918  10.300  70.770  1.00  0.00    -0.330 C  
BRANCH  18  19
HETATM   19  N   UNL     1     -11.591  10.890  70.523  1.00  0.00    -0.328 NA 
HETATM   20  C   UNL     1     -10.713  10.035  69.718  1.00  0.00    -0.271 C  
HETATM   21  C   UNL     1     -11.076   9.977  68.230  1.00  0.00    -0.247 C  
HETATM   22  C   UNL     1     -11.194  11.365  67.545  1.00  0.00    -0.356 C  
HETATM   23  C   UNL     1      -9.799  11.999  67.129  1.00  0.00    -0.196 C  
HETATM   24  C   UNL     1     -12.095  12.236  68.457  1.00  0.00    -0.124 C  
HETATM   25  C   UNL     1      -9.992  13.418  66.552  1.00  0.00    -0.286 A  
HETATM   26  C   UNL     1      -8.962  11.097  66.177  1.00  0.00    -0.205 A  
HETATM   27  C   UNL     1     -11.681  12.233  69.931  1.00  0.00    -0.273 C  
HETATM   28  O   UNL     1      -9.028  12.140  68.335  1.00  0.00    -0.206 OA 
HETATM   29  C   UNL     1      -9.900  14.552  67.388  1.00  0.00    -0.227 A  
HETATM   30  C   UNL     1      -9.537  10.133  65.326  1.00  0.00    -0.338 A  
HETATM   31  H   UNL     1      -8.193  12.520  68.087  1.00  0.00     0.000 HD 
HETATM   32  C   UNL     1      -8.744   9.273  64.558  1.00  0.00    -0.218 A  
HETATM   33  C   UNL     1     -10.138  15.840  66.907  1.00  0.00    -0.267 A  
HETATM   34  C   UNL     1      -7.358   9.375  64.597  1.00  0.00    -0.104 A  
HETATM   35  C   UNL     1     -10.453  16.033  65.566  1.00  0.00    -0.426 A  
HETATM   36  C   UNL     1     -10.537  14.936  64.714  1.00  0.00    -0.336 A  
HETATM   37  C   UNL     1      -6.763  10.356  65.384  1.00  0.00    -0.113 A  
HETATM   38  C   UNL     1     -10.319  13.640  65.203  1.00  0.00    -0.381 A  
HETATM   39  C   UNL     1      -7.555  11.216  66.152  1.00  0.00    -0.032 A  
ENDBRANCH  18  19
ENDBRANCH  17  18
ENDBRANCH  16  17
ENDBRANCH  13  16
ENDBRANCH  10  13
ENDBRANCH   2   7
TORSDOF 6
ENDMDL
MODEL        3
REMARK 921   NORMALIZED FREE ENERGY PREDICTED BY IDOCK:   -7.14 KCAL/MOL
REMARK 922        TOTAL FREE ENERGY PREDICTED BY IDOCK:  -12.00 KCAL/MOL
REMARK 923 INTER-LIGAND FREE ENERGY PREDICTED BY IDOCK:  -10.31 KCAL/MOL
REMARK 924 INTRA-LIGAND FREE ENERGY PREDICTED BY IDOCK:   -1.69 KCAL/MOL
REMARK 927      BINDING AFFINITY PREDICTED BY RF-SCORE:    0.00 PKD
ROOT
HETATM    1  C   UNL     1     -10.872  17.904  67.912  1.00  0.00    -0.225 C  
HETATM    2  C   UNL     1     -10.076  16.610  68.201  1.00  0.00    -0.267 C  
HETATM    3  C   UNL     1     -10.358  16.200  69.661  1.00  0.00    -0.271 C  
HETATM    4  O   UNL     1     -11.116  16.790  70.419  1.00  0.00    -0.196 OA 
HETATM    5  C   UNL     1      -8.569  16.910  68.097  1.00  0.00    -0.221 C  
HETATM    6  O   UNL     1      -9.686  15.096  70.075  1.00  0.00    -0.122 OA 
ENDROOT
BRANCH   2   7
HETATM    7  C   UNL     1     -10.498  15.561  67.161  1.00  0.00    -0.286 A  
HETATM    8  C   UNL     1      -9.760  15.412  65.972  1.00  0.00    -0.370 A  
HETATM    9  C   UNL     1     -10.204  14.583  64.943  1.00  0.00    -0.338 A  
HETATM   10  C   UNL     1     -11.385  13.848  65.090  1.00  0.00    -0.319 A  
HETATM   11  C   UNL     1     -11.659  14.791  67.309  1.00  0.00    -0.385 A  
HETATM   12  C   UNL     1     -12.074  13.923  66.305  1.00  0.00    -0.484 A  
BRANCH  10  13
HETATM   13  C   UNL     1     -11.947  13.054  63.934  1.00  0.00    -0.485 C  
HETATM   14  O   UNL     1     -12.484  13.985  63.004  1.00  0.00    -1.101 OA 
HETATM   15  H   UNL     1     -12.838  13.486  62.277  1.00  0.00     0.000 HD 
BRANCH  13  16
HETATM   16  C   UNL     1     -10.858  12.144  63.334  1.00  0.00    -0.474 C  
BRANCH  16  17
HETATM   17  C   UNL     1     -10.624  10.833  64.090  1.00  0.00    -0.203 C  
BRANCH  17  18
HETATM   18  C   UNL     1      -9.296  10.757  64.855  1.00  0.00    -0.222 C  
BRANCH  18  19
HETATM   19  N   UNL     1      -9.394  11.241  66.242  1.00  0.00    -0.200 NA 
HETATM   20  C   UNL     1     -10.527  10.673  66.980  1.00  0.00    -0.243 C  
HETATM   21  C   UNL     1     -10.340   9.210  67.398  1.00  0.00    -0.330 C  
HETATM   22  C   UNL     1      -9.034   8.931  68.187  1.00  0.00    -0.137 C  
HETATM   23  C   UNL     1      -9.119   9.308  69.727  1.00  0.00    -0.177 C  
HETATM   24  C   UNL     1      -7.881   9.587  67.386  1.00  0.00    -0.102 C  
HETATM   25  C   UNL     1      -7.753   9.100  70.418  1.00  0.00    -0.132 A  
HETATM   26  C   UNL     1     -10.266   8.582  70.486  1.00  0.00    -0.220 A  
HETATM   27  C   UNL     1      -8.144  11.043  66.991  1.00  0.00    -0.136 C  
HETATM   28  O   UNL     1      -9.412  10.715  69.798  1.00  0.00    -0.415 OA 
HETATM   29  C   UNL     1      -6.836  10.167  70.531  1.00  0.00    -0.084 A  
HETATM   30  C   UNL     1     -10.805   7.349  70.071  1.00  0.00    -0.266 A  
HETATM   31  H   UNL     1      -9.462  10.941  70.719  1.00  0.00     0.000 HD 
HETATM   32  C   UNL     1     -11.903   6.777  70.722  1.00  0.00    -0.446 A  
HETATM   33  C   UNL     1      -5.569   9.990  71.089  1.00  0.00    -0.076 A  
HETATM   34  C   UNL     1     -12.471   7.407  71.824  1.00  0.00    -0.367 A  
HETATM   35  C   UNL     1      -5.191   8.741  71.572  1.00  0.00    -0.036 A  
HETATM   36  C   UNL     1      -6.080   7.674  71.488  1.00  0.00    -0.035 A  
HETATM   37  C   UNL     1     -11.924   8.597  72.293  1.00  0.00    -0.438 A  
HETATM   38  C   UNL     1      -7.344   7.847  70.907  1.00  0.00    -0.057 A  
HETATM   39  C   UNL     1     -10.827   9.170  71.642  1.00  0.00    -0.442 A  
ENDBRANCH  18  19
ENDBRANCH  17  18
ENDBRANCH  16  17
ENDBRANCH  13  16
ENDBRANCH  10  13
ENDBRANCH   2   7
TORSDOF 6
ENDMDL
MODEL        4
REMARK 921   NORMALIZED FREE ENERGY PREDICTED BY IDOCK:   -7.08 KCAL/MOL
REMARK 922        TOTAL FREE ENERGY PREDICTED BY IDOCK:  -11.92 KCAL/MOL
REMARK 923 INTER-LIGAND FREE ENERGY PREDICTED BY IDOCK:  -10.72 KCAL/MOL
REMARK 924 INTRA-LIGAND FREE ENERGY PREDICTED BY IDOCK:   -1.20 KCAL/MOL
REMARK 927      BINDING AFFINITY PREDICTED BY RF-SCORE:    0.00 PKD
ROOT
HETATM    1  C   UNL     1     -11.157  16.388  65.163  1.00  0.00    -0.176 C  
HETATM    2  C   UNL     1     -10.307  15.428  66.027  1.00  0.00    -0.339 C  
HETATM    3  C   UNL     1      -8.881  16.009  66.114  1.00  0.00    -0.331 C  
HETATM    4  O   UNL     1      -8.526  17.068  65.612  1.00  0.00    -0.437 OA 
HETATM    5  C   UNL     1     -10.199  14.067  65.313  1.00  0.00    -0.383 C  
HETATM    6  O   UNL     1      -8.002  15.244  66.809  1.00  0.00    -0.200 OA 
ENDROOT
BRANCH   2   7
HETATM    7  C   UNL     1     -11.008  15.278  67.386  1.00  0.00    -0.321 A  
HETATM    8  C   UNL     1     -11.033  16.359  68.287  1.00  0.00    -0.355 A  
HETATM    9  C   UNL     1     -11.521  16.210  69.584  1.00  0.00    -0.290 A  
HETATM   10  C   UNL     1     -12.033  14.979  70.006  1.00  0.00    -0.375 A  
HETATM   11  C   UNL     1     -11.557  14.062  67.810  1.00  0.00    -0.378 A  
HETATM   12  C   UNL     1     -12.093  13.926  69.087  1.00  0.00    -0.377 A  
BRANCH  10  13
HETATM   13  C   UNL     1     -12.438  14.766  71.446  1.00  0.00    -0.336 C  
HETATM   14  O   UNL     1     -12.355  16.025  72.099  1.00  0.00    -0.445 OA 
HETATM   15  H   UNL     1     -12.609  15.892  73.005  1.00  0.00     0.000 HD 
BRANCH  13  16
HETATM   16  C   UNL     1     -13.838  14.127  71.517  1.00  0.00    -0.385 C  
BRANCH  16  17
HETATM   17  C   UNL     1     -13.891  12.761  72.207  1.00  0.00    -0.395 C  
BRANCH  17  18
HETATM   18  C   UNL     1     -12.712  11.831  71.889  1.00  0.00    -0.110 C  
BRANCH  18  19
HETATM   19  N   UNL     1     -13.130  10.513  71.382  1.00  0.00    -0.408 NA 
HETATM   20  C   UNL     1     -12.633  10.223  70.033  1.00  0.00     0.006 C  
HETATM   21  C   UNL     1     -11.139   9.887  69.968  1.00  0.00    -0.335 C  
HETATM   22  C   UNL     1     -10.697   8.747  70.923  1.00  0.00    -0.282 C  
HETATM   23  C   UNL     1     -10.999   7.289  70.371  1.00  0.00    -0.252 C  
HETATM   24  C   UNL     1     -11.283   9.083  72.318  1.00  0.00    -0.160 C  
HETATM   25  C   UNL     1     -10.626   6.218  71.419  1.00  0.00    -0.284 A  
HETATM   26  C   UNL     1     -10.346   6.997  68.990  1.00  0.00    -0.208 A  
HETATM   27  C   UNL     1     -12.775   9.423  72.303  1.00  0.00    -0.341 C  
HETATM   28  O   UNL     1     -12.421   7.203  70.173  1.00  0.00    -0.497 OA 
HETATM   29  C   UNL     1     -11.595   5.733  72.325  1.00  0.00    -0.300 A  
HETATM   30  C   UNL     1      -9.193   7.660  68.527  1.00  0.00    -0.143 A  
HETATM   31  H   UNL     1     -12.603   6.331  69.843  1.00  0.00     0.000 HD 
HETATM   32  C   UNL     1      -8.693   7.441  67.239  1.00  0.00    -0.121 A  
HETATM   33  C   UNL     1     -11.270   4.817  73.326  1.00  0.00    -0.421 A  
HETATM   34  C   UNL     1      -9.315   6.531  66.391  1.00  0.00    -0.175 A  
HETATM   35  C   UNL     1      -9.968   4.341  73.435  1.00  0.00    -0.176 A  
HETATM   36  C   UNL     1      -8.995   4.789  72.547  1.00  0.00    -0.135 A  
HETATM   37  C   UNL     1     -10.421   5.818  66.841  1.00  0.00    -0.348 A  
HETATM   38  C   UNL     1      -9.317   5.727  71.556  1.00  0.00    -0.163 A  
HETATM   39  C   UNL     1     -10.922   6.037  68.128  1.00  0.00    -0.340 A  
ENDBRANCH  18  19
ENDBRANCH  17  18
ENDBRANCH  16  17
ENDBRANCH  13  16
ENDBRANCH  10  13
ENDBRANCH   2   7
TORSDOF 6
ENDMDL
MODEL        5
REMARK 921   NORMALIZED FREE ENERGY PREDICTED BY IDOCK:   -7.06 KCAL/MOL
REMARK 922        TOTAL FREE ENERGY PREDICTED BY IDOCK:  -11.89 KCAL/MOL
REMARK 923 INTER-LIGAND FREE ENERGY PREDICTED BY IDOCK:  -10.86 KCAL/MOL
REMARK 924 INTRA-LIGAND FREE ENERGY PREDICTED BY IDOCK:   -1.03 KCAL/MOL
REMARK 927      BINDING AFFINITY PREDICTED BY RF-SCORE:    0.00 PKD
ROOT
HETATM    1  C   UNL     1     -11.760  15.227  72.421  1.00  0.00    -0.538 C  
HETATM    2  C   UNL     1     -12.504  14.804  71.133  1.00  0.00    -0.397 C  
HETATM    3  C   UNL     1     -11.717  15.363  69.930  1.00  0.00    -0.336 C  
HETATM    4  O   UNL     1     -10.670  15.991  70.010  1.00  0.00    -0.304 OA 
HETATM    5  C   UNL     1     -13.895  15.466  71.112  1.00  0.00    -0.452 C  
HETATM    6  O   UNL     1     -12.280  15.109  68.721  1.00  0.00    -0.204 OA 
ENDROOT
BRANCH   2   7
HETATM    7  C   UNL     1     -12.626  13.273  71.146  1.00  0.00    -0.412 A  
HETATM    8  C   UNL     1     -13.509  12.646  72.044  1.00  0.00    -0.516 A  
HETATM    9  C   UNL     1     -13.530  11.259  72.191  1.00  0.00    -0.197 A  
HETATM   10  C   UNL     1     -12.690  10.456  71.413  1.00  0.00    -0.551 A  
HETATM   11  C   UNL     1     -11.816  12.455  70.348  1.00  0.00    -0.249 A  
HETATM   12  C   UNL     1     -11.875  11.069  70.455  1.00  0.00    -0.460 A  
BRANCH  10  13
HETATM   13  C   UNL     1     -12.604   8.968  71.657  1.00  0.00    -0.348 C  
HETATM   14  O   UNL     1     -13.631   8.354  70.890  1.00  0.00    -0.509 OA 
HETATM   15  H   UNL     1     -13.578   7.418  71.044  1.00  0.00     0.000 HD 
BRANCH  13  16
HETATM   16  C   UNL     1     -11.192   8.453  71.318  1.00  0.00    -0.309 C  
BRANCH  16  17
HETATM   17  C   UNL     1     -11.090   7.657  70.014  1.00  0.00    -0.201 C  
BRANCH  17  18
HETATM   18  C   UNL     1      -9.723   7.007  69.759  1.00  0.00    -0.168 C  
BRANCH  18  19
HETATM   19  N   UNL     1      -9.083   7.465  68.514  1.00  0.00    -0.137 NA 
HETATM   20  C   UNL     1     -10.039   7.923  67.501  1.00  0.00    -0.213 C  
HETATM   21  C   UNL     1     -10.670   9.288  67.797  1.00  0.00    -0.270 C  
HETATM   22  C   UNL     1      -9.647  10.421  68.072  1.00  0.00    -0.156 C  
HETATM   23  C   UNL     1      -9.016  11.052  66.758  1.00  0.00    -0.157 C  
HETATM   24  C   UNL     1      -8.640   9.869  69.114  1.00  0.00    -0.157 C  
HETATM   25  C   UNL     1      -7.935  12.096  67.116  1.00  0.00    -0.170 A  
HETATM   26  C   UNL     1     -10.073  11.630  65.774  1.00  0.00    -0.278 A  
HETATM   27  C   UNL     1      -8.063   8.496  68.759  1.00  0.00    -0.120 C  
HETATM   28  O   UNL     1      -8.351   9.986  66.059  1.00  0.00    -0.120 OA 
HETATM   29  C   UNL     1      -6.577  11.720  67.207  1.00  0.00    -0.132 A  
HETATM   30  C   UNL     1     -11.345  12.074  66.184  1.00  0.00    -0.407 A  
HETATM   31  H   UNL     1      -7.974  10.363  65.273  1.00  0.00     0.000 HD 
HETATM   32  C   UNL     1     -12.305  12.495  65.256  1.00  0.00    -0.469 A  
HETATM   33  C   UNL     1      -5.589  12.626  67.595  1.00  0.00    -0.130 A  
HETATM   34  C   UNL     1     -12.006  12.511  63.897  1.00  0.00    -0.563 A  
HETATM   35  C   UNL     1      -5.930  13.944  67.882  1.00  0.00    -0.143 A  
HETATM   36  C   UNL     1      -7.258  14.347  67.787  1.00  0.00    -0.188 A  
HETATM   37  C   UNL     1     -10.738  12.134  63.468  1.00  0.00    -0.509 A  
HETATM   38  C   UNL     1      -8.253  13.431  67.419  1.00  0.00    -0.188 A  
HETATM   39  C   UNL     1      -9.779  11.713  64.395  1.00  0.00    -0.199 A  
ENDBRANCH  18  19
ENDBRANCH  17  18
ENDBRANCH  16  17
ENDBRANCH  13  16
ENDBRANCH  10  13
ENDBRANCH   2   7
TORSDOF 6
ENDMDL
MODEL        6
REMARK 921   NORMALIZED FREE ENERGY PREDICTED BY IDOCK:   -6.92 KCAL/MOL
REMARK 922        TOTAL FREE ENERGY PREDICTED BY IDOCK:  -11.70 KCAL/MOL
REMARK 923 INTER-LIGAND FREE ENERGY PREDICTED BY IDOCK:  -10.31 KCAL/MOL
REMARK 924 INTRA-LIGAND FREE ENERGY PREDICTED BY IDOCK:   -1.39 KCAL/MOL
REMARK 927      BINDING AFFINITY PREDICTED BY RF-SCORE:    0.00 PKD
ROOT
HETATM    1  C   UNL     1      -8.053   8.552  68.403  1.00  0.00    -0.122 C  
HETATM    2  C   UNL     1      -9.534   8.336  68.016  1.00  0.00    -0.153 C  
HETATM    3  C   UNL     1      -9.823   6.823  68.087  1.00  0.00    -0.137 C  
HETATM    4  O   UNL     1      -9.015   5.972  68.434  1.00  0.00    -0.115 OA 
HETATM    5  C   UNL     1      -9.742   8.768  66.551  1.00  0.00    -0.328 C  
HETATM    6  O   UNL     1     -11.084   6.472  67.726  1.00  0.00    -0.313 OA 
ENDROOT
BRANCH   2   7
HETATM    7  C   UNL     1     -10.394   9.185  68.964  1.00  0.00    -0.229 A  
HETATM    8  C   UNL     1     -10.463   8.860  70.332  1.00  0.00    -0.245 A  
HETATM    9  C   UNL     1     -11.351   9.510  71.187  1.00  0.00    -0.440 A  
HETATM   10  C   UNL     1     -12.173  10.534  70.703  1.00  0.00    -0.446 A  
HETATM   11  C   UNL     1     -11.196  10.236  68.502  1.00  0.00    -0.271 A  
HETATM   12  C   UNL     1     -12.044  10.922  69.365  1.00  0.00    -0.362 A  
BRANCH  10  13
HETATM   13  C   UNL     1     -13.233  11.151  71.584  1.00  0.00    -0.345 C  
HETATM   14  O   UNL     1     -13.705  10.132  72.456  1.00  0.00    -0.608 OA 
HETATM   15  H   UNL     1     -14.373  10.521  73.010  1.00  0.00     0.000 HD 
BRANCH  13  16
HETATM   16  C   UNL     1     -12.663  12.377  72.323  1.00  0.00     0.168 C  
BRANCH  16  17
HETATM   17  C   UNL     1     -13.446  13.677  72.119  1.00  0.00    -0.606 C  
BRANCH  17  18
HETATM   18  C   UNL     1     -12.599  14.955  72.165  1.00  0.00    -0.327 C  
BRANCH  18  19
HETATM   19  N   UNL     1     -12.567  15.680  70.884  1.00  0.00    -0.454 NA 
HETATM   20  C   UNL     1     -11.274  16.314  70.604  1.00  0.00    -0.288 C  
HETATM   21  C   UNL     1     -10.166  15.338  70.194  1.00  0.00    -0.166 C  
HETATM   22  C   UNL     1     -10.537  14.407  69.010  1.00  0.00    -0.245 C  
HETATM   23  C   UNL     1     -10.394  15.091  67.584  1.00  0.00    -0.243 C  
HETATM   24  C   UNL     1     -11.925  13.799  69.339  1.00  0.00    -0.397 C  
HETATM   25  C   UNL     1     -10.879  14.139  66.468  1.00  0.00    -0.298 A  
HETATM   26  C   UNL     1      -8.968  15.639  67.294  1.00  0.00    -0.214 A  
HETATM   27  C   UNL     1     -12.976  14.832  69.754  1.00  0.00     0.268 C  
HETATM   28  O   UNL     1     -11.276  16.228  67.574  1.00  0.00    -0.204 OA 
HETATM   29  C   UNL     1     -12.213  14.192  66.010  1.00  0.00    -0.464 A  
HETATM   30  C   UNL     1      -7.808  15.131  67.910  1.00  0.00    -0.144 A  
HETATM   31  H   UNL     1     -11.190  16.637  66.721  1.00  0.00     0.000 HD 
HETATM   32  C   UNL     1      -6.554  15.716  67.699  1.00  0.00    -0.198 A  
HETATM   33  C   UNL     1     -12.696  13.298  65.053  1.00  0.00    -0.438 A  
HETATM   34  C   UNL     1      -6.424  16.805  66.844  1.00  0.00    -0.243 A  
HETATM   35  C   UNL     1     -11.849  12.338  64.509  1.00  0.00    -0.441 A  
HETATM   36  C   UNL     1     -10.525  12.271  64.931  1.00  0.00    -0.321 A  
HETATM   37  C   UNL     1      -7.542  17.292  66.176  1.00  0.00    -0.318 A  
HETATM   38  C   UNL     1     -10.047  13.155  65.909  1.00  0.00    -0.292 A  
HETATM   39  C   UNL     1      -8.795  16.708  66.387  1.00  0.00    -0.337 A  
ENDBRANCH  18  19
ENDBRANCH  17  18
ENDBRANCH  16  17
ENDBRANCH  13  16
ENDBRANCH  10  13
ENDBRANCH   2   7
TORSDOF 6
ENDMDL
MODEL        7
REMARK 921   NORMALIZED FREE ENERGY PREDICTED BY IDOCK:   -6.90 KCAL/MOL
REMARK 922        TOTAL FREE ENERGY PREDICTED BY IDOCK:  -11.67 KCAL/MOL
REMARK 923 INTER-LIGAND FREE ENERGY PREDICTED BY IDOCK:  -10.03 KCAL/MOL
REMARK 924 INTRA-LIGAND FREE ENERGY PREDICTED BY IDOCK:   -1.65 KCAL/MOL
REMARK 927      BINDING AFFINITY PREDICTED BY RF-SCORE:    0.00 PKD
ROOT
HETATM    1  C   UNL     1      -9.692  13.180  66.379  1.00  0.00    -0.269 C  
HETATM    2  C   UNL     1     -11.103  13.767  66.613  1.00  0.00    -0.316 C  
HETATM    3  C   UNL     1     -11.946  13.481  65.353  1.00  0.00    -0.379 C  
HETATM    4  O   UNL     1     -11.553  12.860  64.375  1.00  0.00    -0.327 OA 
HETATM    5  C   UNL     1     -10.998  15.298  66.751  1.00  0.00    -0.306 C  
HETATM    6  O   UNL     1     -13.207  13.982  65.394  1.00  0.00    -0.761 OA 
ENDROOT
BRANCH   2   7
HETATM    7  C   UNL     1     -11.663  13.139  67.898  1.00  0.00    -0.398 A  
HETATM    8  C   UNL     1     -12.032  13.961  68.980  1.00  0.00    -0.402 A  
HETATM    9  C   UNL     1     -12.394  13.418  70.212  1.00  0.00    -0.354 A  
HETATM   10  C   UNL     1     -12.432  12.030  70.386  1.00  0.00    -0.235 A  
HETATM   11  C   UNL     1     -11.741  11.752  68.076  1.00  0.00    -0.363 A  
HETATM   12  C   UNL     1     -12.154  11.209  69.289  1.00  0.00    -0.377 A  
BRANCH  10  13
HETATM   13  C   UNL     1     -12.689  11.432  71.749  1.00  0.00    -0.254 C  
HETATM   14  O   UNL     1     -13.658  12.248  72.393  1.00  0.00    -0.602 OA 
HETATM   15  H   UNL     1     -13.820  11.872  73.251  1.00  0.00     0.000 HD 
BRANCH  13  16
HETATM   16  C   UNL     1     -13.119   9.959  71.612  1.00  0.00    -0.538 C  
BRANCH  16  17
HETATM   17  C   UNL     1     -12.266   8.961  72.398  1.00  0.00    -0.365 C  
BRANCH  17  18
HETATM   18  C   UNL     1     -12.183   7.557  71.783  1.00  0.00    -0.314 C  
BRANCH  18  19
HETATM   19  N   UNL     1     -10.821   7.183  71.366  1.00  0.00    -0.230 NA 
HETATM   20  C   UNL     1     -10.774   5.960  70.557  1.00  0.00    -0.294 C  
HETATM   21  C   UNL     1     -11.275   6.133  69.119  1.00  0.00    -0.409 C  
HETATM   22  C   UNL     1     -10.588   7.283  68.335  1.00  0.00    -0.209 C  
HETATM   23  C   UNL     1      -9.167   6.899  67.741  1.00  0.00    -0.119 C  
HETATM   24  C   UNL     1     -10.630   8.533  69.251  1.00  0.00    -0.193 C  
HETATM   25  C   UNL     1      -8.505   8.122  67.068  1.00  0.00    -0.120 A  
HETATM   26  C   UNL     1      -9.198   5.666  66.794  1.00  0.00    -0.130 A  
HETATM   27  C   UNL     1     -10.129   8.281  70.675  1.00  0.00    -0.191 C  
HETATM   28  O   UNL     1      -8.332   6.534  68.855  1.00  0.00    -0.120 OA 
HETATM   29  C   UNL     1      -7.626   8.952  67.795  1.00  0.00    -0.093 A  
HETATM   30  C   UNL     1     -10.347   5.269  66.083  1.00  0.00    -0.238 A  
HETATM   31  H   UNL     1      -7.482   6.304  68.500  1.00  0.00     0.000 HD 
HETATM   32  C   UNL     1     -10.365   4.097  65.319  1.00  0.00    -0.184 A  
HETATM   33  C   UNL     1      -7.069  10.102  67.232  1.00  0.00    -0.088 A  
HETATM   34  C   UNL     1      -9.224   3.307  65.222  1.00  0.00    -0.151 A  
HETATM   35  C   UNL     1      -7.359  10.440  65.915  1.00  0.00    -0.135 A  
HETATM   36  C   UNL     1      -8.211   9.632  65.169  1.00  0.00    -0.134 A  
HETATM   37  C   UNL     1      -8.056   3.704  65.865  1.00  0.00    -0.093 A  
HETATM   38  C   UNL     1      -8.787   8.490  65.742  1.00  0.00    -0.229 A  
HETATM   39  C   UNL     1      -8.039   4.875  66.630  1.00  0.00    -0.107 A  
ENDBRANCH  18  19
ENDBRANCH  17  18
ENDBRANCH  16  17
ENDBRANCH  13  16
ENDBRANCH  10  13
ENDBRANCH   2   7
TORSDOF 6
ENDMDL
MODEL        8
REMARK 921   NORMALIZED FREE ENERGY PREDICTED BY IDOCK:   -6.89 KCAL/MOL
REMARK 922        TOTAL FREE ENERGY PREDICTED BY IDOCK:  -11.66 KCAL/MOL
REMARK 923 INTER-LIGAND FREE ENERGY PREDICTED BY IDOCK:  -10.61 KCAL/MOL
REMARK 924 INTRA-LIGAND FREE ENERGY PREDICTED BY IDOCK:   -1.05 KCAL/MOL
REMARK 927      BINDING AFFINITY PREDICTED BY RF-SCORE:    0.00 PKD
ROOT
HETATM    1  C   UNL     1     -10.149  19.961  68.201  1.00  0.00    -0.569 C  
HETATM    2  C   UNL     1      -9.913  18.863  67.137  1.00  0.00    -0.382 C  
HETATM    3  C   UNL     1      -8.399  18.806  66.848  1.00  0.00    -0.270 C  
HETATM    4  O   UNL     1      -7.554  19.491  67.409  1.00  0.00    -0.243 OA 
HETATM    5  C   UNL     1     -10.610  19.273  65.825  1.00  0.00    -0.450 C  
HETATM    6  O   UNL     1      -8.042  17.912  65.892  1.00  0.00    -0.524 OA 
ENDROOT
BRANCH   2   7
HETATM    7  C   UNL     1     -10.499  17.552  67.681  1.00  0.00    -0.370 A  
HETATM    8  C   UNL     1     -10.582  17.342  69.071  1.00  0.00    -0.247 A  
HETATM    9  C   UNL     1     -10.961  16.107  69.595  1.00  0.00    -0.346 A  
HETATM   10  C   UNL     1     -11.304  15.054  68.740  1.00  0.00    -0.306 A  
HETATM   11  C   UNL     1     -10.880  16.501  66.838  1.00  0.00    -0.083 A  
HETATM   12  C   UNL     1     -11.310  15.285  67.360  1.00  0.00    -0.285 A  
BRANCH  10  13
HETATM   13  C   UNL     1     -11.583  13.675  69.290  1.00  0.00    -0.311 C  
HETATM   14  O   UNL     1     -10.399  12.906  69.126  1.00  0.00    -0.432 OA 
HETATM   15  H   UNL     1     -10.574  12.039  69.471  1.00  0.00     0.000 HD 
BRANCH  13  16
HETATM   16  C   UNL     1     -12.056  13.771  70.753  1.00  0.00    -0.395 C  
BRANCH  16  17
HETATM   17  C   UNL     1     -13.249  12.880  71.107  1.00  0.00    -0.062 C  
BRANCH  17  18
HETATM   18  C   UNL     1     -12.927  11.718  72.057  1.00  0.00    -0.265 C  
BRANCH  18  19
HETATM   19  N   UNL     1     -13.296  10.400  71.513  1.00  0.00    -0.343 NA 
HETATM   20  C   UNL     1     -12.773  10.158  70.164  1.00  0.00     0.044 C  
HETATM   21  C   UNL     1     -11.268   9.871  70.112  1.00  0.00    -0.347 C  
HETATM   22  C   UNL     1     -10.802   8.723  71.046  1.00  0.00    -0.321 C  
HETATM   23  C   UNL     1     -11.051   7.270  70.455  1.00  0.00    -0.267 C  
HETATM   24  C   UNL     1     -11.417   9.007  72.441  1.00  0.00    -0.075 C  
HETATM   25  C   UNL     1     -10.658   6.186  71.483  1.00  0.00    -0.288 A  
HETATM   26  C   UNL     1     -10.371   7.032  69.077  1.00  0.00    -0.208 A  
HETATM   27  C   UNL     1     -12.919   9.300  72.413  1.00  0.00    -0.377 C  
HETATM   28  O   UNL     1     -12.467   7.144  70.236  1.00  0.00    -0.592 OA 
HETATM   29  C   UNL     1     -11.623   5.649  72.363  1.00  0.00    -0.281 A  
HETATM   30  C   UNL     1      -9.233   7.741  68.646  1.00  0.00    -0.138 A  
HETATM   31  H   UNL     1     -12.616   6.275  69.883  1.00  0.00     0.000 HD 
HETATM   32  C   UNL     1      -8.710   7.569  67.360  1.00  0.00    -0.124 A  
HETATM   33  C   UNL     1     -11.282   4.720  73.347  1.00  0.00    -0.425 A  
HETATM   34  C   UNL     1      -9.292   6.661  66.482  1.00  0.00    -0.191 A  
HETATM   35  C   UNL     1      -9.967   4.282  73.463  1.00  0.00    -0.173 A  
HETATM   36  C   UNL     1      -8.997   4.782  72.600  1.00  0.00    -0.132 A  
HETATM   37  C   UNL     1     -10.381   5.903  66.900  1.00  0.00    -0.304 A  
HETATM   38  C   UNL     1      -9.336   5.733  71.626  1.00  0.00    -0.162 A  
HETATM   39  C   UNL     1     -10.905   6.075  68.185  1.00  0.00    -0.365 A  
ENDBRANCH  18  19
ENDBRANCH  17  18
ENDBRANCH  16  17
ENDBRANCH  13  16
ENDBRANCH  10  13
ENDBRANCH   2   7
TORSDOF 6
ENDMDL
MODEL        9
REMARK 921   NORMALIZED FREE ENERGY PREDICTED BY IDOCK:   -6.87 KCAL/MOL
REMARK 922        TOTAL FREE ENERGY PREDICTED BY IDOCK:  -11.64 KCAL/MOL
REMARK 923 INTER-LIGAND FREE ENERGY PREDICTED BY IDOCK:  -10.63 KCAL/MOL
REMARK 924 INTRA-LIGAND FREE ENERGY PREDICTED BY IDOCK:   -1.01 KCAL/MOL
REMARK 927      BINDING AFFINITY PREDICTED BY RF-SCORE:    0.00 PKD
ROOT
HETATM    1  C   UNL     1     -10.324  19.122  68.392  1.00  0.00    -0.412 C  
HETATM    2  C   UNL     1      -9.823  18.730  66.982  1.00  0.00    -0.359 C  
HETATM    3  C   UNL     1      -8.294  18.930  66.954  1.00  0.00    -0.280 C  
HETATM    4  O   UNL     1      -7.619  19.294  67.908  1.00  0.00    -0.263 OA 
HETATM    5  C   UNL     1     -10.426  19.697  65.945  1.00  0.00    -0.591 C  
HETATM    6  O   UNL     1      -7.714  18.667  65.755  1.00  0.00    -0.491 OA 
ENDROOT
BRANCH   2   7
HETATM    7  C   UNL     1     -10.274  17.287  66.711  1.00  0.00    -0.318 A  
HETATM    8  C   UNL     1     -10.465  16.847  65.387  1.00  0.00    -0.172 A  
HETATM    9  C   UNL     1     -11.021  15.598  65.112  1.00  0.00    -0.411 A  
HETATM   10  C   UNL     1     -11.369  14.737  66.158  1.00  0.00    -0.330 A  
HETATM   11  C   UNL     1     -10.592  16.400  67.746  1.00  0.00    -0.321 A  
HETATM   12  C   UNL     1     -11.097  15.132  67.472  1.00  0.00    -0.319 A  
BRANCH  10  13
HETATM   13  C   UNL     1     -12.095  13.442  65.879  1.00  0.00    -0.439 C  
HETATM   14  O   UNL     1     -13.273  13.766  65.153  1.00  0.00    -0.757 OA 
HETATM   15  H   UNL     1     -13.730  12.951  64.978  1.00  0.00     0.000 HD 
BRANCH  13  16
HETATM   16  C   UNL     1     -11.167  12.459  65.140  1.00  0.00    -0.356 C  
BRANCH  16  17
HETATM   17  C   UNL     1      -9.792  12.260  65.784  1.00  0.00    -0.260 C  
BRANCH  17  18
HETATM   18  C   UNL     1      -9.807  11.485  67.109  1.00  0.00    -0.191 C  
BRANCH  18  19
HETATM   19  N   UNL     1     -10.634  10.267  67.063  1.00  0.00    -0.251 NA 
HETATM   20  C   UNL     1     -10.022   9.174  66.301  1.00  0.00    -0.282 C  
HETATM   21  C   UNL     1      -8.859   8.478  67.015  1.00  0.00    -0.144 C  
HETATM   22  C   UNL     1      -9.195   7.970  68.442  1.00  0.00    -0.135 C  
HETATM   23  C   UNL     1      -9.974   6.586  68.466  1.00  0.00    -0.142 C  
HETATM   24  C   UNL     1      -9.875   9.148  69.186  1.00  0.00    -0.171 C  
HETATM   25  C   UNL     1     -10.362   6.201  69.911  1.00  0.00    -0.272 A  
HETATM   26  C   UNL     1      -9.220   5.433  67.744  1.00  0.00    -0.115 A  
HETATM   27  C   UNL     1     -11.017   9.803  68.405  1.00  0.00    -0.152 C  
HETATM   28  O   UNL     1     -11.201   6.784  67.743  1.00  0.00    -0.536 OA 
HETATM   29  C   UNL     1     -11.623   6.559  70.434  1.00  0.00    -0.470 A  
HETATM   30  C   UNL     1      -7.821   5.408  67.584  1.00  0.00    -0.100 A  
HETATM   31  H   UNL     1     -11.668   5.956  67.757  1.00  0.00     0.000 HD 
HETATM   32  C   UNL     1      -7.189   4.404  66.842  1.00  0.00    -0.072 A  
HETATM   33  C   UNL     1     -11.974   6.284  71.757  1.00  0.00    -0.313 A  
HETATM   34  C   UNL     1      -7.937   3.381  66.267  1.00  0.00    -0.091 A  
HETATM   35  C   UNL     1     -11.078   5.621  72.589  1.00  0.00    -0.331 A  
HETATM   36  C   UNL     1      -9.833   5.243  72.096  1.00  0.00    -0.216 A  
HETATM   37  C   UNL     1      -9.314   3.347  66.458  1.00  0.00    -0.173 A  
HETATM   38  C   UNL     1      -9.473   5.539  70.774  1.00  0.00    -0.209 A  
HETATM   39  C   UNL     1      -9.946   4.351  67.198  1.00  0.00    -0.182 A  
ENDBRANCH  18  19
ENDBRANCH  17  18
ENDBRANCH  16  17
ENDBRANCH  13  16
ENDBRANCH  10  13
ENDBRANCH   2   7
TORSDOF 6
ENDMDL
MODEL       10
REMARK 921   NORMALIZED FREE ENERGY PREDICTED BY IDOCK:   -6.81 KCAL/MOL
REMARK 922        TOTAL FREE ENERGY PREDICTED BY IDOCK:  -11.55 KCAL/MOL
REMARK 923 INTER-LIGAND FREE ENERGY PREDICTED BY IDOCK:   -9.76 KCAL/MOL
REMARK 924 INTRA-LIGAND FREE ENERGY PREDICTED BY IDOCK:   -1.80 KCAL/MOL
REMARK 927      BINDING AFFINITY PREDICTED BY RF-SCORE:    0.00 PKD
ROOT
HETATM    1  C   UNL     1     -11.742   5.208  72.835  1.00  0.00    -0.220 C  
HETATM    2  C   UNL     1     -11.641   6.492  71.978  1.00  0.00    -0.354 C  
HETATM    3  C   UNL     1     -10.816   7.525  72.772  1.00  0.00    -0.346 C  
HETATM    4  O   UNL     1     -10.308   7.321  73.867  1.00  0.00    -0.352 OA 
HETATM    5  C   UNL     1     -13.050   7.085  71.789  1.00  0.00    -0.343 C  
HETATM    6  O   UNL     1     -10.681   8.729  72.160  1.00  0.00    -0.339 OA 
ENDROOT
BRANCH   2   7
HETATM    7  C   UNL     1     -11.025   6.103  70.625  1.00  0.00    -0.376 A  
HETATM    8  C   UNL     1      -9.802   5.408  70.583  1.00  0.00    -0.254 A  
HETATM    9  C   UNL     1      -9.140   5.178  69.378  1.00  0.00    -0.144 A  
HETATM   10  C   UNL     1      -9.704   5.608  68.172  1.00  0.00    -0.153 A  
HETATM   11  C   UNL     1     -11.596   6.494  69.408  1.00  0.00    -0.249 A  
HETATM   12  C   UNL     1     -10.962   6.219  68.200  1.00  0.00    -0.412 A  
BRANCH  10  13
HETATM   13  C   UNL     1      -8.936   5.487  66.876  1.00  0.00    -0.111 C  
HETATM   14  O   UNL     1      -9.751   6.038  65.850  1.00  0.00    -0.369 OA 
HETATM   15  H   UNL     1      -9.268   5.962  65.035  1.00  0.00     0.000 HD 
BRANCH  13  16
HETATM   16  C   UNL     1      -7.563   6.173  67.006  1.00  0.00    -0.095 C  
BRANCH  16  17
HETATM   17  C   UNL     1      -7.527   7.638  66.560  1.00  0.00    -0.092 C  
BRANCH  17  18
HETATM   18  C   UNL     1      -7.686   8.661  67.693  1.00  0.00    -0.102 C  
BRANCH  18  19
HETATM   19  N   UNL     1      -9.082   9.079  67.909  1.00  0.00    -0.135 NA 
HETATM   20  C   UNL     1      -9.231  10.096  68.955  1.00  0.00    -0.185 C  
HETATM   21  C   UNL     1      -8.769  11.498  68.546  1.00  0.00    -0.138 C  
HETATM   22  C   UNL     1      -9.409  12.027  67.235  1.00  0.00    -0.180 C  
HETATM   23  C   UNL     1     -10.870  12.618  67.425  1.00  0.00    -0.243 C  
HETATM   24  C   UNL     1      -9.259  10.901  66.181  1.00  0.00    -0.205 C  
HETATM   25  C   UNL     1     -11.477  13.027  66.064  1.00  0.00    -0.374 A  
HETATM   26  C   UNL     1     -10.946  13.776  68.461  1.00  0.00    -0.283 A  
HETATM   27  C   UNL     1      -9.728   9.526  66.665  1.00  0.00    -0.211 C  
HETATM   28  O   UNL     1     -11.688  11.555  67.944  1.00  0.00    -0.489 OA 
HETATM   29  C   UNL     1     -12.279  12.121  65.336  1.00  0.00    -0.134 A  
HETATM   30  C   UNL     1      -9.848  14.597  68.780  1.00  0.00    -0.227 A  
HETATM   31  H   UNL     1     -12.562  11.908  68.057  1.00  0.00     0.000 HD 
HETATM   32  C   UNL     1      -9.928  15.563  69.790  1.00  0.00    -0.281 A  
HETATM   33  C   UNL     1     -12.783  12.439  64.073  1.00  0.00    -0.450 A  
HETATM   34  C   UNL     1     -11.118  15.753  70.485  1.00  0.00    -0.383 A  
HETATM   35  C   UNL     1     -12.516  13.683  63.513  1.00  0.00    -0.152 A  
HETATM   36  C   UNL     1     -11.741  14.602  64.214  1.00  0.00    -0.291 A  
HETATM   37  C   UNL     1     -12.237  14.997  70.151  1.00  0.00    -0.392 A  
HETATM   38  C   UNL     1     -11.217  14.274  65.472  1.00  0.00    -0.320 A  
HETATM   39  C   UNL     1     -12.157  14.031  69.143  1.00  0.00    -0.375 A  
ENDBRANCH  18  19
ENDBRANCH  17  18
ENDBRANCH  16  17
ENDBRANCH  13  16
ENDBRANCH  10  13
ENDBRANCH   2   7
TORSDOF 6
ENDMDL
MODEL       11
REMARK 921   NORMALIZED FREE ENERGY PREDICTED BY IDOCK:   -6.80 KCAL/MOL
REMARK 922        TOTAL FREE ENERGY PREDICTED BY IDOCK:  -11.54 KCAL/MOL
REMARK 923 INTER-LIGAND FREE ENERGY PREDICTED BY IDOCK:  -10.41 KCAL/MOL
REMARK 924 INTRA-LIGAND FREE ENERGY PREDICTED BY IDOCK:   -1.13 KCAL/MOL
REMARK 927      BINDING AFFINITY PREDICTED BY RF-SCORE:    0.00 PKD
ROOT
HETATM    1  C   UNL     1      -8.847  15.289  68.920  1.00  0.00    -0.209 C  
HETATM    2  C   UNL     1     -10.108  16.109  68.565  1.00  0.00    -0.241 C  
HETATM    3  C   UNL     1      -9.657  17.548  68.237  1.00  0.00    -0.299 C  
HETATM    4  O   UNL     1      -8.495  17.931  68.226  1.00  0.00    -0.262 OA 
HETATM    5  C   UNL     1     -11.022  16.192  69.803  1.00  0.00    -0.349 C  
HETATM    6  O   UNL     1     -10.670  18.404  67.948  1.00  0.00    -0.392 OA 
ENDROOT
BRANCH   2   7
HETATM    7  C   UNL     1     -10.819  15.395  67.407  1.00  0.00    -0.309 A  
HETATM    8  C   UNL     1     -11.703  14.331  67.673  1.00  0.00    -0.421 A  
HETATM    9  C   UNL     1     -12.242  13.562  66.642  1.00  0.00    -0.411 A  
HETATM   10  C   UNL     1     -11.939  13.860  65.309  1.00  0.00    -0.384 A  
HETATM   11  C   UNL     1     -10.555  15.704  66.067  1.00  0.00    -0.336 A  
HETATM   12  C   UNL     1     -11.134  14.971  65.036  1.00  0.00    -0.421 A  
BRANCH  10  13
HETATM   13  C   UNL     1     -12.405  12.954  64.193  1.00  0.00    -0.376 C  
HETATM   14  O   UNL     1     -12.394  13.720  62.996  1.00  0.00    -1.089 OA 
HETATM   15  H   UNL     1     -12.688  13.150  62.294  1.00  0.00     0.000 HD 
BRANCH  13  16
HETATM   16  C   UNL     1     -11.521  11.694  64.126  1.00  0.00    -0.364 C  
BRANCH  16  17
HETATM   17  C   UNL     1     -10.043  11.924  64.454  1.00  0.00    -0.310 C  
BRANCH  17  18
HETATM   18  C   UNL     1      -9.537  11.190  65.704  1.00  0.00    -0.224 C  
BRANCH  18  19
HETATM   19  N   UNL     1     -10.384  10.049  66.091  1.00  0.00    -0.196 NA 
HETATM   20  C   UNL     1      -9.758   8.746  65.839  1.00  0.00    -0.141 C  
HETATM   21  C   UNL     1      -8.641   8.380  66.822  1.00  0.00    -0.123 C  
HETATM   22  C   UNL     1      -9.049   8.462  68.317  1.00  0.00    -0.139 C  
HETATM   23  C   UNL     1      -9.853   7.195  68.835  1.00  0.00    -0.156 C  
HETATM   24  C   UNL     1      -9.739   9.836  68.515  1.00  0.00    -0.164 C  
HETATM   25  C   UNL     1     -10.312   7.397  70.296  1.00  0.00    -0.217 A  
HETATM   26  C   UNL     1      -9.089   5.853  68.651  1.00  0.00    -0.115 A  
HETATM   27  C   UNL     1     -10.834  10.139  67.488  1.00  0.00    -0.290 C  
HETATM   28  O   UNL     1     -11.043   7.097  68.034  1.00  0.00    -0.478 OA 
HETATM   29  C   UNL     1     -11.588   7.929  70.580  1.00  0.00    -0.155 A  
HETATM   30  C   UNL     1      -7.685   5.769  68.580  1.00  0.00    -0.093 A  
HETATM   31  H   UNL     1     -11.525   6.339  68.344  1.00  0.00     0.000 HD 
HETATM   32  C   UNL     1      -7.039   4.556  68.314  1.00  0.00    -0.057 A  
HETATM   33  C   UNL     1     -12.002   8.186  71.888  1.00  0.00    -0.367 A  
HETATM   34  C   UNL     1      -7.779   3.391  68.143  1.00  0.00    -0.063 A  
HETATM   35  C   UNL     1     -11.157   7.896  72.953  1.00  0.00    -0.442 A  
HETATM   36  C   UNL     1      -9.898   7.358  72.705  1.00  0.00    -0.237 A  
HETATM   37  C   UNL     1      -9.163   3.432  68.266  1.00  0.00    -0.234 A  
HETATM   38  C   UNL     1      -9.474   7.120  71.390  1.00  0.00    -0.162 A  
HETATM   39  C   UNL     1      -9.809   4.643  68.531  1.00  0.00    -0.181 A  
ENDBRANCH  18  19
ENDBRANCH  17  18
ENDBRANCH  16  17
ENDBRANCH  13  16
ENDBRANCH  10  13
ENDBRANCH   2   7
TORSDOF 6
ENDMDL
MODEL       12
REMARK 921   NORMALIZED FREE ENERGY PREDICTED BY IDOCK:   -6.79 KCAL/MOL
REMARK 922        TOTAL FREE ENERGY PREDICTED BY IDOCK:  -11.53 KCAL/MOL
REMARK 923 INTER-LIGAND FREE ENERGY PREDICTED BY IDOCK:  -10.36 KCAL/MOL
REMARK 924 INTRA-LIGAND FREE ENERGY PREDICTED BY IDOCK:   -1.17 KCAL/MOL
REMARK 927      BINDING AFFINITY PREDICTED BY RF-SCORE:    0.00 PKD
ROOT
HETATM    1  C   UNL     1      -9.654   5.352  70.813  1.00  0.00    -0.228 C  
HETATM    2  C   UNL     1      -9.990   5.968  72.191  1.00  0.00    -0.189 C  
HETATM    3  C   UNL     1      -8.706   5.943  73.045  1.00  0.00    -0.123 C  
HETATM    4  O   UNL     1      -7.617   5.540  72.657  1.00  0.00    -0.095 OA 
HETATM    5  C   UNL     1     -11.026   5.077  72.904  1.00  0.00    -0.342 C  
HETATM    6  O   UNL     1      -8.860   6.415  74.308  1.00  0.00    -0.133 OA 
ENDROOT
BRANCH   2   7
HETATM    7  C   UNL     1     -10.555   7.376  71.948  1.00  0.00    -0.233 A  
HETATM    8  C   UNL     1     -11.784   7.750  72.523  1.00  0.00    -0.393 A  
HETATM    9  C   UNL     1     -12.399   8.958  72.197  1.00  0.00    -0.449 A  
HETATM   10  C   UNL     1     -11.781   9.846  71.310  1.00  0.00    -0.472 A  
HETATM   11  C   UNL     1      -9.931   8.290  71.090  1.00  0.00    -0.230 A  
HETATM   12  C   UNL     1     -10.517   9.519  70.806  1.00  0.00    -0.384 A  
BRANCH  10  13
HETATM   13  C   UNL     1     -12.496  11.092  70.844  1.00  0.00    -0.410 C  
HETATM   14  O   UNL     1     -13.410  10.700  69.828  1.00  0.00    -0.349 OA 
HETATM   15  H   UNL     1     -13.860  11.483  69.535  1.00  0.00     0.000 HD 
BRANCH  13  16
HETATM   16  C   UNL     1     -13.169  11.797  72.038  1.00  0.00    -0.460 C  
BRANCH  16  17
HETATM   17  C   UNL     1     -13.508  13.272  71.809  1.00  0.00    -0.438 C  
BRANCH  17  18
HETATM   18  C   UNL     1     -12.296  14.212  71.756  1.00  0.00    -0.231 C  
BRANCH  18  19
HETATM   19  N   UNL     1     -12.322  15.133  70.606  1.00  0.00    -0.340 NA 
HETATM   20  C   UNL     1     -11.059  15.849  70.404  1.00  0.00    -0.370 C  
HETATM   21  C   UNL     1      -9.932  14.992  69.819  1.00  0.00    -0.073 C  
HETATM   22  C   UNL     1     -10.305  14.249  68.509  1.00  0.00    -0.244 C  
HETATM   23  C   UNL     1     -10.223  15.156  67.208  1.00  0.00    -0.243 C  
HETATM   24  C   UNL     1     -11.663  13.547  68.767  1.00  0.00    -0.373 C  
HETATM   25  C   UNL     1     -10.707  14.377  65.965  1.00  0.00    -0.302 A  
HETATM   26  C   UNL     1      -8.823  15.794  66.979  1.00  0.00    -0.241 A  
HETATM   27  C   UNL     1     -12.735  14.461  69.364  1.00  0.00     0.265 C  
HETATM   28  O   UNL     1     -11.140  16.247  67.400  1.00  0.00    -0.232 OA 
HETATM   29  C   UNL     1     -12.055  14.454  65.551  1.00  0.00    -0.358 A  
HETATM   30  C   UNL     1      -7.631  15.236  67.480  1.00  0.00    -0.212 A  
HETATM   31  H   UNL     1     -11.092  16.790  66.622  1.00  0.00     0.000 HD 
HETATM   32  C   UNL     1      -6.403  15.893  67.339  1.00  0.00    -0.196 A  
HETATM   33  C   UNL     1     -12.535  13.707  64.473  1.00  0.00    -0.335 A  
HETATM   34  C   UNL     1      -6.331  17.108  66.666  1.00  0.00    -0.254 A  
HETATM   35  C   UNL     1     -11.673  12.878  63.765  1.00  0.00    -0.557 A  
HETATM   36  C   UNL     1     -10.336  12.792  64.141  1.00  0.00    -0.401 A  
HETATM   37  C   UNL     1      -7.483  17.655  66.110  1.00  0.00    -0.334 A  
HETATM   38  C   UNL     1      -9.859  13.525  65.237  1.00  0.00    -0.116 A  
HETATM   39  C   UNL     1      -8.710  17.000  66.252  1.00  0.00    -0.285 A  
ENDBRANCH  18  19
ENDBRANCH  17  18
ENDBRANCH  16  17
ENDBRANCH  13  16
ENDBRANCH  10  13
ENDBRANCH   2   7
TORSDOF 6
ENDMDL
MODEL       13
REMARK 921   NORMALIZED FREE ENERGY PREDICTED BY IDOCK:   -6.78 KCAL/MOL
REMARK 922        TOTAL FREE ENERGY PREDICTED BY IDOCK:  -11.52 KCAL/MOL
REMARK 923 INTER-LIGAND FREE ENERGY PREDICTED BY IDOCK:   -8.51 KCAL/MOL
REMARK 924 INTRA-LIGAND FREE ENERGY PREDICTED BY IDOCK:   -3.01 KCAL/MOL
REMARK 927      BINDING AFFINITY PREDICTED BY RF-SCORE:    0.00 PKD
ROOT
HETATM    1  C   UNL     1     -11.000  14.592  64.765  1.00  0.00    -0.399 C  
HETATM    2  C   UNL     1     -11.860  13.352  65.104  1.00  0.00    -0.375 C  
HETATM    3  C   UNL     1     -12.659  12.974  63.841  1.00  0.00    -0.206 C  
HETATM    4  O   UNL     1     -12.574  13.546  62.762  1.00  0.00    -0.445 OA 
HETATM    5  C   UNL     1     -12.884  13.729  66.192  1.00  0.00    -0.188 C  
HETATM    6  O   UNL     1     -13.500  11.921  64.001  1.00  0.00    -0.600 OA 
ENDROOT
BRANCH   2   7
HETATM    7  C   UNL     1     -10.913  12.250  65.603  1.00  0.00    -0.338 A  
HETATM    8  C   UNL     1     -11.207  11.555  66.791  1.00  0.00    -0.350 A  
HETATM    9  C   UNL     1     -10.295  10.662  67.352  1.00  0.00    -0.262 A  
HETATM   10  C   UNL     1      -9.073  10.412  66.718  1.00  0.00    -0.161 A  
HETATM   11  C   UNL     1      -9.702  11.963  64.960  1.00  0.00    -0.177 A  
HETATM   12  C   UNL     1      -8.815  11.032  65.491  1.00  0.00    -0.179 A  
BRANCH  10  13
HETATM   13  C   UNL     1      -8.022   9.554  67.383  1.00  0.00    -0.106 C  
HETATM   14  O   UNL     1      -8.199   8.226  66.910  1.00  0.00    -0.102 OA 
HETATM   15  H   UNL     1      -7.538   7.686  67.328  1.00  0.00     0.000 HD 
BRANCH  13  16
HETATM   16  C   UNL     1      -6.618  10.124  67.106  1.00  0.00    -0.069 C  
BRANCH  16  17
HETATM   17  C   UNL     1      -6.209  11.298  68.000  1.00  0.00    -0.049 C  
BRANCH  17  18
HETATM   18  C   UNL     1      -6.235  12.671  67.315  1.00  0.00    -0.089 C  
BRANCH  18  19
HETATM   19  N   UNL     1      -6.488  13.783  68.247  1.00  0.00    -0.097 NA 
HETATM   20  C   UNL     1      -6.677  15.074  67.579  1.00  0.00    -0.150 C  
HETATM   21  C   UNL     1      -8.027  15.228  66.871  1.00  0.00    -0.194 C  
HETATM   22  C   UNL     1      -9.259  14.943  67.770  1.00  0.00    -0.186 C  
HETATM   23  C   UNL     1      -9.667  16.157  68.708  1.00  0.00    -0.233 C  
HETATM   24  C   UNL     1      -8.987  13.592  68.481  1.00  0.00    -0.102 C  
HETATM   25  C   UNL     1     -10.831  15.760  69.643  1.00  0.00    -0.300 A  
HETATM   26  C   UNL     1      -9.973  17.470  67.932  1.00  0.00    -0.312 A  
HETATM   27  C   UNL     1      -7.614  13.506  69.153  1.00  0.00     0.177 C  
HETATM   28  O   UNL     1      -8.534  16.436  69.549  1.00  0.00    -0.068 OA 
HETATM   29  C   UNL     1     -10.573  15.258  70.937  1.00  0.00     0.000 A  
HETATM   30  C   UNL     1     -10.400  17.490  66.591  1.00  0.00    -0.319 A  
HETATM   31  H   UNL     1      -8.778  17.163  70.110  1.00  0.00     0.000 HD 
HETATM   32  C   UNL     1     -10.568  18.694  65.897  1.00  0.00    -0.365 A  
HETATM   33  C   UNL     1     -11.602  14.827  71.776  1.00  0.00    -0.244 A  
HETATM   34  C   UNL     1     -10.344  19.909  66.537  1.00  0.00    -0.608 A  
HETATM   35  C   UNL     1     -12.923  14.908  71.351  1.00  0.00    -0.427 A  
HETATM   36  C   UNL     1     -13.210  15.412  70.087  1.00  0.00     0.128 A  
HETATM   37  C   UNL     1      -9.978  19.922  67.878  1.00  0.00    -0.552 A  
HETATM   38  C   UNL     1     -12.175  15.824  69.236  1.00  0.00    -0.120 A  
HETATM   39  C   UNL     1      -9.809  18.719  68.571  1.00  0.00    -0.444 A  
ENDBRANCH  18  19
ENDBRANCH  17  18
ENDBRANCH  16  17
ENDBRANCH  13  16
ENDBRANCH  10  13
ENDBRANCH   2   7
TORSDOF 6
ENDMDL
MODEL       14
REMARK 921   NORMALIZED FREE ENERGY PREDICTED BY IDOCK:   -6.74 KCAL/MOL
REMARK 922        TOTAL FREE ENERGY PREDICTED BY IDOCK:  -11.46 KCAL/MOL
REMARK 923 INTER-LIGAND FREE ENERGY PREDICTED BY IDOCK:  -10.59 KCAL/MOL
REMARK 924 INTRA-LIGAND FREE ENERGY PREDICTED BY IDOCK:   -0.87 KCAL/MOL
REMARK 927      BINDING AFFINITY PREDICTED BY RF-SCORE:    0.00 PKD
ROOT
HETATM    1  C   UNL     1      -9.458   4.994  71.827  1.00  0.00    -0.194 C  
HETATM    2  C   UNL     1      -9.423   5.917  70.586  1.00  0.00    -0.199 C  
HETATM    3  C   UNL     1      -9.556   5.026  69.334  1.00  0.00    -0.166 C  
HETATM    4  O   UNL     1      -9.705   3.811  69.353  1.00  0.00    -0.181 OA 
HETATM    5  C   UNL     1      -8.048   6.606  70.508  1.00  0.00    -0.117 C  
HETATM    6  O   UNL     1      -9.495   5.698  68.156  1.00  0.00    -0.107 OA 
ENDROOT
BRANCH   2   7
HETATM    7  C   UNL     1     -10.547   6.952  70.743  1.00  0.00    -0.245 A  
HETATM    8  C   UNL     1     -10.289   8.313  70.491  1.00  0.00    -0.217 A  
HETATM    9  C   UNL     1     -11.238   9.295  70.773  1.00  0.00    -0.351 A  
HETATM   10  C   UNL     1     -12.491   8.937  71.282  1.00  0.00    -0.321 A  
HETATM   11  C   UNL     1     -11.818   6.606  71.218  1.00  0.00    -0.403 A  
HETATM   12  C   UNL     1     -12.784   7.579  71.449  1.00  0.00    -0.382 A  
BRANCH  10  13
HETATM   13  C   UNL     1     -13.475   9.996  71.719  1.00  0.00    -0.328 C  
HETATM   14  O   UNL     1     -14.137   9.506  72.878  1.00  0.00    -0.841 OA 
HETATM   15  H   UNL     1     -14.757  10.172  73.152  1.00  0.00     0.000 HD 
BRANCH  13  16
HETATM   16  C   UNL     1     -12.750  11.336  71.945  1.00  0.00    -0.278 C  
BRANCH  16  17
HETATM   17  C   UNL     1     -13.660  12.508  72.326  1.00  0.00    -0.443 C  
BRANCH  17  18
HETATM   18  C   UNL     1     -12.942  13.853  72.498  1.00  0.00    -0.359 C  
BRANCH  18  19
HETATM   19  N   UNL     1     -13.189  14.791  71.389  1.00  0.00    -0.348 NA 
HETATM   20  C   UNL     1     -12.223  15.893  71.331  1.00  0.00    -0.448 C  
HETATM   21  C   UNL     1     -10.836  15.493  70.816  1.00  0.00    -0.298 C  
HETATM   22  C   UNL     1     -10.847  14.760  69.449  1.00  0.00    -0.269 C  
HETATM   23  C   UNL     1     -10.976  15.731  68.199  1.00  0.00    -0.330 C  
HETATM   24  C   UNL     1     -11.911  13.637  69.553  1.00  0.00    -0.394 C  
HETATM   25  C   UNL     1     -11.085  14.924  66.887  1.00  0.00    -0.337 A  
HETATM   26  C   UNL     1      -9.854  16.805  68.124  1.00  0.00    -0.264 A  
HETATM   27  C   UNL     1     -13.265  14.109  70.089  1.00  0.00     0.429 C  
HETATM   28  O   UNL     1     -12.214  16.447  68.352  1.00  0.00     0.068 OA 
HETATM   29  C   UNL     1     -12.348  14.585  66.355  1.00  0.00    -0.198 A  
HETATM   30  C   UNL     1      -8.584  16.635  68.708  1.00  0.00    -0.261 A  
HETATM   31  H   UNL     1     -12.292  17.028  67.604  1.00  0.00     0.000 HD 
HETATM   32  C   UNL     1      -7.636  17.664  68.705  1.00  0.00    -0.276 A  
HETATM   33  C   UNL     1     -12.475  13.798  65.209  1.00  0.00    -0.512 A  
HETATM   34  C   UNL     1      -7.922  18.879  68.092  1.00  0.00    -0.330 A  
HETATM   35  C   UNL     1     -11.338  13.346  64.548  1.00  0.00    -0.391 A  
HETATM   36  C   UNL     1     -10.079  13.676  65.040  1.00  0.00    -0.293 A  
HETATM   37  C   UNL     1      -9.146  19.057  67.457  1.00  0.00    -0.322 A  
HETATM   38  C   UNL     1      -9.952  14.448  66.204  1.00  0.00    -0.328 A  
HETATM   39  C   UNL     1     -10.095  18.029  67.460  1.00  0.00    -0.356 A  
ENDBRANCH  18  19
ENDBRANCH  17  18
ENDBRANCH  16  17
ENDBRANCH  13  16
ENDBRANCH  10  13
ENDBRANCH   2   7
TORSDOF 6
ENDMDL
MODEL       15
REMARK 921   NORMALIZED FREE ENERGY PREDICTED BY IDOCK:   -6.73 KCAL/MOL
REMARK 922        TOTAL FREE ENERGY PREDICTED BY IDOCK:  -11.45 KCAL/MOL
REMARK 923 INTER-LIGAND FREE ENERGY PREDICTED BY IDOCK:  -10.55 KCAL/MOL
REMARK 924 INTRA-LIGAND FREE ENERGY PREDICTED BY IDOCK:   -0.89 KCAL/MOL
REMARK 927      BINDING AFFINITY PREDICTED BY RF-SCORE:    0.00 PKD
ROOT
HETATM    1  C   UNL     1     -10.331  19.042  68.153  1.00  0.00    -0.446 C  
HETATM    2  C   UNL     1      -9.848  18.765  66.711  1.00  0.00    -0.374 C  
HETATM    3  C   UNL     1      -8.319  18.966  66.680  1.00  0.00    -0.296 C  
HETATM    4  O   UNL     1      -7.632  19.253  67.651  1.00  0.00    -0.238 OA 
HETATM    5  C   UNL     1     -10.463  19.811  65.762  1.00  0.00    -0.545 C  
HETATM    6  O   UNL     1      -7.754  18.801  65.457  1.00  0.00    -0.446 OA 
ENDROOT
BRANCH   2   7
HETATM    7  C   UNL     1     -10.303  17.348  66.331  1.00  0.00    -0.317 A  
HETATM    8  C   UNL     1     -10.796  17.090  65.037  1.00  0.00    -0.017 A  
HETATM    9  C   UNL     1     -11.360  15.859  64.709  1.00  0.00    -0.314 A  
HETATM   10  C   UNL     1     -11.414  14.833  65.659  1.00  0.00    -0.327 A  
HETATM   11  C   UNL     1     -10.330  16.300  67.260  1.00  0.00    -0.285 A  
HETATM   12  C   UNL     1     -10.844  15.054  66.917  1.00  0.00    -0.315 A  
BRANCH  10  13
HETATM   13  C   UNL     1     -12.143  13.544  65.360  1.00  0.00    -0.415 C  
HETATM   14  O   UNL     1     -13.535  13.829  65.389  1.00  0.00    -0.620 OA 
HETATM   15  H   UNL     1     -13.994  13.018  65.201  1.00  0.00     0.000 HD 
BRANCH  13  16
HETATM   16  C   UNL     1     -11.662  12.960  64.018  1.00  0.00    -0.499 C  
BRANCH  16  17
HETATM   17  C   UNL     1     -10.254  12.361  64.041  1.00  0.00    -0.401 C  
BRANCH  17  18
HETATM   18  C   UNL     1     -10.081  11.154  64.973  1.00  0.00    -0.283 C  
BRANCH  18  19
HETATM   19  N   UNL     1     -10.033  11.521  66.399  1.00  0.00    -0.204 NA 
HETATM   20  C   UNL     1     -11.047  10.842  67.211  1.00  0.00    -0.283 C  
HETATM   21  C   UNL     1     -10.756   9.361  67.480  1.00  0.00    -0.290 C  
HETATM   22  C   UNL     1      -9.356   9.083  68.087  1.00  0.00    -0.151 C  
HETATM   23  C   UNL     1      -9.272   9.332  69.653  1.00  0.00    -0.175 C  
HETATM   24  C   UNL     1      -8.332   9.856  67.217  1.00  0.00    -0.121 C  
HETATM   25  C   UNL     1      -7.827   9.135  70.162  1.00  0.00    -0.114 A  
HETATM   26  C   UNL     1     -10.292   8.494  70.474  1.00  0.00    -0.226 A  
HETATM   27  C   UNL     1      -8.696  11.324  66.979  1.00  0.00    -0.152 C  
HETATM   28  O   UNL     1      -9.608  10.713  69.875  1.00  0.00    -0.399 OA 
HETATM   29  C   UNL     1      -6.944  10.233  70.259  1.00  0.00    -0.136 A  
HETATM   30  C   UNL     1     -10.829   7.274  70.021  1.00  0.00    -0.271 A  
HETATM   31  H   UNL     1      -9.557  10.863  70.812  1.00  0.00     0.000 HD 
HETATM   32  C   UNL     1     -11.819   6.599  70.744  1.00  0.00    -0.441 A  
HETATM   33  C   UNL     1      -5.614  10.073  70.650  1.00  0.00    -0.070 A  
HETATM   34  C   UNL     1     -12.276   7.112  71.953  1.00  0.00    -0.358 A  
HETATM   35  C   UNL     1      -5.134   8.810  70.978  1.00  0.00    -0.028 A  
HETATM   36  C   UNL     1      -5.985   7.711  70.907  1.00  0.00    -0.034 A  
HETATM   37  C   UNL     1     -11.723   8.285  72.455  1.00  0.00    -0.463 A  
HETATM   38  C   UNL     1      -7.315   7.869  70.492  1.00  0.00    -0.067 A  
HETATM   39  C   UNL     1     -10.734   8.960  71.733  1.00  0.00    -0.432 A  
ENDBRANCH  18  19
ENDBRANCH  17  18
ENDBRANCH  16  17
ENDBRANCH  13  16
ENDBRANCH  10  13
ENDBRANCH   2   7
TORSDOF 6
ENDMDL
MODEL       16
REMARK 921   NORMALIZED FREE ENERGY PREDICTED BY IDOCK:   -6.71 KCAL/MOL
REMARK 922        TOTAL FREE ENERGY PREDICTED BY IDOCK:  -11.42 KCAL/MOL
REMARK 923 INTER-LIGAND FREE ENERGY PREDICTED BY IDOCK:  -10.21 KCAL/MOL
REMARK 924 INTRA-LIGAND FREE ENERGY PREDICTED BY IDOCK:   -1.21 KCAL/MOL
REMARK 927      BINDING AFFINITY PREDICTED BY RF-SCORE:    0.00 PKD
ROOT
HETATM    1  C   UNL     1     -10.425  17.676  68.436  1.00  0.00    -0.360 C  
HETATM    2  C   UNL     1      -9.918  17.595  66.977  1.00  0.00    -0.320 C  
HETATM    3  C   UNL     1      -8.409  17.914  66.986  1.00  0.00    -0.234 C  
HETATM    4  O   UNL     1      -7.748  18.144  67.990  1.00  0.00    -0.241 OA 
HETATM    5  C   UNL     1     -10.608  18.690  66.141  1.00  0.00    -0.409 C  
HETATM    6  O   UNL     1      -7.829  17.926  65.758  1.00  0.00    -0.542 OA 
ENDROOT
BRANCH   2   7
HETATM    7  C   UNL     1     -10.262  16.198  66.440  1.00  0.00    -0.315 A  
HETATM    8  C   UNL     1     -10.872  16.060  65.179  1.00  0.00    -0.411 A  
HETATM    9  C   UNL     1     -11.337  14.825  64.730  1.00  0.00    -0.399 A  
HETATM   10  C   UNL     1     -11.173  13.682  65.519  1.00  0.00    -0.301 A  
HETATM   11  C   UNL     1     -10.071  15.039  67.202  1.00  0.00    -0.239 A  
HETATM   12  C   UNL     1     -10.487  13.797  66.733  1.00  0.00    -0.270 A  
BRANCH  10  13
HETATM   13  C   UNL     1     -11.792  12.367  65.108  1.00  0.00    -0.388 C  
HETATM   14  O   UNL     1     -13.161  12.616  64.820  1.00  0.00    -0.852 OA 
HETATM   15  H   UNL     1     -13.551  11.788  64.562  1.00  0.00     0.000 HD 
BRANCH  13  16
HETATM   16  C   UNL     1     -11.015  11.760  63.923  1.00  0.00    -0.476 C  
BRANCH  16  17
HETATM   17  C   UNL     1      -9.633  11.201  64.275  1.00  0.00    -0.288 C  
BRANCH  17  18
HETATM   18  C   UNL     1      -9.630   9.741  64.750  1.00  0.00    -0.214 C  
BRANCH  18  19
HETATM   19  N   UNL     1      -8.837   9.527  65.972  1.00  0.00    -0.149 NA 
HETATM   20  C   UNL     1      -9.535   9.926  67.198  1.00  0.00    -0.158 C  
HETATM   21  C   UNL     1     -10.648   8.967  67.633  1.00  0.00    -0.292 C  
HETATM   22  C   UNL     1     -10.203   7.486  67.765  1.00  0.00    -0.257 C  
HETATM   23  C   UNL     1      -9.456   7.157  69.127  1.00  0.00    -0.147 C  
HETATM   24  C   UNL     1      -9.438   7.133  66.465  1.00  0.00    -0.208 C  
HETATM   25  C   UNL     1      -8.955   5.696  69.139  1.00  0.00    -0.120 A  
HETATM   26  C   UNL     1     -10.294   7.490  70.395  1.00  0.00    -0.216 A  
HETATM   27  C   UNL     1      -8.351   8.143  66.086  1.00  0.00    -0.126 C  
HETATM   28  O   UNL     1      -8.290   7.999  69.179  1.00  0.00    -0.128 OA 
HETATM   29  C   UNL     1      -7.647   5.383  68.712  1.00  0.00    -0.079 A  
HETATM   30  C   UNL     1     -11.701   7.531  70.399  1.00  0.00    -0.116 A  
HETATM   31  H   UNL     1      -7.843   7.802  69.994  1.00  0.00     0.000 HD 
HETATM   32  C   UNL     1     -12.416   7.932  71.534  1.00  0.00    -0.341 A  
HETATM   33  C   UNL     1      -7.191   4.065  68.647  1.00  0.00    -0.055 A  
HETATM   34  C   UNL     1     -11.742   8.272  72.703  1.00  0.00    -0.406 A  
HETATM   35  C   UNL     1      -8.027   3.023  69.030  1.00  0.00    -0.065 A  
HETATM   36  C   UNL     1      -9.318   3.301  69.469  1.00  0.00    -0.235 A  
HETATM   37  C   UNL     1     -10.355   8.184  72.746  1.00  0.00    -0.384 A  
HETATM   38  C   UNL     1      -9.782   4.624  69.513  1.00  0.00    -0.278 A  
HETATM   39  C   UNL     1      -9.641   7.785  71.612  1.00  0.00    -0.191 A  
ENDBRANCH  18  19
ENDBRANCH  17  18
ENDBRANCH  16  17
ENDBRANCH  13  16
ENDBRANCH  10  13
ENDBRANCH   2   7
TORSDOF 6
ENDMDL
MODEL       17
REMARK 921   NORMALIZED FREE ENERGY PREDICTED BY IDOCK:   -6.70 KCAL/MOL
REMARK 922        TOTAL FREE ENERGY PREDICTED BY IDOCK:  -11.41 KCAL/MOL
REMARK 923 INTER-LIGAND FREE ENERGY PREDICTED BY IDOCK:  -10.71 KCAL/MOL
REMARK 924 INTRA-LIGAND FREE ENERGY PREDICTED BY IDOCK:   -0.70 KCAL/MOL
REMARK 927      BINDING AFFINITY PREDICTED BY RF-SCORE:    0.00 PKD
ROOT
HETATM    1  C   UNL     1      -7.660  20.866  67.247  1.00  0.00    -0.312 C  
HETATM    2  C   UNL     1      -7.180  19.408  67.434  1.00  0.00    -0.239 C  
HETATM    3  C   UNL     1      -6.798  19.226  68.917  1.00  0.00    -0.331 C  
HETATM    4  O   UNL     1      -6.907  20.088  69.779  1.00  0.00    -0.313 OA 
HETATM    5  C   UNL     1      -5.900  19.187  66.606  1.00  0.00    -0.171 C  
HETATM    6  O   UNL     1      -6.310  17.997  69.227  1.00  0.00    -0.234 OA 
ENDROOT
BRANCH   2   7
HETATM    7  C   UNL     1      -8.307  18.480  66.958  1.00  0.00    -0.259 A  
HETATM    8  C   UNL     1      -8.056  17.109  66.766  1.00  0.00    -0.278 A  
HETATM    9  C   UNL     1      -9.009  16.271  66.188  1.00  0.00    -0.374 A  
HETATM   10  C   UNL     1     -10.259  16.777  65.817  1.00  0.00    -0.311 A  
HETATM   11  C   UNL     1      -9.576  18.965  66.615  1.00  0.00    -0.364 A  
HETATM   12  C   UNL     1     -10.546  18.119  66.088  1.00  0.00    -0.289 A  
BRANCH  10  13
HETATM   13  C   UNL     1     -11.247  15.915  65.067  1.00  0.00    -0.290 C  
HETATM   14  O   UNL     1     -11.400  16.478  63.771  1.00  0.00    -1.553 OA 
HETATM   15  H   UNL     1     -12.023  15.936  63.299  1.00  0.00     0.000 HD 
BRANCH  13  16
HETATM   16  C   UNL     1     -10.769  14.451  65.049  1.00  0.00    -0.440 C  
BRANCH  16  17
HETATM   17  C   UNL     1     -11.632  13.479  65.859  1.00  0.00    -0.359 C  
BRANCH  17  18
HETATM   18  C   UNL     1     -10.868  12.659  66.907  1.00  0.00    -0.254 C  
BRANCH  18  19
HETATM   19  N   UNL     1     -11.400  11.296  67.081  1.00  0.00    -0.440 NA 
HETATM   20  C   UNL     1     -10.565  10.261  66.463  1.00  0.00    -0.132 C  
HETATM   21  C   UNL     1      -9.267   9.959  67.220  1.00  0.00    -0.156 C  
HETATM   22  C   UNL     1      -9.465   9.617  68.721  1.00  0.00    -0.148 C  
HETATM   23  C   UNL     1      -9.911   8.116  68.986  1.00  0.00    -0.176 C  
HETATM   24  C   UNL     1     -10.385  10.717  69.310  1.00  0.00    -0.240 C  
HETATM   25  C   UNL     1     -10.187   7.884  70.488  1.00  0.00    -0.198 A  
HETATM   26  C   UNL     1      -8.923   7.061  68.411  1.00  0.00    -0.122 A  
HETATM   27  C   UNL     1     -11.654  10.973  68.493  1.00  0.00    -0.310 C  
HETATM   28  O   UNL     1     -11.159   7.922  68.297  1.00  0.00    -0.424 OA 
HETATM   29  C   UNL     1     -11.491   8.031  71.008  1.00  0.00    -0.300 A  
HETATM   30  C   UNL     1      -7.557   7.323  68.193  1.00  0.00    -0.115 A  
HETATM   31  H   UNL     1     -11.426   7.024  68.455  1.00  0.00     0.000 HD 
HETATM   32  C   UNL     1      -6.722   6.380  67.582  1.00  0.00    -0.064 A  
HETATM   33  C   UNL     1     -11.757   7.894  72.372  1.00  0.00    -0.423 A  
HETATM   34  C   UNL     1      -7.225   5.141  67.201  1.00  0.00    -0.081 A  
HETATM   35  C   UNL     1     -10.727   7.584  73.252  1.00  0.00    -0.437 A  
HETATM   36  C   UNL     1      -9.433   7.419  72.766  1.00  0.00    -0.207 A  
HETATM   37  C   UNL     1      -8.557   4.832  67.456  1.00  0.00    -0.104 A  
HETATM   38  C   UNL     1      -9.163   7.578  71.400  1.00  0.00    -0.150 A  
HETATM   39  C   UNL     1      -9.392   5.774  68.066  1.00  0.00    -0.112 A  
ENDBRANCH  18  19
ENDBRANCH  17  18
ENDBRANCH  16  17
ENDBRANCH  13  16
ENDBRANCH  10  13
ENDBRANCH   2   7
TORSDOF 6
ENDMDL
MODEL       18
REMARK 921   NORMALIZED FREE ENERGY PREDICTED BY IDOCK:   -6.64 KCAL/MOL
REMARK 922        TOTAL FREE ENERGY PREDICTED BY IDOCK:  -11.32 KCAL/MOL
REMARK 923 INTER-LIGAND FREE ENERGY PREDICTED BY IDOCK:  -10.39 KCAL/MOL
REMARK 924 INTRA-LIGAND FREE ENERGY PREDICTED BY IDOCK:   -0.94 KCAL/MOL
REMARK 927      BINDING AFFINITY PREDICTED BY RF-SCORE:    0.00 PKD
ROOT
HETATM    1  C   UNL     1      -8.579  18.982  66.210  1.00  0.00    -0.281 C  
HETATM    2  C   UNL     1      -9.030  17.840  67.150  1.00  0.00    -0.249 C  
HETATM    3  C   UNL     1     -10.064  18.424  68.135  1.00  0.00    -0.382 C  
HETATM    4  O   UNL     1     -10.467  19.579  68.123  1.00  0.00    -0.422 OA 
HETATM    5  C   UNL     1      -7.825  17.366  67.985  1.00  0.00    -0.207 C  
HETATM    6  O   UNL     1     -10.521  17.542  69.060  1.00  0.00    -0.350 OA 
ENDROOT
BRANCH   2   7
HETATM    7  C   UNL     1      -9.572  16.701  66.275  1.00  0.00    -0.325 A  
HETATM    8  C   UNL     1     -10.640  16.939  65.390  1.00  0.00    -0.177 A  
HETATM    9  C   UNL     1     -11.255  15.897  64.699  1.00  0.00    -0.361 A  
HETATM   10  C   UNL     1     -10.793  14.585  64.846  1.00  0.00    -0.436 A  
HETATM   11  C   UNL     1      -9.096  15.388  66.384  1.00  0.00    -0.350 A  
HETATM   12  C   UNL     1      -9.675  14.354  65.654  1.00  0.00    -0.258 A  
BRANCH  10  13
HETATM   13  C   UNL     1     -11.534  13.431  64.212  1.00  0.00    -0.393 C  
HETATM   14  O   UNL     1     -12.345  13.968  63.175  1.00  0.00    -1.133 OA 
HETATM   15  H   UNL     1     -12.811  13.243  62.776  1.00  0.00     0.000 HD 
BRANCH  13  16
HETATM   16  C   UNL     1     -10.538  12.363  63.722  1.00  0.00    -0.486 C  
BRANCH  16  17
HETATM   17  C   UNL     1     -10.591  11.034  64.480  1.00  0.00    -0.383 C  
BRANCH  17  18
HETATM   18  C   UNL     1     -10.752  11.163  66.001  1.00  0.00    -0.211 C  
BRANCH  18  19
HETATM   19  N   UNL     1      -9.611  10.621  66.756  1.00  0.00    -0.166 NA 
HETATM   20  C   UNL     1      -9.795  10.672  68.210  1.00  0.00    -0.163 C  
HETATM   21  C   UNL     1     -10.781   9.635  68.760  1.00  0.00    -0.234 C  
HETATM   22  C   UNL     1     -10.472   8.173  68.343  1.00  0.00    -0.205 C  
HETATM   23  C   UNL     1      -9.336   7.481  69.211  1.00  0.00    -0.151 C  
HETATM   24  C   UNL     1     -10.245   8.186  66.809  1.00  0.00    -0.372 C  
HETATM   25  C   UNL     1      -9.015   6.071  68.670  1.00  0.00    -0.118 A  
HETATM   26  C   UNL     1      -9.643   7.458  70.735  1.00  0.00    -0.170 A  
HETATM   27  C   UNL     1      -9.260   9.256  66.332  1.00  0.00    -0.180 C  
HETATM   28  O   UNL     1      -8.145   8.272  69.048  1.00  0.00    -0.114 OA 
HETATM   29  C   UNL     1      -7.975   5.881  67.734  1.00  0.00    -0.098 A  
HETATM   30  C   UNL     1     -10.949   7.503  71.259  1.00  0.00    -0.262 A  
HETATM   31  H   UNL     1      -7.466   7.858  69.568  1.00  0.00     0.000 HD 
HETATM   32  C   UNL     1     -11.181   7.581  72.637  1.00  0.00    -0.399 A  
HETATM   33  C   UNL     1      -7.708   4.629  67.177  1.00  0.00    -0.090 A  
HETATM   34  C   UNL     1     -10.112   7.586  73.528  1.00  0.00    -0.378 A  
HETATM   35  C   UNL     1      -8.462   3.525  67.559  1.00  0.00    -0.105 A  
HETATM   36  C   UNL     1      -9.484   3.678  68.491  1.00  0.00    -0.212 A  
HETATM   37  C   UNL     1      -8.813   7.484  73.043  1.00  0.00    -0.201 A  
HETATM   38  C   UNL     1      -9.766   4.940  69.033  1.00  0.00    -0.245 A  
HETATM   39  C   UNL     1      -8.581   7.407  71.666  1.00  0.00    -0.122 A  
ENDBRANCH  18  19
ENDBRANCH  17  18
ENDBRANCH  16  17
ENDBRANCH  13  16
ENDBRANCH  10  13
ENDBRANCH   2   7
TORSDOF 6
ENDMDL
MODEL       19
REMARK 921   NORMALIZED FREE ENERGY PREDICTED BY IDOCK:   -6.63 KCAL/MOL
REMARK 922        TOTAL FREE ENERGY PREDICTED BY IDOCK:  -11.32 KCAL/MOL
REMARK 923 INTER-LIGAND FREE ENERGY PREDICTED BY IDOCK:   -9.75 KCAL/MOL
REMARK 924 INTRA-LIGAND FREE ENERGY PREDICTED BY IDOCK:   -1.57 KCAL/MOL
REMARK 927      BINDING AFFINITY PREDICTED BY RF-SCORE:    0.00 PKD
ROOT
HETATM    1  C   UNL     1     -10.595  18.050  66.023  1.00  0.00    -0.258 C  
HETATM    2  C   UNL     1     -10.265  16.554  66.232  1.00  0.00    -0.343 C  
HETATM    3  C   UNL     1      -8.734  16.391  66.133  1.00  0.00    -0.312 C  
HETATM    4  O   UNL     1      -7.943  17.309  65.962  1.00  0.00    -0.462 OA 
HETATM    5  C   UNL     1     -10.883  15.734  65.082  1.00  0.00    -0.444 C  
HETATM    6  O   UNL     1      -8.295  15.112  66.252  1.00  0.00    -0.042 OA 
ENDROOT
BRANCH   2   7
HETATM    7  C   UNL     1     -10.855  16.130  67.585  1.00  0.00    -0.297 A  
HETATM    8  C   UNL     1     -10.567  16.877  68.743  1.00  0.00    -0.355 A  
HETATM    9  C   UNL     1     -10.957  16.433  70.006  1.00  0.00    -0.322 A  
HETATM   10  C   UNL     1     -11.680  15.244  70.143  1.00  0.00    -0.342 A  
HETATM   11  C   UNL     1     -11.612  14.961  67.733  1.00  0.00    -0.358 A  
HETATM   12  C   UNL     1     -12.047  14.545  68.988  1.00  0.00    -0.286 A  
BRANCH  10  13
HETATM   13  C   UNL     1     -11.989  14.683  71.511  1.00  0.00    -0.334 C  
HETATM   14  O   UNL     1     -11.577  15.651  72.467  1.00  0.00    -0.439 OA 
HETATM   15  H   UNL     1     -11.770  15.298  73.328  1.00  0.00     0.000 HD 
BRANCH  13  16
HETATM   16  C   UNL     1     -13.482  14.317  71.612  1.00  0.00    -0.456 C  
BRANCH  16  17
HETATM   17  C   UNL     1     -13.766  12.875  72.042  1.00  0.00    -0.393 C  
BRANCH  17  18
HETATM   18  C   UNL     1     -12.563  11.927  71.955  1.00  0.00     0.053 C  
BRANCH  18  19
HETATM   19  N   UNL     1     -12.686  10.927  70.880  1.00  0.00    -0.367 NA 
HETATM   20  C   UNL     1     -12.011  11.319  69.638  1.00  0.00    -0.353 C  
HETATM   21  C   UNL     1     -10.482  11.222  69.691  1.00  0.00     0.081 C  
HETATM   22  C   UNL     1      -9.943   9.840  70.142  1.00  0.00    -0.315 C  
HETATM   23  C   UNL     1      -9.923   8.748  68.989  1.00  0.00    -0.191 C  
HETATM   24  C   UNL     1     -10.717   9.458  71.429  1.00  0.00    -0.407 C  
HETATM   25  C   UNL     1      -9.473   7.377  69.539  1.00  0.00    -0.155 A  
HETATM   26  C   UNL     1      -9.092   9.170  67.744  1.00  0.00    -0.135 A  
HETATM   27  C   UNL     1     -12.237   9.593  71.307  1.00  0.00    -0.363 C  
HETATM   28  O   UNL     1     -11.280   8.592  68.537  1.00  0.00    -0.354 OA 
HETATM   29  C   UNL     1     -10.426   6.434  69.982  1.00  0.00    -0.267 A  
HETATM   30  C   UNL     1      -8.034  10.099  67.802  1.00  0.00    -0.102 A  
HETATM   31  H   UNL     1     -11.268   7.939  67.847  1.00  0.00     0.000 HD 
HETATM   32  C   UNL     1      -7.376  10.528  66.644  1.00  0.00    -0.120 A  
HETATM   33  C   UNL     1     -10.046   5.216  70.548  1.00  0.00    -0.326 A  
HETATM   34  C   UNL     1      -7.737  10.017  65.402  1.00  0.00    -0.137 A  
HETATM   35  C   UNL     1      -8.698   4.897  70.665  1.00  0.00    -0.138 A  
HETATM   36  C   UNL     1      -7.736   5.800  70.224  1.00  0.00    -0.095 A  
HETATM   37  C   UNL     1      -8.739   9.055  65.320  1.00  0.00    -0.226 A  
HETATM   38  C   UNL     1      -8.118   7.032  69.677  1.00  0.00    -0.130 A  
HETATM   39  C   UNL     1      -9.398   8.627  66.476  1.00  0.00    -0.257 A  
ENDBRANCH  18  19
ENDBRANCH  17  18
ENDBRANCH  16  17
ENDBRANCH  13  16
ENDBRANCH  10  13
ENDBRANCH   2   7
TORSDOF 6
ENDMDL
MODEL       20
REMARK 921   NORMALIZED FREE ENERGY PREDICTED BY IDOCK:   -6.60 KCAL/MOL
REMARK 922        TOTAL FREE ENERGY PREDICTED BY IDOCK:  -11.27 KCAL/MOL
REMARK 923 INTER-LIGAND FREE ENERGY PREDICTED BY IDOCK:   -9.49 KCAL/MOL
REMARK 924 INTRA-LIGAND FREE ENERGY PREDICTED BY IDOCK:   -1.78 KCAL/MOL
REMARK 927      BINDING AFFINITY PREDICTED BY RF-SCORE:    0.00 PKD
ROOT
HETATM    1  C   UNL     1      -9.656  13.159  66.423  1.00  0.00    -0.259 C  
HETATM    2  C   UNL     1     -11.067  13.740  66.670  1.00  0.00    -0.316 C  
HETATM    3  C   UNL     1     -11.907  13.495  65.399  1.00  0.00    -0.357 C  
HETATM    4  O   UNL     1     -11.511  12.904  64.403  1.00  0.00    -0.323 OA 
HETATM    5  C   UNL     1     -10.960  15.266  66.855  1.00  0.00    -0.315 C  
HETATM    6  O   UNL     1     -13.167  13.997  65.451  1.00  0.00    -0.761 OA 
ENDROOT
BRANCH   2   7
HETATM    7  C   UNL     1     -11.632  13.075  67.933  1.00  0.00    -0.385 A  
HETATM    8  C   UNL     1     -11.890  13.848  69.081  1.00  0.00    -0.401 A  
HETATM    9  C   UNL     1     -12.253  13.254  70.288  1.00  0.00    -0.391 A  
HETATM   10  C   UNL     1     -12.404  11.866  70.373  1.00  0.00    -0.334 A  
HETATM   11  C   UNL     1     -11.822  11.690  68.023  1.00  0.00    -0.295 A  
HETATM   12  C   UNL     1     -12.236  11.101  69.214  1.00  0.00    -0.295 A  
BRANCH  10  13
HETATM   13  C   UNL     1     -12.662  11.199  71.704  1.00  0.00    -0.360 C  
HETATM   14  O   UNL     1     -13.649  11.968  72.378  1.00  0.00    -0.587 OA 
HETATM   15  H   UNL     1     -13.812  11.549  73.215  1.00  0.00     0.000 HD 
BRANCH  13  16
HETATM   16  C   UNL     1     -13.068   9.728  71.492  1.00  0.00    -0.506 C  
BRANCH  16  17
HETATM   17  C   UNL     1     -12.177   8.703  72.200  1.00  0.00    -0.453 C  
BRANCH  17  18
HETATM   18  C   UNL     1     -12.163   7.308  71.560  1.00  0.00    -0.352 C  
BRANCH  18  19
HETATM   19  N   UNL     1     -10.825   6.884  71.115  1.00  0.00    -0.236 NA 
HETATM   20  C   UNL     1     -10.709   6.756  69.658  1.00  0.00    -0.251 C  
HETATM   21  C   UNL     1     -10.646   8.091  68.908  1.00  0.00    -0.160 C  
HETATM   22  C   UNL     1      -9.547   9.061  69.418  1.00  0.00    -0.160 C  
HETATM   23  C   UNL     1      -8.095   8.738  68.864  1.00  0.00    -0.114 C  
HETATM   24  C   UNL     1      -9.691   9.126  70.960  1.00  0.00    -0.359 C  
HETATM   25  C   UNL     1      -7.045   9.679  69.495  1.00  0.00    -0.072 A  
HETATM   26  C   UNL     1      -8.005   8.733  67.311  1.00  0.00    -0.097 A  
HETATM   27  C   UNL     1      -9.762   7.755  71.638  1.00  0.00    -0.163 C  
HETATM   28  O   UNL     1      -7.771   7.403  69.293  1.00  0.00    -0.102 OA 
HETATM   29  C   UNL     1      -6.344   9.293  70.658  1.00  0.00    -0.068 A  
HETATM   30  C   UNL     1      -8.888   9.458  66.487  1.00  0.00    -0.155 A  
HETATM   31  H   UNL     1      -6.902   7.210  68.962  1.00  0.00     0.000 HD 
HETATM   32  C   UNL     1      -8.838   9.349  65.092  1.00  0.00    -0.233 A  
HETATM   33  C   UNL     1      -5.441  10.151  71.289  1.00  0.00    -0.066 A  
HETATM   34  C   UNL     1      -7.885   8.538  64.486  1.00  0.00    -0.138 A  
HETATM   35  C   UNL     1      -5.197  11.413  70.759  1.00  0.00    -0.123 A  
HETATM   36  C   UNL     1      -5.862  11.815  69.605  1.00  0.00    -0.097 A  
HETATM   37  C   UNL     1      -6.962   7.856  65.272  1.00  0.00    -0.059 A  
HETATM   38  C   UNL     1      -6.786  10.962  68.985  1.00  0.00    -0.070 A  
HETATM   39  C   UNL     1      -7.012   7.964  66.666  1.00  0.00    -0.072 A  
ENDBRANCH  18  19
ENDBRANCH  17  18
ENDBRANCH  16  17
ENDBRANCH  13  16
ENDBRANCH  10  13
ENDBRANCH   2   7
TORSDOF 6
ENDMDL
MODEL       21
REMARK 921   NORMALIZED FREE ENERGY PREDICTED BY IDOCK:   -6.60 KCAL/MOL
REMARK 922        TOTAL FREE ENERGY PREDICTED BY IDOCK:  -11.27 KCAL/MOL
REMARK 923 INTER-LIGAND FREE ENERGY PREDICTED BY IDOCK:  -10.05 KCAL/MOL
REMARK 924 INTRA-LIGAND FREE ENERGY PREDICTED BY IDOCK:   -1.21 KCAL/MOL
REMARK 927      BINDING AFFINITY PREDICTED BY RF-SCORE:    0.00 PKD
ROOT
HETATM    1  C   UNL     1     -12.783  12.029  64.150  1.00  0.00    -0.361 C  
HETATM    2  C   UNL     1     -11.593  12.850  64.700  1.00  0.00    -0.392 C  
HETATM    3  C   UNL     1     -11.793  14.316  64.265  1.00  0.00    -0.379 C  
HETATM    4  O   UNL     1     -12.755  14.734  63.634  1.00  0.00    -0.713 OA 
HETATM    5  C   UNL     1     -10.291  12.355  64.042  1.00  0.00    -0.435 C  
HETATM    6  O   UNL     1     -10.794  15.156  64.639  1.00  0.00    -0.377 OA 
ENDROOT
BRANCH   2   7
HETATM    7  C   UNL     1     -11.549  12.646  66.221  1.00  0.00    -0.440 A  
HETATM    8  C   UNL     1     -11.144  11.408  66.754  1.00  0.00    -0.343 A  
HETATM    9  C   UNL     1     -11.241  11.140  68.119  1.00  0.00    -0.356 A  
HETATM   10  C   UNL     1     -11.715  12.120  68.997  1.00  0.00    -0.377 A  
HETATM   11  C   UNL     1     -11.987  13.630  67.117  1.00  0.00    -0.434 A  
HETATM   12  C   UNL     1     -12.034  13.382  68.485  1.00  0.00    -0.363 A  
BRANCH  10  13
HETATM   13  C   UNL     1     -11.954  11.798  70.454  1.00  0.00    -0.332 C  
HETATM   14  O   UNL     1     -12.190  13.028  71.125  1.00  0.00    -0.376 OA 
HETATM   15  H   UNL     1     -12.340  12.826  72.041  1.00  0.00     0.000 HD 
BRANCH  13  16
HETATM   16  C   UNL     1     -13.110  10.789  70.593  1.00  0.00    -0.204 C  
BRANCH  16  17
HETATM   17  C   UNL     1     -13.111   9.984  71.895  1.00  0.00    -0.563 C  
BRANCH  17  18
HETATM   18  C   UNL     1     -13.218   8.464  71.714  1.00  0.00    -0.355 C  
BRANCH  18  19
HETATM   19  N   UNL     1     -12.052   7.731  72.237  1.00  0.00    -0.306 NA 
HETATM   20  C   UNL     1     -11.964   6.351  71.751  1.00  0.00    -0.316 C  
HETATM   21  C   UNL     1     -11.518   6.221  70.290  1.00  0.00    -0.428 C  
HETATM   22  C   UNL     1     -10.193   6.957  69.957  1.00  0.00    -0.211 C  
HETATM   23  C   UNL     1      -8.888   6.155  70.376  1.00  0.00    -0.149 C  
HETATM   24  C   UNL     1     -10.325   8.392  70.528  1.00  0.00    -0.220 C  
HETATM   25  C   UNL     1      -7.619   6.995  70.108  1.00  0.00    -0.095 A  
HETATM   26  C   UNL     1      -8.790   4.742  69.734  1.00  0.00    -0.128 A  
HETATM   27  C   UNL     1     -10.789   8.443  71.986  1.00  0.00    -0.320 C  
HETATM   28  O   UNL     1      -8.960   5.951  71.798  1.00  0.00    -0.139 OA 
HETATM   29  C   UNL     1      -7.067   7.804  71.124  1.00  0.00    -0.050 A  
HETATM   30  C   UNL     1      -9.423   4.400  68.524  1.00  0.00    -0.217 A  
HETATM   31  H   UNL     1      -8.180   5.472  72.049  1.00  0.00     0.000 HD 
HETATM   32  C   UNL     1      -9.394   3.091  68.029  1.00  0.00    -0.255 A  
HETATM   33  C   UNL     1      -5.962   8.625  70.890  1.00  0.00    -0.036 A  
HETATM   34  C   UNL     1      -8.706   2.097  68.717  1.00  0.00    -0.126 A  
HETATM   35  C   UNL     1      -5.365   8.642  69.635  1.00  0.00    -0.030 A  
HETATM   36  C   UNL     1      -5.879   7.845  68.617  1.00  0.00    -0.035 A  
HETATM   37  C   UNL     1      -8.022   2.418  69.885  1.00  0.00    -0.053 A  
HETATM   38  C   UNL     1      -7.001   7.037  68.847  1.00  0.00    -0.079 A  
HETATM   39  C   UNL     1      -8.052   3.725  70.380  1.00  0.00    -0.061 A  
ENDBRANCH  18  19
ENDBRANCH  17  18
ENDBRANCH  16  17
ENDBRANCH  13  16
ENDBRANCH  10  13
ENDBRANCH   2   7
TORSDOF 6
ENDMDL
MODEL       22
REMARK 921   NORMALIZED FREE ENERGY PREDICTED BY IDOCK:   -6.55 KCAL/MOL
REMARK 922        TOTAL FREE ENERGY PREDICTED BY IDOCK:  -11.20 KCAL/MOL
REMARK 923 INTER-LIGAND FREE ENERGY PREDICTED BY IDOCK:   -9.33 KCAL/MOL
REMARK 924 INTRA-LIGAND FREE ENERGY PREDICTED BY IDOCK:   -1.87 KCAL/MOL
REMARK 927      BINDING AFFINITY PREDICTED BY RF-SCORE:    0.00 PKD
ROOT
HETATM    1  C   UNL     1     -10.270   3.751  73.062  1.00  0.00    -0.229 C  
HETATM    2  C   UNL     1     -10.082   5.051  72.246  1.00  0.00    -0.245 C  
HETATM    3  C   UNL     1      -8.852   5.789  72.813  1.00  0.00    -0.121 C  
HETATM    4  O   UNL     1      -8.144   5.373  73.721  1.00  0.00    -0.111 OA 
HETATM    5  C   UNL     1     -11.301   5.967  72.466  1.00  0.00    -0.352 C  
HETATM    6  O   UNL     1      -8.588   6.981  72.221  1.00  0.00    -0.121 OA 
ENDROOT
BRANCH   2   7
HETATM    7  C   UNL     1      -9.952   4.659  70.767  1.00  0.00    -0.284 A  
HETATM    8  C   UNL     1      -9.188   3.535  70.401  1.00  0.00    -0.219 A  
HETATM    9  C   UNL     1      -8.922   3.244  69.063  1.00  0.00    -0.187 A  
HETATM   10  C   UNL     1      -9.446   4.053  68.049  1.00  0.00    -0.220 A  
HETATM   11  C   UNL     1     -10.500   5.438  69.740  1.00  0.00    -0.378 A  
HETATM   12  C   UNL     1     -10.280   5.118  68.404  1.00  0.00    -0.175 A  
BRANCH  10  13
HETATM   13  C   UNL     1      -9.054   3.829  66.607  1.00  0.00    -0.157 C  
HETATM   14  O   UNL     1      -9.768   2.690  66.147  1.00  0.00    -0.374 OA 
HETATM   15  H   UNL     1      -9.521   2.549  65.240  1.00  0.00     0.000 HD 
BRANCH  13  16
HETATM   16  C   UNL     1      -9.325   5.101  65.779  1.00  0.00    -0.163 C  
BRANCH  16  17
HETATM   17  C   UNL     1      -8.087   5.948  65.474  1.00  0.00    -0.131 C  
BRANCH  17  18
HETATM   18  C   UNL     1      -8.383   7.395  65.053  1.00  0.00    -0.050 C  
BRANCH  18  19
HETATM   19  N   UNL     1      -8.046   8.384  66.091  1.00  0.00    -0.102 NA 
HETATM   20  C   UNL     1      -8.334   9.766  65.696  1.00  0.00    -0.134 C  
HETATM   21  C   UNL     1      -9.823  10.127  65.694  1.00  0.00    -0.347 C  
HETATM   22  C   UNL     1     -10.558   9.821  67.025  1.00  0.00    -0.269 C  
HETATM   23  C   UNL     1     -10.343  10.923  68.148  1.00  0.00    -0.178 C  
HETATM   24  C   UNL     1     -10.186   8.368  67.416  1.00  0.00    -0.328 C  
HETATM   25  C   UNL     1     -11.018  10.497  69.471  1.00  0.00    -0.312 A  
HETATM   26  C   UNL     1     -10.779  12.351  67.712  1.00  0.00    -0.247 A  
HETATM   27  C   UNL     1      -8.684   8.077  67.381  1.00  0.00    -0.124 C  
HETATM   28  O   UNL     1      -8.929  10.990  68.403  1.00  0.00    -0.145 OA 
HETATM   29  C   UNL     1     -10.286   9.802  70.458  1.00  0.00    -0.348 A  
HETATM   30  C   UNL     1     -11.746  12.592  66.718  1.00  0.00    -0.460 A  
HETATM   31  H   UNL     1      -8.800  11.649  69.075  1.00  0.00     0.000 HD 
HETATM   32  C   UNL     1     -12.038  13.890  66.283  1.00  0.00    -0.484 A  
HETATM   33  C   UNL     1     -10.888   9.345  71.632  1.00  0.00    -0.348 A  
HETATM   34  C   UNL     1     -11.393  14.982  66.854  1.00  0.00    -0.302 A  
HETATM   35  C   UNL     1     -12.236   9.592  71.861  1.00  0.00    -0.432 A  
HETATM   36  C   UNL     1     -12.980  10.287  70.913  1.00  0.00    -0.456 A  
HETATM   37  C   UNL     1     -10.475  14.779  67.879  1.00  0.00    -0.246 A  
HETATM   38  C   UNL     1     -12.381  10.726  69.725  1.00  0.00    -0.305 A  
HETATM   39  C   UNL     1     -10.182  13.482  68.313  1.00  0.00    -0.250 A  
ENDBRANCH  18  19
ENDBRANCH  17  18
ENDBRANCH  16  17
ENDBRANCH  13  16
ENDBRANCH  10  13
ENDBRANCH   2   7
TORSDOF 6
ENDMDL
MODEL       23
REMARK 921   NORMALIZED FREE ENERGY PREDICTED BY IDOCK:   -6.55 KCAL/MOL
REMARK 922        TOTAL FREE ENERGY PREDICTED BY IDOCK:  -11.20 KCAL/MOL
REMARK 923 INTER-LIGAND FREE ENERGY PREDICTED BY IDOCK:  -10.59 KCAL/MOL
REMARK 924 INTRA-LIGAND FREE ENERGY PREDICTED BY IDOCK:   -0.61 KCAL/MOL
REMARK 927      BINDING AFFINITY PREDICTED BY RF-SCORE:    0.00 PKD
ROOT
HETATM    1  C   UNL     1     -12.659  12.022  64.268  1.00  0.00    -0.359 C  
HETATM    2  C   UNL     1     -11.543  12.900  64.880  1.00  0.00    -0.365 C  
HETATM    3  C   UNL     1     -11.812  14.361  64.467  1.00  0.00    -0.449 C  
HETATM    4  O   UNL     1     -12.773  14.735  63.806  1.00  0.00    -0.767 OA 
HETATM    5  C   UNL     1     -10.188  12.497  64.265  1.00  0.00    -0.359 C  
HETATM    6  O   UNL     1     -10.881  15.249  64.897  1.00  0.00    -0.415 OA 
ENDROOT
BRANCH   2   7
HETATM    7  C   UNL     1     -11.545  12.666  66.398  1.00  0.00    -0.441 A  
HETATM    8  C   UNL     1     -11.376  11.366  66.910  1.00  0.00    -0.284 A  
HETATM    9  C   UNL     1     -11.529  11.097  68.269  1.00  0.00    -0.373 A  
HETATM   10  C   UNL     1     -11.821  12.132  69.164  1.00  0.00    -0.361 A  
HETATM   11  C   UNL     1     -11.801  13.698  67.309  1.00  0.00    -0.429 A  
HETATM   12  C   UNL     1     -11.901  13.440  68.673  1.00  0.00    -0.397 A  
BRANCH  10  13
HETATM   13  C   UNL     1     -12.123  11.835  70.614  1.00  0.00    -0.311 C  
HETATM   14  O   UNL     1     -12.573  13.045  71.208  1.00  0.00    -0.360 OA 
HETATM   15  H   UNL     1     -12.762  12.858  72.121  1.00  0.00     0.000 HD 
BRANCH  13  16
HETATM   16  C   UNL     1     -13.140  10.682  70.720  1.00  0.00    -0.299 C  
BRANCH  16  17
HETATM   17  C   UNL     1     -13.343  10.129  72.133  1.00  0.00    -0.431 C  
BRANCH  17  18
HETATM   18  C   UNL     1     -12.921   8.665  72.319  1.00  0.00    -0.381 C  
BRANCH  18  19
HETATM   19  N   UNL     1     -11.485   8.438  72.084  1.00  0.00    -0.345 NA 
HETATM   20  C   UNL     1     -10.896   7.439  72.981  1.00  0.00    -0.375 C  
HETATM   21  C   UNL     1     -11.281   5.991  72.655  1.00  0.00    -0.326 C  
HETATM   22  C   UNL     1     -11.009   5.571  71.187  1.00  0.00    -0.196 C  
HETATM   23  C   UNL     1      -9.497   5.182  70.897  1.00  0.00    -0.167 C  
HETATM   24  C   UNL     1     -11.613   6.680  70.288  1.00  0.00    -0.454 C  
HETATM   25  C   UNL     1      -9.287   4.878  69.397  1.00  0.00    -0.186 A  
HETATM   26  C   UNL     1      -8.964   4.033  71.799  1.00  0.00    -0.159 A  
HETATM   27  C   UNL     1     -11.197   8.099  70.682  1.00  0.00    -0.260 C  
HETATM   28  O   UNL     1      -8.701   6.341  71.203  1.00  0.00    -0.128 OA 
HETATM   29  C   UNL     1      -8.866   5.893  68.512  1.00  0.00    -0.111 A  
HETATM   30  C   UNL     1      -9.800   3.066  72.389  1.00  0.00    -0.228 A  
HETATM   31  H   UNL     1      -7.797   6.109  71.030  1.00  0.00     0.000 HD 
HETATM   32  C   UNL     1      -9.295   2.107  73.275  1.00  0.00    -0.094 A  
HETATM   33  C   UNL     1      -8.735   5.663  67.141  1.00  0.00    -0.108 A  
HETATM   34  C   UNL     1      -7.936   2.073  73.569  1.00  0.00    -0.043 A  
HETATM   35  C   UNL     1      -9.000   4.401  66.621  1.00  0.00    -0.117 A  
HETATM   36  C   UNL     1      -9.403   3.377  67.471  1.00  0.00    -0.248 A  
HETATM   37  C   UNL     1      -7.076   2.978  72.957  1.00  0.00    -0.043 A  
HETATM   38  C   UNL     1      -9.556   3.614  68.845  1.00  0.00    -0.157 A  
HETATM   39  C   UNL     1      -7.581   3.937  72.072  1.00  0.00    -0.066 A  
ENDBRANCH  18  19
ENDBRANCH  17  18
ENDBRANCH  16  17
ENDBRANCH  13  16
ENDBRANCH  10  13
ENDBRANCH   2   7
TORSDOF 6
ENDMDL
MODEL       24
REMARK 921   NORMALIZED FREE ENERGY PREDICTED BY IDOCK:   -6.48 KCAL/MOL
REMARK 922        TOTAL FREE ENERGY PREDICTED BY IDOCK:  -11.11 KCAL/MOL
REMARK 923 INTER-LIGAND FREE ENERGY PREDICTED BY IDOCK:  -10.36 KCAL/MOL
REMARK 924 INTRA-LIGAND FREE ENERGY PREDICTED BY IDOCK:   -0.74 KCAL/MOL
REMARK 927      BINDING AFFINITY PREDICTED BY RF-SCORE:    0.00 PKD
ROOT
HETATM    1  C   UNL     1     -11.029  16.927  68.644  1.00  0.00    -0.262 C  
HETATM    2  C   UNL     1     -10.877  15.425  68.977  1.00  0.00    -0.244 C  
HETATM    3  C   UNL     1     -11.894  15.083  70.084  1.00  0.00    -0.314 C  
HETATM    4  O   UNL     1     -12.697  15.873  70.565  1.00  0.00    -0.387 OA 
HETATM    5  C   UNL     1      -9.472  15.176  69.559  1.00  0.00    -0.151 C  
HETATM    6  O   UNL     1     -11.846  13.797  70.517  1.00  0.00    -0.296 OA 
ENDROOT
BRANCH   2   7
HETATM    7  C   UNL     1     -11.077  14.635  67.675  1.00  0.00    -0.311 A  
HETATM    8  C   UNL     1     -10.686  15.196  66.444  1.00  0.00    -0.317 A  
HETATM    9  C   UNL     1     -10.995  14.576  65.235  1.00  0.00    -0.366 A  
HETATM   10  C   UNL     1     -11.675  13.353  65.223  1.00  0.00    -0.346 A  
HETATM   11  C   UNL     1     -11.725  13.393  67.650  1.00  0.00    -0.397 A  
HETATM   12  C   UNL     1     -11.986  12.748  66.445  1.00  0.00    -0.443 A  
BRANCH  10  13
HETATM   13  C   UNL     1     -12.135  12.740  63.922  1.00  0.00    -0.486 C  
HETATM   14  O   UNL     1     -12.415  13.808  63.027  1.00  0.00    -1.068 OA 
HETATM   15  H   UNL     1     -12.705  13.422  62.208  1.00  0.00     0.000 HD 
BRANCH  13  16
HETATM   16  C   UNL     1     -11.073  11.756  63.393  1.00  0.00    -0.448 C  
BRANCH  16  17
HETATM   17  C   UNL     1      -9.930  11.455  64.365  1.00  0.00    -0.321 C  
BRANCH  17  18
HETATM   18  C   UNL     1      -9.747   9.970  64.706  1.00  0.00    -0.293 C  
BRANCH  18  19
HETATM   19  N   UNL     1      -8.908   9.744  65.896  1.00  0.00    -0.144 NA 
HETATM   20  C   UNL     1      -9.575  10.092  67.155  1.00  0.00    -0.169 C  
HETATM   21  C   UNL     1     -10.650   9.093  67.599  1.00  0.00    -0.307 C  
HETATM   22  C   UNL     1     -10.164   7.622  67.676  1.00  0.00    -0.277 C  
HETATM   23  C   UNL     1      -9.364   7.276  69.004  1.00  0.00    -0.148 C  
HETATM   24  C   UNL     1      -9.433   7.323  66.342  1.00  0.00    -0.185 C  
HETATM   25  C   UNL     1      -8.827   5.829  68.959  1.00  0.00    -0.111 A  
HETATM   26  C   UNL     1     -10.167   7.553  70.306  1.00  0.00    -0.204 A  
HETATM   27  C   UNL     1      -8.386   8.371  65.956  1.00  0.00    -0.126 C  
HETATM   28  O   UNL     1      -8.219   8.145  69.040  1.00  0.00    -0.123 OA 
HETATM   29  C   UNL     1      -7.526   5.561  68.481  1.00  0.00    -0.076 A  
HETATM   30  C   UNL     1     -11.575   7.558  70.358  1.00  0.00    -0.172 A  
HETATM   31  H   UNL     1      -7.740   7.939  69.834  1.00  0.00     0.000 HD 
HETATM   32  C   UNL     1     -12.261   7.910  71.525  1.00  0.00    -0.338 A  
HETATM   33  C   UNL     1      -7.041   4.257  68.365  1.00  0.00    -0.055 A  
HETATM   34  C   UNL     1     -11.558   8.236  72.680  1.00  0.00    -0.419 A  
HETATM   35  C   UNL     1      -7.838   3.184  68.746  1.00  0.00    -0.057 A  
HETATM   36  C   UNL     1      -9.119   3.417  69.235  1.00  0.00    -0.199 A  
HETATM   37  C   UNL     1     -10.168   8.183  72.677  1.00  0.00    -0.388 A  
HETATM   38  C   UNL     1      -9.614   4.725  69.330  1.00  0.00    -0.243 A  
HETATM   39  C   UNL     1      -9.482   7.832  71.510  1.00  0.00    -0.174 A  
ENDBRANCH  18  19
ENDBRANCH  17  18
ENDBRANCH  16  17
ENDBRANCH  13  16
ENDBRANCH  10  13
ENDBRANCH   2   7
TORSDOF 6
ENDMDL
MODEL       25
REMARK 921   NORMALIZED FREE ENERGY PREDICTED BY IDOCK:   -6.42 KCAL/MOL
REMARK 922        TOTAL FREE ENERGY PREDICTED BY IDOCK:  -11.03 KCAL/MOL
REMARK 923 INTER-LIGAND FREE ENERGY PREDICTED BY IDOCK:   -9.60 KCAL/MOL
REMARK 924 INTRA-LIGAND FREE ENERGY PREDICTED BY IDOCK:   -1.43 KCAL/MOL
REMARK 927      BINDING AFFINITY PREDICTED BY RF-SCORE:    0.00 PKD
ROOT
HETATM    1  C   UNL     1     -11.795  15.383  72.237  1.00  0.00    -0.551 C  
HETATM    2  C   UNL     1     -12.575  14.881  71.000  1.00  0.00    -0.402 C  
HETATM    3  C   UNL     1     -11.808  15.338  69.743  1.00  0.00    -0.332 C  
HETATM    4  O   UNL     1     -10.749  15.952  69.754  1.00  0.00    -0.270 OA 
HETATM    5  C   UNL     1     -13.956  15.564  70.962  1.00  0.00    -0.166 C  
HETATM    6  O   UNL     1     -12.402  15.006  68.568  1.00  0.00    -0.086 OA 
ENDROOT
BRANCH   2   7
HETATM    7  C   UNL     1     -12.722  13.357  71.127  1.00  0.00    -0.411 A  
HETATM    8  C   UNL     1     -13.616  12.813  72.068  1.00  0.00    -0.460 A  
HETATM    9  C   UNL     1     -13.659  11.442  72.317  1.00  0.00     0.052 A  
HETATM   10  C   UNL     1     -12.830  10.570  71.604  1.00  0.00    -0.581 A  
HETATM   11  C   UNL     1     -11.924  12.470  70.395  1.00  0.00    -0.335 A  
HETATM   12  C   UNL     1     -12.004  11.096  70.605  1.00  0.00    -0.459 A  
BRANCH  10  13
HETATM   13  C   UNL     1     -12.768   9.103  71.958  1.00  0.00    -0.398 C  
HETATM   14  O   UNL     1     -13.626   8.414  71.059  1.00  0.00    -0.542 OA 
HETATM   15  H   UNL     1     -13.587   7.491  71.282  1.00  0.00     0.000 HD 
BRANCH  13  16
HETATM   16  C   UNL     1     -11.309   8.607  71.919  1.00  0.00    -0.417 C  
BRANCH  16  17
HETATM   17  C   UNL     1     -11.089   7.310  71.135  1.00  0.00    -0.275 C  
BRANCH  17  18
HETATM   18  C   UNL     1      -9.812   7.279  70.284  1.00  0.00    -0.179 C  
BRANCH  18  19
HETATM   19  N   UNL     1     -10.078   7.221  68.836  1.00  0.00    -0.175 NA 
HETATM   20  C   UNL     1     -10.889   8.340  68.346  1.00  0.00     0.092 C  
HETATM   21  C   UNL     1     -10.138   9.673  68.255  1.00  0.00    -0.203 C  
HETATM   22  C   UNL     1      -8.819   9.612  67.441  1.00  0.00    -0.134 C  
HETATM   23  C   UNL     1      -9.029   9.680  65.868  1.00  0.00    -0.167 C  
HETATM   24  C   UNL     1      -8.025   8.391  67.971  1.00  0.00    -0.119 C  
HETATM   25  C   UNL     1      -7.685   9.509  65.128  1.00  0.00    -0.112 A  
HETATM   26  C   UNL     1      -9.791  10.950  65.395  1.00  0.00    -0.308 A  
HETATM   27  C   UNL     1      -8.843   7.099  68.047  1.00  0.00    -0.129 C  
HETATM   28  O   UNL     1      -9.851   8.555  65.507  1.00  0.00    -0.373 OA 
HETATM   29  C   UNL     1      -7.259   8.233  64.699  1.00  0.00    -0.083 A  
HETATM   30  C   UNL     1      -9.807  12.156  66.123  1.00  0.00    -0.254 A  
HETATM   31  H   UNL     1      -9.976   8.596  64.566  1.00  0.00     0.000 HD 
HETATM   32  C   UNL     1     -10.585  13.245  65.714  1.00  0.00    -0.291 A  
HETATM   33  C   UNL     1      -6.018   8.040  64.089  1.00  0.00    -0.057 A  
HETATM   34  C   UNL     1     -11.344  13.167  64.551  1.00  0.00    -0.383 A  
HETATM   35  C   UNL     1      -5.176   9.125  63.871  1.00  0.00    -0.060 A  
HETATM   36  C   UNL     1      -5.575  10.397  64.270  1.00  0.00    -0.140 A  
HETATM   37  C   UNL     1     -11.303  12.010  63.780  1.00  0.00    -0.526 A  
HETATM   38  C   UNL     1      -6.811  10.586  64.902  1.00  0.00     0.032 A  
HETATM   39  C   UNL     1     -10.526  10.921  64.188  1.00  0.00    -0.397 A  
ENDBRANCH  18  19
ENDBRANCH  17  18
ENDBRANCH  16  17
ENDBRANCH  13  16
ENDBRANCH  10  13
ENDBRANCH   2   7
TORSDOF 6
ENDMDL
MODEL       26
REMARK 921   NORMALIZED FREE ENERGY PREDICTED BY IDOCK:   -6.38 KCAL/MOL
REMARK 922        TOTAL FREE ENERGY PREDICTED BY IDOCK:  -10.97 KCAL/MOL
REMARK 923 INTER-LIGAND FREE ENERGY PREDICTED BY IDOCK:   -9.52 KCAL/MOL
REMARK 924 INTRA-LIGAND FREE ENERGY PREDICTED BY IDOCK:   -1.45 KCAL/MOL
REMARK 927      BINDING AFFINITY PREDICTED BY RF-SCORE:    0.00 PKD
ROOT
HETATM    1  C   UNL     1      -9.503   2.169  68.173  1.00  0.00    -0.221 C  
HETATM    2  C   UNL     1      -8.840   3.566  68.197  1.00  0.00    -0.153 C  
HETATM    3  C   UNL     1      -8.895   4.139  66.766  1.00  0.00    -0.119 C  
HETATM    4  O   UNL     1      -9.416   3.581  65.810  1.00  0.00    -0.164 OA 
HETATM    5  C   UNL     1      -7.352   3.413  68.568  1.00  0.00    -0.050 C  
HETATM    6  O   UNL     1      -8.304   5.352  66.622  1.00  0.00    -0.108 OA 
ENDROOT
BRANCH   2   7
HETATM    7  C   UNL     1      -9.579   4.415  69.242  1.00  0.00    -0.261 A  
HETATM    8  C   UNL     1      -9.478   4.094  70.609  1.00  0.00    -0.242 A  
HETATM    9  C   UNL     1     -10.256   4.744  71.565  1.00  0.00    -0.246 A  
HETATM   10  C   UNL     1     -11.135   5.764  71.184  1.00  0.00    -0.257 A  
HETATM   11  C   UNL     1     -10.435   5.463  68.879  1.00  0.00    -0.238 A  
HETATM   12  C   UNL     1     -11.172   6.149  69.839  1.00  0.00    -0.484 A  
BRANCH  10  13
HETATM   13  C   UNL     1     -12.081   6.381  72.187  1.00  0.00    -0.268 C  
HETATM   14  O   UNL     1     -11.293   6.879  73.260  1.00  0.00    -0.517 OA 
HETATM   15  H   UNL     1     -11.888   7.267  73.891  1.00  0.00     0.000 HD 
BRANCH  13  16
HETATM   16  C   UNL     1     -12.947   7.459  71.508  1.00  0.00    -0.421 C  
BRANCH  16  17
HETATM   17  C   UNL     1     -12.796   8.869  72.086  1.00  0.00    -0.471 C  
BRANCH  17  18
HETATM   18  C   UNL     1     -12.889  10.002  71.055  1.00  0.00    -0.365 C  
BRANCH  18  19
HETATM   19  N   UNL     1     -11.599  10.663  70.797  1.00  0.00    -0.332 NA 
HETATM   20  C   UNL     1     -10.650   9.823  70.058  1.00  0.00    -0.276 C  
HETATM   21  C   UNL     1     -10.978   9.657  68.570  1.00  0.00    -0.153 C  
HETATM   22  C   UNL     1     -11.171  10.991  67.803  1.00  0.00    -0.374 C  
HETATM   23  C   UNL     1      -9.811  11.691  67.376  1.00  0.00    -0.183 C  
HETATM   24  C   UNL     1     -12.145  11.853  68.647  1.00  0.00    -0.155 C  
HETATM   25  C   UNL     1     -10.084  13.059  66.713  1.00  0.00    -0.247 A  
HETATM   26  C   UNL     1      -8.898  10.794  66.493  1.00  0.00    -0.162 A  
HETATM   27  C   UNL     1     -11.763  11.961  70.125  1.00  0.00    -0.253 C  
HETATM   28  O   UNL     1      -9.076  11.953  68.585  1.00  0.00    -0.317 OA 
HETATM   29  C   UNL     1     -10.083  14.243  67.483  1.00  0.00    -0.236 A  
HETATM   30  C   UNL     1      -9.390   9.747  65.690  1.00  0.00    -0.285 A  
HETATM   31  H   UNL     1      -8.263  12.371  68.329  1.00  0.00     0.000 HD 
HETATM   32  C   UNL     1      -8.527   8.898  64.987  1.00  0.00    -0.194 A  
HETATM   33  C   UNL     1     -10.394  15.483  66.922  1.00  0.00    -0.290 A  
HETATM   34  C   UNL     1      -7.152   9.094  65.045  1.00  0.00    -0.092 A  
HETATM   35  C   UNL     1     -10.692  15.577  65.568  1.00  0.00    -0.395 A  
HETATM   36  C   UNL     1     -10.686  14.430  64.780  1.00  0.00    -0.423 A  
HETATM   37  C   UNL     1      -6.639  10.155  65.783  1.00  0.00    -0.109 A  
HETATM   38  C   UNL     1     -10.396  13.182  65.348  1.00  0.00    -0.313 A  
HETATM   39  C   UNL     1      -7.501  11.003  66.486  1.00  0.00    -0.145 A  
ENDBRANCH  18  19
ENDBRANCH  17  18
ENDBRANCH  16  17
ENDBRANCH  13  16
ENDBRANCH  10  13
ENDBRANCH   2   7
TORSDOF 6
ENDMDL
MODEL       27
REMARK 921   NORMALIZED FREE ENERGY PREDICTED BY IDOCK:   -6.36 KCAL/MOL
REMARK 922        TOTAL FREE ENERGY PREDICTED BY IDOCK:  -10.95 KCAL/MOL
REMARK 923 INTER-LIGAND FREE ENERGY PREDICTED BY IDOCK:   -9.10 KCAL/MOL
REMARK 924 INTRA-LIGAND FREE ENERGY PREDICTED BY IDOCK:   -1.84 KCAL/MOL
REMARK 927      BINDING AFFINITY PREDICTED BY RF-SCORE:    0.00 PKD
ROOT
HETATM    1  C   UNL     1     -10.112  10.510  69.362  1.00  0.00    -0.233 C  
HETATM    2  C   UNL     1      -8.941   9.558  69.024  1.00  0.00    -0.144 C  
HETATM    3  C   UNL     1      -9.271   8.176  69.624  1.00  0.00    -0.155 C  
HETATM    4  O   UNL     1     -10.303   7.901  70.221  1.00  0.00    -0.205 OA 
HETATM    5  C   UNL     1      -7.662  10.061  69.719  1.00  0.00    -0.173 C  
HETATM    6  O   UNL     1      -8.305   7.239  69.446  1.00  0.00    -0.130 OA 
ENDROOT
BRANCH   2   7
HETATM    7  C   UNL     1      -8.769   9.554  67.498  1.00  0.00    -0.126 A  
HETATM    8  C   UNL     1      -7.739  10.307  66.904  1.00  0.00    -0.105 A  
HETATM    9  C   UNL     1      -7.650  10.451  65.520  1.00  0.00    -0.144 A  
HETATM   10  C   UNL     1      -8.574   9.812  64.686  1.00  0.00    -0.199 A  
HETATM   11  C   UNL     1      -9.664   8.890  66.649  1.00  0.00    -0.303 A  
HETATM   12  C   UNL     1      -9.545   8.989  65.266  1.00  0.00     0.010 A  
BRANCH  10  13
HETATM   13  C   UNL     1      -8.573  10.068  63.197  1.00  0.00    -0.197 C  
HETATM   14  O   UNL     1      -9.050   8.888  62.565  1.00  0.00    -0.468 OA 
HETATM   15  H   UNL     1      -9.049   9.049  61.628  1.00  0.00     0.000 HD 
BRANCH  13  16
HETATM   16  C   UNL     1      -9.408  11.321  62.872  1.00  0.00    -0.376 C  
BRANCH  16  17
HETATM   17  C   UNL     1     -10.909  11.186  63.145  1.00  0.00    -0.002 C  
BRANCH  17  18
HETATM   18  C   UNL     1     -11.485  12.227  64.115  1.00  0.00    -0.383 C  
BRANCH  18  19
HETATM   19  N   UNL     1     -10.657  12.424  65.317  1.00  0.00    -0.281 NA 
HETATM   20  C   UNL     1      -9.981  13.725  65.352  1.00  0.00    -0.229 C  
HETATM   21  C   UNL     1     -10.901  14.909  65.669  1.00  0.00    -0.347 C  
HETATM   22  C   UNL     1     -11.738  14.741  66.965  1.00  0.00    -0.330 C  
HETATM   23  C   UNL     1     -10.937  15.071  68.296  1.00  0.00    -0.271 C  
HETATM   24  C   UNL     1     -12.393  13.338  66.893  1.00  0.00    -0.220 C  
HETATM   25  C   UNL     1     -11.802  14.781  69.542  1.00  0.00    -0.366 A  
HETATM   26  C   UNL     1     -10.344  16.508  68.327  1.00  0.00    -0.293 A  
HETATM   27  C   UNL     1     -11.416  12.208  66.558  1.00  0.00    -0.369 C  
HETATM   28  O   UNL     1      -9.818  14.168  68.346  1.00  0.00    -0.221 OA 
HETATM   29  C   UNL     1     -11.734  13.527  70.187  1.00  0.00    -0.280 A  
HETATM   30  C   UNL     1     -10.881  17.580  67.589  1.00  0.00    -0.229 A  
HETATM   31  H   UNL     1      -9.339  14.365  69.142  1.00  0.00     0.000 HD 
HETATM   32  C   UNL     1     -10.260  18.834  67.566  1.00  0.00    -0.444 A  
HETATM   33  C   UNL     1     -12.554  13.214  71.272  1.00  0.00    -0.382 A  
HETATM   34  C   UNL     1      -9.103  19.056  68.304  1.00  0.00    -0.371 A  
HETATM   35  C   UNL     1     -13.452  14.158  71.759  1.00  0.00    -0.471 A  
HETATM   36  C   UNL     1     -13.531  15.408  71.153  1.00  0.00    -0.565 A  
HETATM   37  C   UNL     1      -8.581  18.034  69.089  1.00  0.00     0.121 A  
HETATM   38  C   UNL     1     -12.723  15.714  70.049  1.00  0.00    -0.082 A  
HETATM   39  C   UNL     1      -9.201  16.780  69.112  1.00  0.00    -0.140 A  
ENDBRANCH  18  19
ENDBRANCH  17  18
ENDBRANCH  16  17
ENDBRANCH  13  16
ENDBRANCH  10  13
ENDBRANCH   2   7
TORSDOF 6
ENDMDL
MODEL       28
REMARK 921   NORMALIZED FREE ENERGY PREDICTED BY IDOCK:   -6.36 KCAL/MOL
REMARK 922        TOTAL FREE ENERGY PREDICTED BY IDOCK:  -10.94 KCAL/MOL
REMARK 923 INTER-LIGAND FREE ENERGY PREDICTED BY IDOCK:   -9.38 KCAL/MOL
REMARK 924 INTRA-LIGAND FREE ENERGY PREDICTED BY IDOCK:   -1.56 KCAL/MOL
REMARK 927      BINDING AFFINITY PREDICTED BY RF-SCORE:    0.00 PKD
ROOT
HETATM    1  C   UNL     1     -11.110   9.231  71.238  1.00  0.00    -0.427 C  
HETATM    2  C   UNL     1     -10.428   7.953  70.695  1.00  0.00    -0.216 C  
HETATM    3  C   UNL     1     -11.466   6.813  70.737  1.00  0.00    -0.342 C  
HETATM    4  O   UNL     1     -12.628   6.937  71.099  1.00  0.00    -0.376 OA 
HETATM    5  C   UNL     1      -9.278   7.554  71.640  1.00  0.00    -0.152 C  
HETATM    6  O   UNL     1     -10.994   5.607  70.329  1.00  0.00    -0.294 OA 
ENDROOT
BRANCH   2   7
HETATM    7  C   UNL     1      -9.897   8.268  69.289  1.00  0.00    -0.186 A  
HETATM    8  C   UNL     1     -10.613   7.842  68.155  1.00  0.00    -0.179 A  
HETATM    9  C   UNL     1     -10.083   7.974  66.872  1.00  0.00    -0.362 A  
HETATM   10  C   UNL     1      -8.832   8.570  66.684  1.00  0.00    -0.157 A  
HETATM   11  C   UNL     1      -8.662   8.897  69.084  1.00  0.00    -0.132 A  
HETATM   12  C   UNL     1      -8.156   9.077  67.800  1.00  0.00    -0.109 A  
BRANCH  10  13
HETATM   13  C   UNL     1      -8.188   8.596  65.318  1.00  0.00    -0.147 C  
HETATM   14  O   UNL     1      -8.786   7.561  64.550  1.00  0.00    -0.356 OA 
HETATM   15  H   UNL     1      -8.380   7.576  63.691  1.00  0.00     0.000 HD 
BRANCH  13  16
HETATM   16  C   UNL     1      -8.334   9.994  64.687  1.00  0.00    -0.167 C  
BRANCH  16  17
HETATM   17  C   UNL     1      -9.700  10.279  64.057  1.00  0.00    -0.343 C  
BRANCH  17  18
HETATM   18  C   UNL     1     -10.619  11.181  64.892  1.00  0.00    -0.289 C  
BRANCH  18  19
HETATM   19  N   UNL     1      -9.983  11.683  66.122  1.00  0.00    -0.214 NA 
HETATM   20  C   UNL     1      -9.447  13.041  65.989  1.00  0.00    -0.096 C  
HETATM   21  C   UNL     1     -10.512  14.143  65.970  1.00  0.00    -0.308 C  
HETATM   22  C   UNL     1     -11.495  14.105  67.170  1.00  0.00    -0.373 C  
HETATM   23  C   UNL     1     -10.916  14.755  68.498  1.00  0.00    -0.258 C  
HETATM   24  C   UNL     1     -11.996  12.643  67.289  1.00  0.00    -0.321 C  
HETATM   25  C   UNL     1     -11.909  14.586  69.669  1.00  0.00    -0.367 A  
HETATM   26  C   UNL     1     -10.474  16.236  68.327  1.00  0.00    -0.284 A  
HETATM   27  C   UNL     1     -10.878  11.597  67.286  1.00  0.00    -0.256 C  
HETATM   28  O   UNL     1      -9.732  14.015  68.845  1.00  0.00    -0.373 OA 
HETATM   29  C   UNL     1     -11.807  13.481  70.542  1.00  0.00    -0.254 A  
HETATM   30  C   UNL     1     -11.009  17.091  67.343  1.00  0.00    -0.065 A  
HETATM   31  H   UNL     1      -9.386  14.404  69.639  1.00  0.00     0.000 HD 
HETATM   32  C   UNL     1     -10.514  18.387  67.156  1.00  0.00    -0.434 A  
HETATM   33  C   UNL     1     -12.732  13.266  71.566  1.00  0.00    -0.376 A  
HETATM   34  C   UNL     1      -9.493  18.871  67.967  1.00  0.00    -0.361 A  
HETATM   35  C   UNL     1     -13.774  14.166  71.759  1.00  0.00    -0.492 A  
HETATM   36  C   UNL     1     -13.891  15.273  70.924  1.00  0.00    -0.311 A  
HETATM   37  C   UNL     1      -8.986  18.071  68.985  1.00  0.00    -0.028 A  
HETATM   38  C   UNL     1     -12.975  15.476  69.882  1.00  0.00     0.186 A  
HETATM   39  C   UNL     1      -9.479  16.776  69.172  1.00  0.00    -0.162 A  
ENDBRANCH  18  19
ENDBRANCH  17  18
ENDBRANCH  16  17
ENDBRANCH  13  16
ENDBRANCH  10  13
ENDBRANCH   2   7
TORSDOF 6
ENDMDL
MODEL       29
REMARK 921   NORMALIZED FREE ENERGY PREDICTED BY IDOCK:   -6.34 KCAL/MOL
REMARK 922        TOTAL FREE ENERGY PREDICTED BY IDOCK:  -10.92 KCAL/MOL
REMARK 923 INTER-LIGAND FREE ENERGY PREDICTED BY IDOCK:  -10.28 KCAL/MOL
REMARK 924 INTRA-LIGAND FREE ENERGY PREDICTED BY IDOCK:   -0.64 KCAL/MOL
REMARK 927      BINDING AFFINITY PREDICTED BY RF-SCORE:    0.00 PKD
ROOT
HETATM    1  C   UNL     1     -10.377  14.815  64.837  1.00  0.00    -0.365 C  
HETATM    2  C   UNL     1     -10.156  15.780  66.025  1.00  0.00    -0.359 C  
HETATM    3  C   UNL     1     -10.711  17.161  65.619  1.00  0.00    -0.136 C  
HETATM    4  O   UNL     1     -11.262  17.408  64.555  1.00  0.00    -1.018 OA 
HETATM    5  C   UNL     1      -8.643  15.952  66.263  1.00  0.00    -0.348 C  
HETATM    6  O   UNL     1     -10.545  18.131  66.554  1.00  0.00    -0.351 OA 
ENDROOT
BRANCH   2   7
HETATM    7  C   UNL     1     -10.838  15.167  67.257  1.00  0.00    -0.316 A  
HETATM    8  C   UNL     1     -10.666  15.758  68.523  1.00  0.00    -0.274 A  
HETATM    9  C   UNL     1     -11.139  15.142  69.681  1.00  0.00    -0.283 A  
HETATM   10  C   UNL     1     -11.832  13.929  69.600  1.00  0.00    -0.385 A  
HETATM   11  C   UNL     1     -11.565  13.972  67.188  1.00  0.00    -0.397 A  
HETATM   12  C   UNL     1     -12.084  13.383  68.337  1.00  0.00    -0.270 A  
BRANCH  10  13
HETATM   13  C   UNL     1     -12.229  13.184  70.853  1.00  0.00    -0.241 C  
HETATM   14  O   UNL     1     -13.522  13.643  71.225  1.00  0.00    -0.249 OA 
HETATM   15  H   UNL     1     -13.772  13.175  72.014  1.00  0.00     0.000 HD 
BRANCH  13  16
HETATM   16  C   UNL     1     -12.161  11.664  70.612  1.00  0.00    -0.461 C  
BRANCH  16  17
HETATM   17  C   UNL     1     -12.912  10.813  71.640  1.00  0.00    -0.581 C  
BRANCH  17  18
HETATM   18  C   UNL     1     -13.391   9.449  71.123  1.00  0.00    -0.215 C  
BRANCH  18  19
HETATM   19  N   UNL     1     -12.984   8.325  71.982  1.00  0.00    -0.334 NA 
HETATM   20  C   UNL     1     -12.923   7.042  71.274  1.00  0.00    -0.297 C  
HETATM   21  C   UNL     1     -11.719   6.893  70.337  1.00  0.00    -0.377 C  
HETATM   22  C   UNL     1     -10.347   7.163  71.009  1.00  0.00    -0.208 C  
HETATM   23  C   UNL     1      -9.785   5.935  71.845  1.00  0.00    -0.151 C  
HETATM   24  C   UNL     1     -10.482   8.505  71.774  1.00  0.00    -0.370 C  
HETATM   25  C   UNL     1      -8.473   6.317  72.565  1.00  0.00    -0.120 A  
HETATM   26  C   UNL     1      -9.628   4.632  71.011  1.00  0.00    -0.245 A  
HETATM   27  C   UNL     1     -11.715   8.586  72.678  1.00  0.00    -0.231 C  
HETATM   28  O   UNL     1     -10.755   5.648  72.869  1.00  0.00    -0.215 OA 
HETATM   29  C   UNL     1      -8.497   6.802  73.890  1.00  0.00    -0.152 A  
HETATM   30  C   UNL     1      -9.445   4.628  69.615  1.00  0.00    -0.232 A  
HETATM   31  H   UNL     1     -10.419   4.914  73.369  1.00  0.00     0.000 HD 
HETATM   32  C   UNL     1      -9.408   3.433  68.888  1.00  0.00    -0.237 A  
HETATM   33  C   UNL     1      -7.334   7.218  74.540  1.00  0.00    -0.133 A  
HETATM   34  C   UNL     1      -9.522   2.210  69.542  1.00  0.00    -0.113 A  
HETATM   35  C   UNL     1      -6.108   7.139  73.888  1.00  0.00    -0.065 A  
HETATM   36  C   UNL     1      -6.052   6.651  72.587  1.00  0.00    -0.046 A  
HETATM   37  C   UNL     1      -9.646   2.181  70.926  1.00  0.00    -0.184 A  
HETATM   38  C   UNL     1      -7.223   6.254  71.927  1.00  0.00    -0.087 A  
HETATM   39  C   UNL     1      -9.684   3.375  71.654  1.00  0.00    -0.234 A  
ENDBRANCH  18  19
ENDBRANCH  17  18
ENDBRANCH  16  17
ENDBRANCH  13  16
ENDBRANCH  10  13
ENDBRANCH   2   7
TORSDOF 6
ENDMDL
MODEL       30
REMARK 921   NORMALIZED FREE ENERGY PREDICTED BY IDOCK:   -6.34 KCAL/MOL
REMARK 922        TOTAL FREE ENERGY PREDICTED BY IDOCK:  -10.91 KCAL/MOL
REMARK 923 INTER-LIGAND FREE ENERGY PREDICTED BY IDOCK:  -10.00 KCAL/MOL
REMARK 924 INTRA-LIGAND FREE ENERGY PREDICTED BY IDOCK:   -0.92 KCAL/MOL
REMARK 927      BINDING AFFINITY PREDICTED BY RF-SCORE:    0.00 PKD
ROOT
HETATM    1  C   UNL     1      -7.691  19.702  66.132  1.00  0.00    -0.331 C  
HETATM    2  C   UNL     1      -8.555  18.963  67.181  1.00  0.00    -0.295 C  
HETATM    3  C   UNL     1      -9.661  19.932  67.646  1.00  0.00    -0.385 C  
HETATM    4  O   UNL     1      -9.827  21.065  67.212  1.00  0.00    -0.386 OA 
HETATM    5  C   UNL     1      -7.688  18.640  68.413  1.00  0.00    -0.331 C  
HETATM    6  O   UNL     1     -10.478  19.435  68.609  1.00  0.00    -0.316 OA 
ENDROOT
BRANCH   2   7
HETATM    7  C   UNL     1      -9.081  17.676  66.529  1.00  0.00    -0.284 A  
HETATM    8  C   UNL     1     -10.333  17.674  65.886  1.00  0.00    -0.261 A  
HETATM    9  C   UNL     1     -10.908  16.491  65.423  1.00  0.00    -0.216 A  
HETATM   10  C   UNL     1     -10.228  15.277  65.559  1.00  0.00    -0.417 A  
HETATM   11  C   UNL     1      -8.395  16.459  66.626  1.00  0.00    -0.305 A  
HETATM   12  C   UNL     1      -8.944  15.286  66.116  1.00  0.00    -0.251 A  
BRANCH  10  13
HETATM   13  C   UNL     1     -10.895  13.974  65.187  1.00  0.00    -0.369 C  
HETATM   14  O   UNL     1      -9.867  13.009  65.008  1.00  0.00    -0.499 OA 
HETATM   15  H   UNL     1     -10.287  12.189  64.773  1.00  0.00     0.000 HD 
BRANCH  13  16
HETATM   16  C   UNL     1     -11.928  13.580  66.261  1.00  0.00    -0.457 C  
BRANCH  16  17
HETATM   17  C   UNL     1     -11.449  13.735  67.707  1.00  0.00    -0.354 C  
BRANCH  17  18
HETATM   18  C   UNL     1     -10.632  12.553  68.246  1.00  0.00    -0.231 C  
BRANCH  18  19
HETATM   19  N   UNL     1     -11.237  11.243  67.950  1.00  0.00    -0.266 NA 
HETATM   20  C   UNL     1     -10.397  10.390  67.103  1.00  0.00    -0.238 C  
HETATM   21  C   UNL     1      -9.188   9.781  67.822  1.00  0.00    -0.141 C  
HETATM   22  C   UNL     1      -9.536   9.012  69.123  1.00  0.00    -0.161 C  
HETATM   23  C   UNL     1     -10.070   7.537  68.877  1.00  0.00    -0.192 C  
HETATM   24  C   UNL     1     -10.456   9.941  69.957  1.00  0.00    -0.331 C  
HETATM   25  C   UNL     1     -10.492   6.877  70.209  1.00  0.00    -0.227 A  
HETATM   26  C   UNL     1      -9.083   6.641  68.077  1.00  0.00    -0.114 A  
HETATM   27  C   UNL     1     -11.633  10.523  69.170  1.00  0.00    -0.224 C  
HETATM   28  O   UNL     1     -11.258   7.651  68.073  1.00  0.00    -0.414 OA 
HETATM   29  C   UNL     1     -11.830   6.949  70.653  1.00  0.00    -0.418 A  
HETATM   30  C   UNL     1      -7.692   6.860  68.050  1.00  0.00    -0.113 A  
HETATM   31  H   UNL     1     -11.578   6.769  67.926  1.00  0.00     0.000 HD 
HETATM   32  C   UNL     1      -6.848   6.093  67.239  1.00  0.00    -0.063 A  
HETATM   33  C   UNL     1     -12.224   6.422  71.884  1.00  0.00    -0.332 A  
HETATM   34  C   UNL     1      -7.369   5.068  66.456  1.00  0.00    -0.086 A  
HETATM   35  C   UNL     1     -11.292   5.786  72.696  1.00  0.00    -0.349 A  
HETATM   36  C   UNL     1      -9.969   5.687  72.279  1.00  0.00    -0.204 A  
HETATM   37  C   UNL     1      -8.731   4.790  66.506  1.00  0.00    -0.111 A  
HETATM   38  C   UNL     1      -9.569   6.236  71.052  1.00  0.00    -0.191 A  
HETATM   39  C   UNL     1      -9.575   5.557  67.316  1.00  0.00    -0.132 A  
ENDBRANCH  18  19
ENDBRANCH  17  18
ENDBRANCH  16  17
ENDBRANCH  13  16
ENDBRANCH  10  13
ENDBRANCH   2   7
TORSDOF 6
ENDMDL
MODEL       31
REMARK 921   NORMALIZED FREE ENERGY PREDICTED BY IDOCK:   -6.32 KCAL/MOL
REMARK 922        TOTAL FREE ENERGY PREDICTED BY IDOCK:  -10.89 KCAL/MOL
REMARK 923 INTER-LIGAND FREE ENERGY PREDICTED BY IDOCK:   -9.65 KCAL/MOL
REMARK 924 INTRA-LIGAND FREE ENERGY PREDICTED BY IDOCK:   -1.24 KCAL/MOL
REMARK 927      BINDING AFFINITY PREDICTED BY RF-SCORE:    0.00 PKD
ROOT
HETATM    1  C   UNL     1     -12.030   6.621  70.682  1.00  0.00    -0.404 C  
HETATM    2  C   UNL     1     -11.248   7.462  71.718  1.00  0.00    -0.277 C  
HETATM    3  C   UNL     1     -10.901   6.542  72.905  1.00  0.00    -0.258 C  
HETATM    4  O   UNL     1     -11.172   5.350  72.968  1.00  0.00    -0.288 OA 
HETATM    5  C   UNL     1     -12.165   8.576  72.260  1.00  0.00    -0.454 C  
HETATM    6  O   UNL     1     -10.248   7.157  73.923  1.00  0.00    -0.346 OA 
ENDROOT
BRANCH   2   7
HETATM    7  C   UNL     1     -10.025   8.059  71.007  1.00  0.00    -0.208 A  
HETATM    8  C   UNL     1      -8.876   7.271  70.802  1.00  0.00    -0.150 A  
HETATM    9  C   UNL     1      -7.698   7.824  70.303  1.00  0.00    -0.089 A  
HETATM   10  C   UNL     1      -7.645   9.179  69.960  1.00  0.00    -0.080 A  
HETATM   11  C   UNL     1      -9.969   9.405  70.625  1.00  0.00    -0.349 A  
HETATM   12  C   UNL     1      -8.810   9.946  70.077  1.00  0.00    -0.194 A  
BRANCH  10  13
HETATM   13  C   UNL     1      -6.341   9.820  69.549  1.00  0.00    -0.045 C  
HETATM   14  O   UNL     1      -6.380   9.992  68.139  1.00  0.00    -0.053 OA 
HETATM   15  H   UNL     1      -5.559  10.395  67.881  1.00  0.00     0.000 HD 
BRANCH  13  16
HETATM   16  C   UNL     1      -6.126  11.135  70.324  1.00  0.00    -0.144 C  
BRANCH  16  17
HETATM   17  C   UNL     1      -5.129  12.105  69.686  1.00  0.00    -0.071 C  
BRANCH  17  18
HETATM   18  C   UNL     1      -5.546  13.582  69.731  1.00  0.00    -0.102 C  
BRANCH  18  19
HETATM   19  N   UNL     1      -5.894  14.130  68.410  1.00  0.00    -0.095 NA 
HETATM   20  C   UNL     1      -7.040  13.463  67.784  1.00  0.00    -0.156 C  
HETATM   21  C   UNL     1      -8.396  13.822  68.401  1.00  0.00    -0.152 C  
HETATM   22  C   UNL     1      -8.681  15.345  68.479  1.00  0.00    -0.178 C  
HETATM   23  C   UNL     1      -9.191  15.976  67.114  1.00  0.00    -0.207 C  
HETATM   24  C   UNL     1      -7.425  16.002  69.107  1.00  0.00    -0.216 C  
HETATM   25  C   UNL     1      -9.352  17.507  67.244  1.00  0.00    -0.244 A  
HETATM   26  C   UNL     1     -10.480  15.306  66.559  1.00  0.00    -0.299 A  
HETATM   27  C   UNL     1      -6.108  15.585  68.449  1.00  0.00    -0.105 C  
HETATM   28  O   UNL     1      -8.161  15.747  66.136  1.00  0.00    -0.311 OA 
HETATM   29  C   UNL     1      -8.297  18.372  66.884  1.00  0.00    -0.261 A  
HETATM   30  C   UNL     1     -11.414  14.638  67.375  1.00  0.00    -0.384 A  
HETATM   31  H   UNL     1      -8.466  16.124  65.319  1.00  0.00     0.000 HD 
HETATM   32  C   UNL     1     -12.509  13.961  66.827  1.00  0.00    -0.254 A  
HETATM   33  C   UNL     1      -8.390  19.755  67.056  1.00  0.00    -0.349 A  
HETATM   34  C   UNL     1     -12.716  13.961  65.452  1.00  0.00    -0.525 A  
HETATM   35  C   UNL     1      -9.554  20.313  67.573  1.00  0.00    -0.562 A  
HETATM   36  C   UNL     1     -10.617  19.486  67.923  1.00  0.00    -0.503 A  
HETATM   37  C   UNL     1     -11.844  14.661  64.625  1.00  0.00    -0.459 A  
HETATM   38  C   UNL     1     -10.514  18.096  67.771  1.00  0.00    -0.421 A  
HETATM   39  C   UNL     1     -10.748  15.337  65.172  1.00  0.00    -0.455 A  
ENDBRANCH  18  19
ENDBRANCH  17  18
ENDBRANCH  16  17
ENDBRANCH  13  16
ENDBRANCH  10  13
ENDBRANCH   2   7
TORSDOF 6
ENDMDL
MODEL       32
REMARK 921   NORMALIZED FREE ENERGY PREDICTED BY IDOCK:   -6.31 KCAL/MOL
REMARK 922        TOTAL FREE ENERGY PREDICTED BY IDOCK:  -10.88 KCAL/MOL
REMARK 923 INTER-LIGAND FREE ENERGY PREDICTED BY IDOCK:  -10.30 KCAL/MOL
REMARK 924 INTRA-LIGAND FREE ENERGY PREDICTED BY IDOCK:   -0.57 KCAL/MOL
REMARK 927      BINDING AFFINITY PREDICTED BY RF-SCORE:    0.00 PKD
ROOT
HETATM    1  C   UNL     1     -12.787   6.733  71.703  1.00  0.00    -0.328 C  
HETATM    2  C   UNL     1     -11.368   7.343  71.773  1.00  0.00    -0.287 C  
HETATM    3  C   UNL     1     -10.435   6.466  70.914  1.00  0.00    -0.228 C  
HETATM    4  O   UNL     1     -10.793   5.490  70.267  1.00  0.00    -0.289 OA 
HETATM    5  C   UNL     1     -10.855   7.264  73.224  1.00  0.00    -0.404 C  
HETATM    6  O   UNL     1      -9.135   6.855  70.916  1.00  0.00    -0.152 OA 
ENDROOT
BRANCH   2   7
HETATM    7  C   UNL     1     -11.463   8.803  71.306  1.00  0.00    -0.355 A  
HETATM    8  C   UNL     1     -12.472   9.641  71.818  1.00  0.00    -0.487 A  
HETATM    9  C   UNL     1     -12.683  10.919  71.303  1.00  0.00    -0.542 A  
HETATM   10  C   UNL     1     -11.865  11.410  70.280  1.00  0.00    -0.438 A  
HETATM   11  C   UNL     1     -10.629   9.321  70.308  1.00  0.00    -0.278 A  
HETATM   12  C   UNL     1     -10.805  10.616  69.830  1.00  0.00    -0.317 A  
BRANCH  10  13
HETATM   13  C   UNL     1     -12.168  12.735  69.620  1.00  0.00    -0.126 C  
HETATM   14  O   UNL     1     -11.582  13.751  70.423  1.00  0.00    -0.490 OA 
HETATM   15  H   UNL     1     -11.773  14.584  70.008  1.00  0.00     0.000 HD 
BRANCH  13  16
HETATM   16  C   UNL     1     -11.662  12.732  68.165  1.00  0.00    -0.392 C  
BRANCH  16  17
HETATM   17  C   UNL     1     -12.228  13.848  67.282  1.00  0.00    -0.324 C  
BRANCH  17  18
HETATM   18  C   UNL     1     -11.517  15.201  67.417  1.00  0.00    -0.277 C  
BRANCH  18  19
HETATM   19  N   UNL     1     -10.061  15.118  67.211  1.00  0.00    -0.234 NA 
HETATM   20  C   UNL     1      -9.589  15.890  66.057  1.00  0.00    -0.350 C  
HETATM   21  C   UNL     1      -9.573  17.407  66.275  1.00  0.00    -0.260 C  
HETATM   22  C   UNL     1      -8.796  17.864  67.538  1.00  0.00    -0.248 C  
HETATM   23  C   UNL     1      -7.222  17.925  67.339  1.00  0.00    -0.184 C  
HETATM   24  C   UNL     1      -9.303  16.990  68.713  1.00  0.00    -0.257 C  
HETATM   25  C   UNL     1      -6.516  18.286  68.665  1.00  0.00    -0.227 A  
HETATM   26  C   UNL     1      -6.774  18.855  66.176  1.00  0.00    -0.256 A  
HETATM   27  C   UNL     1      -9.305  15.488  68.418  1.00  0.00    -0.192 C  
HETATM   28  O   UNL     1      -6.793  16.598  66.987  1.00  0.00    -0.170 OA 
HETATM   29  C   UNL     1      -6.051  17.272  69.530  1.00  0.00    -0.247 A  
HETATM   30  C   UNL     1      -7.547  19.938  65.714  1.00  0.00    -0.309 A  
HETATM   31  H   UNL     1      -5.851  16.634  66.868  1.00  0.00     0.000 HD 
HETATM   32  C   UNL     1      -7.157  20.690  64.600  1.00  0.00     0.170 A  
HETATM   33  C   UNL     1      -5.472  17.568  70.765  1.00  0.00    -0.139 A  
HETATM   34  C   UNL     1      -5.970  20.397  63.938  1.00  0.00    -0.321 A  
HETATM   35  C   UNL     1      -5.321  18.893  71.160  1.00  0.00    -0.263 A  
HETATM   36  C   UNL     1      -5.756  19.915  70.322  1.00  0.00    -0.324 A  
HETATM   37  C   UNL     1      -5.157  19.370  64.406  1.00  0.00    -0.209 A  
HETATM   38  C   UNL     1      -6.358  19.615  69.092  1.00  0.00    -0.347 A  
HETATM   39  C   UNL     1      -5.546  18.618  65.519  1.00  0.00    -0.224 A  
ENDBRANCH  18  19
ENDBRANCH  17  18
ENDBRANCH  16  17
ENDBRANCH  13  16
ENDBRANCH  10  13
ENDBRANCH   2   7
TORSDOF 6
ENDMDL
MODEL       33
REMARK 921   NORMALIZED FREE ENERGY PREDICTED BY IDOCK:   -6.31 KCAL/MOL
REMARK 922        TOTAL FREE ENERGY PREDICTED BY IDOCK:  -10.87 KCAL/MOL
REMARK 923 INTER-LIGAND FREE ENERGY PREDICTED BY IDOCK:  -10.16 KCAL/MOL
REMARK 924 INTRA-LIGAND FREE ENERGY PREDICTED BY IDOCK:   -0.71 KCAL/MOL
REMARK 927      BINDING AFFINITY PREDICTED BY RF-SCORE:    0.00 PKD
ROOT
HETATM    1  C   UNL     1     -10.247  19.826  68.253  1.00  0.00    -0.569 C  
HETATM    2  C   UNL     1      -9.808  19.122  66.948  1.00  0.00    -0.403 C  
HETATM    3  C   UNL     1      -8.295  19.363  66.770  1.00  0.00    -0.296 C  
HETATM    4  O   UNL     1      -7.586  19.972  67.560  1.00  0.00    -0.270 OA 
HETATM    5  C   UNL     1     -10.517  19.786  65.752  1.00  0.00    -0.545 C  
HETATM    6  O   UNL     1      -7.771  18.838  65.633  1.00  0.00    -0.482 OA 
ENDROOT
BRANCH   2   7
HETATM    7  C   UNL     1     -10.199  17.641  67.062  1.00  0.00    -0.332 A  
HETATM    8  C   UNL     1     -10.332  16.857  65.901  1.00  0.00    -0.327 A  
HETATM    9  C   UNL     1     -10.835  15.558  65.957  1.00  0.00    -0.301 A  
HETATM   10  C   UNL     1     -11.186  14.991  67.187  1.00  0.00    -0.336 A  
HETATM   11  C   UNL     1     -10.519  17.048  68.290  1.00  0.00    -0.363 A  
HETATM   12  C   UNL     1     -10.970  15.734  68.353  1.00  0.00    -0.323 A  
BRANCH  10  13
HETATM   13  C   UNL     1     -11.857  13.640  67.249  1.00  0.00    -0.391 C  
HETATM   14  O   UNL     1     -11.741  13.051  65.961  1.00  0.00    -0.352 OA 
HETATM   15  H   UNL     1     -12.164  12.201  65.999  1.00  0.00     0.000 HD 
BRANCH  13  16
HETATM   16  C   UNL     1     -11.236  12.788  68.373  1.00  0.00    -0.313 C  
BRANCH  16  17
HETATM   17  C   UNL     1     -11.807  11.373  68.502  1.00  0.00    -0.364 C  
BRANCH  17  18
HETATM   18  C   UNL     1     -11.823  10.811  69.930  1.00  0.00    -0.335 C  
BRANCH  18  19
HETATM   19  N   UNL     1     -10.557  10.164  70.316  1.00  0.00    -0.290 NA 
HETATM   20  C   UNL     1     -10.643   9.419  71.576  1.00  0.00    -0.261 C  
HETATM   21  C   UNL     1     -11.407   8.094  71.476  1.00  0.00    -0.308 C  
HETATM   22  C   UNL     1     -10.897   7.142  70.362  1.00  0.00    -0.269 C  
HETATM   23  C   UNL     1      -9.605   6.311  70.766  1.00  0.00    -0.176 C  
HETATM   24  C   UNL     1     -10.785   7.990  69.069  1.00  0.00    -0.107 C  
HETATM   25  C   UNL     1      -9.100   5.469  69.573  1.00  0.00    -0.143 A  
HETATM   26  C   UNL     1      -9.795   5.445  72.044  1.00  0.00    -0.212 A  
HETATM   27  C   UNL     1     -10.023   9.305  69.248  1.00  0.00    -0.180 C  
HETATM   28  O   UNL     1      -8.572   7.264  71.071  1.00  0.00    -0.127 OA 
HETATM   29  C   UNL     1      -8.113   5.979  68.702  1.00  0.00    -0.107 A  
HETATM   30  C   UNL     1     -11.051   4.981  72.481  1.00  0.00    -0.217 A  
HETATM   31  H   UNL     1      -7.800   6.767  71.312  1.00  0.00     0.000 HD 
HETATM   32  C   UNL     1     -11.192   4.290  73.690  1.00  0.00    -0.325 A  
HETATM   33  C   UNL     1      -7.688   5.269  67.578  1.00  0.00    -0.096 A  
HETATM   34  C   UNL     1     -10.078   4.017  74.476  1.00  0.00    -0.234 A  
HETATM   35  C   UNL     1      -8.224   4.015  67.306  1.00  0.00    -0.099 A  
HETATM   36  C   UNL     1      -9.189   3.480  68.155  1.00  0.00    -0.228 A  
HETATM   37  C   UNL     1      -8.817   4.412  74.042  1.00  0.00    -0.103 A  
HETATM   38  C   UNL     1      -9.631   4.204  69.271  1.00  0.00    -0.256 A  
HETATM   39  C   UNL     1      -8.675   5.104  72.834  1.00  0.00    -0.118 A  
ENDBRANCH  18  19
ENDBRANCH  17  18
ENDBRANCH  16  17
ENDBRANCH  13  16
ENDBRANCH  10  13
ENDBRANCH   2   7
TORSDOF 6
ENDMDL
MODEL       34
REMARK 921   NORMALIZED FREE ENERGY PREDICTED BY IDOCK:   -6.24 KCAL/MOL
REMARK 922        TOTAL FREE ENERGY PREDICTED BY IDOCK:  -10.79 KCAL/MOL
REMARK 923 INTER-LIGAND FREE ENERGY PREDICTED BY IDOCK:   -8.48 KCAL/MOL
REMARK 924 INTRA-LIGAND FREE ENERGY PREDICTED BY IDOCK:   -2.31 KCAL/MOL
REMARK 927      BINDING AFFINITY PREDICTED BY RF-SCORE:    0.00 PKD
ROOT
HETATM    1  C   UNL     1     -11.074   9.758  69.490  1.00  0.00    -0.226 C  
HETATM    2  C   UNL     1      -9.724   9.006  69.562  1.00  0.00    -0.171 C  
HETATM    3  C   UNL     1      -9.817   7.783  68.627  1.00  0.00    -0.169 C  
HETATM    4  O   UNL     1     -10.785   7.506  67.932  1.00  0.00    -0.202 OA 
HETATM    5  C   UNL     1      -9.519   8.470  70.992  1.00  0.00    -0.234 C  
HETATM    6  O   UNL     1      -8.712   6.994  68.621  1.00  0.00    -0.124 OA 
ENDROOT
BRANCH   2   7
HETATM    7  C   UNL     1      -8.615  10.000  69.187  1.00  0.00    -0.158 A  
HETATM    8  C   UNL     1      -8.491  10.447  67.858  1.00  0.00    -0.114 A  
HETATM    9  C   UNL     1      -7.406  11.223  67.453  1.00  0.00    -0.115 A  
HETATM   10  C   UNL     1      -6.430  11.606  68.378  1.00  0.00    -0.052 A  
HETATM   11  C   UNL     1      -7.650  10.422  70.110  1.00  0.00     0.064 A  
HETATM   12  C   UNL     1      -6.596  11.241  69.718  1.00  0.00    -0.130 A  
BRANCH  10  13
HETATM   13  C   UNL     1      -5.182  12.329  67.927  1.00  0.00    -0.073 C  
HETATM   14  O   UNL     1      -5.187  12.334  66.506  1.00  0.00    -0.397 OA 
HETATM   15  H   UNL     1      -4.402  12.788  66.222  1.00  0.00     0.000 HD 
BRANCH  13  16
HETATM   16  C   UNL     1      -5.131  13.739  68.546  1.00  0.00    -0.092 C  
BRANCH  16  17
HETATM   17  C   UNL     1      -5.465  14.881  67.582  1.00  0.00     0.025 C  
BRANCH  17  18
HETATM   18  C   UNL     1      -5.799  16.219  68.256  1.00  0.00    -0.106 C  
BRANCH  18  19
HETATM   19  N   UNL     1      -7.177  16.672  68.000  1.00  0.00    -0.151 NA 
HETATM   20  C   UNL     1      -7.806  16.008  66.854  1.00  0.00    -0.249 C  
HETATM   21  C   UNL     1      -8.226  14.558  67.116  1.00  0.00    -0.214 C  
HETATM   22  C   UNL     1      -9.126  14.366  68.366  1.00  0.00    -0.193 C  
HETATM   23  C   UNL     1     -10.655  14.713  68.118  1.00  0.00    -0.237 C  
HETATM   24  C   UNL     1      -8.435  15.121  69.531  1.00  0.00    -0.144 C  
HETATM   25  C   UNL     1     -11.463  14.598  69.430  1.00  0.00    -0.330 A  
HETATM   26  C   UNL     1     -11.303  13.890  66.968  1.00  0.00    -0.343 A  
HETATM   27  C   UNL     1      -8.031  16.558  69.191  1.00  0.00    -0.182 C  
HETATM   28  O   UNL     1     -10.712  16.092  67.712  1.00  0.00    -0.307 OA 
HETATM   29  C   UNL     1     -11.665  15.730  70.248  1.00  0.00    -0.373 A  
HETATM   30  C   UNL     1     -10.831  12.626  66.565  1.00  0.00    -0.285 A  
HETATM   31  H   UNL     1     -11.627  16.299  67.564  1.00  0.00     0.000 HD 
HETATM   32  C   UNL     1     -11.378  11.961  65.461  1.00  0.00    -0.334 A  
HETATM   33  C   UNL     1     -12.332  15.642  71.472  1.00  0.00    -0.490 A  
HETATM   34  C   UNL     1     -12.431  12.530  64.752  1.00  0.00    -0.532 A  
HETATM   35  C   UNL     1     -12.835  14.418  71.901  1.00  0.00    -0.426 A  
HETATM   36  C   UNL     1     -12.663  13.288  71.108  1.00  0.00    -0.404 A  
HETATM   37  C   UNL     1     -12.957  13.750  65.162  1.00  0.00    -0.279 A  
HETATM   38  C   UNL     1     -11.974  13.373  69.890  1.00  0.00    -0.408 A  
HETATM   39  C   UNL     1     -12.410  14.415  66.264  1.00  0.00    -0.325 A  
ENDBRANCH  18  19
ENDBRANCH  17  18
ENDBRANCH  16  17
ENDBRANCH  13  16
ENDBRANCH  10  13
ENDBRANCH   2   7
TORSDOF 6
ENDMDL
MODEL       35
REMARK 921   NORMALIZED FREE ENERGY PREDICTED BY IDOCK:   -6.23 KCAL/MOL
REMARK 922        TOTAL FREE ENERGY PREDICTED BY IDOCK:  -10.77 KCAL/MOL
REMARK 923 INTER-LIGAND FREE ENERGY PREDICTED BY IDOCK:   -9.40 KCAL/MOL
REMARK 924 INTRA-LIGAND FREE ENERGY PREDICTED BY IDOCK:   -1.37 KCAL/MOL
REMARK 927      BINDING AFFINITY PREDICTED BY RF-SCORE:    0.00 PKD
ROOT
HETATM    1  C   UNL     1     -11.475   5.022  72.918  1.00  0.00    -0.306 C  
HETATM    2  C   UNL     1     -11.528   6.323  72.084  1.00  0.00    -0.354 C  
HETATM    3  C   UNL     1     -10.720   7.399  72.838  1.00  0.00    -0.339 C  
HETATM    4  O   UNL     1     -10.118   7.214  73.887  1.00  0.00    -0.322 OA 
HETATM    5  C   UNL     1     -12.986   6.819  72.012  1.00  0.00    -0.156 C  
HETATM    6  O   UNL     1     -10.715   8.620  72.243  1.00  0.00    -0.344 OA 
ENDROOT
BRANCH   2   7
HETATM    7  C   UNL     1     -10.990   6.001  70.682  1.00  0.00    -0.376 A  
HETATM    8  C   UNL     1     -11.482   6.699  69.562  1.00  0.00    -0.323 A  
HETATM    9  C   UNL     1     -11.132   6.327  68.265  1.00  0.00    -0.364 A  
HETATM   10  C   UNL     1     -10.248   5.263  68.052  1.00  0.00    -0.204 A  
HETATM   11  C   UNL     1     -10.078   4.963  70.455  1.00  0.00    -0.316 A  
HETATM   12  C   UNL     1      -9.687   4.625  69.163  1.00  0.00    -0.255 A  
BRANCH  10  13
HETATM   13  C   UNL     1      -9.968   4.763  66.655  1.00  0.00    -0.235 C  
HETATM   14  O   UNL     1     -11.102   5.076  65.858  1.00  0.00    -0.750 OA 
HETATM   15  H   UNL     1     -10.927   4.761  64.979  1.00  0.00     0.000 HD 
BRANCH  13  16
HETATM   16  C   UNL     1      -8.656   5.373  66.124  1.00  0.00    -0.126 C  
BRANCH  16  17
HETATM   17  C   UNL     1      -8.774   6.810  65.609  1.00  0.00    -0.086 C  
BRANCH  17  18
HETATM   18  C   UNL     1      -7.961   7.846  66.397  1.00  0.00    -0.102 C  
BRANCH  18  19
HETATM   19  N   UNL     1      -8.796   8.740  67.219  1.00  0.00    -0.131 NA 
HETATM   20  C   UNL     1      -8.021   9.717  67.990  1.00  0.00    -0.097 C  
HETATM   21  C   UNL     1      -7.438  10.863  67.155  1.00  0.00    -0.109 C  
HETATM   22  C   UNL     1      -8.479  11.618  66.288  1.00  0.00    -0.066 C  
HETATM   23  C   UNL     1      -9.325  12.697  67.090  1.00  0.00    -0.210 C  
HETATM   24  C   UNL     1      -9.294  10.539  65.530  1.00  0.00    -0.245 C  
HETATM   25  C   UNL     1     -10.406  13.329  66.185  1.00  0.00    -0.290 A  
HETATM   26  C   UNL     1      -8.453  13.779  67.789  1.00  0.00    -0.181 A  
HETATM   27  C   UNL     1      -9.832   9.419  66.426  1.00  0.00    -0.269 C  
HETATM   28  O   UNL     1     -10.016  11.994  68.137  1.00  0.00    -0.191 OA 
HETATM   29  C   UNL     1     -11.712  12.795  66.149  1.00  0.00    -0.458 A  
HETATM   30  C   UNL     1      -7.165  14.136  67.345  1.00  0.00    -0.124 A  
HETATM   31  H   UNL     1     -10.522  12.639  68.617  1.00  0.00     0.000 HD 
HETATM   32  C   UNL     1      -6.372  15.042  68.059  1.00  0.00    -0.160 A  
HETATM   33  C   UNL     1     -12.689  13.303  65.290  1.00  0.00    -0.474 A  
HETATM   34  C   UNL     1      -6.859  15.638  69.218  1.00  0.00    -0.164 A  
HETATM   35  C   UNL     1     -12.391  14.377  64.459  1.00  0.00    -0.440 A  
HETATM   36  C   UNL     1     -11.116  14.933  64.483  1.00  0.00    -0.249 A  
HETATM   37  C   UNL     1      -8.150  15.349  69.649  1.00  0.00    -0.134 A  
HETATM   38  C   UNL     1     -10.129  14.408  65.329  1.00  0.00    -0.387 A  
HETATM   39  C   UNL     1      -8.942  14.443  68.936  1.00  0.00    -0.067 A  
ENDBRANCH  18  19
ENDBRANCH  17  18
ENDBRANCH  16  17
ENDBRANCH  13  16
ENDBRANCH  10  13
ENDBRANCH   2   7
TORSDOF 6
ENDMDL
MODEL       36
REMARK 921   NORMALIZED FREE ENERGY PREDICTED BY IDOCK:   -6.23 KCAL/MOL
REMARK 922        TOTAL FREE ENERGY PREDICTED BY IDOCK:  -10.77 KCAL/MOL
REMARK 923 INTER-LIGAND FREE ENERGY PREDICTED BY IDOCK:   -9.96 KCAL/MOL
REMARK 924 INTRA-LIGAND FREE ENERGY PREDICTED BY IDOCK:   -0.80 KCAL/MOL
REMARK 927      BINDING AFFINITY PREDICTED BY RF-SCORE:    0.00 PKD
ROOT
HETATM    1  C   UNL     1      -9.975  19.246  68.725  1.00  0.00    -0.511 C  
HETATM    2  C   UNL     1      -9.484  18.886  67.304  1.00  0.00    -0.336 C  
HETATM    3  C   UNL     1      -7.948  18.764  67.353  1.00  0.00    -0.239 C  
HETATM    4  O   UNL     1      -7.268  18.892  68.362  1.00  0.00    -0.260 OA 
HETATM    5  C   UNL     1      -9.816  20.046  66.345  1.00  0.00    -0.578 C  
HETATM    6  O   UNL     1      -7.365  18.494  66.157  1.00  0.00    -0.243 OA 
ENDROOT
BRANCH   2   7
HETATM    7  C   UNL     1     -10.203  17.599  66.874  1.00  0.00    -0.334 A  
HETATM    8  C   UNL     1     -10.579  16.647  67.840  1.00  0.00    -0.342 A  
HETATM    9  C   UNL     1     -11.090  15.403  67.472  1.00  0.00    -0.315 A  
HETATM   10  C   UNL     1     -11.274  15.089  66.121  1.00  0.00    -0.307 A  
HETATM   11  C   UNL     1     -10.427  17.285  65.527  1.00  0.00    -0.135 A  
HETATM   12  C   UNL     1     -10.986  16.065  65.160  1.00  0.00    -0.360 A  
BRANCH  10  13
HETATM   13  C   UNL     1     -11.696  13.700  65.703  1.00  0.00    -0.342 C  
HETATM   14  O   UNL     1     -13.061  13.772  65.315  1.00  0.00    -0.756 OA 
HETATM   15  H   UNL     1     -13.327  12.899  65.052  1.00  0.00     0.000 HD 
BRANCH  13  16
HETATM   16  C   UNL     1     -10.767  13.173  64.592  1.00  0.00    -0.398 C  
BRANCH  16  17
HETATM   17  C   UNL     1      -9.668  12.219  65.068  1.00  0.00    -0.080 C  
BRANCH  17  18
HETATM   18  C   UNL     1      -9.513  12.122  66.591  1.00  0.00    -0.223 C  
BRANCH  18  19
HETATM   19  N   UNL     1      -8.613  11.036  67.017  1.00  0.00    -0.136 NA 
HETATM   20  C   UNL     1      -8.938  10.493  68.340  1.00  0.00    -0.141 C  
HETATM   21  C   UNL     1     -10.187   9.605  68.369  1.00  0.00    -0.214 C  
HETATM   22  C   UNL     1     -10.174   8.446  67.338  1.00  0.00    -0.328 C  
HETATM   23  C   UNL     1      -9.326   7.184  67.798  1.00  0.00    -0.127 C  
HETATM   24  C   UNL     1      -9.784   9.068  65.973  1.00  0.00    -0.339 C  
HETATM   25  C   UNL     1      -9.276   6.120  66.680  1.00  0.00    -0.155 A  
HETATM   26  C   UNL     1      -9.795   6.577  69.151  1.00  0.00    -0.156 A  
HETATM   27  C   UNL     1      -8.537   9.954  66.024  1.00  0.00    -0.136 C  
HETATM   28  O   UNL     1      -7.977   7.639  68.003  1.00  0.00    -0.118 OA 
HETATM   29  C   UNL     1      -8.210   6.103  65.754  1.00  0.00    -0.138 A  
HETATM   30  C   UNL     1     -11.107   6.715  69.645  1.00  0.00    -0.390 A  
HETATM   31  H   UNL     1      -7.469   6.884  68.279  1.00  0.00     0.000 HD 
HETATM   32  C   UNL     1     -11.463   6.240  70.912  1.00  0.00    -0.377 A  
HETATM   33  C   UNL     1      -8.174   5.197  64.693  1.00  0.00    -0.132 A  
HETATM   34  C   UNL     1     -10.525   5.588  71.705  1.00  0.00    -0.287 A  
HETATM   35  C   UNL     1      -9.195   4.265  64.541  1.00  0.00    -0.155 A  
HETATM   36  C   UNL     1     -10.252   4.249  65.447  1.00  0.00    -0.235 A  
HETATM   37  C   UNL     1      -9.238   5.385  71.221  1.00  0.00    -0.173 A  
HETATM   38  C   UNL     1     -10.298   5.174  66.499  1.00  0.00    -0.336 A  
HETATM   39  C   UNL     1      -8.881   5.860  69.955  1.00  0.00    -0.130 A  
ENDBRANCH  18  19
ENDBRANCH  17  18
ENDBRANCH  16  17
ENDBRANCH  13  16
ENDBRANCH  10  13
ENDBRANCH   2   7
TORSDOF 6
ENDMDL
MODEL       37
REMARK 921   NORMALIZED FREE ENERGY PREDICTED BY IDOCK:   -6.21 KCAL/MOL
REMARK 922        TOTAL FREE ENERGY PREDICTED BY IDOCK:  -10.75 KCAL/MOL
REMARK 923 INTER-LIGAND FREE ENERGY PREDICTED BY IDOCK:   -7.83 KCAL/MOL
REMARK 924 INTRA-LIGAND FREE ENERGY PREDICTED BY IDOCK:   -2.92 KCAL/MOL
REMARK 927      BINDING AFFINITY PREDICTED BY RF-SCORE:    0.00 PKD
ROOT
HETATM    1  C   UNL     1     -11.663  12.646  66.787  1.00  0.00    -0.460 C  
HETATM    2  C   UNL     1     -11.236  13.676  65.715  1.00  0.00    -0.302 C  
HETATM    3  C   UNL     1     -12.517  14.285  65.110  1.00  0.00    -0.416 C  
HETATM    4  O   UNL     1     -13.656  14.013  65.466  1.00  0.00    -0.596 OA 
HETATM    5  C   UNL     1     -10.500  12.944  64.576  1.00  0.00    -0.400 C  
HETATM    6  O   UNL     1     -12.299  15.181  64.114  1.00  0.00    -0.636 OA 
ENDROOT
BRANCH   2   7
HETATM    7  C   UNL     1     -10.313  14.699  66.394  1.00  0.00    -0.293 A  
HETATM    8  C   UNL     1      -9.376  15.418  65.628  1.00  0.00    -0.168 A  
HETATM    9  C   UNL     1      -8.422  16.236  66.231  1.00  0.00    -0.369 A  
HETATM   10  C   UNL     1      -8.401  16.387  67.622  1.00  0.00    -0.176 A  
HETATM   11  C   UNL     1     -10.304  14.889  67.781  1.00  0.00    -0.244 A  
HETATM   12  C   UNL     1      -9.387  15.746  68.380  1.00  0.00    -0.196 A  
BRANCH  10  13
HETATM   13  C   UNL     1      -7.292  17.159  68.296  1.00  0.00    -0.214 C  
HETATM   14  O   UNL     1      -7.835  18.406  68.709  1.00  0.00    -0.306 OA 
HETATM   15  H   UNL     1      -7.137  18.891  69.133  1.00  0.00     0.000 HD 
BRANCH  13  16
HETATM   16  C   UNL     1      -6.697  16.334  69.454  1.00  0.00    -0.209 C  
BRANCH  16  17
HETATM   17  C   UNL     1      -6.002  15.036  69.032  1.00  0.00    -0.096 C  
BRANCH  17  18
HETATM   18  C   UNL     1      -6.649  13.753  69.569  1.00  0.00    -0.081 C  
BRANCH  18  19
HETATM   19  N   UNL     1      -6.111  12.527  68.955  1.00  0.00    -0.070 NA 
HETATM   20  C   UNL     1      -6.732  11.299  69.461  1.00  0.00    -0.128 C  
HETATM   21  C   UNL     1      -8.155  11.051  68.948  1.00  0.00    -0.135 C  
HETATM   22  C   UNL     1      -8.294  11.086  67.403  1.00  0.00    -0.126 C  
HETATM   23  C   UNL     1      -7.854   9.739  66.686  1.00  0.00    -0.109 C  
HETATM   24  C   UNL     1      -7.586  12.379  66.921  1.00  0.00     0.037 C  
HETATM   25  C   UNL     1      -7.922   9.889  65.150  1.00  0.00    -0.139 A  
HETATM   26  C   UNL     1      -8.632   8.486  67.179  1.00  0.00    -0.123 A  
HETATM   27  C   UNL     1      -6.176  12.566  67.486  1.00  0.00    -0.155 C  
HETATM   28  O   UNL     1      -6.473   9.518  67.023  1.00  0.00    -0.065 OA 
HETATM   29  C   UNL     1      -6.782  10.281  64.416  1.00  0.00    -0.066 A  
HETATM   30  C   UNL     1      -9.921   8.552  67.742  1.00  0.00    -0.241 A  
HETATM   31  H   UNL     1      -6.209   8.712  66.594  1.00  0.00     0.000 HD 
HETATM   32  C   UNL     1     -10.548   7.415  68.265  1.00  0.00    -0.204 A  
HETATM   33  C   UNL     1      -6.833  10.490  63.037  1.00  0.00    -0.030 A  
HETATM   34  C   UNL     1      -9.914   6.178  68.211  1.00  0.00    -0.162 A  
HETATM   35  C   UNL     1      -8.024  10.289  62.348  1.00  0.00    -0.170 A  
HETATM   36  C   UNL     1      -9.161   9.888  63.043  1.00  0.00    -0.284 A  
HETATM   37  C   UNL     1      -8.665   6.072  67.609  1.00  0.00    -0.104 A  
HETATM   38  C   UNL     1      -9.115   9.700  64.431  1.00  0.00    -0.279 A  
HETATM   39  C   UNL     1      -8.038   7.208  67.087  1.00  0.00    -0.114 A  
ENDBRANCH  18  19
ENDBRANCH  17  18
ENDBRANCH  16  17
ENDBRANCH  13  16
ENDBRANCH  10  13
ENDBRANCH   2   7
TORSDOF 6
ENDMDL
MODEL       38
REMARK 921   NORMALIZED FREE ENERGY PREDICTED BY IDOCK:   -6.17 KCAL/MOL
REMARK 922        TOTAL FREE ENERGY PREDICTED BY IDOCK:  -10.68 KCAL/MOL
REMARK 923 INTER-LIGAND FREE ENERGY PREDICTED BY IDOCK:   -9.82 KCAL/MOL
REMARK 924 INTRA-LIGAND FREE ENERGY PREDICTED BY IDOCK:   -0.86 KCAL/MOL
REMARK 927      BINDING AFFINITY PREDICTED BY RF-SCORE:    0.00 PKD
ROOT
HETATM    1  C   UNL     1      -8.821   3.341  73.003  1.00  0.00    -0.092 C  
HETATM    2  C   UNL     1      -9.641   4.652  73.021  1.00  0.00    -0.151 C  
HETATM    3  C   UNL     1      -8.854   5.688  73.850  1.00  0.00    -0.123 C  
HETATM    4  O   UNL     1      -7.757   5.491  74.356  1.00  0.00    -0.095 OA 
HETATM    5  C   UNL     1     -10.974   4.404  73.753  1.00  0.00    -0.357 C  
HETATM    6  O   UNL     1      -9.478   6.885  73.994  1.00  0.00    -0.198 OA 
ENDROOT
BRANCH   2   7
HETATM    7  C   UNL     1      -9.886   5.070  71.564  1.00  0.00    -0.241 A  
HETATM    8  C   UNL     1      -8.953   4.728  70.567  1.00  0.00    -0.159 A  
HETATM    9  C   UNL     1      -9.065   5.223  69.269  1.00  0.00    -0.138 A  
HETATM   10  C   UNL     1     -10.139   6.049  68.920  1.00  0.00    -0.220 A  
HETATM   11  C   UNL     1     -10.976   5.867  71.191  1.00  0.00    -0.327 A  
HETATM   12  C   UNL     1     -11.118   6.318  69.883  1.00  0.00    -0.469 A  
BRANCH  10  13
HETATM   13  C   UNL     1     -10.199   6.701  67.559  1.00  0.00    -0.181 C  
HETATM   14  O   UNL     1     -11.526   6.546  67.074  1.00  0.00    -0.752 OA 
HETATM   15  H   UNL     1     -11.564   6.956  66.218  1.00  0.00     0.000 HD 
BRANCH  13  16
HETATM   16  C   UNL     1      -9.745   8.170  67.652  1.00  0.00    -0.200 C  
BRANCH  16  17
HETATM   17  C   UNL     1     -10.259   9.077  66.531  1.00  0.00    -0.318 C  
BRANCH  17  18
HETATM   18  C   UNL     1      -9.746  10.523  66.585  1.00  0.00    -0.189 C  
BRANCH  18  19
HETATM   19  N   UNL     1     -10.826  11.525  66.566  1.00  0.00    -0.278 NA 
HETATM   20  C   UNL     1     -11.589  11.584  67.817  1.00  0.00    -0.267 C  
HETATM   21  C   UNL     1     -10.849  12.256  68.979  1.00  0.00    -0.197 C  
HETATM   22  C   UNL     1     -10.300  13.671  68.656  1.00  0.00    -0.223 C  
HETATM   23  C   UNL     1     -11.390  14.822  68.750  1.00  0.00    -0.282 C  
HETATM   24  C   UNL     1      -9.542  13.558  67.309  1.00  0.00    -0.235 C  
HETATM   25  C   UNL     1     -10.794  16.179  68.315  1.00  0.00    -0.326 A  
HETATM   26  C   UNL     1     -12.082  14.915  70.140  1.00  0.00    -0.379 A  
HETATM   27  C   UNL     1     -10.337  12.863  66.201  1.00  0.00    -0.276 C  
HETATM   28  O   UNL     1     -12.423  14.498  67.803  1.00  0.00    -0.597 OA 
HETATM   29  C   UNL     1     -10.905  16.616  66.978  1.00  0.00    -0.091 A  
HETATM   30  C   UNL     1     -11.480  14.467  71.331  1.00  0.00     0.019 A  
HETATM   31  H   UNL     1     -13.076  15.186  67.858  1.00  0.00     0.000 HD 
HETATM   32  C   UNL     1     -12.174  14.476  72.547  1.00  0.00    -0.219 A  
HETATM   33  C   UNL     1     -10.317  17.805  66.542  1.00  0.00    -0.345 A  
HETATM   34  C   UNL     1     -13.476  14.960  72.607  1.00  0.00    -0.573 A  
HETATM   35  C   UNL     1      -9.618  18.602  67.441  1.00  0.00    -0.317 A  
HETATM   36  C   UNL     1      -9.503  18.205  68.770  1.00  0.00    -0.285 A  
HETATM   37  C   UNL     1     -14.076  15.463  71.458  1.00  0.00    -0.596 A  
HETATM   38  C   UNL     1     -10.076  17.000  69.201  1.00  0.00    -0.259 A  
HETATM   39  C   UNL     1     -13.384  15.454  70.243  1.00  0.00     0.106 A  
ENDBRANCH  18  19
ENDBRANCH  17  18
ENDBRANCH  16  17
ENDBRANCH  13  16
ENDBRANCH  10  13
ENDBRANCH   2   7
TORSDOF 6
ENDMDL
MODEL       39
REMARK 921   NORMALIZED FREE ENERGY PREDICTED BY IDOCK:   -6.16 KCAL/MOL
REMARK 922        TOTAL FREE ENERGY PREDICTED BY IDOCK:  -10.67 KCAL/MOL
REMARK 923 INTER-LIGAND FREE ENERGY PREDICTED BY IDOCK:   -9.82 KCAL/MOL
REMARK 924 INTRA-LIGAND FREE ENERGY PREDICTED BY IDOCK:   -0.86 KCAL/MOL
REMARK 927      BINDING AFFINITY PREDICTED BY RF-SCORE:    0.00 PKD
ROOT
HETATM    1  C   UNL     1      -8.354   7.181  68.412  1.00  0.00    -0.125 C  
HETATM    2  C   UNL     1      -9.080   6.781  67.106  1.00  0.00    -0.130 C  
HETATM    3  C   UNL     1     -10.445   6.176  67.492  1.00  0.00    -0.240 C  
HETATM    4  O   UNL     1     -10.869   6.081  68.636  1.00  0.00    -0.279 OA 
HETATM    5  C   UNL     1      -8.275   5.672  66.401  1.00  0.00    -0.107 C  
HETATM    6  O   UNL     1     -11.182   5.732  66.442  1.00  0.00    -0.071 OA 
ENDROOT
BRANCH   2   7
HETATM    7  C   UNL     1      -9.176   8.034  66.223  1.00  0.00    -0.237 A  
HETATM    8  C   UNL     1     -10.146   9.015  66.497  1.00  0.00    -0.354 A  
HETATM    9  C   UNL     1     -10.363  10.083  65.627  1.00  0.00    -0.171 A  
HETATM   10  C   UNL     1      -9.587  10.219  64.472  1.00  0.00    -0.378 A  
HETATM   11  C   UNL     1      -8.381   8.202  65.082  1.00  0.00    -0.152 A  
HETATM   12  C   UNL     1      -8.560   9.296  64.241  1.00  0.00    -0.214 A  
BRANCH  10  13
HETATM   13  C   UNL     1      -9.901  11.290  63.454  1.00  0.00    -0.385 C  
HETATM   14  O   UNL     1     -11.166  10.977  62.887  1.00  0.00    -0.751 OA 
HETATM   15  H   UNL     1     -11.363  11.651  62.247  1.00  0.00     0.000 HD 
BRANCH  13  16
HETATM   16  C   UNL     1      -9.850  12.682  64.114  1.00  0.00    -0.074 C  
BRANCH  16  17
HETATM   17  C   UNL     1     -11.207  13.374  64.267  1.00  0.00    -0.406 C  
BRANCH  17  18
HETATM   18  C   UNL     1     -11.183  14.663  65.100  1.00  0.00    -0.374 C  
BRANCH  18  19
HETATM   19  N   UNL     1     -10.498  14.507  66.395  1.00  0.00    -0.288 NA 
HETATM   20  C   UNL     1     -11.032  15.380  67.446  1.00  0.00    -0.312 C  
HETATM   21  C   UNL     1     -12.393  14.944  68.000  1.00  0.00     0.211 C  
HETATM   22  C   UNL     1     -12.444  13.474  68.492  1.00  0.00     0.307 C  
HETATM   23  C   UNL     1     -11.840  13.259  69.945  1.00  0.00    -0.310 C  
HETATM   24  C   UNL     1     -11.831  12.605  67.364  1.00  0.00    -0.393 C  
HETATM   25  C   UNL     1     -11.831  11.761  70.319  1.00  0.00    -0.382 A  
HETATM   26  C   UNL     1     -12.526  14.124  71.040  1.00  0.00    -0.438 A  
HETATM   27  C   UNL     1     -10.480  13.109  66.851  1.00  0.00    -0.256 C  
HETATM   28  O   UNL     1     -10.466  13.685  69.894  1.00  0.00    -0.123 OA 
HETATM   29  C   UNL     1     -10.691  10.966  70.072  1.00  0.00    -0.049 A  
HETATM   30  C   UNL     1     -13.847  14.600  70.931  1.00  0.00    -0.097 A  
HETATM   31  H   UNL     1     -10.104  13.557  70.763  1.00  0.00     0.000 HD 
HETATM   32  C   UNL     1     -14.396  15.457  71.891  1.00  0.00    -0.649 A  
HETATM   33  C   UNL     1     -10.679   9.596  70.336  1.00  0.00    -0.356 A  
HETATM   34  C   UNL     1     -13.648  15.836  73.001  1.00  0.00    -0.638 A  
HETATM   35  C   UNL     1     -11.804   8.985  70.879  1.00  0.00    -0.302 A  
HETATM   36  C   UNL     1     -12.938   9.745  71.148  1.00  0.00    -0.431 A  
HETATM   37  C   UNL     1     -12.361  15.336  73.166  1.00  0.00    -0.558 A  
HETATM   38  C   UNL     1     -12.956  11.117  70.861  1.00  0.00    -0.276 A  
HETATM   39  C   UNL     1     -11.812  14.479  72.206  1.00  0.00    -0.030 A  
ENDBRANCH  18  19
ENDBRANCH  17  18
ENDBRANCH  16  17
ENDBRANCH  13  16
ENDBRANCH  10  13
ENDBRANCH   2   7
TORSDOF 6
ENDMDL
MODEL       40
REMARK 921   NORMALIZED FREE ENERGY PREDICTED BY IDOCK:   -6.14 KCAL/MOL
REMARK 922        TOTAL FREE ENERGY PREDICTED BY IDOCK:  -10.64 KCAL/MOL
REMARK 923 INTER-LIGAND FREE ENERGY PREDICTED BY IDOCK:   -9.24 KCAL/MOL
REMARK 924 INTRA-LIGAND FREE ENERGY PREDICTED BY IDOCK:   -1.40 KCAL/MOL
REMARK 927      BINDING AFFINITY PREDICTED BY RF-SCORE:    0.00 PKD
ROOT
HETATM    1  C   UNL     1     -12.800  13.897  65.931  1.00  0.00    -0.387 C  
HETATM    2  C   UNL     1     -11.420  13.450  66.466  1.00  0.00    -0.372 C  
HETATM    3  C   UNL     1     -10.442  14.629  66.287  1.00  0.00    -0.298 C  
HETATM    4  O   UNL     1     -10.745  15.726  65.837  1.00  0.00    -0.321 OA 
HETATM    5  C   UNL     1     -10.894  12.289  65.601  1.00  0.00    -0.321 C  
HETATM    6  O   UNL     1      -9.167  14.368  66.674  1.00  0.00    -0.256 OA 
ENDROOT
BRANCH   2   7
HETATM    7  C   UNL     1     -11.606  13.006  67.925  1.00  0.00    -0.385 A  
HETATM    8  C   UNL     1     -11.629  11.635  68.245  1.00  0.00    -0.378 A  
HETATM    9  C   UNL     1     -11.951  11.196  69.528  1.00  0.00    -0.425 A  
HETATM   10  C   UNL     1     -12.225  12.121  70.541  1.00  0.00    -0.392 A  
HETATM   11  C   UNL     1     -11.847  13.921  68.957  1.00  0.00    -0.397 A  
HETATM   12  C   UNL     1     -12.115  13.485  70.251  1.00  0.00    -0.425 A  
BRANCH  10  13
HETATM   13  C   UNL     1     -12.707  11.659  71.896  1.00  0.00    -0.127 C  
HETATM   14  O   UNL     1     -13.306  12.779  72.536  1.00  0.00    -0.478 OA 
HETATM   15  H   UNL     1     -13.608  12.488  73.388  1.00  0.00     0.000 HD 
BRANCH  13  16
HETATM   16  C   UNL     1     -13.658  10.458  71.741  1.00  0.00    -0.246 C  
BRANCH  16  17
HETATM   17  C   UNL     1     -13.192   9.171  72.429  1.00  0.00    -0.512 C  
BRANCH  17  18
HETATM   18  C   UNL     1     -13.414   7.888  71.616  1.00  0.00    -0.341 C  
BRANCH  18  19
HETATM   19  N   UNL     1     -12.303   6.928  71.728  1.00  0.00    -0.353 NA 
HETATM   20  C   UNL     1     -11.755   6.516  70.431  1.00  0.00    -0.375 C  
HETATM   21  C   UNL     1     -10.898   7.582  69.739  1.00  0.00    -0.234 C  
HETATM   22  C   UNL     1      -9.749   8.148  70.614  1.00  0.00    -0.184 C  
HETATM   23  C   UNL     1      -8.462   7.219  70.668  1.00  0.00    -0.140 C  
HETATM   24  C   UNL     1     -10.375   8.526  71.981  1.00  0.00    -0.408 C  
HETATM   25  C   UNL     1      -7.408   7.797  71.637  1.00  0.00    -0.067 A  
HETATM   26  C   UNL     1      -7.854   6.913  69.270  1.00  0.00    -0.114 A  
HETATM   27  C   UNL     1     -11.229   7.419  72.604  1.00  0.00    -0.332 C  
HETATM   28  O   UNL     1      -8.882   5.955  71.213  1.00  0.00    -0.135 OA 
HETATM   29  C   UNL     1      -7.374   7.386  72.987  1.00  0.00    -0.084 A  
HETATM   30  C   UNL     1      -8.020   7.759  68.156  1.00  0.00    -0.122 A  
HETATM   31  H   UNL     1      -8.112   5.398  71.245  1.00  0.00     0.000 HD 
HETATM   32  C   UNL     1      -7.542   7.401  66.890  1.00  0.00    -0.102 A  
HETATM   33  C   UNL     1      -6.477   7.943  73.901  1.00  0.00    -0.106 A  
HETATM   34  C   UNL     1      -6.859   6.203  66.712  1.00  0.00    -0.062 A  
HETATM   35  C   UNL     1      -5.573   8.912  73.483  1.00  0.00    -0.104 A  
HETATM   36  C   UNL     1      -5.573   9.327  72.155  1.00  0.00    -0.063 A  
HETATM   37  C   UNL     1      -6.628   5.374  67.805  1.00  0.00    -0.053 A  
HETATM   38  C   UNL     1      -6.489   8.784  71.243  1.00  0.00    -0.071 A  
HETATM   39  C   UNL     1      -7.107   5.731  69.070  1.00  0.00    -0.069 A  
ENDBRANCH  18  19
ENDBRANCH  17  18
ENDBRANCH  16  17
ENDBRANCH  13  16
ENDBRANCH  10  13
ENDBRANCH   2   7
TORSDOF 6
ENDMDL
MODEL       41
REMARK 921   NORMALIZED FREE ENERGY PREDICTED BY IDOCK:   -6.05 KCAL/MOL
REMARK 922        TOTAL FREE ENERGY PREDICTED BY IDOCK:  -10.53 KCAL/MOL
REMARK 923 INTER-LIGAND FREE ENERGY PREDICTED BY IDOCK:   -8.02 KCAL/MOL
REMARK 924 INTRA-LIGAND FREE ENERGY PREDICTED BY IDOCK:   -2.51 KCAL/MOL
REMARK 927      BINDING AFFINITY PREDICTED BY RF-SCORE:    0.00 PKD
ROOT
HETATM    1  C   UNL     1      -6.815   6.961  67.989  1.00  0.00    -0.078 C  
HETATM    2  C   UNL     1      -7.792   5.767  68.097  1.00  0.00    -0.104 C  
HETATM    3  C   UNL     1      -6.998   4.555  68.626  1.00  0.00    -0.052 C  
HETATM    4  O   UNL     1      -5.815   4.577  68.938  1.00  0.00    -0.019 OA 
HETATM    5  C   UNL     1      -8.297   5.398  66.689  1.00  0.00    -0.108 C  
HETATM    6  O   UNL     1      -7.720   3.411  68.731  1.00  0.00    -0.052 OA 
ENDROOT
BRANCH   2   7
HETATM    7  C   UNL     1      -8.957   6.198  69.001  1.00  0.00    -0.125 A  
HETATM    8  C   UNL     1      -8.696   6.838  70.227  1.00  0.00    -0.144 A  
HETATM    9  C   UNL     1      -9.718   7.101  71.139  1.00  0.00    -0.168 A  
HETATM   10  C   UNL     1     -11.040   6.761  70.832  1.00  0.00    -0.322 A  
HETATM   11  C   UNL     1     -10.289   5.897  68.692  1.00  0.00    -0.271 A  
HETATM   12  C   UNL     1     -11.316   6.207  69.578  1.00  0.00    -0.426 A  
BRANCH  10  13
HETATM   13  C   UNL     1     -12.133   6.914  71.863  1.00  0.00    -0.333 C  
HETATM   14  O   UNL     1     -12.078   5.775  72.711  1.00  0.00    -0.543 OA 
HETATM   15  H   UNL     1     -12.766   5.871  73.359  1.00  0.00     0.000 HD 
BRANCH  13  16
HETATM   16  C   UNL     1     -11.972   8.249  72.615  1.00  0.00    -0.360 C  
BRANCH  16  17
HETATM   17  C   UNL     1     -12.947   9.351  72.193  1.00  0.00    -0.503 C  
BRANCH  17  18
HETATM   18  C   UNL     1     -12.290  10.590  71.569  1.00  0.00    -0.341 C  
BRANCH  18  19
HETATM   19  N   UNL     1     -12.527  10.708  70.120  1.00  0.00    -0.312 NA 
HETATM   20  C   UNL     1     -12.465  12.089  69.629  1.00  0.00     0.122 C  
HETATM   21  C   UNL     1     -11.048  12.668  69.547  1.00  0.00    -0.054 C  
HETATM   22  C   UNL     1     -10.047  11.800  68.738  1.00  0.00    -0.153 C  
HETATM   23  C   UNL     1     -10.161  11.983  67.165  1.00  0.00    -0.201 C  
HETATM   24  C   UNL     1     -10.186  10.350  69.269  1.00  0.00    -0.248 C  
HETATM   25  C   UNL     1      -9.208  11.014  66.431  1.00  0.00    -0.192 A  
HETATM   26  C   UNL     1      -9.967  13.452  66.692  1.00  0.00    -0.277 A  
HETATM   27  C   UNL     1     -11.629   9.845  69.337  1.00  0.00     0.053 C  
HETATM   28  O   UNL     1     -11.501  11.611  66.796  1.00  0.00    -0.427 OA 
HETATM   29  C   UNL     1      -9.664   9.750  66.000  1.00  0.00    -0.319 A  
HETATM   30  C   UNL     1      -9.235  14.407  67.423  1.00  0.00    -0.199 A  
HETATM   31  H   UNL     1     -11.569  11.720  65.855  1.00  0.00     0.000 HD 
HETATM   32  C   UNL     1      -9.166  15.744  67.014  1.00  0.00    -0.233 A  
HETATM   33  C   UNL     1      -8.808   8.827  65.395  1.00  0.00    -0.221 A  
HETATM   34  C   UNL     1      -9.803  16.153  65.847  1.00  0.00    -0.384 A  
HETATM   35  C   UNL     1      -7.473   9.154  65.185  1.00  0.00    -0.097 A  
HETATM   36  C   UNL     1      -6.998  10.399  65.586  1.00  0.00    -0.132 A  
HETATM   37  C   UNL     1     -10.485  15.220  65.073  1.00  0.00    -0.411 A  
HETATM   38  C   UNL     1      -7.854  11.316  66.213  1.00  0.00    -0.069 A  
HETATM   39  C   UNL     1     -10.554  13.884  65.482  1.00  0.00    -0.318 A  
ENDBRANCH  18  19
ENDBRANCH  17  18
ENDBRANCH  16  17
ENDBRANCH  13  16
ENDBRANCH  10  13
ENDBRANCH   2   7
TORSDOF 6
ENDMDL
MODEL       42
REMARK 921   NORMALIZED FREE ENERGY PREDICTED BY IDOCK:   -5.98 KCAL/MOL
REMARK 922        TOTAL FREE ENERGY PREDICTED BY IDOCK:  -10.44 KCAL/MOL
REMARK 923 INTER-LIGAND FREE ENERGY PREDICTED BY IDOCK:   -9.44 KCAL/MOL
REMARK 924 INTRA-LIGAND FREE ENERGY PREDICTED BY IDOCK:   -1.00 KCAL/MOL
REMARK 927      BINDING AFFINITY PREDICTED BY RF-SCORE:    0.00 PKD
ROOT
HETATM    1  C   UNL     1      -7.955  20.193  66.785  1.00  0.00    -0.343 C  
HETATM    2  C   UNL     1      -7.438  18.823  67.281  1.00  0.00    -0.230 C  
HETATM    3  C   UNL     1      -6.960  18.999  68.737  1.00  0.00    -0.310 C  
HETATM    4  O   UNL     1      -7.030  20.042  69.374  1.00  0.00    -0.291 OA 
HETATM    5  C   UNL     1      -6.209  18.414  66.447  1.00  0.00    -0.216 C  
HETATM    6  O   UNL     1      -6.432  17.880  69.296  1.00  0.00    -0.243 OA 
ENDROOT
BRANCH   2   7
HETATM    7  C   UNL     1      -8.576  17.805  67.113  1.00  0.00    -0.242 A  
HETATM    8  C   UNL     1      -9.770  17.957  67.844  1.00  0.00    -0.288 A  
HETATM    9  C   UNL     1     -10.756  16.973  67.833  1.00  0.00    -0.348 A  
HETATM   10  C   UNL     1     -10.591  15.818  67.060  1.00  0.00    -0.316 A  
HETATM   11  C   UNL     1      -8.441  16.662  66.315  1.00  0.00    -0.355 A  
HETATM   12  C   UNL     1      -9.448  15.703  66.262  1.00  0.00    -0.351 A  
BRANCH  10  13
HETATM   13  C   UNL     1     -11.586  14.685  67.146  1.00  0.00    -0.378 C  
HETATM   14  O   UNL     1     -11.011  13.567  66.483  1.00  0.00    -0.288 OA 
HETATM   15  H   UNL     1     -11.637  12.854  66.537  1.00  0.00     0.000 HD 
BRANCH  13  16
HETATM   16  C   UNL     1     -11.951  14.408  68.617  1.00  0.00    -0.332 C  
BRANCH  16  17
HETATM   17  C   UNL     1     -11.138  13.296  69.286  1.00  0.00    -0.208 C  
BRANCH  17  18
HETATM   18  C   UNL     1     -11.938  12.392  70.234  1.00  0.00    -0.289 C  
BRANCH  18  19
HETATM   19  N   UNL     1     -12.166  11.040  69.696  1.00  0.00    -0.329 NA 
HETATM   20  C   UNL     1     -11.131  10.605  68.753  1.00  0.00    -0.265 C  
HETATM   21  C   UNL     1      -9.797  10.228  69.406  1.00  0.00    -0.247 C  
HETATM   22  C   UNL     1      -9.914   9.180  70.544  1.00  0.00    -0.288 C  
HETATM   23  C   UNL     1     -10.028   7.682  70.031  1.00  0.00    -0.190 C  
HETATM   24  C   UNL     1     -11.046   9.668  71.485  1.00  0.00    -0.335 C  
HETATM   25  C   UNL     1     -10.245   6.713  71.214  1.00  0.00    -0.222 A  
HETATM   26  C   UNL     1      -8.840   7.238  69.132  1.00  0.00    -0.136 A  
HETATM   27  C   UNL     1     -12.342  10.040  70.760  1.00  0.00    -0.303 C  
HETATM   28  O   UNL     1     -11.208   7.610  69.211  1.00  0.00    -0.442 OA 
HETATM   29  C   UNL     1     -11.549   6.344  71.610  1.00  0.00    -0.363 A  
HETATM   30  C   UNL     1      -7.561   7.824  69.199  1.00  0.00    -0.099 A  
HETATM   31  H   UNL     1     -11.277   6.713  68.904  1.00  0.00     0.000 HD 
HETATM   32  C   UNL     1      -6.547   7.465  68.304  1.00  0.00    -0.050 A  
HETATM   33  C   UNL     1     -11.776   5.525  72.718  1.00  0.00    -0.240 A  
HETATM   34  C   UNL     1      -6.775   6.489  67.340  1.00  0.00    -0.067 A  
HETATM   35  C   UNL     1     -10.701   5.032  73.448  1.00  0.00    -0.330 A  
HETATM   36  C   UNL     1      -9.403   5.367  73.073  1.00  0.00    -0.142 A  
HETATM   37  C   UNL     1      -8.010   5.851  67.287  1.00  0.00    -0.102 A  
HETATM   38  C   UNL     1      -9.177   6.207  71.974  1.00  0.00    -0.148 A  
HETATM   39  C   UNL     1      -9.024   6.210  68.180  1.00  0.00    -0.114 A  
ENDBRANCH  18  19
ENDBRANCH  17  18
ENDBRANCH  16  17
ENDBRANCH  13  16
ENDBRANCH  10  13
ENDBRANCH   2   7
TORSDOF 6
ENDMDL
MODEL       43
REMARK 921   NORMALIZED FREE ENERGY PREDICTED BY IDOCK:   -5.96 KCAL/MOL
REMARK 922        TOTAL FREE ENERGY PREDICTED BY IDOCK:  -10.40 KCAL/MOL
REMARK 923 INTER-LIGAND FREE ENERGY PREDICTED BY IDOCK:   -9.78 KCAL/MOL
REMARK 924 INTRA-LIGAND FREE ENERGY PREDICTED BY IDOCK:   -0.62 KCAL/MOL
REMARK 927      BINDING AFFINITY PREDICTED BY RF-SCORE:    0.00 PKD
ROOT
HETATM    1  C   UNL     1      -7.158   4.262  66.203  1.00  0.00    -0.067 C  
HETATM    2  C   UNL     1      -8.415   4.717  65.425  1.00  0.00    -0.129 C  
HETATM    3  C   UNL     1      -9.653   4.253  66.219  1.00  0.00    -0.196 C  
HETATM    4  O   UNL     1      -9.616   3.667  67.294  1.00  0.00    -0.209 OA 
HETATM    5  C   UNL     1      -8.455   3.998  64.063  1.00  0.00    -0.096 C  
HETATM    6  O   UNL     1     -10.842   4.543  65.631  1.00  0.00    -0.270 OA 
ENDROOT
BRANCH   2   7
HETATM    7  C   UNL     1      -8.324   6.239  65.238  1.00  0.00    -0.138 A  
HETATM    8  C   UNL     1      -8.785   7.101  66.251  1.00  0.00    -0.156 A  
HETATM    9  C   UNL     1      -8.861   8.479  66.051  1.00  0.00    -0.208 A  
HETATM   10  C   UNL     1      -8.442   9.038  64.839  1.00  0.00    -0.195 A  
HETATM   11  C   UNL     1      -7.874   6.816  64.045  1.00  0.00    -0.106 A  
HETATM   12  C   UNL     1      -7.899   8.196  63.863  1.00  0.00    -0.147 A  
BRANCH  10  13
HETATM   13  C   UNL     1      -8.645  10.509  64.559  1.00  0.00    -0.159 C  
HETATM   14  O   UNL     1      -7.527  10.953  63.801  1.00  0.00    -0.328 OA 
HETATM   15  H   UNL     1      -7.655  11.878  63.625  1.00  0.00     0.000 HD 
BRANCH  13  16
HETATM   16  C   UNL     1      -9.996  10.734  63.852  1.00  0.00    -0.404 C  
BRANCH  16  17
HETATM   17  C   UNL     1     -10.289  12.186  63.466  1.00  0.00    -0.473 C  
BRANCH  17  18
HETATM   18  C   UNL     1     -11.749  12.620  63.649  1.00  0.00    -0.522 C  
BRANCH  18  19
HETATM   19  N   UNL     1     -11.893  13.875  64.408  1.00  0.00    -0.417 NA 
HETATM   20  C   UNL     1     -12.742  13.744  65.597  1.00  0.00    -0.478 C  
HETATM   21  C   UNL     1     -12.085  12.996  66.763  1.00  0.00    -0.366 C  
HETATM   22  C   UNL     1     -10.704  13.560  67.189  1.00  0.00    -0.282 C  
HETATM   23  C   UNL     1     -10.792  14.841  68.124  1.00  0.00    -0.254 C  
HETATM   24  C   UNL     1      -9.868  13.717  65.893  1.00  0.00    -0.279 C  
HETATM   25  C   UNL     1      -9.384  15.402  68.418  1.00  0.00    -0.193 A  
HETATM   26  C   UNL     1     -11.604  14.607  69.429  1.00  0.00    -0.342 A  
HETATM   27  C   UNL     1     -10.593  14.460  64.768  1.00  0.00    -0.393 C  
HETATM   28  O   UNL     1     -11.498  15.852  67.383  1.00  0.00    -0.134 OA 
HETATM   29  C   UNL     1      -8.833  16.420  67.609  1.00  0.00    -0.191 A  
HETATM   30  C   UNL     1     -11.766  13.338  70.019  1.00  0.00    -0.295 A  
HETATM   31  H   UNL     1     -11.550  16.619  67.942  1.00  0.00     0.000 HD 
HETATM   32  C   UNL     1     -12.586  13.153  71.138  1.00  0.00    -0.403 A  
HETATM   33  C   UNL     1      -7.537  16.897  67.810  1.00  0.00    -0.180 A  
HETATM   34  C   UNL     1     -13.242  14.236  71.713  1.00  0.00    -0.444 A  
HETATM   35  C   UNL     1      -6.761  16.383  68.844  1.00  0.00    -0.174 A  
HETATM   36  C   UNL     1      -7.282  15.390  69.667  1.00  0.00    -0.174 A  
HETATM   37  C   UNL     1     -13.055  15.510  71.188  1.00  0.00    -0.573 A  
HETATM   38  C   UNL     1      -8.576  14.895  69.450  1.00  0.00    -0.054 A  
HETATM   39  C   UNL     1     -12.236  15.696  70.070  1.00  0.00    -0.351 A  
ENDBRANCH  18  19
ENDBRANCH  17  18
ENDBRANCH  16  17
ENDBRANCH  13  16
ENDBRANCH  10  13
ENDBRANCH   2   7
TORSDOF 6
ENDMDL
MODEL       44
REMARK 921   NORMALIZED FREE ENERGY PREDICTED BY IDOCK:   -5.92 KCAL/MOL
REMARK 922        TOTAL FREE ENERGY PREDICTED BY IDOCK:  -10.35 KCAL/MOL
REMARK 923 INTER-LIGAND FREE ENERGY PREDICTED BY IDOCK:   -9.16 KCAL/MOL
REMARK 924 INTRA-LIGAND FREE ENERGY PREDICTED BY IDOCK:   -1.19 KCAL/MOL
REMARK 927      BINDING AFFINITY PREDICTED BY RF-SCORE:    0.00 PKD
ROOT
HETATM    1  C   UNL     1      -9.693  14.494  68.968  1.00  0.00    -0.124 C  
HETATM    2  C   UNL     1     -11.175  14.351  68.551  1.00  0.00    -0.286 C  
HETATM    3  C   UNL     1     -11.219  14.200  67.016  1.00  0.00    -0.318 C  
HETATM    4  O   UNL     1     -10.235  14.160  66.289  1.00  0.00    -0.279 OA 
HETATM    5  C   UNL     1     -11.926  15.651  68.900  1.00  0.00    -0.298 C  
HETATM    6  O   UNL     1     -12.469  14.111  66.495  1.00  0.00    -0.447 OA 
ENDROOT
BRANCH   2   7
HETATM    7  C   UNL     1     -11.764  13.157  69.316  1.00  0.00    -0.376 A  
HETATM    8  C   UNL     1     -12.299  13.342  70.605  1.00  0.00    -0.423 A  
HETATM    9  C   UNL     1     -12.697  12.259  71.387  1.00  0.00    -0.351 A  
HETATM   10  C   UNL     1     -12.603  10.956  70.886  1.00  0.00    -0.494 A  
HETATM   11  C   UNL     1     -11.710  11.851  68.814  1.00  0.00    -0.379 A  
HETATM   12  C   UNL     1     -12.156  10.774  69.572  1.00  0.00    -0.344 A  
BRANCH  10  13
HETATM   13  C   UNL     1     -12.901   9.768  71.769  1.00  0.00    -0.434 C  
HETATM   14  O   UNL     1     -13.790   8.921  71.053  1.00  0.00    -0.589 OA 
HETATM   15  H   UNL     1     -13.978   8.174  71.609  1.00  0.00     0.000 HD 
BRANCH  13  16
HETATM   16  C   UNL     1     -11.590   9.072  72.184  1.00  0.00    -0.348 C  
BRANCH  16  17
HETATM   17  C   UNL     1     -11.630   7.542  72.145  1.00  0.00    -0.340 C  
BRANCH  17  18
HETATM   18  C   UNL     1     -10.624   6.895  71.183  1.00  0.00    -0.222 C  
BRANCH  18  19
HETATM   19  N   UNL     1     -11.007   7.024  69.766  1.00  0.00    -0.253 NA 
HETATM   20  C   UNL     1     -10.371   8.160  69.091  1.00  0.00    -0.220 C  
HETATM   21  C   UNL     1      -8.885   7.957  68.775  1.00  0.00    -0.138 C  
HETATM   22  C   UNL     1      -8.569   6.660  67.985  1.00  0.00    -0.118 C  
HETATM   23  C   UNL     1      -8.834   6.776  66.423  1.00  0.00    -0.144 C  
HETATM   24  C   UNL     1      -9.298   5.503  68.716  1.00  0.00    -0.152 C  
HETATM   25  C   UNL     1      -8.597   5.419  65.725  1.00  0.00    -0.139 A  
HETATM   26  C   UNL     1      -8.039   7.924  65.739  1.00  0.00    -0.123 A  
HETATM   27  C   UNL     1     -10.774   5.783  69.011  1.00  0.00    -0.284 C  
HETATM   28  O   UNL     1     -10.228   7.092  66.258  1.00  0.00    -0.460 OA 
HETATM   29  C   UNL     1      -9.667   4.521  65.520  1.00  0.00    -0.204 A  
HETATM   30  C   UNL     1      -6.831   8.436  66.250  1.00  0.00    -0.073 A  
HETATM   31  H   UNL     1     -10.387   7.162  65.324  1.00  0.00     0.000 HD 
HETATM   32  C   UNL     1      -6.197   9.536  65.661  1.00  0.00    -0.065 A  
HETATM   33  C   UNL     1      -9.469   3.260  64.954  1.00  0.00    -0.151 A  
HETATM   34  C   UNL     1      -6.739  10.133  64.527  1.00  0.00    -0.117 A  
HETATM   35  C   UNL     1      -8.195   2.871  64.554  1.00  0.00    -0.086 A  
HETATM   36  C   UNL     1      -7.123   3.741  64.730  1.00  0.00    -0.065 A  
HETATM   37  C   UNL     1      -7.900   9.612  63.965  1.00  0.00    -0.137 A  
HETATM   38  C   UNL     1      -7.319   4.998  65.319  1.00  0.00    -0.072 A  
HETATM   39  C   UNL     1      -8.534   8.514  64.554  1.00  0.00    -0.108 A  
ENDBRANCH  18  19
ENDBRANCH  17  18
ENDBRANCH  16  17
ENDBRANCH  13  16
ENDBRANCH  10  13
ENDBRANCH   2   7
TORSDOF 6
ENDMDL
MODEL       45
REMARK 921   NORMALIZED FREE ENERGY PREDICTED BY IDOCK:   -5.89 KCAL/MOL
REMARK 922        TOTAL FREE ENERGY PREDICTED BY IDOCK:  -10.31 KCAL/MOL
REMARK 923 INTER-LIGAND FREE ENERGY PREDICTED BY IDOCK:   -9.49 KCAL/MOL
REMARK 924 INTRA-LIGAND FREE ENERGY PREDICTED BY IDOCK:   -0.82 KCAL/MOL
REMARK 927      BINDING AFFINITY PREDICTED BY RF-SCORE:    0.00 PKD
ROOT
HETATM    1  C   UNL     1     -10.371  19.349  68.216  1.00  0.00    -0.500 C  
HETATM    2  C   UNL     1      -9.857  18.927  66.820  1.00  0.00    -0.387 C  
HETATM    3  C   UNL     1      -8.337  19.186  66.780  1.00  0.00    -0.293 C  
HETATM    4  O   UNL     1      -7.675  19.612  67.717  1.00  0.00    -0.270 OA 
HETATM    5  C   UNL     1     -10.500  19.831  65.750  1.00  0.00    -0.545 C  
HETATM    6  O   UNL     1      -7.749  18.904  65.589  1.00  0.00    -0.478 OA 
ENDROOT
BRANCH   2   7
HETATM    7  C   UNL     1     -10.250  17.458  66.603  1.00  0.00    -0.324 A  
HETATM    8  C   UNL     1     -10.423  16.962  65.297  1.00  0.00    -0.101 A  
HETATM    9  C   UNL     1     -10.929  15.683  65.069  1.00  0.00    -0.445 A  
HETATM   10  C   UNL     1     -11.242  14.847  66.146  1.00  0.00    -0.325 A  
HETATM   11  C   UNL     1     -10.533  16.598  67.671  1.00  0.00    -0.320 A  
HETATM   12  C   UNL     1     -10.987  15.302  67.444  1.00  0.00    -0.321 A  
BRANCH  10  13
HETATM   13  C   UNL     1     -11.917  13.515  65.916  1.00  0.00    -0.406 C  
HETATM   14  O   UNL     1     -12.971  13.730  64.987  1.00  0.00    -0.732 OA 
HETATM   15  H   UNL     1     -13.395  12.892  64.843  1.00  0.00     0.000 HD 
BRANCH  13  16
HETATM   16  C   UNL     1     -10.886  12.471  65.446  1.00  0.00    -0.316 C  
BRANCH  16  17
HETATM   17  C   UNL     1     -10.946  11.128  66.179  1.00  0.00    -0.203 C  
BRANCH  17  18
HETATM   18  C   UNL     1     -10.298  11.122  67.570  1.00  0.00    -0.196 C  
BRANCH  18  19
HETATM   19  N   UNL     1     -10.856  10.098  68.470  1.00  0.00    -0.229 NA 
HETATM   20  C   UNL     1     -10.733   8.733  67.948  1.00  0.00    -0.107 C  
HETATM   21  C   UNL     1      -9.314   8.158  68.010  1.00  0.00    -0.144 C  
HETATM   22  C   UNL     1      -8.658   8.221  69.415  1.00  0.00    -0.134 C  
HETATM   23  C   UNL     1      -9.119   7.060  70.394  1.00  0.00    -0.156 C  
HETATM   24  C   UNL     1      -8.854   9.669  69.933  1.00  0.00    -0.240 C  
HETATM   25  C   UNL     1      -8.505   7.251  71.799  1.00  0.00    -0.116 A  
HETATM   26  C   UNL     1      -8.853   5.632  69.838  1.00  0.00    -0.135 A  
HETATM   27  C   UNL     1     -10.293  10.181  69.826  1.00  0.00    -0.259 C  
HETATM   28  O   UNL     1     -10.545   7.179  70.543  1.00  0.00    -0.217 OA 
HETATM   29  C   UNL     1      -9.212   7.948  72.802  1.00  0.00    -0.282 A  
HETATM   30  C   UNL     1      -7.849   5.348  68.893  1.00  0.00    -0.083 A  
HETATM   31  H   UNL     1     -10.821   6.484  71.129  1.00  0.00     0.000 HD 
HETATM   32  C   UNL     1      -7.706   4.069  68.342  1.00  0.00    -0.066 A  
HETATM   33  C   UNL     1      -8.653   8.196  74.057  1.00  0.00    -0.253 A  
HETATM   34  C   UNL     1      -8.544   3.034  68.746  1.00  0.00    -0.111 A  
HETATM   35  C   UNL     1      -7.376   7.731  74.352  1.00  0.00    -0.177 A  
HETATM   36  C   UNL     1      -6.660   7.027  73.388  1.00  0.00    -0.066 A  
HETATM   37  C   UNL     1      -9.507   3.271  69.721  1.00  0.00    -0.212 A  
HETATM   38  C   UNL     1      -7.214   6.799  72.120  1.00  0.00    -0.080 A  
HETATM   39  C   UNL     1      -9.650   4.549  70.271  1.00  0.00    -0.263 A  
ENDBRANCH  18  19
ENDBRANCH  17  18
ENDBRANCH  16  17
ENDBRANCH  13  16
ENDBRANCH  10  13
ENDBRANCH   2   7
TORSDOF 6
ENDMDL
MODEL       46
REMARK 921   NORMALIZED FREE ENERGY PREDICTED BY IDOCK:   -5.88 KCAL/MOL
REMARK 922        TOTAL FREE ENERGY PREDICTED BY IDOCK:  -10.30 KCAL/MOL
REMARK 923 INTER-LIGAND FREE ENERGY PREDICTED BY IDOCK:   -9.20 KCAL/MOL
REMARK 924 INTRA-LIGAND FREE ENERGY PREDICTED BY IDOCK:   -1.09 KCAL/MOL
REMARK 927      BINDING AFFINITY PREDICTED BY RF-SCORE:    0.00 PKD
ROOT
HETATM    1  C   UNL     1     -11.221   4.689  73.445  1.00  0.00    -0.423 C  
HETATM    2  C   UNL     1     -10.227   5.815  73.080  1.00  0.00    -0.209 C  
HETATM    3  C   UNL     1      -8.822   5.366  73.529  1.00  0.00    -0.119 C  
HETATM    4  O   UNL     1      -8.564   4.285  74.042  1.00  0.00    -0.097 OA 
HETATM    5  C   UNL     1     -10.578   7.080  73.886  1.00  0.00    -0.232 C  
HETATM    6  O   UNL     1      -7.842   6.281  73.314  1.00  0.00    -0.099 OA 
ENDROOT
BRANCH   2   7
HETATM    7  C   UNL     1     -10.351   6.076  71.572  1.00  0.00    -0.261 A  
HETATM    8  C   UNL     1     -10.264   5.005  70.663  1.00  0.00    -0.306 A  
HETATM    9  C   UNL     1     -10.215   5.224  69.287  1.00  0.00    -0.301 A  
HETATM   10  C   UNL     1     -10.289   6.525  68.778  1.00  0.00    -0.220 A  
HETATM   11  C   UNL     1     -10.460   7.370  71.047  1.00  0.00    -0.223 A  
HETATM   12  C   UNL     1     -10.466   7.586  69.672  1.00  0.00    -0.235 A  
BRANCH  10  13
HETATM   13  C   UNL     1     -10.100   6.787  67.302  1.00  0.00    -0.182 C  
HETATM   14  O   UNL     1     -11.391   6.803  66.707  1.00  0.00    -0.721 OA 
HETATM   15  H   UNL     1     -11.273   6.967  65.779  1.00  0.00     0.000 HD 
BRANCH  13  16
HETATM   16  C   UNL     1      -9.309   8.091  67.090  1.00  0.00    -0.186 C  
BRANCH  16  17
HETATM   17  C   UNL     1      -9.650   8.853  65.806  1.00  0.00    -0.245 C  
BRANCH  17  18
HETATM   18  C   UNL     1     -10.304  10.224  66.024  1.00  0.00    -0.178 C  
BRANCH  18  19
HETATM   19  N   UNL     1      -9.709  10.984  67.137  1.00  0.00    -0.172 NA 
HETATM   20  C   UNL     1      -9.181  12.291  66.734  1.00  0.00    -0.210 C  
HETATM   21  C   UNL     1     -10.254  13.348  66.455  1.00  0.00    -0.282 C  
HETATM   22  C   UNL     1     -11.271  13.550  67.609  1.00  0.00    -0.304 C  
HETATM   23  C   UNL     1     -10.737  14.474  68.785  1.00  0.00    -0.253 C  
HETATM   24  C   UNL     1     -11.763  12.138  68.021  1.00  0.00    -0.409 C  
HETATM   25  C   UNL     1     -11.762  14.540  69.939  1.00  0.00    -0.354 A  
HETATM   26  C   UNL     1     -10.303  15.892  68.316  1.00  0.00    -0.242 A  
HETATM   27  C   UNL     1     -10.636  11.132  68.269  1.00  0.00    -0.190 C  
HETATM   28  O   UNL     1      -9.557  13.841  69.311  1.00  0.00    -0.367 OA 
HETATM   29  C   UNL     1     -11.676  13.646  71.027  1.00  0.00     0.238 A  
HETATM   30  C   UNL     1     -10.817  16.512  67.161  1.00  0.00    -0.142 A  
HETATM   31  H   UNL     1      -9.237  14.394  70.015  1.00  0.00     0.000 HD 
HETATM   32  C   UNL     1     -10.328  17.746  66.717  1.00  0.00    -0.343 A  
HETATM   33  C   UNL     1     -12.628  13.638  72.049  1.00  0.00    -0.208 A  
HETATM   34  C   UNL     1      -9.336  18.406  67.435  1.00  0.00    -0.275 A  
HETATM   35  C   UNL     1     -13.682  14.543  72.020  1.00  0.00    -0.528 A  
HETATM   36  C   UNL     1     -13.786  15.447  70.968  1.00  0.00    -0.420 A  
HETATM   37  C   UNL     1      -8.851  17.846  68.611  1.00  0.00    -0.267 A  
HETATM   38  C   UNL     1     -12.842  15.439  69.931  1.00  0.00    -0.011 A  
HETATM   39  C   UNL     1      -9.338  16.612  69.055  1.00  0.00    -0.227 A  
ENDBRANCH  18  19
ENDBRANCH  17  18
ENDBRANCH  16  17
ENDBRANCH  13  16
ENDBRANCH  10  13
ENDBRANCH   2   7
TORSDOF 6
ENDMDL
MODEL       47
REMARK 921   NORMALIZED FREE ENERGY PREDICTED BY IDOCK:   -5.86 KCAL/MOL
REMARK 922        TOTAL FREE ENERGY PREDICTED BY IDOCK:  -10.27 KCAL/MOL
REMARK 923 INTER-LIGAND FREE ENERGY PREDICTED BY IDOCK:   -9.84 KCAL/MOL
REMARK 924 INTRA-LIGAND FREE ENERGY PREDICTED BY IDOCK:   -0.43 KCAL/MOL
REMARK 927      BINDING AFFINITY PREDICTED BY RF-SCORE:    0.00 PKD
ROOT
HETATM    1  C   UNL     1     -10.713  19.966  65.860  1.00  0.00    -0.445 C  
HETATM    2  C   UNL     1      -9.751  19.121  66.727  1.00  0.00    -0.396 C  
HETATM    3  C   UNL     1      -9.804  19.676  68.165  1.00  0.00    -0.418 C  
HETATM    4  O   UNL     1     -10.522  20.596  68.534  1.00  0.00    -0.031 OA 
HETATM    5  C   UNL     1      -8.310  19.316  66.219  1.00  0.00    -0.327 C  
HETATM    6  O   UNL     1      -8.969  19.058  69.039  1.00  0.00    -0.294 OA 
ENDROOT
BRANCH   2   7
HETATM    7  C   UNL     1     -10.181  17.652  66.605  1.00  0.00    -0.341 A  
HETATM    8  C   UNL     1     -10.258  17.044  65.337  1.00  0.00    -0.008 A  
HETATM    9  C   UNL     1     -10.792  15.767  65.178  1.00  0.00    -0.444 A  
HETATM   10  C   UNL     1     -11.233  15.043  66.291  1.00  0.00    -0.309 A  
HETATM   11  C   UNL     1     -10.592  16.902  67.714  1.00  0.00    -0.340 A  
HETATM   12  C   UNL     1     -11.076  15.606  67.562  1.00  0.00    -0.289 A  
BRANCH  10  13
HETATM   13  C   UNL     1     -11.937  13.718  66.119  1.00  0.00    -0.418 C  
HETATM   14  O   UNL     1     -13.081  13.949  65.308  1.00  0.00    -0.777 OA 
HETATM   15  H   UNL     1     -13.524  13.115  65.200  1.00  0.00     0.000 HD 
BRANCH  13  16
HETATM   16  C   UNL     1     -10.968  12.673  65.533  1.00  0.00    -0.313 C  
BRANCH  16  17
HETATM   17  C   UNL     1      -9.715  12.411  66.372  1.00  0.00    -0.246 C  
BRANCH  17  18
HETATM   18  C   UNL     1      -9.975  11.743  67.729  1.00  0.00    -0.190 C  
BRANCH  18  19
HETATM   19  N   UNL     1     -10.854  10.565  67.640  1.00  0.00    -0.279 NA 
HETATM   20  C   UNL     1     -10.589   9.726  66.466  1.00  0.00    -0.080 C  
HETATM   21  C   UNL     1      -9.309   8.889  66.562  1.00  0.00    -0.252 C  
HETATM   22  C   UNL     1      -9.211   8.013  67.839  1.00  0.00    -0.137 C  
HETATM   23  C   UNL     1     -10.032   6.657  67.755  1.00  0.00    -0.132 C  
HETATM   24  C   UNL     1      -9.540   8.937  69.039  1.00  0.00    -0.158 C  
HETATM   25  C   UNL     1      -9.970   5.894  69.096  1.00  0.00    -0.214 A  
HETATM   26  C   UNL     1      -9.624   5.753  66.557  1.00  0.00    -0.175 A  
HETATM   27  C   UNL     1     -10.824   9.753  68.866  1.00  0.00    -0.192 C  
HETATM   28  O   UNL     1     -11.409   7.015  67.542  1.00  0.00    -0.579 OA 
HETATM   29  C   UNL     1     -10.974   6.074  70.071  1.00  0.00    -0.450 A  
HETATM   30  C   UNL     1      -8.352   5.801  65.954  1.00  0.00    -0.130 A  
HETATM   31  H   UNL     1     -11.902   6.204  67.491  1.00  0.00     0.000 HD 
HETATM   32  C   UNL     1      -8.055   5.043  64.816  1.00  0.00    -0.113 A  
HETATM   33  C   UNL     1     -10.907   5.450  71.319  1.00  0.00    -0.201 A  
HETATM   34  C   UNL     1      -9.013   4.195  64.269  1.00  0.00    -0.144 A  
HETATM   35  C   UNL     1      -9.841   4.609  71.617  1.00  0.00    -0.253 A  
HETATM   36  C   UNL     1      -8.843   4.400  70.670  1.00  0.00    -0.139 A  
HETATM   37  C   UNL     1     -10.258   4.083  64.877  1.00  0.00    -0.211 A  
HETATM   38  C   UNL     1      -8.900   5.045  69.426  1.00  0.00    -0.116 A  
HETATM   39  C   UNL     1     -10.556   4.840  66.014  1.00  0.00    -0.300 A  
ENDBRANCH  18  19
ENDBRANCH  17  18
ENDBRANCH  16  17
ENDBRANCH  13  16
ENDBRANCH  10  13
ENDBRANCH   2   7
TORSDOF 6
ENDMDL
MODEL       48
REMARK 921   NORMALIZED FREE ENERGY PREDICTED BY IDOCK:   -5.79 KCAL/MOL
REMARK 922        TOTAL FREE ENERGY PREDICTED BY IDOCK:  -10.17 KCAL/MOL
REMARK 923 INTER-LIGAND FREE ENERGY PREDICTED BY IDOCK:   -8.47 KCAL/MOL
REMARK 924 INTRA-LIGAND FREE ENERGY PREDICTED BY IDOCK:   -1.70 KCAL/MOL
REMARK 927      BINDING AFFINITY PREDICTED BY RF-SCORE:    0.00 PKD
ROOT
HETATM    1  C   UNL     1     -12.035  15.253  64.085  1.00  0.00    -0.145 C  
HETATM    2  C   UNL     1     -11.825  14.174  65.173  1.00  0.00    -0.372 C  
HETATM    3  C   UNL     1     -11.465  12.853  64.463  1.00  0.00    -0.344 C  
HETATM    4  O   UNL     1     -11.334  12.723  63.253  1.00  0.00    -0.446 OA 
HETATM    5  C   UNL     1     -13.154  13.941  65.917  1.00  0.00    -0.035 C  
HETATM    6  O   UNL     1     -11.295  11.794  65.295  1.00  0.00    -0.298 OA 
ENDROOT
BRANCH   2   7
HETATM    7  C   UNL     1     -10.742  14.686  66.134  1.00  0.00    -0.314 A  
HETATM    8  C   UNL     1      -9.541  15.214  65.624  1.00  0.00    -0.295 A  
HETATM    9  C   UNL     1      -8.478  15.540  66.466  1.00  0.00    -0.283 A  
HETATM   10  C   UNL     1      -8.601  15.381  67.850  1.00  0.00    -0.156 A  
HETATM   11  C   UNL     1     -10.864  14.566  67.524  1.00  0.00    -0.289 A  
HETATM   12  C   UNL     1      -9.824  14.942  68.369  1.00  0.00    -0.216 A  
BRANCH  10  13
HETATM   13  C   UNL     1      -7.415  15.601  68.759  1.00  0.00    -0.151 C  
HETATM   14  O   UNL     1      -7.809  15.216  70.069  1.00  0.00    -0.293 OA 
HETATM   15  H   UNL     1      -7.063  15.355  70.641  1.00  0.00     0.000 HD 
BRANCH  13  16
HETATM   16  C   UNL     1      -6.191  14.827  68.233  1.00  0.00    -0.125 C  
BRANCH  16  17
HETATM   17  C   UNL     1      -6.150  13.345  68.614  1.00  0.00    -0.086 C  
BRANCH  17  18
HETATM   18  C   UNL     1      -6.188  12.372  67.428  1.00  0.00    -0.158 C  
BRANCH  18  19
HETATM   19  N   UNL     1      -7.547  11.919  67.089  1.00  0.00    -0.152 NA 
HETATM   20  C   UNL     1      -7.587  10.571  66.513  1.00  0.00    -0.128 C  
HETATM   21  C   UNL     1      -7.354   9.443  67.525  1.00  0.00    -0.084 C  
HETATM   22  C   UNL     1      -8.290   9.489  68.762  1.00  0.00    -0.117 C  
HETATM   23  C   UNL     1      -9.736   8.889  68.499  1.00  0.00    -0.161 C  
HETATM   24  C   UNL     1      -8.242  10.942  69.302  1.00  0.00    -0.046 C  
HETATM   25  C   UNL     1     -10.637   9.065  69.741  1.00  0.00    -0.236 A  
HETATM   26  C   UNL     1      -9.719   7.415  68.004  1.00  0.00    -0.161 A  
HETATM   27  C   UNL     1      -8.467  12.013  68.233  1.00  0.00    -0.167 C  
HETATM   28  O   UNL     1     -10.326   9.666  67.442  1.00  0.00    -0.215 OA 
HETATM   29  C   UNL     1     -11.474  10.195  69.865  1.00  0.00    -0.317 A  
HETATM   30  C   UNL     1      -8.665   6.521  68.278  1.00  0.00    -0.117 A  
HETATM   31  H   UNL     1     -11.191   9.307  67.284  1.00  0.00     0.000 HD 
HETATM   32  C   UNL     1      -8.640   5.233  67.731  1.00  0.00    -0.104 A  
HETATM   33  C   UNL     1     -12.246  10.415  71.008  1.00  0.00    -0.498 A  
HETATM   34  C   UNL     1      -9.681   4.795  66.921  1.00  0.00    -0.204 A  
HETATM   35  C   UNL     1     -12.220   9.495  72.050  1.00  0.00    -0.370 A  
HETATM   36  C   UNL     1     -11.415   8.364  71.950  1.00  0.00    -0.384 A  
HETATM   37  C   UNL     1     -10.764   5.634  66.679  1.00  0.00    -0.339 A  
HETATM   38  C   UNL     1     -10.623   8.156  70.812  1.00  0.00    -0.234 A  
HETATM   39  C   UNL     1     -10.790   6.922  67.225  1.00  0.00    -0.426 A  
ENDBRANCH  18  19
ENDBRANCH  17  18
ENDBRANCH  16  17
ENDBRANCH  13  16
ENDBRANCH  10  13
ENDBRANCH   2   7
TORSDOF 6
ENDMDL
MODEL       49
REMARK 921   NORMALIZED FREE ENERGY PREDICTED BY IDOCK:   -5.77 KCAL/MOL
REMARK 922        TOTAL FREE ENERGY PREDICTED BY IDOCK:  -10.15 KCAL/MOL
REMARK 923 INTER-LIGAND FREE ENERGY PREDICTED BY IDOCK:   -8.11 KCAL/MOL
REMARK 924 INTRA-LIGAND FREE ENERGY PREDICTED BY IDOCK:   -2.04 KCAL/MOL
REMARK 927      BINDING AFFINITY PREDICTED BY RF-SCORE:    0.00 PKD
ROOT
HETATM    1  C   UNL     1     -11.783   7.717  72.899  1.00  0.00    -0.231 C  
HETATM    2  C   UNL     1     -11.670   8.189  71.431  1.00  0.00    -0.321 C  
HETATM    3  C   UNL     1     -12.316   9.586  71.335  1.00  0.00    -0.364 C  
HETATM    4  O   UNL     1     -12.789  10.205  72.279  1.00  0.00    -0.341 OA 
HETATM    5  C   UNL     1     -12.491   7.246  70.532  1.00  0.00     0.006 C  
HETATM    6  O   UNL     1     -12.332  10.115  70.085  1.00  0.00    -0.193 OA 
ENDROOT
BRANCH   2   7
HETATM    7  C   UNL     1     -10.184   8.157  71.044  1.00  0.00    -0.221 A  
HETATM    8  C   UNL     1      -9.775   7.483  69.878  1.00  0.00    -0.171 A  
HETATM    9  C   UNL     1      -8.425   7.302  69.582  1.00  0.00    -0.133 A  
HETATM   10  C   UNL     1      -7.441   7.823  70.429  1.00  0.00    -0.078 A  
HETATM   11  C   UNL     1      -9.189   8.705  71.864  1.00  0.00    -0.345 A  
HETATM   12  C   UNL     1      -7.842   8.571  71.542  1.00  0.00    -0.158 A  
BRANCH  10  13
HETATM   13  C   UNL     1      -5.981   7.517  70.194  1.00  0.00    -0.023 C  
HETATM   14  O   UNL     1      -5.917   6.328  69.418  1.00  0.00    -0.019 OA 
HETATM   15  H   UNL     1      -4.999   6.135  69.271  1.00  0.00     0.000 HD 
BRANCH  13  16
HETATM   16  C   UNL     1      -5.285   8.722  69.531  1.00  0.00    -0.031 C  
BRANCH  16  17
HETATM   17  C   UNL     1      -5.486   8.831  68.017  1.00  0.00    -0.035 C  
BRANCH  17  18
HETATM   18  C   UNL     1      -6.212  10.101  67.552  1.00  0.00    -0.058 C  
BRANCH  18  19
HETATM   19  N   UNL     1      -7.665  10.061  67.787  1.00  0.00    -0.090 NA 
HETATM   20  C   UNL     1      -8.104  10.932  68.882  1.00  0.00    -0.144 C  
HETATM   21  C   UNL     1      -8.099  12.426  68.542  1.00  0.00    -0.096 C  
HETATM   22  C   UNL     1      -8.888  12.795  67.259  1.00  0.00    -0.198 C  
HETATM   23  C   UNL     1     -10.458  12.900  67.476  1.00  0.00    -0.223 C  
HETATM   24  C   UNL     1      -8.416  11.819  66.150  1.00  0.00     0.048 C  
HETATM   25  C   UNL     1     -11.180  13.166  66.136  1.00  0.00    -0.320 A  
HETATM   26  C   UNL     1     -10.870  13.928  68.567  1.00  0.00    -0.274 A  
HETATM   27  C   UNL     1      -8.434  10.346  66.566  1.00  0.00    -0.132 C  
HETATM   28  O   UNL     1     -10.903  11.613  67.941  1.00  0.00    -0.191 OA 
HETATM   29  C   UNL     1     -11.676  12.094  65.364  1.00  0.00    -0.379 A  
HETATM   30  C   UNL     1     -10.071  15.031  68.927  1.00  0.00    -0.234 A  
HETATM   31  H   UNL     1     -11.842  11.676  68.071  1.00  0.00     0.000 HD 
HETATM   32  C   UNL     1     -10.430  15.877  69.983  1.00  0.00    -0.295 A  
HETATM   33  C   UNL     1     -12.271  12.300  64.118  1.00  0.00    -0.539 A  
HETATM   34  C   UNL     1     -11.611  15.660  70.685  1.00  0.00    -0.394 A  
HETATM   35  C   UNL     1     -12.406  13.591  63.619  1.00  0.00    -0.377 A  
HETATM   36  C   UNL     1     -11.940  14.669  64.365  1.00  0.00    -0.454 A  
HETATM   37  C   UNL     1     -12.448  14.614  70.314  1.00  0.00    -0.401 A  
HETATM   38  C   UNL     1     -11.322  14.459  65.606  1.00  0.00    -0.330 A  
HETATM   39  C   UNL     1     -12.091  13.768  69.260  1.00  0.00    -0.374 A  
ENDBRANCH  18  19
ENDBRANCH  17  18
ENDBRANCH  16  17
ENDBRANCH  13  16
ENDBRANCH  10  13
ENDBRANCH   2   7
TORSDOF 6
ENDMDL
MODEL       50
REMARK 921   NORMALIZED FREE ENERGY PREDICTED BY IDOCK:   -5.73 KCAL/MOL
REMARK 922        TOTAL FREE ENERGY PREDICTED BY IDOCK:  -10.09 KCAL/MOL
REMARK 923 INTER-LIGAND FREE ENERGY PREDICTED BY IDOCK:   -9.17 KCAL/MOL
REMARK 924 INTRA-LIGAND FREE ENERGY PREDICTED BY IDOCK:   -0.92 KCAL/MOL
REMARK 927      BINDING AFFINITY PREDICTED BY RF-SCORE:    0.00 PKD
ROOT
HETATM    1  C   UNL     1     -10.121  19.400  68.537  1.00  0.00    -0.527 C  
HETATM    2  C   UNL     1      -9.687  19.116  67.080  1.00  0.00    -0.393 C  
HETATM    3  C   UNL     1      -8.213  19.545  66.936  1.00  0.00    -0.285 C  
HETATM    4  O   UNL     1      -7.522  19.988  67.844  1.00  0.00    -0.287 OA 
HETATM    5  C   UNL     1     -10.512  20.001  66.126  1.00  0.00    -0.526 C  
HETATM    6  O   UNL     1      -7.702  19.396  65.687  1.00  0.00    -0.436 OA 
ENDROOT
BRANCH   2   7
HETATM    7  C   UNL     1      -9.939  17.627  66.800  1.00  0.00    -0.320 A  
HETATM    8  C   UNL     1     -10.375  17.215  65.527  1.00  0.00    -0.132 A  
HETATM    9  C   UNL     1     -10.761  15.897  65.285  1.00  0.00    -0.442 A  
HETATM   10  C   UNL     1     -10.687  14.943  66.305  1.00  0.00    -0.320 A  
HETATM   11  C   UNL     1      -9.835  16.654  67.802  1.00  0.00    -0.252 A  
HETATM   12  C   UNL     1     -10.169  15.327  67.547  1.00  0.00    -0.239 A  
BRANCH  10  13
HETATM   13  C   UNL     1     -11.229  13.548  66.097  1.00  0.00    -0.295 C  
HETATM   14  O   UNL     1     -12.637  13.661  65.941  1.00  0.00    -0.460 OA 
HETATM   15  H   UNL     1     -12.978  12.784  65.810  1.00  0.00     0.000 HD 
BRANCH  13  16
HETATM   16  C   UNL     1     -10.529  12.880  64.898  1.00  0.00    -0.351 C  
BRANCH  16  17
HETATM   17  C   UNL     1     -10.660  11.355  64.841  1.00  0.00    -0.368 C  
BRANCH  17  18
HETATM   18  C   UNL     1      -9.400  10.584  65.256  1.00  0.00    -0.213 C  
BRANCH  18  19
HETATM   19  N   UNL     1      -9.685   9.226  65.752  1.00  0.00    -0.286 NA 
HETATM   20  C   UNL     1      -8.478   8.458  66.074  1.00  0.00    -0.132 C  
HETATM   21  C   UNL     1      -7.778   8.891  67.367  1.00  0.00    -0.096 C  
HETATM   22  C   UNL     1      -8.699   8.928  68.614  1.00  0.00    -0.134 C  
HETATM   23  C   UNL     1      -8.939   7.506  69.280  1.00  0.00    -0.136 C  
HETATM   24  C   UNL     1      -9.972   9.713  68.205  1.00  0.00    -0.185 C  
HETATM   25  C   UNL     1      -9.946   7.610  70.447  1.00  0.00    -0.188 A  
HETATM   26  C   UNL     1      -7.628   6.789  69.711  1.00  0.00    -0.104 A  
HETATM   27  C   UNL     1     -10.608   9.234  66.897  1.00  0.00    -0.169 C  
HETATM   28  O   UNL     1      -9.547   6.672  68.277  1.00  0.00    -0.127 OA 
HETATM   29  C   UNL     1     -11.323   7.389  70.228  1.00  0.00    -0.244 A  
HETATM   30  C   UNL     1      -6.439   7.478  70.019  1.00  0.00    -0.034 A  
HETATM   31  H   UNL     1      -9.691   5.821  68.675  1.00  0.00     0.000 HD 
HETATM   32  C   UNL     1      -5.253   6.793  70.306  1.00  0.00    -0.018 A  
HETATM   33  C   UNL     1     -12.262   7.544  71.249  1.00  0.00    -0.357 A  
HETATM   34  C   UNL     1      -5.233   5.402  70.322  1.00  0.00    -0.004 A  
HETATM   35  C   UNL     1     -11.846   7.902  72.526  1.00  0.00    -0.390 A  
HETATM   36  C   UNL     1     -10.493   8.113  72.776  1.00  0.00    -0.385 A  
HETATM   37  C   UNL     1      -6.406   4.695  70.079  1.00  0.00    -0.030 A  
HETATM   38  C   UNL     1      -9.553   7.979  71.744  1.00  0.00    -0.231 A  
HETATM   39  C   UNL     1      -7.591   5.379  69.791  1.00  0.00    -0.070 A  
ENDBRANCH  18  19
ENDBRANCH  17  18
ENDBRANCH  16  17
ENDBRANCH  13  16
ENDBRANCH  10  13
ENDBRANCH   2   7
TORSDOF 6
ENDMDL
MODEL       51
REMARK 921   NORMALIZED FREE ENERGY PREDICTED BY IDOCK:   -5.70 KCAL/MOL
REMARK 922        TOTAL FREE ENERGY PREDICTED BY IDOCK:  -10.05 KCAL/MOL
REMARK 923 INTER-LIGAND FREE ENERGY PREDICTED BY IDOCK:   -7.79 KCAL/MOL
REMARK 924 INTRA-LIGAND FREE ENERGY PREDICTED BY IDOCK:   -2.26 KCAL/MOL
REMARK 927      BINDING AFFINITY PREDICTED BY RF-SCORE:    0.00 PKD
ROOT
HETATM    1  C   UNL     1      -7.354   2.868  67.112  1.00  0.00    -0.062 C  
HETATM    2  C   UNL     1      -8.074   4.236  67.094  1.00  0.00    -0.100 C  
HETATM    3  C   UNL     1      -9.261   4.131  66.115  1.00  0.00    -0.150 C  
HETATM    4  O   UNL     1      -9.577   3.117  65.506  1.00  0.00    -0.120 OA 
HETATM    5  C   UNL     1      -7.116   5.305  66.533  1.00  0.00    -0.069 C  
HETATM    6  O   UNL     1      -9.966   5.280  65.959  1.00  0.00    -0.164 OA 
ENDROOT
BRANCH   2   7
HETATM    7  C   UNL     1      -8.479   4.569  68.538  1.00  0.00    -0.096 A  
HETATM    8  C   UNL     1      -7.749   5.523  69.272  1.00  0.00    -0.087 A  
HETATM    9  C   UNL     1      -7.991   5.734  70.628  1.00  0.00    -0.109 A  
HETATM   10  C   UNL     1      -8.999   5.020  71.283  1.00  0.00    -0.164 A  
HETATM   11  C   UNL     1      -9.510   3.888  69.198  1.00  0.00    -0.246 A  
HETATM   12  C   UNL     1      -9.788   4.137  70.538  1.00  0.00    -0.252 A  
BRANCH  10  13
HETATM   13  C   UNL     1      -9.181   5.139  72.778  1.00  0.00    -0.136 C  
HETATM   14  O   UNL     1      -7.942   4.792  73.383  1.00  0.00    -0.098 OA 
HETATM   15  H   UNL     1      -8.056   4.867  74.324  1.00  0.00     0.000 HD 
BRANCH  13  16
HETATM   16  C   UNL     1      -9.670   6.553  73.144  1.00  0.00    -0.171 C  
BRANCH  16  17
HETATM   17  C   UNL     1     -11.112   6.864  72.735  1.00  0.00    -0.304 C  
BRANCH  17  18
HETATM   18  C   UNL     1     -11.368   8.323  72.332  1.00  0.00    -0.388 C  
BRANCH  18  19
HETATM   19  N   UNL     1     -11.870   8.467  70.955  1.00  0.00    -0.259 NA 
HETATM   20  C   UNL     1     -12.327   9.824  70.639  1.00  0.00    -0.168 C  
HETATM   21  C   UNL     1     -11.197  10.842  70.441  1.00  0.00    -0.270 C  
HETATM   22  C   UNL     1     -10.126  10.416  69.403  1.00  0.00    -0.251 C  
HETATM   23  C   UNL     1     -10.553  10.672  67.895  1.00  0.00    -0.228 C  
HETATM   24  C   UNL     1      -9.712   8.965  69.759  1.00  0.00    -0.180 C  
HETATM   25  C   UNL     1      -9.483  10.129  66.923  1.00  0.00    -0.203 A  
HETATM   26  C   UNL     1     -10.911  12.154  67.590  1.00  0.00    -0.289 A  
HETATM   27  C   UNL     1     -10.892   8.010  69.955  1.00  0.00    -0.235 C  
HETATM   28  O   UNL     1     -11.751   9.909  67.665  1.00  0.00    -0.351 OA 
HETATM   29  C   UNL     1      -9.585   8.822  66.400  1.00  0.00    -0.316 A  
HETATM   30  C   UNL     1     -10.403  13.238  68.332  1.00  0.00    -0.254 A  
HETATM   31  H   UNL     1     -12.007  10.061  66.762  1.00  0.00     0.000 HD 
HETATM   32  C   UNL     1     -10.826  14.550  68.090  1.00  0.00    -0.246 A  
HETATM   33  C   UNL     1      -8.597   8.282  65.574  1.00  0.00    -0.183 A  
HETATM   34  C   UNL     1     -11.745  14.815  67.080  1.00  0.00    -0.351 A  
HETATM   35  C   UNL     1      -7.487   9.045  65.230  1.00  0.00    -0.093 A  
HETATM   36  C   UNL     1      -7.366  10.342  65.718  1.00  0.00    -0.147 A  
HETATM   37  C   UNL     1     -12.220  13.772  66.292  1.00  0.00    -0.489 A  
HETATM   38  C   UNL     1      -8.347  10.876  66.565  1.00  0.00    -0.155 A  
HETATM   39  C   UNL     1     -11.798  12.461  66.534  1.00  0.00    -0.407 A  
ENDBRANCH  18  19
ENDBRANCH  17  18
ENDBRANCH  16  17
ENDBRANCH  13  16
ENDBRANCH  10  13
ENDBRANCH   2   7
TORSDOF 6
ENDMDL
MODEL       52
REMARK 921   NORMALIZED FREE ENERGY PREDICTED BY IDOCK:   -5.70 KCAL/MOL
REMARK 922        TOTAL FREE ENERGY PREDICTED BY IDOCK:  -10.05 KCAL/MOL
REMARK 923 INTER-LIGAND FREE ENERGY PREDICTED BY IDOCK:   -8.81 KCAL/MOL
REMARK 924 INTRA-LIGAND FREE ENERGY PREDICTED BY IDOCK:   -1.24 KCAL/MOL
REMARK 927      BINDING AFFINITY PREDICTED BY RF-SCORE:    0.00 PKD
ROOT
HETATM    1  C   UNL     1      -9.846   4.386  70.433  1.00  0.00    -0.286 C  
HETATM    2  C   UNL     1      -9.811   5.862  69.975  1.00  0.00    -0.225 C  
HETATM    3  C   UNL     1      -8.887   6.633  70.941  1.00  0.00    -0.146 C  
HETATM    4  O   UNL     1      -8.271   6.129  71.870  1.00  0.00    -0.113 OA 
HETATM    5  C   UNL     1     -11.221   6.469  70.116  1.00  0.00    -0.437 C  
HETATM    6  O   UNL     1      -8.794   7.964  70.689  1.00  0.00    -0.137 OA 
ENDROOT
BRANCH   2   7
HETATM    7  C   UNL     1      -9.349   5.886  68.511  1.00  0.00    -0.127 A  
HETATM    8  C   UNL     1     -10.285   5.706  67.475  1.00  0.00    -0.246 A  
HETATM    9  C   UNL     1      -9.879   5.567  66.148  1.00  0.00    -0.137 A  
HETATM   10  C   UNL     1      -8.522   5.640  65.815  1.00  0.00    -0.140 A  
HETATM   11  C   UNL     1      -7.998   5.994  68.159  1.00  0.00    -0.110 A  
HETATM   12  C   UNL     1      -7.596   5.909  66.829  1.00  0.00    -0.099 A  
BRANCH  10  13
HETATM   13  C   UNL     1      -8.059   5.355  64.406  1.00  0.00    -0.123 C  
HETATM   14  O   UNL     1      -9.219   5.266  63.590  1.00  0.00    -0.342 OA 
HETATM   15  H   UNL     1      -8.927   5.086  62.703  1.00  0.00     0.000 HD 
BRANCH  13  16
HETATM   16  C   UNL     1      -7.063   6.437  63.945  1.00  0.00    -0.050 C  
BRANCH  16  17
HETATM   17  C   UNL     1      -7.416   7.117  62.619  1.00  0.00    -0.098 C  
BRANCH  17  18
HETATM   18  C   UNL     1      -8.356   8.324  62.743  1.00  0.00    -0.111 C  
BRANCH  18  19
HETATM   19  N   UNL     1      -7.870   9.347  63.684  1.00  0.00    -0.124 NA 
HETATM   20  C   UNL     1      -8.232  10.714  63.298  1.00  0.00    -0.058 C  
HETATM   21  C   UNL     1      -9.707  11.066  63.522  1.00  0.00    -0.375 C  
HETATM   22  C   UNL     1     -10.218  10.797  64.962  1.00  0.00    -0.373 C  
HETATM   23  C   UNL     1      -9.840  11.935  66.003  1.00  0.00    -0.235 C  
HETATM   24  C   UNL     1      -9.772   9.359  65.332  1.00  0.00    -0.248 C  
HETATM   25  C   UNL     1     -10.291  11.546  67.428  1.00  0.00    -0.235 A  
HETATM   26  C   UNL     1     -10.354  13.346  65.600  1.00  0.00    -0.295 A  
HETATM   27  C   UNL     1      -8.291   9.077  65.067  1.00  0.00    -0.166 C  
HETATM   28  O   UNL     1      -8.404  12.019  66.028  1.00  0.00    -0.383 OA 
HETATM   29  C   UNL     1      -9.404  10.887  68.307  1.00  0.00    -0.168 A  
HETATM   30  C   UNL     1     -11.470  13.549  64.765  1.00  0.00    -0.365 A  
HETATM   31  H   UNL     1      -8.177  12.699  66.651  1.00  0.00     0.000 HD 
HETATM   32  C   UNL     1     -11.842  14.831  64.344  1.00  0.00    -0.393 A  
HETATM   33  C   UNL     1      -9.806  10.463  69.574  1.00  0.00    -0.211 A  
HETATM   34  C   UNL     1     -11.127  15.945  64.772  1.00  0.00    -0.397 A  
HETATM   35  C   UNL     1     -11.104  10.708  70.009  1.00  0.00    -0.359 A  
HETATM   36  C   UNL     1     -11.996  11.369  69.170  1.00  0.00    -0.395 A  
HETATM   37  C   UNL     1     -10.056  15.780  65.643  1.00  0.00    -0.401 A  
HETATM   38  C   UNL     1     -11.598  11.775  67.889  1.00  0.00    -0.377 A  
HETATM   39  C   UNL     1      -9.683  14.499  66.064  1.00  0.00    -0.331 A  
ENDBRANCH  18  19
ENDBRANCH  17  18
ENDBRANCH  16  17
ENDBRANCH  13  16
ENDBRANCH  10  13
ENDBRANCH   2   7
TORSDOF 6
ENDMDL
MODEL       53
REMARK 921   NORMALIZED FREE ENERGY PREDICTED BY IDOCK:   -5.68 KCAL/MOL
REMARK 922        TOTAL FREE ENERGY PREDICTED BY IDOCK:  -10.03 KCAL/MOL
REMARK 923 INTER-LIGAND FREE ENERGY PREDICTED BY IDOCK:   -8.71 KCAL/MOL
REMARK 924 INTRA-LIGAND FREE ENERGY PREDICTED BY IDOCK:   -1.33 KCAL/MOL
REMARK 927      BINDING AFFINITY PREDICTED BY RF-SCORE:    0.00 PKD
ROOT
HETATM    1  C   UNL     1     -12.166  13.873  67.311  1.00  0.00    -0.324 C  
HETATM    2  C   UNL     1     -11.167  13.767  68.487  1.00  0.00    -0.304 C  
HETATM    3  C   UNL     1     -11.073  15.156  69.150  1.00  0.00    -0.258 C  
HETATM    4  O   UNL     1     -11.720  16.139  68.811  1.00  0.00    -0.364 OA 
HETATM    5  C   UNL     1      -9.768  13.434  67.933  1.00  0.00    -0.226 C  
HETATM    6  O   UNL     1     -10.191  15.231  70.179  1.00  0.00    -0.253 OA 
ENDROOT
BRANCH   2   7
HETATM    7  C   UNL     1     -11.663  12.656  69.424  1.00  0.00    -0.387 A  
HETATM    8  C   UNL     1     -11.690  11.321  68.979  1.00  0.00    -0.410 A  
HETATM    9  C   UNL     1     -12.278  10.314  69.744  1.00  0.00    -0.075 A  
HETATM   10  C   UNL     1     -12.826  10.610  70.996  1.00  0.00    -0.496 A  
HETATM   11  C   UNL     1     -12.183  12.931  70.695  1.00  0.00    -0.386 A  
HETATM   12  C   UNL     1     -12.722  11.918  71.482  1.00  0.00    -0.379 A  
BRANCH  10  13
HETATM   13  C   UNL     1     -13.585   9.560  71.773  1.00  0.00    -0.369 C  
HETATM   14  O   UNL     1     -14.343   8.807  70.835  1.00  0.00    -0.604 OA 
HETATM   15  H   UNL     1     -14.821   8.146  71.323  1.00  0.00     0.000 HD 
BRANCH  13  16
HETATM   16  C   UNL     1     -12.610   8.705  72.604  1.00  0.00    -0.277 C  
BRANCH  16  17
HETATM   17  C   UNL     1     -12.177   7.393  71.944  1.00  0.00    -0.344 C  
BRANCH  17  18
HETATM   18  C   UNL     1     -11.143   6.582  72.738  1.00  0.00    -0.245 C  
BRANCH  18  19
HETATM   19  N   UNL     1      -9.872   6.395  72.019  1.00  0.00    -0.157 NA 
HETATM   20  C   UNL     1     -10.031   6.306  70.564  1.00  0.00    -0.186 C  
HETATM   21  C   UNL     1     -10.339   7.642  69.879  1.00  0.00    -0.225 C  
HETATM   22  C   UNL     1      -9.333   8.777  70.206  1.00  0.00    -0.193 C  
HETATM   23  C   UNL     1      -7.989   8.710  69.363  1.00  0.00    -0.102 C  
HETATM   24  C   UNL     1      -9.171   8.797  71.748  1.00  0.00    -0.332 C  
HETATM   25  C   UNL     1      -7.001   9.806  69.819  1.00  0.00    -0.087 A  
HETATM   26  C   UNL     1      -8.214   8.740  67.825  1.00  0.00    -0.111 A  
HETATM   27  C   UNL     1      -8.881   7.426  72.363  1.00  0.00    -0.124 C  
HETATM   28  O   UNL     1      -7.372   7.444  69.659  1.00  0.00    -0.085 OA 
HETATM   29  C   UNL     1      -6.026   9.530  70.803  1.00  0.00    -0.071 A  
HETATM   30  C   UNL     1      -9.351   9.316  67.224  1.00  0.00    -0.161 A  
HETATM   31  H   UNL     1      -6.568   7.403  69.154  1.00  0.00     0.000 HD 
HETATM   32  C   UNL     1      -9.566   9.235  65.843  1.00  0.00    -0.345 A  
HETATM   33  C   UNL     1      -5.166  10.520  71.283  1.00  0.00    -0.084 A  
HETATM   34  C   UNL     1      -8.635   8.603  65.025  1.00  0.00    -0.185 A  
HETATM   35  C   UNL     1      -5.243  11.811  70.773  1.00  0.00    -0.138 A  
HETATM   36  C   UNL     1      -6.183  12.110  69.793  1.00  0.00    -0.132 A  
HETATM   37  C   UNL     1      -7.475   8.077  65.583  1.00  0.00    -0.081 A  
HETATM   38  C   UNL     1      -7.061  11.121  69.327  1.00  0.00    -0.123 A  
HETATM   39  C   UNL     1      -7.260   8.157  66.962  1.00  0.00    -0.083 A  
ENDBRANCH  18  19
ENDBRANCH  17  18
ENDBRANCH  16  17
ENDBRANCH  13  16
ENDBRANCH  10  13
ENDBRANCH   2   7
TORSDOF 6
ENDMDL
MODEL       54
REMARK 921   NORMALIZED FREE ENERGY PREDICTED BY IDOCK:   -5.68 KCAL/MOL
REMARK 922        TOTAL FREE ENERGY PREDICTED BY IDOCK:  -10.03 KCAL/MOL
REMARK 923 INTER-LIGAND FREE ENERGY PREDICTED BY IDOCK:   -8.99 KCAL/MOL
REMARK 924 INTRA-LIGAND FREE ENERGY PREDICTED BY IDOCK:   -1.03 KCAL/MOL
REMARK 927      BINDING AFFINITY PREDICTED BY RF-SCORE:    0.00 PKD
ROOT
HETATM    1  C   UNL     1     -11.415   6.453  70.028  1.00  0.00    -0.496 C  
HETATM    2  C   UNL     1     -11.017   7.506  71.089  1.00  0.00    -0.264 C  
HETATM    3  C   UNL     1     -11.254   6.885  72.481  1.00  0.00    -0.267 C  
HETATM    4  O   UNL     1     -11.648   5.743  72.679  1.00  0.00    -0.300 OA 
HETATM    5  C   UNL     1     -11.955   8.723  70.970  1.00  0.00    -0.291 C  
HETATM    6  O   UNL     1     -10.989   7.716  73.521  1.00  0.00    -0.326 OA 
ENDROOT
BRANCH   2   7
HETATM    7  C   UNL     1      -9.560   7.910  70.821  1.00  0.00    -0.171 A  
HETATM    8  C   UNL     1      -9.238   9.256  70.568  1.00  0.00    -0.311 A  
HETATM    9  C   UNL     1      -7.956   9.633  70.169  1.00  0.00    -0.189 A  
HETATM   10  C   UNL     1      -6.947   8.672  70.046  1.00  0.00    -0.043 A  
HETATM   11  C   UNL     1      -8.530   6.964  70.729  1.00  0.00    -0.136 A  
HETATM   12  C   UNL     1      -7.238   7.346  70.383  1.00  0.00    -0.068 A  
BRANCH  10  13
HETATM   13  C   UNL     1      -5.594   9.044  69.485  1.00  0.00    -0.034 C  
HETATM   14  O   UNL     1      -5.159   7.958  68.678  1.00  0.00    -0.022 OA 
HETATM   15  H   UNL     1      -4.308   8.192  68.325  1.00  0.00     0.000 HD 
BRANCH  13  16
HETATM   16  C   UNL     1      -5.684  10.380  68.722  1.00  0.00    -0.041 C  
BRANCH  16  17
HETATM   17  C   UNL     1      -5.242  11.610  69.519  1.00  0.00    -0.057 C  
BRANCH  17  18
HETATM   18  C   UNL     1      -5.551  12.957  68.851  1.00  0.00    -0.072 C  
BRANCH  18  19
HETATM   19  N   UNL     1      -6.828  13.546  69.290  1.00  0.00    -0.087 NA 
HETATM   20  C   UNL     1      -6.830  15.012  69.276  1.00  0.00    -0.149 C  
HETATM   21  C   UNL     1      -6.909  15.632  67.876  1.00  0.00    -0.159 C  
HETATM   22  C   UNL     1      -8.092  15.119  67.015  1.00  0.00    -0.240 C  
HETATM   23  C   UNL     1      -9.481  15.814  67.347  1.00  0.00    -0.212 C  
HETATM   24  C   UNL     1      -8.067  13.571  67.099  1.00  0.00    -0.097 C  
HETATM   25  C   UNL     1     -10.623  15.179  66.524  1.00  0.00    -0.304 A  
HETATM   26  C   UNL     1      -9.455  17.362  67.200  1.00  0.00    -0.257 A  
HETATM   27  C   UNL     1      -7.972  13.025  68.526  1.00  0.00    -0.090 C  
HETATM   28  O   UNL     1      -9.763  15.543  68.732  1.00  0.00    -0.195 OA 
HETATM   29  C   UNL     1     -11.386  14.117  67.057  1.00  0.00    -0.346 A  
HETATM   30  C   UNL     1      -8.554  18.040  66.356  1.00  0.00    -0.253 A  
HETATM   31  H   UNL     1     -10.594  15.959  68.931  1.00  0.00     0.000 HD 
HETATM   32  C   UNL     1      -8.496  19.438  66.325  1.00  0.00    -0.346 A  
HETATM   33  C   UNL     1     -12.378  13.479  66.310  1.00  0.00    -0.440 A  
HETATM   34  C   UNL     1      -9.357  20.194  67.115  1.00  0.00    -0.521 A  
HETATM   35  C   UNL     1     -12.650  13.902  65.014  1.00  0.00    -0.422 A  
HETATM   36  C   UNL     1     -11.924  14.956  64.467  1.00  0.00    -0.420 A  
HETATM   37  C   UNL     1     -10.296  19.552  67.914  1.00  0.00    -0.567 A  
HETATM   38  C   UNL     1     -10.913  15.581  65.210  1.00  0.00    -0.391 A  
HETATM   39  C   UNL     1     -10.355  18.155  67.946  1.00  0.00    -0.410 A  
ENDBRANCH  18  19
ENDBRANCH  17  18
ENDBRANCH  16  17
ENDBRANCH  13  16
ENDBRANCH  10  13
ENDBRANCH   2   7
TORSDOF 6
ENDMDL
MODEL       55
REMARK 921   NORMALIZED FREE ENERGY PREDICTED BY IDOCK:   -5.66 KCAL/MOL
REMARK 922        TOTAL FREE ENERGY PREDICTED BY IDOCK:  -10.00 KCAL/MOL
REMARK 923 INTER-LIGAND FREE ENERGY PREDICTED BY IDOCK:   -9.05 KCAL/MOL
REMARK 924 INTRA-LIGAND FREE ENERGY PREDICTED BY IDOCK:   -0.95 KCAL/MOL
REMARK 927      BINDING AFFINITY PREDICTED BY RF-SCORE:    0.00 PKD
ROOT
HETATM    1  C   UNL     1      -8.919  15.782  66.744  1.00  0.00    -0.289 C  
HETATM    2  C   UNL     1      -9.655  16.874  67.556  1.00  0.00    -0.245 C  
HETATM    3  C   UNL     1     -10.371  17.803  66.554  1.00  0.00    -0.345 C  
HETATM    4  O   UNL     1     -10.373  17.652  65.339  1.00  0.00    -0.617 OA 
HETATM    5  C   UNL     1      -8.619  17.730  68.308  1.00  0.00    -0.277 C  
HETATM    6  O   UNL     1     -11.028  18.845  67.122  1.00  0.00    -0.410 OA 
ENDROOT
BRANCH   2   7
HETATM    7  C   UNL     1     -10.598  16.167  68.540  1.00  0.00    -0.284 A  
HETATM    8  C   UNL     1     -10.614  16.546  69.896  1.00  0.00    -0.215 A  
HETATM    9  C   UNL     1     -11.339  15.825  70.842  1.00  0.00    -0.426 A  
HETATM   10  C   UNL     1     -12.103  14.719  70.451  1.00  0.00    -0.381 A  
HETATM   11  C   UNL     1     -11.396  15.081  68.158  1.00  0.00    -0.343 A  
HETATM   12  C   UNL     1     -12.163  14.392  69.093  1.00  0.00    -0.255 A  
BRANCH  10  13
HETATM   13  C   UNL     1     -12.782  13.849  71.483  1.00  0.00    -0.357 C  
HETATM   14  O   UNL     1     -13.969  14.519  71.885  1.00  0.00    -0.399 OA 
HETATM   15  H   UNL     1     -14.396  13.972  72.534  1.00  0.00     0.000 HD 
BRANCH  13  16
HETATM   16  C   UNL     1     -13.035  12.442  70.908  1.00  0.00    -0.061 C  
BRANCH  16  17
HETATM   17  C   UNL     1     -13.104  11.322  71.949  1.00  0.00    -0.510 C  
BRANCH  17  18
HETATM   18  C   UNL     1     -12.692   9.936  71.435  1.00  0.00    -0.403 C  
BRANCH  18  19
HETATM   19  N   UNL     1     -11.253   9.663  71.583  1.00  0.00    -0.325 NA 
HETATM   20  C   UNL     1     -10.962   8.310  72.068  1.00  0.00    -0.306 C  
HETATM   21  C   UNL     1     -11.166   7.207  71.024  1.00  0.00    -0.298 C  
HETATM   22  C   UNL     1     -10.407   7.438  69.690  1.00  0.00    -0.226 C  
HETATM   23  C   UNL     1      -8.872   7.035  69.745  1.00  0.00    -0.142 C  
HETATM   24  C   UNL     1     -10.716   8.891  69.249  1.00  0.00    -0.177 C  
HETATM   25  C   UNL     1      -8.165   7.391  68.418  1.00  0.00    -0.125 A  
HETATM   26  C   UNL     1      -8.629   5.553  70.148  1.00  0.00    -0.122 A  
HETATM   27  C   UNL     1     -10.504   9.936  70.347  1.00  0.00    -0.285 C  
HETATM   28  O   UNL     1      -8.264   7.840  70.770  1.00  0.00    -0.104 OA 
HETATM   29  C   UNL     1      -7.509   8.631  68.265  1.00  0.00    -0.095 A  
HETATM   30  C   UNL     1      -9.579   4.534  69.946  1.00  0.00    -0.269 A  
HETATM   31  H   UNL     1      -7.345   7.599  70.803  1.00  0.00     0.000 HD 
HETATM   32  C   UNL     1      -9.364   3.232  70.413  1.00  0.00    -0.237 A  
HETATM   33  C   UNL     1      -6.921   9.007  67.056  1.00  0.00    -0.078 A  
HETATM   34  C   UNL     1      -8.180   2.909  71.067  1.00  0.00    -0.074 A  
HETATM   35  C   UNL     1      -6.954   8.139  65.970  1.00  0.00    -0.058 A  
HETATM   36  C   UNL     1      -7.581   6.903  66.095  1.00  0.00    -0.092 A  
HETATM   37  C   UNL     1      -7.198   3.880  71.230  1.00  0.00    -0.033 A  
HETATM   38  C   UNL     1      -8.190   6.536  67.303  1.00  0.00    -0.113 A  
HETATM   39  C   UNL     1      -7.413   5.181  70.765  1.00  0.00    -0.074 A  
ENDBRANCH  18  19
ENDBRANCH  17  18
ENDBRANCH  16  17
ENDBRANCH  13  16
ENDBRANCH  10  13
ENDBRANCH   2   7
TORSDOF 6
ENDMDL
MODEL       56
REMARK 921   NORMALIZED FREE ENERGY PREDICTED BY IDOCK:   -5.66 KCAL/MOL
REMARK 922        TOTAL FREE ENERGY PREDICTED BY IDOCK:  -10.00 KCAL/MOL
REMARK 923 INTER-LIGAND FREE ENERGY PREDICTED BY IDOCK:   -7.91 KCAL/MOL
REMARK 924 INTRA-LIGAND FREE ENERGY PREDICTED BY IDOCK:   -2.09 KCAL/MOL
REMARK 927      BINDING AFFINITY PREDICTED BY RF-SCORE:    0.00 PKD
ROOT
HETATM    1  C   UNL     1     -11.774  12.137  66.591  1.00  0.00    -0.385 C  
HETATM    2  C   UNL     1     -11.434  13.007  65.358  1.00  0.00    -0.344 C  
HETATM    3  C   UNL     1     -12.594  12.872  64.352  1.00  0.00    -0.317 C  
HETATM    4  O   UNL     1     -13.612  12.219  64.541  1.00  0.00    -0.483 OA 
HETATM    5  C   UNL     1     -10.173  12.444  64.675  1.00  0.00    -0.312 C  
HETATM    6  O   UNL     1     -12.414  13.550  63.190  1.00  0.00    -0.759 OA 
ENDROOT
BRANCH   2   7
HETATM    7  C   UNL     1     -11.194  14.442  65.852  1.00  0.00    -0.324 A  
HETATM    8  C   UNL     1     -10.712  15.420  64.962  1.00  0.00    -0.460 A  
HETATM    9  C   UNL     1     -10.337  16.686  65.410  1.00  0.00    -0.214 A  
HETATM   10  C   UNL     1     -10.467  17.021  66.762  1.00  0.00    -0.257 A  
HETATM   11  C   UNL     1     -11.353  14.803  67.195  1.00  0.00    -0.363 A  
HETATM   12  C   UNL     1     -11.030  16.083  67.635  1.00  0.00    -0.284 A  
BRANCH  10  13
HETATM   13  C   UNL     1      -9.939  18.337  67.284  1.00  0.00    -0.335 C  
HETATM   14  O   UNL     1     -10.158  18.353  68.688  1.00  0.00    -0.369 OA 
HETATM   15  H   UNL     1      -9.826  19.181  69.016  1.00  0.00     0.000 HD 
BRANCH  13  16
HETATM   16  C   UNL     1      -8.459  18.509  66.890  1.00  0.00    -0.277 C  
BRANCH  16  17
HETATM   17  C   UNL     1      -7.548  17.341  67.276  1.00  0.00    -0.204 C  
BRANCH  17  18
HETATM   18  C   UNL     1      -7.788  16.772  68.681  1.00  0.00    -0.241 C  
BRANCH  18  19
HETATM   19  N   UNL     1      -6.970  15.583  68.976  1.00  0.00    -0.131 NA 
HETATM   20  C   UNL     1      -7.609  14.653  69.913  1.00  0.00     0.183 C  
HETATM   21  C   UNL     1      -8.758  13.837  69.310  1.00  0.00     0.582 C  
HETATM   22  C   UNL     1      -8.389  13.070  68.013  1.00  0.00    -0.169 C  
HETATM   23  C   UNL     1      -7.619  11.705  68.268  1.00  0.00    -0.120 C  
HETATM   24  C   UNL     1      -7.682  14.088  67.080  1.00  0.00    -0.004 C  
HETATM   25  C   UNL     1      -7.196  11.056  66.932  1.00  0.00    -0.133 A  
HETATM   26  C   UNL     1      -8.399  10.708  69.172  1.00  0.00    -0.140 A  
HETATM   27  C   UNL     1      -6.556  14.875  67.755  1.00  0.00    -0.168 C  
HETATM   28  O   UNL     1      -6.410  12.032  68.975  1.00  0.00    -0.071 OA 
HETATM   29  C   UNL     1      -5.920  11.308  66.385  1.00  0.00    -0.128 A  
HETATM   30  C   UNL     1      -9.802  10.717  69.297  1.00  0.00    -0.160 A  
HETATM   31  H   UNL     1      -5.949  11.216  69.128  1.00  0.00     0.000 HD 
HETATM   32  C   UNL     1     -10.460   9.870  70.196  1.00  0.00    -0.339 A  
HETATM   33  C   UNL     1      -5.537  10.790  65.146  1.00  0.00    -0.087 A  
HETATM   34  C   UNL     1      -9.735   8.972  70.971  1.00  0.00    -0.348 A  
HETATM   35  C   UNL     1      -6.415   9.985  64.429  1.00  0.00    -0.131 A  
HETATM   36  C   UNL     1      -7.675   9.707  64.950  1.00  0.00    -0.120 A  
HETATM   37  C   UNL     1      -8.353   8.900  70.827  1.00  0.00    -0.205 A  
HETATM   38  C   UNL     1      -8.067  10.246  66.183  1.00  0.00    -0.133 A  
HETATM   39  C   UNL     1      -7.695   9.746  69.930  1.00  0.00    -0.162 A  
ENDBRANCH  18  19
ENDBRANCH  17  18
ENDBRANCH  16  17
ENDBRANCH  13  16
ENDBRANCH  10  13
ENDBRANCH   2   7
TORSDOF 6
ENDMDL
MODEL       57
REMARK 921   NORMALIZED FREE ENERGY PREDICTED BY IDOCK:   -5.63 KCAL/MOL
REMARK 922        TOTAL FREE ENERGY PREDICTED BY IDOCK:   -9.96 KCAL/MOL
REMARK 923 INTER-LIGAND FREE ENERGY PREDICTED BY IDOCK:   -7.56 KCAL/MOL
REMARK 924 INTRA-LIGAND FREE ENERGY PREDICTED BY IDOCK:   -2.40 KCAL/MOL
REMARK 927      BINDING AFFINITY PREDICTED BY RF-SCORE:    0.00 PKD
ROOT
HETATM    1  C   UNL     1     -11.408   4.983  72.977  1.00  0.00    -0.374 C  
HETATM    2  C   UNL     1     -11.011   6.310  72.288  1.00  0.00    -0.297 C  
HETATM    3  C   UNL     1      -9.892   6.959  73.128  1.00  0.00    -0.186 C  
HETATM    4  O   UNL     1      -9.396   6.467  74.133  1.00  0.00    -0.160 OA 
HETATM    5  C   UNL     1     -12.214   7.272  72.314  1.00  0.00    -0.192 C  
HETATM    6  O   UNL     1      -9.470   8.164  72.667  1.00  0.00    -0.221 OA 
ENDROOT
BRANCH   2   7
HETATM    7  C   UNL     1     -10.603   5.982  70.844  1.00  0.00    -0.310 A  
HETATM    8  C   UNL     1     -11.282   6.584  69.768  1.00  0.00    -0.456 A  
HETATM    9  C   UNL     1     -11.043   6.192  68.451  1.00  0.00    -0.343 A  
HETATM   10  C   UNL     1     -10.088   5.209  68.171  1.00  0.00    -0.192 A  
HETATM   11  C   UNL     1      -9.624   5.026  70.546  1.00  0.00    -0.252 A  
HETATM   12  C   UNL     1      -9.347   4.673  69.229  1.00  0.00    -0.207 A  
BRANCH  10  13
HETATM   13  C   UNL     1      -9.917   4.680  66.766  1.00  0.00    -0.225 C  
HETATM   14  O   UNL     1     -10.933   5.270  65.966  1.00  0.00    -0.713 OA 
HETATM   15  H   UNL     1     -10.826   4.936  65.082  1.00  0.00     0.000 HD 
BRANCH  13  16
HETATM   16  C   UNL     1      -8.491   4.968  66.259  1.00  0.00    -0.112 C  
BRANCH  16  17
HETATM   17  C   UNL     1      -8.415   5.834  64.999  1.00  0.00    -0.124 C  
BRANCH  17  18
HETATM   18  C   UNL     1      -7.292   6.881  65.002  1.00  0.00    -0.086 C  
BRANCH  18  19
HETATM   19  N   UNL     1      -7.786   8.266  64.929  1.00  0.00    -0.118 NA 
HETATM   20  C   UNL     1      -9.065   8.467  65.619  1.00  0.00    -0.132 C  
HETATM   21  C   UNL     1      -8.964   8.477  67.148  1.00  0.00    -0.145 C  
HETATM   22  C   UNL     1      -7.923   9.478  67.715  1.00  0.00    -0.099 C  
HETATM   23  C   UNL     1      -8.444  10.977  67.789  1.00  0.00    -0.122 C  
HETATM   24  C   UNL     1      -6.609   9.251  66.924  1.00  0.00    -0.068 C  
HETATM   25  C   UNL     1      -7.320  11.925  68.263  1.00  0.00    -0.093 A  
HETATM   26  C   UNL     1      -9.738  11.147  68.635  1.00  0.00    -0.202 A  
HETATM   27  C   UNL     1      -6.790   9.238  65.404  1.00  0.00    -0.074 C  
HETATM   28  O   UNL     1      -8.781  11.369  66.447  1.00  0.00    -0.180 OA 
HETATM   29  C   UNL     1      -6.499  12.589  67.327  1.00  0.00    -0.124 A  
HETATM   30  C   UNL     1     -10.107  10.261  69.665  1.00  0.00    -0.257 A  
HETATM   31  H   UNL     1      -9.093  12.265  66.490  1.00  0.00     0.000 HD 
HETATM   32  C   UNL     1     -11.328  10.391  70.336  1.00  0.00    -0.417 A  
HETATM   33  C   UNL     1      -5.434  13.397  67.728  1.00  0.00    -0.085 A  
HETATM   34  C   UNL     1     -12.197  11.428  70.015  1.00  0.00    -0.377 A  
HETATM   35  C   UNL     1      -5.174  13.581  69.081  1.00  0.00    -0.073 A  
HETATM   36  C   UNL     1      -5.975  12.951  70.028  1.00  0.00    -0.139 A  
HETATM   37  C   UNL     1     -11.834  12.353  69.042  1.00  0.00    -0.349 A  
HETATM   38  C   UNL     1      -7.031  12.122  69.624  1.00  0.00     0.194 A  
HETATM   39  C   UNL     1     -10.614  12.223  68.371  1.00  0.00    -0.250 A  
ENDBRANCH  18  19
ENDBRANCH  17  18
ENDBRANCH  16  17
ENDBRANCH  13  16
ENDBRANCH  10  13
ENDBRANCH   2   7
TORSDOF 6
ENDMDL
MODEL       58
REMARK 921   NORMALIZED FREE ENERGY PREDICTED BY IDOCK:   -5.62 KCAL/MOL
REMARK 922        TOTAL FREE ENERGY PREDICTED BY IDOCK:   -9.94 KCAL/MOL
REMARK 923 INTER-LIGAND FREE ENERGY PREDICTED BY IDOCK:   -8.89 KCAL/MOL
REMARK 924 INTRA-LIGAND FREE ENERGY PREDICTED BY IDOCK:   -1.05 KCAL/MOL
REMARK 927      BINDING AFFINITY PREDICTED BY RF-SCORE:    0.00 PKD
ROOT
HETATM    1  C   UNL     1     -10.767   5.615  67.520  1.00  0.00    -0.272 C  
HETATM    2  C   UNL     1      -9.527   6.443  67.930  1.00  0.00    -0.115 C  
HETATM    3  C   UNL     1      -8.423   6.187  66.884  1.00  0.00    -0.105 C  
HETATM    4  O   UNL     1      -8.549   5.481  65.893  1.00  0.00    -0.130 OA 
HETATM    5  C   UNL     1      -8.999   5.928  69.283  1.00  0.00    -0.117 C  
HETATM    6  O   UNL     1      -7.248   6.817  67.139  1.00  0.00    -0.080 OA 
ENDROOT
BRANCH   2   7
HETATM    7  C   UNL     1      -9.962   7.912  68.037  1.00  0.00    -0.213 A  
HETATM    8  C   UNL     1     -10.183   8.491  69.301  1.00  0.00    -0.211 A  
HETATM    9  C   UNL     1     -10.726   9.768  69.428  1.00  0.00    -0.250 A  
HETATM   10  C   UNL     1     -11.031  10.521  68.289  1.00  0.00    -0.314 A  
HETATM   11  C   UNL     1     -10.237   8.691  66.905  1.00  0.00    -0.367 A  
HETATM   12  C   UNL     1     -10.729   9.986  67.031  1.00  0.00    -0.248 A  
BRANCH  10  13
HETATM   13  C   UNL     1     -11.745  11.847  68.409  1.00  0.00    -0.326 C  
HETATM   14  O   UNL     1     -11.319  12.446  69.626  1.00  0.00    -0.431 OA 
HETATM   15  H   UNL     1     -11.768  13.280  69.702  1.00  0.00     0.000 HD 
BRANCH  13  16
HETATM   16  C   UNL     1     -11.469  12.714  67.166  1.00  0.00    -0.406 C  
BRANCH  16  17
HETATM   17  C   UNL     1     -12.266  14.020  67.100  1.00  0.00    -0.356 C  
BRANCH  17  18
HETATM   18  C   UNL     1     -11.498  15.269  67.553  1.00  0.00    -0.265 C  
BRANCH  18  19
HETATM   19  N   UNL     1     -10.047  15.178  67.317  1.00  0.00    -0.234 NA 
HETATM   20  C   UNL     1      -9.592  15.962  66.165  1.00  0.00    -0.333 C  
HETATM   21  C   UNL     1      -9.560  17.476  66.403  1.00  0.00    -0.283 C  
HETATM   22  C   UNL     1      -8.756  17.911  67.656  1.00  0.00    -0.242 C  
HETATM   23  C   UNL     1      -7.185  17.963  67.428  1.00  0.00    -0.184 C  
HETATM   24  C   UNL     1      -9.246  17.024  68.829  1.00  0.00    -0.252 C  
HETATM   25  C   UNL     1      -6.451  18.301  68.745  1.00  0.00    -0.228 A  
HETATM   26  C   UNL     1      -6.754  18.905  66.269  1.00  0.00    -0.241 A  
HETATM   27  C   UNL     1      -9.265  15.526  68.514  1.00  0.00    -0.197 C  
HETATM   28  O   UNL     1      -6.773  16.638  67.049  1.00  0.00    -0.171 OA 
HETATM   29  C   UNL     1      -5.977  17.272  69.586  1.00  0.00    -0.244 A  
HETATM   30  C   UNL     1      -7.527  20.000  65.837  1.00  0.00    -0.321 A  
HETATM   31  H   UNL     1      -5.834  16.669  66.913  1.00  0.00     0.000 HD 
HETATM   32  C   UNL     1      -7.154  20.765  64.726  1.00  0.00     0.172 A  
HETATM   33  C   UNL     1      -5.372  17.547  70.814  1.00  0.00    -0.224 A  
HETATM   34  C   UNL     1      -5.982  20.473  64.036  1.00  0.00    -0.337 A  
HETATM   35  C   UNL     1      -5.203  18.865  71.223  1.00  0.00    -0.304 A  
HETATM   36  C   UNL     1      -5.647  19.902  70.408  1.00  0.00    -0.304 A  
HETATM   37  C   UNL     1      -5.167  19.434  64.474  1.00  0.00    -0.218 A  
HETATM   38  C   UNL     1      -6.275  19.623  69.186  1.00  0.00    -0.322 A  
HETATM   39  C   UNL     1      -5.541  18.669  65.585  1.00  0.00    -0.214 A  
ENDBRANCH  18  19
ENDBRANCH  17  18
ENDBRANCH  16  17
ENDBRANCH  13  16
ENDBRANCH  10  13
ENDBRANCH   2   7
TORSDOF 6
ENDMDL
MODEL       59
REMARK 921   NORMALIZED FREE ENERGY PREDICTED BY IDOCK:   -5.61 KCAL/MOL
REMARK 922        TOTAL FREE ENERGY PREDICTED BY IDOCK:   -9.94 KCAL/MOL
REMARK 923 INTER-LIGAND FREE ENERGY PREDICTED BY IDOCK:   -9.22 KCAL/MOL
REMARK 924 INTRA-LIGAND FREE ENERGY PREDICTED BY IDOCK:   -0.72 KCAL/MOL
REMARK 927      BINDING AFFINITY PREDICTED BY RF-SCORE:    0.00 PKD
ROOT
HETATM    1  C   UNL     1      -8.661   7.562  68.202  1.00  0.00    -0.122 C  
HETATM    2  C   UNL     1      -8.400   8.925  68.884  1.00  0.00    -0.122 C  
HETATM    3  C   UNL     1      -8.068   9.949  67.780  1.00  0.00    -0.109 C  
HETATM    4  O   UNL     1      -8.063   9.706  66.580  1.00  0.00    -0.117 OA 
HETATM    5  C   UNL     1      -7.154   8.809  69.783  1.00  0.00    -0.054 C  
HETATM    6  O   UNL     1      -7.768  11.192  68.235  1.00  0.00    -0.103 OA 
ENDROOT
BRANCH   2   7
HETATM    7  C   UNL     1      -9.643   9.277  69.715  1.00  0.00    -0.203 A  
HETATM    8  C   UNL     1      -9.709   8.910  71.072  1.00  0.00    -0.320 A  
HETATM    9  C   UNL     1     -10.880   9.075  71.811  1.00  0.00    -0.437 A  
HETATM   10  C   UNL     1     -12.011   9.647  71.219  1.00  0.00    -0.462 A  
HETATM   11  C   UNL     1     -10.770   9.883  69.146  1.00  0.00    -0.247 A  
HETATM   12  C   UNL     1     -11.922  10.096  69.897  1.00  0.00    -0.156 A  
BRANCH  10  13
HETATM   13  C   UNL     1     -13.324   9.706  71.964  1.00  0.00    -0.457 C  
HETATM   14  O   UNL     1     -13.159   8.971  73.169  1.00  0.00    -0.753 OA 
HETATM   15  H   UNL     1     -13.985   9.007  73.638  1.00  0.00     0.000 HD 
BRANCH  13  16
HETATM   16  C   UNL     1     -13.742  11.172  72.191  1.00  0.00     0.078 C  
BRANCH  16  17
HETATM   17  C   UNL     1     -12.609  12.194  72.064  1.00  0.00     0.085 C  
BRANCH  17  18
HETATM   18  C   UNL     1     -12.965  13.613  72.529  1.00  0.00    -0.298 C  
BRANCH  18  19
HETATM   19  N   UNL     1     -13.283  14.527  71.419  1.00  0.00    -0.339 NA 
HETATM   20  C   UNL     1     -12.447  15.732  71.398  1.00  0.00    -0.455 C  
HETATM   21  C   UNL     1     -11.008  15.496  70.925  1.00  0.00    -0.333 C  
HETATM   22  C   UNL     1     -10.895  14.780  69.553  1.00  0.00    -0.268 C  
HETATM   23  C   UNL     1     -11.095  15.742  68.305  1.00  0.00    -0.342 C  
HETATM   24  C   UNL     1     -11.827  13.543  69.617  1.00  0.00    -0.398 C  
HETATM   25  C   UNL     1     -11.072  14.940  66.985  1.00  0.00    -0.338 A  
HETATM   26  C   UNL     1     -10.100  16.937  68.272  1.00  0.00    -0.302 A  
HETATM   27  C   UNL     1     -13.242  13.853  70.113  1.00  0.00     0.550 C  
HETATM   28  O   UNL     1     -12.411  16.312  68.424  1.00  0.00     0.033 OA 
HETATM   29  C   UNL     1     -12.272  14.466  66.413  1.00  0.00    -0.363 A  
HETATM   30  C   UNL     1      -8.837  16.905  68.894  1.00  0.00    -0.216 A  
HETATM   31  H   UNL     1     -12.531  16.888  67.678  1.00  0.00     0.000 HD 
HETATM   32  C   UNL     1      -8.012  18.035  68.928  1.00  0.00    -0.185 A  
HETATM   33  C   UNL     1     -12.274  13.681  65.258  1.00  0.00    -0.466 A  
HETATM   34  C   UNL     1      -8.415  19.216  68.313  1.00  0.00    -0.367 A  
HETATM   35  C   UNL     1     -11.074  13.367  64.631  1.00  0.00    -0.380 A  
HETATM   36  C   UNL     1      -9.876  13.832  65.164  1.00  0.00    -0.125 A  
HETATM   37  C   UNL     1      -9.632  19.260  67.641  1.00  0.00    -0.392 A  
HETATM   38  C   UNL     1      -9.873  14.602  66.336  1.00  0.00    -0.302 A  
HETATM   39  C   UNL     1     -10.457  18.132  67.608  1.00  0.00    -0.432 A  
ENDBRANCH  18  19
ENDBRANCH  17  18
ENDBRANCH  16  17
ENDBRANCH  13  16
ENDBRANCH  10  13
ENDBRANCH   2   7
TORSDOF 6
ENDMDL
MODEL       60
REMARK 921   NORMALIZED FREE ENERGY PREDICTED BY IDOCK:   -5.60 KCAL/MOL
REMARK 922        TOTAL FREE ENERGY PREDICTED BY IDOCK:   -9.92 KCAL/MOL
REMARK 923 INTER-LIGAND FREE ENERGY PREDICTED BY IDOCK:   -9.20 KCAL/MOL
REMARK 924 INTRA-LIGAND FREE ENERGY PREDICTED BY IDOCK:   -0.72 KCAL/MOL
REMARK 927      BINDING AFFINITY PREDICTED BY RF-SCORE:    0.00 PKD
ROOT
HETATM    1  C   UNL     1     -10.010  19.411  68.487  1.00  0.00    -0.520 C  
HETATM    2  C   UNL     1      -9.657  18.887  67.076  1.00  0.00    -0.348 C  
HETATM    3  C   UNL     1      -8.126  18.973  66.911  1.00  0.00    -0.265 C  
HETATM    4  O   UNL     1      -7.350  19.353  67.777  1.00  0.00    -0.244 OA 
HETATM    5  C   UNL     1     -10.280  19.820  66.020  1.00  0.00    -0.600 C  
HETATM    6  O   UNL     1      -7.668  18.586  65.693  1.00  0.00    -0.509 OA 
ENDROOT
BRANCH   2   7
HETATM    7  C   UNL     1     -10.223  17.465  66.951  1.00  0.00    -0.322 A  
HETATM    8  C   UNL     1     -10.155  16.786  65.720  1.00  0.00    -0.276 A  
HETATM    9  C   UNL     1     -10.795  15.562  65.531  1.00  0.00    -0.372 A  
HETATM   10  C   UNL     1     -11.494  14.963  66.584  1.00  0.00    -0.297 A  
HETATM   11  C   UNL     1     -10.895  16.836  68.007  1.00  0.00    -0.341 A  
HETATM   12  C   UNL     1     -11.489  15.589  67.835  1.00  0.00    -0.276 A  
BRANCH  10  13
HETATM   13  C   UNL     1     -12.304  13.708  66.356  1.00  0.00    -0.389 C  
HETATM   14  O   UNL     1     -13.363  14.044  65.470  1.00  0.00    -0.673 OA 
HETATM   15  H   UNL     1     -13.873  13.255  65.327  1.00  0.00     0.000 HD 
BRANCH  13  16
HETATM   16  C   UNL     1     -11.398  12.578  65.831  1.00  0.00    -0.380 C  
BRANCH  16  17
HETATM   17  C   UNL     1     -10.413  12.010  66.857  1.00  0.00    -0.251 C  
BRANCH  17  18
HETATM   18  C   UNL     1      -9.451  10.947  66.308  1.00  0.00    -0.194 C  
BRANCH  18  19
HETATM   19  N   UNL     1      -8.563  10.379  67.336  1.00  0.00    -0.125 NA 
HETATM   20  C   UNL     1      -9.235  10.128  68.615  1.00  0.00    -0.157 C  
HETATM   21  C   UNL     1     -10.171   8.914  68.610  1.00  0.00    -0.221 C  
HETATM   22  C   UNL     1      -9.511   7.598  68.121  1.00  0.00    -0.150 C  
HETATM   23  C   UNL     1      -8.644   6.862  69.229  1.00  0.00    -0.132 C  
HETATM   24  C   UNL     1      -8.783   7.931  66.794  1.00  0.00    -0.143 C  
HETATM   25  C   UNL     1      -7.938   5.621  68.638  1.00  0.00    -0.100 A  
HETATM   26  C   UNL     1      -9.441   6.513  70.517  1.00  0.00    -0.173 A  
HETATM   27  C   UNL     1      -7.878   9.163  66.870  1.00  0.00    -0.098 C  
HETATM   28  O   UNL     1      -7.609   7.779  69.628  1.00  0.00    -0.088 OA 
HETATM   29  C   UNL     1      -6.627   5.718  68.125  1.00  0.00    -0.049 A  
HETATM   30  C   UNL     1     -10.838   6.329  70.533  1.00  0.00    -0.348 A  
HETATM   31  H   UNL     1      -7.090   7.339  70.290  1.00  0.00     0.000 HD 
HETATM   32  C   UNL     1     -11.532   6.115  71.729  1.00  0.00    -0.342 A  
HETATM   33  C   UNL     1      -5.992   4.630  67.523  1.00  0.00    -0.023 A  
HETATM   34  C   UNL     1     -10.844   6.048  72.936  1.00  0.00    -0.291 A  
HETATM   35  C   UNL     1      -6.645   3.406  67.438  1.00  0.00    -0.038 A  
HETATM   36  C   UNL     1      -7.933   3.276  67.948  1.00  0.00    -0.075 A  
HETATM   37  C   UNL     1      -9.459   6.167  72.945  1.00  0.00    -0.150 A  
HETATM   38  C   UNL     1      -8.579   4.375  68.532  1.00  0.00    -0.107 A  
HETATM   39  C   UNL     1      -8.765   6.383  71.750  1.00  0.00    -0.132 A  
ENDBRANCH  18  19
ENDBRANCH  17  18
ENDBRANCH  16  17
ENDBRANCH  13  16
ENDBRANCH  10  13
ENDBRANCH   2   7
TORSDOF 6
ENDMDL
MODEL       61
REMARK 921   NORMALIZED FREE ENERGY PREDICTED BY IDOCK:   -5.57 KCAL/MOL
REMARK 922        TOTAL FREE ENERGY PREDICTED BY IDOCK:   -9.88 KCAL/MOL
REMARK 923 INTER-LIGAND FREE ENERGY PREDICTED BY IDOCK:   -7.71 KCAL/MOL
REMARK 924 INTRA-LIGAND FREE ENERGY PREDICTED BY IDOCK:   -2.17 KCAL/MOL
REMARK 927      BINDING AFFINITY PREDICTED BY RF-SCORE:    0.00 PKD
ROOT
HETATM    1  C   UNL     1     -10.405  13.968  64.891  1.00  0.00    -0.434 C  
HETATM    2  C   UNL     1     -11.375  12.787  65.123  1.00  0.00    -0.346 C  
HETATM    3  C   UNL     1     -12.423  12.809  63.992  1.00  0.00    -0.360 C  
HETATM    4  O   UNL     1     -12.434  13.607  63.064  1.00  0.00    -0.719 OA 
HETATM    5  C   UNL     1     -12.132  13.007  66.447  1.00  0.00    -0.428 C  
HETATM    6  O   UNL     1     -13.378  11.848  64.090  1.00  0.00    -0.652 OA 
ENDROOT
BRANCH   2   7
HETATM    7  C   UNL     1     -10.538  11.500  65.179  1.00  0.00    -0.350 A  
HETATM    8  C   UNL     1     -10.839  10.506  66.130  1.00  0.00    -0.028 A  
HETATM    9  C   UNL     1     -10.008   9.402  66.311  1.00  0.00    -0.353 A  
HETATM   10  C   UNL     1      -8.866   9.241  65.517  1.00  0.00    -0.224 A  
HETATM   11  C   UNL     1      -9.414  11.308  64.367  1.00  0.00    -0.206 A  
HETATM   12  C   UNL     1      -8.613  10.179  64.511  1.00  0.00    -0.198 A  
BRANCH  10  13
HETATM   13  C   UNL     1      -7.887   8.125  65.794  1.00  0.00    -0.096 C  
HETATM   14  O   UNL     1      -6.794   8.291  64.900  1.00  0.00    -0.069 OA 
HETATM   15  H   UNL     1      -6.178   7.588  65.073  1.00  0.00     0.000 HD 
BRANCH  13  16
HETATM   16  C   UNL     1      -7.474   8.136  67.278  1.00  0.00    -0.090 C  
BRANCH  16  17
HETATM   17  C   UNL     1      -7.590   9.496  67.972  1.00  0.00    -0.086 C  
BRANCH  17  18
HETATM   18  C   UNL     1      -6.255  10.210  68.220  1.00  0.00    -0.049 C  
BRANCH  18  19
HETATM   19  N   UNL     1      -6.364  11.340  69.159  1.00  0.00    -0.057 NA 
HETATM   20  C   UNL     1      -5.624  12.531  68.727  1.00  0.00    -0.061 C  
HETATM   21  C   UNL     1      -6.278  13.297  67.571  1.00  0.00    -0.114 C  
HETATM   22  C   UNL     1      -7.759  13.686  67.817  1.00  0.00    -0.166 C  
HETATM   23  C   UNL     1      -7.945  14.982  68.715  1.00  0.00    -0.162 C  
HETATM   24  C   UNL     1      -8.480  12.405  68.309  1.00  0.00    -0.170 C  
HETATM   25  C   UNL     1      -9.441  15.242  68.999  1.00  0.00    -0.232 A  
HETATM   26  C   UNL     1      -7.238  16.244  68.145  1.00  0.00    -0.147 A  
HETATM   27  C   UNL     1      -7.763  11.685  69.454  1.00  0.00     0.290 C  
HETATM   28  O   UNL     1      -7.322  14.705  69.982  1.00  0.00    -0.388 OA 
HETATM   29  C   UNL     1     -10.049  14.731  70.166  1.00  0.00     0.287 A  
HETATM   30  C   UNL     1      -6.955  16.416  66.776  1.00  0.00    -0.212 A  
HETATM   31  H   UNL     1      -7.433  15.480  70.520  1.00  0.00     0.000 HD 
HETATM   32  C   UNL     1      -6.229  17.520  66.314  1.00  0.00    -0.267 A  
HETATM   33  C   UNL     1     -11.414  14.892  70.413  1.00  0.00    -0.312 A  
HETATM   34  C   UNL     1      -5.793  18.494  67.206  1.00  0.00    -0.150 A  
HETATM   35  C   UNL     1     -12.205  15.592  69.509  1.00  0.00    -0.264 A  
HETATM   36  C   UNL     1     -11.630  16.120  68.357  1.00  0.00    -0.228 A  
HETATM   37  C   UNL     1      -6.107  18.381  68.556  1.00  0.00    -0.193 A  
HETATM   38  C   UNL     1     -10.264  15.938  68.098  1.00  0.00    -0.232 A  
HETATM   39  C   UNL     1      -6.832  17.278  69.018  1.00  0.00    -0.245 A  
ENDBRANCH  18  19
ENDBRANCH  17  18
ENDBRANCH  16  17
ENDBRANCH  13  16
ENDBRANCH  10  13
ENDBRANCH   2   7
TORSDOF 6
ENDMDL
MODEL       62
REMARK 921   NORMALIZED FREE ENERGY PREDICTED BY IDOCK:   -5.56 KCAL/MOL
REMARK 922        TOTAL FREE ENERGY PREDICTED BY IDOCK:   -9.87 KCAL/MOL
REMARK 923 INTER-LIGAND FREE ENERGY PREDICTED BY IDOCK:   -8.85 KCAL/MOL
REMARK 924 INTRA-LIGAND FREE ENERGY PREDICTED BY IDOCK:   -1.02 KCAL/MOL
REMARK 927      BINDING AFFINITY PREDICTED BY RF-SCORE:    0.00 PKD
ROOT
HETATM    1  C   UNL     1     -10.326  14.699  64.856  1.00  0.00    -0.382 C  
HETATM    2  C   UNL     1     -10.164  15.786  65.944  1.00  0.00    -0.377 C  
HETATM    3  C   UNL     1     -10.808  17.083  65.413  1.00  0.00    -0.073 C  
HETATM    4  O   UNL     1     -11.378  17.190  64.335  1.00  0.00    -1.115 OA 
HETATM    5  C   UNL     1      -8.664  16.076  66.149  1.00  0.00    -0.348 C  
HETATM    6  O   UNL     1     -10.701  18.147  66.248  1.00  0.00    -0.306 OA 
ENDROOT
BRANCH   2   7
HETATM    7  C   UNL     1     -10.799  15.252  67.236  1.00  0.00    -0.318 A  
HETATM    8  C   UNL     1     -10.221  15.556  68.483  1.00  0.00    -0.215 A  
HETATM    9  C   UNL     1     -10.678  14.963  69.658  1.00  0.00    -0.245 A  
HETATM   10  C   UNL     1     -11.756  14.071  69.624  1.00  0.00    -0.368 A  
HETATM   11  C   UNL     1     -11.900  14.387  67.222  1.00  0.00    -0.434 A  
HETATM   12  C   UNL     1     -12.392  13.835  68.401  1.00  0.00     0.016 A  
BRANCH  10  13
HETATM   13  C   UNL     1     -12.173  13.319  70.865  1.00  0.00    -0.260 C  
HETATM   14  O   UNL     1     -13.180  14.088  71.508  1.00  0.00    -0.336 OA 
HETATM   15  H   UNL     1     -13.442  13.615  72.290  1.00  0.00     0.000 HD 
BRANCH  13  16
HETATM   16  C   UNL     1     -12.629  11.894  70.496  1.00  0.00    -0.212 C  
BRANCH  16  17
HETATM   17  C   UNL     1     -11.496  10.883  70.300  1.00  0.00    -0.391 C  
BRANCH  17  18
HETATM   18  C   UNL     1     -11.207  10.513  68.839  1.00  0.00    -0.266 C  
BRANCH  18  19
HETATM   19  N   UNL     1      -9.908   9.846  68.652  1.00  0.00    -0.154 NA 
HETATM   20  C   UNL     1      -9.601   8.862  69.696  1.00  0.00    -0.169 C  
HETATM   21  C   UNL     1     -10.399   7.558  69.590  1.00  0.00    -0.225 C  
HETATM   22  C   UNL     1     -10.314   6.865  68.204  1.00  0.00    -0.223 C  
HETATM   23  C   UNL     1      -8.990   6.015  67.989  1.00  0.00    -0.112 C  
HETATM   24  C   UNL     1     -10.604   7.957  67.142  1.00  0.00    -0.383 C  
HETATM   25  C   UNL     1      -8.932   5.445  66.555  1.00  0.00    -0.120 A  
HETATM   26  C   UNL     1      -8.780   4.907  69.060  1.00  0.00    -0.105 A  
HETATM   27  C   UNL     1      -9.781   9.235  67.320  1.00  0.00    -0.167 C  
HETATM   28  O   UNL     1      -7.883   6.924  68.123  1.00  0.00    -0.110 OA 
HETATM   29  C   UNL     1      -8.267   6.151  65.529  1.00  0.00    -0.144 A  
HETATM   30  C   UNL     1      -9.838   4.322  69.782  1.00  0.00    -0.258 A  
HETATM   31  H   UNL     1      -7.091   6.415  67.995  1.00  0.00     0.000 HD 
HETATM   32  C   UNL     1      -9.600   3.400  70.807  1.00  0.00    -0.236 A  
HETATM   33  C   UNL     1      -8.258   5.694  64.210  1.00  0.00    -0.117 A  
HETATM   34  C   UNL     1      -8.299   3.015  71.115  1.00  0.00    -0.086 A  
HETATM   35  C   UNL     1      -8.895   4.502  63.885  1.00  0.00    -0.144 A  
HETATM   36  C   UNL     1      -9.546   3.776  64.878  1.00  0.00    -0.177 A  
HETATM   37  C   UNL     1      -7.237   3.530  70.380  1.00  0.00    -0.041 A  
HETATM   38  C   UNL     1      -9.574   4.248  66.198  1.00  0.00    -0.199 A  
HETATM   39  C   UNL     1      -7.475   4.453  69.356  1.00  0.00    -0.055 A  
ENDBRANCH  18  19
ENDBRANCH  17  18
ENDBRANCH  16  17
ENDBRANCH  13  16
ENDBRANCH  10  13
ENDBRANCH   2   7
TORSDOF 6
ENDMDL
MODEL       63
REMARK 921   NORMALIZED FREE ENERGY PREDICTED BY IDOCK:   -5.56 KCAL/MOL
REMARK 922        TOTAL FREE ENERGY PREDICTED BY IDOCK:   -9.86 KCAL/MOL
REMARK 923 INTER-LIGAND FREE ENERGY PREDICTED BY IDOCK:   -7.49 KCAL/MOL
REMARK 924 INTRA-LIGAND FREE ENERGY PREDICTED BY IDOCK:   -2.37 KCAL/MOL
REMARK 927      BINDING AFFINITY PREDICTED BY RF-SCORE:    0.00 PKD
ROOT
HETATM    1  C   UNL     1      -7.517  10.664  66.719  1.00  0.00    -0.120 C  
HETATM    2  C   UNL     1      -8.273   9.318  66.636  1.00  0.00    -0.115 C  
HETATM    3  C   UNL     1      -7.231   8.206  66.402  1.00  0.00    -0.079 C  
HETATM    4  O   UNL     1      -6.021   8.383  66.340  1.00  0.00    -0.046 OA 
HETATM    5  C   UNL     1      -9.202   9.335  65.407  1.00  0.00    -0.284 C  
HETATM    6  O   UNL     1      -7.756   6.962  66.262  1.00  0.00    -0.090 OA 
ENDROOT
BRANCH   2   7
HETATM    7  C   UNL     1      -9.083   9.157  67.932  1.00  0.00    -0.134 A  
HETATM    8  C   UNL     1      -8.625   9.747  69.125  1.00  0.00    -0.153 A  
HETATM    9  C   UNL     1      -9.249   9.492  70.345  1.00  0.00    -0.305 A  
HETATM   10  C   UNL     1     -10.375   8.664  70.401  1.00  0.00    -0.225 A  
HETATM   11  C   UNL     1     -10.232   8.360  67.997  1.00  0.00    -0.263 A  
HETATM   12  C   UNL     1     -10.888   8.147  69.206  1.00  0.00    -0.064 A  
BRANCH  10  13
HETATM   13  C   UNL     1     -10.977   8.270  71.729  1.00  0.00    -0.278 C  
HETATM   14  O   UNL     1      -9.963   8.420  72.714  1.00  0.00    -0.284 OA 
HETATM   15  H   UNL     1     -10.341   8.172  73.549  1.00  0.00     0.000 HD 
BRANCH  13  16
HETATM   16  C   UNL     1     -12.238   9.110  72.012  1.00  0.00    -0.443 C  
BRANCH  16  17
HETATM   17  C   UNL     1     -12.586  10.136  70.931  1.00  0.00    -0.454 C  
BRANCH  17  18
HETATM   18  C   UNL     1     -12.078  11.558  71.203  1.00  0.00    -0.043 C  
BRANCH  18  19
HETATM   19  N   UNL     1     -12.571  12.550  70.231  1.00  0.00    -0.036 NA 
HETATM   20  C   UNL     1     -11.735  13.752  70.148  1.00  0.00    -0.233 C  
HETATM   21  C   UNL     1     -10.404  13.547  69.416  1.00  0.00     0.306 C  
HETATM   22  C   UNL     1     -10.541  12.930  67.999  1.00  0.00    -0.238 C  
HETATM   23  C   UNL     1     -10.942  13.978  66.875  1.00  0.00    -0.298 C  
HETATM   24  C   UNL     1     -11.465  11.693  68.139  1.00  0.00    -0.382 C  
HETATM   25  C   UNL     1     -11.159  13.271  65.519  1.00  0.00    -0.299 A  
HETATM   26  C   UNL     1      -9.952  15.171  66.752  1.00  0.00    -0.246 A  
HETATM   27  C   UNL     1     -12.767  11.969  68.894  1.00  0.00     1.229 C  
HETATM   28  O   UNL     1     -12.209  14.540  67.261  1.00  0.00    -0.575 OA 
HETATM   29  C   UNL     1     -12.447  12.841  65.133  1.00  0.00    -0.565 A  
HETATM   30  C   UNL     1      -8.601  15.094  67.140  1.00  0.00    -0.247 A  
HETATM   31  H   UNL     1     -12.450  15.167  66.589  1.00  0.00     0.000 HD 
HETATM   32  C   UNL     1      -7.767  16.218  67.107  1.00  0.00    -0.223 A  
HETATM   33  C   UNL     1     -12.661  12.139  63.945  1.00  0.00    -0.545 A  
HETATM   34  C   UNL     1      -8.255  17.439  66.656  1.00  0.00    -0.290 A  
HETATM   35  C   UNL     1     -11.592  11.868  63.098  1.00  0.00    -0.234 A  
HETATM   36  C   UNL     1     -10.314  12.293  63.445  1.00  0.00    -0.395 A  
HETATM   37  C   UNL     1      -9.569  17.532  66.211  1.00  0.00    -0.253 A  
HETATM   38  C   UNL     1     -10.096  12.978  64.648  1.00  0.00    -0.253 A  
HETATM   39  C   UNL     1     -10.403  16.410  66.245  1.00  0.00    -0.337 A  
ENDBRANCH  18  19
ENDBRANCH  17  18
ENDBRANCH  16  17
ENDBRANCH  13  16
ENDBRANCH  10  13
ENDBRANCH   2   7
TORSDOF 6
ENDMDL
MODEL       64
REMARK 921   NORMALIZED FREE ENERGY PREDICTED BY IDOCK:   -5.55 KCAL/MOL
REMARK 922        TOTAL FREE ENERGY PREDICTED BY IDOCK:   -9.85 KCAL/MOL
REMARK 923 INTER-LIGAND FREE ENERGY PREDICTED BY IDOCK:   -8.61 KCAL/MOL
REMARK 924 INTRA-LIGAND FREE ENERGY PREDICTED BY IDOCK:   -1.24 KCAL/MOL
REMARK 927      BINDING AFFINITY PREDICTED BY RF-SCORE:    0.00 PKD
ROOT
HETATM    1  C   UNL     1     -10.151  14.214  65.191  1.00  0.00    -0.348 C  
HETATM    2  C   UNL     1     -11.161  13.049  65.309  1.00  0.00    -0.311 C  
HETATM    3  C   UNL     1     -12.410  13.423  64.485  1.00  0.00    -0.360 C  
HETATM    4  O   UNL     1     -12.533  14.450  63.830  1.00  0.00    -0.814 OA 
HETATM    5  C   UNL     1     -11.609  12.915  66.777  1.00  0.00    -0.416 C  
HETATM    6  O   UNL     1     -13.411  12.507  64.532  1.00  0.00    -0.780 OA 
ENDROOT
BRANCH   2   7
HETATM    7  C   UNL     1     -10.455  11.770  64.834  1.00  0.00    -0.334 A  
HETATM    8  C   UNL     1     -10.412  10.638  65.669  1.00  0.00    -0.235 A  
HETATM    9  C   UNL     1      -9.649   9.520  65.336  1.00  0.00    -0.342 A  
HETATM   10  C   UNL     1      -8.934   9.488  64.133  1.00  0.00    -0.240 A  
HETATM   11  C   UNL     1      -9.764  11.710  63.617  1.00  0.00    -0.310 A  
HETATM   12  C   UNL     1      -9.046  10.574  63.258  1.00  0.00    -0.267 A  
BRANCH  10  13
HETATM   13  C   UNL     1      -7.998   8.344  63.824  1.00  0.00    -0.159 C  
HETATM   14  O   UNL     1      -7.436   8.592  62.542  1.00  0.00    -0.098 OA 
HETATM   15  H   UNL     1      -6.848   7.871  62.347  1.00  0.00     0.000 HD 
BRANCH  13  16
HETATM   16  C   UNL     1      -6.946   8.200  64.940  1.00  0.00    -0.074 C  
BRANCH  16  17
HETATM   17  C   UNL     1      -6.507   9.517  65.587  1.00  0.00    -0.071 C  
BRANCH  17  18
HETATM   18  C   UNL     1      -5.621   9.361  66.830  1.00  0.00    -0.047 C  
BRANCH  18  19
HETATM   19  N   UNL     1      -6.218   9.935  68.048  1.00  0.00    -0.054 NA 
HETATM   20  C   UNL     1      -7.671   9.753  68.126  1.00  0.00    -0.082 C  
HETATM   21  C   UNL     1      -8.113   8.325  68.462  1.00  0.00    -0.123 C  
HETATM   22  C   UNL     1      -7.462   7.737  69.742  1.00  0.00    -0.089 C  
HETATM   23  C   UNL     1      -8.149   8.214  71.092  1.00  0.00    -0.103 C  
HETATM   24  C   UNL     1      -5.938   7.993  69.625  1.00  0.00    -0.029 C  
HETATM   25  C   UNL     1      -7.383   7.671  72.318  1.00  0.00    -0.082 A  
HETATM   26  C   UNL     1      -9.668   7.887  71.169  1.00  0.00    -0.182 A  
HETATM   27  C   UNL     1      -5.573   9.438  69.273  1.00  0.00    -0.035 C  
HETATM   28  O   UNL     1      -8.040   9.648  71.133  1.00  0.00    -0.320 OA 
HETATM   29  C   UNL     1      -6.371   8.442  72.931  1.00  0.00    -0.102 A  
HETATM   30  C   UNL     1     -10.266   6.832  70.452  1.00  0.00    -0.212 A  
HETATM   31  H   UNL     1      -8.451   9.934  71.940  1.00  0.00     0.000 HD 
HETATM   32  C   UNL     1     -11.651   6.632  70.470  1.00  0.00    -0.448 A  
HETATM   33  C   UNL     1      -5.617   7.949  73.997  1.00  0.00    -0.065 A  
HETATM   34  C   UNL     1     -12.470   7.461  71.230  1.00  0.00    -0.381 A  
HETATM   35  C   UNL     1      -5.870   6.676  74.496  1.00  0.00    -0.067 A  
HETATM   36  C   UNL     1      -6.871   5.898  73.922  1.00  0.00    -0.081 A  
HETATM   37  C   UNL     1     -11.901   8.475  71.994  1.00  0.00    -0.429 A  
HETATM   38  C   UNL     1      -7.613   6.386  72.837  1.00  0.00    -0.095 A  
HETATM   39  C   UNL     1     -10.518   8.676  71.976  1.00  0.00    -0.422 A  
ENDBRANCH  18  19
ENDBRANCH  17  18
ENDBRANCH  16  17
ENDBRANCH  13  16
ENDBRANCH  10  13
ENDBRANCH   2   7
TORSDOF 6
ENDMDL
MODEL       65
REMARK 921   NORMALIZED FREE ENERGY PREDICTED BY IDOCK:   -5.52 KCAL/MOL
REMARK 922        TOTAL FREE ENERGY PREDICTED BY IDOCK:   -9.81 KCAL/MOL
REMARK 923 INTER-LIGAND FREE ENERGY PREDICTED BY IDOCK:   -8.66 KCAL/MOL
REMARK 924 INTRA-LIGAND FREE ENERGY PREDICTED BY IDOCK:   -1.14 KCAL/MOL
REMARK 927      BINDING AFFINITY PREDICTED BY RF-SCORE:    0.00 PKD
ROOT
HETATM    1  C   UNL     1     -11.657   5.176  73.070  1.00  0.00    -0.301 C  
HETATM    2  C   UNL     1     -11.570   6.358  72.077  1.00  0.00    -0.368 C  
HETATM    3  C   UNL     1     -10.667   7.437  72.707  1.00  0.00    -0.314 C  
HETATM    4  O   UNL     1     -10.098   7.331  73.786  1.00  0.00    -0.326 OA 
HETATM    5  C   UNL     1     -12.970   6.980  71.908  1.00  0.00    -0.283 C  
HETATM    6  O   UNL     1     -10.533   8.565  71.963  1.00  0.00    -0.281 OA 
ENDROOT
BRANCH   2   7
HETATM    7  C   UNL     1     -11.052   5.807  70.740  1.00  0.00    -0.272 A  
HETATM    8  C   UNL     1     -10.057   4.811  70.728  1.00  0.00    -0.286 A  
HETATM    9  C   UNL     1      -9.455   4.403  69.539  1.00  0.00    -0.251 A  
HETATM   10  C   UNL     1      -9.858   4.956  68.319  1.00  0.00    -0.198 A  
HETATM   11  C   UNL     1     -11.471   6.326  69.509  1.00  0.00    -0.387 A  
HETATM   12  C   UNL     1     -10.908   5.880  68.317  1.00  0.00    -0.325 A  
BRANCH  10  13
HETATM   13  C   UNL     1      -9.123   4.625  67.042  1.00  0.00    -0.121 C  
HETATM   14  O   UNL     1     -10.094   4.215  66.089  1.00  0.00    -0.345 OA 
HETATM   15  H   UNL     1      -9.632   4.006  65.286  1.00  0.00     0.000 HD 
BRANCH  13  16
HETATM   16  C   UNL     1      -8.281   5.831  66.584  1.00  0.00    -0.106 C  
BRANCH  16  17
HETATM   17  C   UNL     1      -7.458   6.501  67.687  1.00  0.00    -0.097 C  
BRANCH  17  18
HETATM   18  C   UNL     1      -7.976   7.874  68.136  1.00  0.00    -0.125 C  
BRANCH  18  19
HETATM   19  N   UNL     1      -7.642   8.958  67.196  1.00  0.00    -0.091 NA 
HETATM   20  C   UNL     1      -8.790   9.423  66.409  1.00  0.00    -0.145 C  
HETATM   21  C   UNL     1      -9.792  10.276  67.195  1.00  0.00    -0.228 C  
HETATM   22  C   UNL     1      -9.163  11.488  67.932  1.00  0.00    -0.168 C  
HETATM   23  C   UNL     1      -8.901  12.745  66.997  1.00  0.00    -0.213 C  
HETATM   24  C   UNL     1      -7.936  10.948  68.710  1.00  0.00    -0.139 C  
HETATM   25  C   UNL     1      -8.181  13.867  67.777  1.00  0.00    -0.173 A  
HETATM   26  C   UNL     1     -10.179  13.268  66.281  1.00  0.00    -0.296 A  
HETATM   27  C   UNL     1      -6.987  10.093  67.865  1.00  0.00    -0.083 C  
HETATM   28  O   UNL     1      -8.002  12.314  65.960  1.00  0.00    -0.079 OA 
HETATM   29  C   UNL     1      -6.773  13.960  67.764  1.00  0.00    -0.186 A  
HETATM   30  C   UNL     1     -11.479  13.070  66.784  1.00  0.00    -0.392 A  
HETATM   31  H   UNL     1      -7.844  13.066  65.401  1.00  0.00     0.000 HD 
HETATM   32  C   UNL     1     -12.609  13.468  66.061  1.00  0.00    -0.408 A  
HETATM   33  C   UNL     1      -6.093  14.921  68.514  1.00  0.00    -0.093 A  
HETATM   34  C   UNL     1     -12.467  14.102  64.831  1.00  0.00    -0.419 A  
HETATM   35  C   UNL     1      -6.808  15.833  69.283  1.00  0.00    -0.184 A  
HETATM   36  C   UNL     1      -8.198  15.775  69.305  1.00  0.00    -0.247 A  
HETATM   37  C   UNL     1     -11.194  14.363  64.336  1.00  0.00    -0.235 A  
HETATM   38  C   UNL     1      -8.878  14.795  68.568  1.00  0.00    -0.176 A  
HETATM   39  C   UNL     1     -10.064  13.965  65.058  1.00  0.00    -0.319 A  
ENDBRANCH  18  19
ENDBRANCH  17  18
ENDBRANCH  16  17
ENDBRANCH  13  16
ENDBRANCH  10  13
ENDBRANCH   2   7
TORSDOF 6
ENDMDL
MODEL       66
REMARK 921   NORMALIZED FREE ENERGY PREDICTED BY IDOCK:   -5.48 KCAL/MOL
REMARK 922        TOTAL FREE ENERGY PREDICTED BY IDOCK:   -9.76 KCAL/MOL
REMARK 923 INTER-LIGAND FREE ENERGY PREDICTED BY IDOCK:   -8.64 KCAL/MOL
REMARK 924 INTRA-LIGAND FREE ENERGY PREDICTED BY IDOCK:   -1.11 KCAL/MOL
REMARK 927      BINDING AFFINITY PREDICTED BY RF-SCORE:    0.00 PKD
ROOT
HETATM    1  C   UNL     1     -10.917   7.706  69.487  1.00  0.00    -0.108 C  
HETATM    2  C   UNL     1     -11.448   7.834  70.934  1.00  0.00    -0.294 C  
HETATM    3  C   UNL     1     -10.336   7.350  71.887  1.00  0.00    -0.192 C  
HETATM    4  O   UNL     1      -9.225   6.977  71.533  1.00  0.00    -0.153 OA 
HETATM    5  C   UNL     1     -12.648   6.886  71.118  1.00  0.00    -0.366 C  
HETATM    6  O   UNL     1     -10.676   7.362  73.201  1.00  0.00    -0.323 OA 
ENDROOT
BRANCH   2   7
HETATM    7  C   UNL     1     -11.867   9.296  71.149  1.00  0.00    -0.396 A  
HETATM    8  C   UNL     1     -12.923   9.602  72.029  1.00  0.00    -0.518 A  
HETATM    9  C   UNL     1     -13.431  10.897  72.129  1.00  0.00    -0.205 A  
HETATM   10  C   UNL     1     -12.870  11.933  71.375  1.00  0.00    -0.411 A  
HETATM   11  C   UNL     1     -11.292  10.350  70.429  1.00  0.00    -0.417 A  
HETATM   12  C   UNL     1     -11.762  11.652  70.568  1.00  0.00    -0.196 A  
BRANCH  10  13
HETATM   13  C   UNL     1     -13.495  13.308  71.370  1.00  0.00    -0.074 C  
HETATM   14  O   UNL     1     -14.392  13.368  72.471  1.00  0.00    -0.692 OA 
HETATM   15  H   UNL     1     -14.786  14.232  72.468  1.00  0.00     0.000 HD 
BRANCH  13  16
HETATM   16  C   UNL     1     -12.400  14.391  71.410  1.00  0.00    -0.433 C  
BRANCH  16  17
HETATM   17  C   UNL     1     -12.378  15.331  70.202  1.00  0.00    -0.392 C  
BRANCH  17  18
HETATM   18  C   UNL     1     -11.278  16.401  70.237  1.00  0.00    -0.246 C  
BRANCH  18  19
HETATM   19  N   UNL     1     -10.335  16.305  69.109  1.00  0.00    -0.253 NA 
HETATM   20  C   UNL     1      -9.078  15.634  69.454  1.00  0.00    -0.278 C  
HETATM   21  C   UNL     1      -9.196  14.114  69.616  1.00  0.00     0.837 C  
HETATM   22  C   UNL     1      -9.837  13.388  68.404  1.00  0.00    -0.216 C  
HETATM   23  C   UNL     1      -8.834  13.133  67.201  1.00  0.00    -0.222 C  
HETATM   24  C   UNL     1     -11.135  14.163  68.058  1.00  0.00    -0.285 C  
HETATM   25  C   UNL     1      -9.570  12.504  65.997  1.00  0.00    -0.205 A  
HETATM   26  C   UNL     1      -7.575  12.312  67.601  1.00  0.00    -0.144 A  
HETATM   27  C   UNL     1     -10.944  15.676  67.927  1.00  0.00    -0.319 C  
HETATM   28  O   UNL     1      -8.358  14.421  66.772  1.00  0.00    -0.396 OA 
HETATM   29  C   UNL     1     -10.095  13.319  64.971  1.00  0.00    -0.247 A  
HETATM   30  C   UNL     1      -7.552  11.419  68.690  1.00  0.00    -0.130 A  
HETATM   31  H   UNL     1      -7.758  14.269  66.051  1.00  0.00     0.000 HD 
HETATM   32  C   UNL     1      -6.372  10.774  69.079  1.00  0.00    -0.048 A  
HETATM   33  C   UNL     1     -10.824  12.782  63.908  1.00  0.00    -0.447 A  
HETATM   34  C   UNL     1      -5.193  10.981  68.371  1.00  0.00    -0.039 A  
HETATM   35  C   UNL     1     -11.028  11.409  63.830  1.00  0.00    -0.442 A  
HETATM   36  C   UNL     1     -10.510  10.579  64.819  1.00  0.00    -0.198 A  
HETATM   37  C   UNL     1      -5.199  11.812  67.255  1.00  0.00    -0.089 A  
HETATM   38  C   UNL     1      -9.797  11.121  65.898  1.00  0.00    -0.275 A  
HETATM   39  C   UNL     1      -6.377  12.458  66.866  1.00  0.00     0.166 A  
ENDBRANCH  18  19
ENDBRANCH  17  18
ENDBRANCH  16  17
ENDBRANCH  13  16
ENDBRANCH  10  13
ENDBRANCH   2   7
TORSDOF 6
ENDMDL
MODEL       67
REMARK 921   NORMALIZED FREE ENERGY PREDICTED BY IDOCK:   -5.47 KCAL/MOL
REMARK 922        TOTAL FREE ENERGY PREDICTED BY IDOCK:   -9.74 KCAL/MOL
REMARK 923 INTER-LIGAND FREE ENERGY PREDICTED BY IDOCK:   -8.53 KCAL/MOL
REMARK 924 INTRA-LIGAND FREE ENERGY PREDICTED BY IDOCK:   -1.20 KCAL/MOL
REMARK 927      BINDING AFFINITY PREDICTED BY RF-SCORE:    0.00 PKD
ROOT
HETATM    1  C   UNL     1      -9.159  19.653  69.069  1.00  0.00    -0.215 C  
HETATM    2  C   UNL     1      -8.604  19.072  67.747  1.00  0.00    -0.328 C  
HETATM    3  C   UNL     1      -7.128  18.693  67.984  1.00  0.00    -0.237 C  
HETATM    4  O   UNL     1      -6.540  18.804  69.051  1.00  0.00    -0.265 OA 
HETATM    5  C   UNL     1      -8.622  20.169  66.665  1.00  0.00    -0.352 C  
HETATM    6  O   UNL     1      -6.489  18.207  66.889  1.00  0.00    -0.171 OA 
ENDROOT
BRANCH   2   7
HETATM    7  C   UNL     1      -9.499  17.891  67.344  1.00  0.00    -0.258 A  
HETATM    8  C   UNL     1      -9.773  16.868  68.271  1.00  0.00    -0.256 A  
HETATM    9  C   UNL     1     -10.450  15.709  67.892  1.00  0.00    -0.267 A  
HETATM   10  C   UNL     1     -10.905  15.557  66.578  1.00  0.00    -0.284 A  
HETATM   11  C   UNL     1      -9.993  17.742  66.042  1.00  0.00    -0.219 A  
HETATM   12  C   UNL     1     -10.714  16.610  65.676  1.00  0.00    -0.222 A  
BRANCH  10  13
HETATM   13  C   UNL     1     -11.516  14.254  66.120  1.00  0.00    -0.355 C  
HETATM   14  O   UNL     1     -12.656  14.013  66.934  1.00  0.00    -0.513 OA 
HETATM   15  H   UNL     1     -13.041  13.193  66.647  1.00  0.00     0.000 HD 
BRANCH  13  16
HETATM   16  C   UNL     1     -11.837  14.316  64.615  1.00  0.00    -0.459 C  
BRANCH  16  17
HETATM   17  C   UNL     1     -11.436  13.073  63.816  1.00  0.00    -0.486 C  
BRANCH  17  18
HETATM   18  C   UNL     1     -10.242  12.297  64.388  1.00  0.00    -0.314 C  
BRANCH  18  19
HETATM   19  N   UNL     1     -10.587  10.932  64.821  1.00  0.00    -0.292 NA 
HETATM   20  C   UNL     1      -9.514   9.959  64.594  1.00  0.00    -0.278 C  
HETATM   21  C   UNL     1      -8.335  10.077  65.566  1.00  0.00    -0.151 C  
HETATM   22  C   UNL     1      -8.735  10.045  67.065  1.00  0.00    -0.137 C  
HETATM   23  C   UNL     1      -8.992   8.585  67.632  1.00  0.00    -0.135 C  
HETATM   24  C   UNL     1      -9.895  11.058  67.238  1.00  0.00    -0.204 C  
HETATM   25  C   UNL     1      -9.484   8.643  69.095  1.00  0.00    -0.157 A  
HETATM   26  C   UNL     1      -7.775   7.629  67.471  1.00  0.00    -0.118 A  
HETATM   27  C   UNL     1     -11.029  10.889  66.223  1.00  0.00    -0.061 C  
HETATM   28  O   UNL     1     -10.060   8.016  66.854  1.00  0.00    -0.238 OA 
HETATM   29  C   UNL     1     -10.865   8.658  69.387  1.00  0.00    -0.108 A  
HETATM   30  C   UNL     1      -6.446   8.084  67.376  1.00  0.00    -0.057 A  
HETATM   31  H   UNL     1     -10.214   7.142  67.193  1.00  0.00     0.000 HD 
HETATM   32  C   UNL     1      -5.388   7.201  67.132  1.00  0.00    -0.017 A  
HETATM   33  C   UNL     1     -11.338   8.780  70.694  1.00  0.00    -0.289 A  
HETATM   34  C   UNL     1      -5.629   5.837  67.006  1.00  0.00    -0.016 A  
HETATM   35  C   UNL     1     -10.439   8.868  71.752  1.00  0.00    -0.431 A  
HETATM   36  C   UNL     1      -9.071   8.842  71.496  1.00  0.00    -0.322 A  
HETATM   37  C   UNL     1      -6.924   5.351  67.153  1.00  0.00    -0.065 A  
HETATM   38  C   UNL     1      -8.598   8.741  70.180  1.00  0.00    -0.149 A  
HETATM   39  C   UNL     1      -7.981   6.234  67.396  1.00  0.00    -0.109 A  
ENDBRANCH  18  19
ENDBRANCH  17  18
ENDBRANCH  16  17
ENDBRANCH  13  16
ENDBRANCH  10  13
ENDBRANCH   2   7
TORSDOF 6
ENDMDL
MODEL       68
REMARK 921   NORMALIZED FREE ENERGY PREDICTED BY IDOCK:   -5.44 KCAL/MOL
REMARK 922        TOTAL FREE ENERGY PREDICTED BY IDOCK:   -9.71 KCAL/MOL
REMARK 923 INTER-LIGAND FREE ENERGY PREDICTED BY IDOCK:   -8.08 KCAL/MOL
REMARK 924 INTRA-LIGAND FREE ENERGY PREDICTED BY IDOCK:   -1.62 KCAL/MOL
REMARK 927      BINDING AFFINITY PREDICTED BY RF-SCORE:    0.00 PKD
ROOT
HETATM    1  C   UNL     1     -12.041   6.641  71.396  1.00  0.00    -0.400 C  
HETATM    2  C   UNL     1     -11.333   8.015  71.432  1.00  0.00    -0.292 C  
HETATM    3  C   UNL     1     -10.043   7.858  72.262  1.00  0.00    -0.236 C  
HETATM    4  O   UNL     1      -9.653   6.808  72.756  1.00  0.00    -0.145 OA 
HETATM    5  C   UNL     1     -12.228   9.026  72.173  1.00  0.00    -0.427 C  
HETATM    6  O   UNL     1      -9.332   9.003  72.421  1.00  0.00    -0.288 OA 
ENDROOT
BRANCH   2   7
HETATM    7  C   UNL     1     -11.096   8.456  69.980  1.00  0.00    -0.148 A  
HETATM    8  C   UNL     1     -10.521   7.561  69.058  1.00  0.00    -0.216 A  
HETATM    9  C   UNL     1     -10.150   7.977  67.780  1.00  0.00    -0.250 A  
HETATM   10  C   UNL     1     -10.377   9.297  67.375  1.00  0.00    -0.327 A  
HETATM   11  C   UNL     1     -11.351   9.764  69.548  1.00  0.00    -0.127 A  
HETATM   12  C   UNL     1     -11.030  10.166  68.255  1.00  0.00    -0.299 A  
BRANCH  10  13
HETATM   13  C   UNL     1      -9.858   9.795  66.047  1.00  0.00    -0.274 C  
HETATM   14  O   UNL     1     -10.501  11.033  65.779  1.00  0.00    -0.249 OA 
HETATM   15  H   UNL     1     -10.175  11.346  64.943  1.00  0.00     0.000 HD 
BRANCH  13  16
HETATM   16  C   UNL     1      -8.320   9.895  66.080  1.00  0.00    -0.123 C  
BRANCH  16  17
HETATM   17  C   UNL     1      -7.754  10.760  67.210  1.00  0.00    -0.109 C  
BRANCH  17  18
HETATM   18  C   UNL     1      -7.213  12.126  66.768  1.00  0.00     0.095 C  
BRANCH  18  19
HETATM   19  N   UNL     1      -7.207  13.128  67.847  1.00  0.00    -0.116 NA 
HETATM   20  C   UNL     1      -7.226  14.511  67.360  1.00  0.00    -0.137 C  
HETATM   21  C   UNL     1      -8.581  14.968  66.807  1.00  0.00    -0.279 C  
HETATM   22  C   UNL     1      -9.773  14.759  67.778  1.00  0.00    -0.213 C  
HETATM   23  C   UNL     1      -9.903  15.885  68.890  1.00  0.00    -0.226 C  
HETATM   24  C   UNL     1      -9.678  13.299  68.292  1.00  0.00    -0.225 C  
HETATM   25  C   UNL     1     -11.045  15.552  69.876  1.00  0.00    -0.318 A  
HETATM   26  C   UNL     1     -10.042  17.321  68.312  1.00  0.00    -0.321 A  
HETATM   27  C   UNL     1      -8.293  12.910  68.815  1.00  0.00     0.140 C  
HETATM   28  O   UNL     1      -8.680  15.868  69.647  1.00  0.00    -0.185 OA 
HETATM   29  C   UNL     1     -10.779  14.846  71.070  1.00  0.00     0.208 A  
HETATM   30  C   UNL     1     -10.557  17.589  67.028  1.00  0.00    -0.245 A  
HETATM   31  H   UNL     1      -8.757  16.541  70.313  1.00  0.00     0.000 HD 
HETATM   32  C   UNL     1     -10.573  18.887  66.505  1.00  0.00    -0.462 A  
HETATM   33  C   UNL     1     -11.800  14.472  71.944  1.00  0.00    -0.162 A  
HETATM   34  C   UNL     1     -10.102  19.954  67.262  1.00  0.00    -0.569 A  
HETATM   35  C   UNL     1     -13.118  14.815  71.660  1.00  0.00    -0.418 A  
HETATM   36  C   UNL     1     -13.409  15.523  70.498  1.00  0.00    -0.079 A  
HETATM   37  C   UNL     1      -9.642  19.729  68.555  1.00  0.00    -0.434 A  
HETATM   38  C   UNL     1     -12.385  15.878  69.609  1.00  0.00    -0.024 A  
HETATM   39  C   UNL     1      -9.625  18.432  69.078  1.00  0.00    -0.206 A  
ENDBRANCH  18  19
ENDBRANCH  17  18
ENDBRANCH  16  17
ENDBRANCH  13  16
ENDBRANCH  10  13
ENDBRANCH   2   7
TORSDOF 6
ENDMDL
MODEL       69
REMARK 921   NORMALIZED FREE ENERGY PREDICTED BY IDOCK:   -5.44 KCAL/MOL
REMARK 922        TOTAL FREE ENERGY PREDICTED BY IDOCK:   -9.70 KCAL/MOL
REMARK 923 INTER-LIGAND FREE ENERGY PREDICTED BY IDOCK:   -8.05 KCAL/MOL
REMARK 924 INTRA-LIGAND FREE ENERGY PREDICTED BY IDOCK:   -1.65 KCAL/MOL
REMARK 927      BINDING AFFINITY PREDICTED BY RF-SCORE:    0.00 PKD
ROOT
HETATM    1  C   UNL     1      -7.298   8.438  69.396  1.00  0.00    -0.070 C  
HETATM    2  C   UNL     1      -6.866   7.672  68.124  1.00  0.00    -0.064 C  
HETATM    3  C   UNL     1      -7.445   6.245  68.215  1.00  0.00    -0.090 C  
HETATM    4  O   UNL     1      -8.154   5.835  69.124  1.00  0.00    -0.099 OA 
HETATM    5  C   UNL     1      -5.331   7.538  68.112  1.00  0.00    -0.026 C  
HETATM    6  O   UNL     1      -7.107   5.433  67.181  1.00  0.00    -0.067 OA 
ENDROOT
BRANCH   2   7
HETATM    7  C   UNL     1      -7.354   8.472  66.908  1.00  0.00    -0.083 A  
HETATM    8  C   UNL     1      -8.581   8.146  66.298  1.00  0.00    -0.157 A  
HETATM    9  C   UNL     1      -8.978   8.747  65.104  1.00  0.00    -0.152 A  
HETATM   10  C   UNL     1      -8.173   9.720  64.503  1.00  0.00    -0.156 A  
HETATM   11  C   UNL     1      -6.576   9.474  66.315  1.00  0.00    -0.071 A  
HETATM   12  C   UNL     1      -6.997  10.112  65.152  1.00  0.00    -0.137 A  
BRANCH  10  13
HETATM   13  C   UNL     1      -8.523  10.278  63.144  1.00  0.00    -0.180 C  
HETATM   14  O   UNL     1      -9.444   9.378  62.543  1.00  0.00    -0.575 OA 
HETATM   15  H   UNL     1      -9.665   9.728  61.687  1.00  0.00     0.000 HD 
BRANCH  13  16
HETATM   16  C   UNL     1      -9.067  11.713  63.282  1.00  0.00     0.025 C  
BRANCH  16  17
HETATM   17  C   UNL     1     -10.575  11.812  63.525  1.00  0.00    -0.499 C  
BRANCH  17  18
HETATM   18  C   UNL     1     -11.009  12.983  64.417  1.00  0.00    -0.374 C  
BRANCH  18  19
HETATM   19  N   UNL     1     -10.257  13.064  65.680  1.00  0.00    -0.286 NA 
HETATM   20  C   UNL     1     -10.671  14.180  66.536  1.00  0.00    -0.289 C  
HETATM   21  C   UNL     1     -12.019  13.974  67.236  1.00  0.00    -0.448 C  
HETATM   22  C   UNL     1     -12.127  12.654  68.043  1.00  0.00    -0.152 C  
HETATM   23  C   UNL     1     -11.448  12.718  69.477  1.00  0.00    -0.225 C  
HETATM   24  C   UNL     1     -11.638  11.519  67.107  1.00  0.00    -0.249 C  
HETATM   25  C   UNL     1     -11.506  11.340  70.173  1.00  0.00    -0.336 A  
HETATM   26  C   UNL     1     -12.013  13.847  70.385  1.00  0.00    -0.393 A  
HETATM   27  C   UNL     1     -10.293  11.801  66.432  1.00  0.00    -0.222 C  
HETATM   28  O   UNL     1     -10.058  13.022  69.269  1.00  0.00    -0.364 OA 
HETATM   29  C   UNL     1     -10.432  10.431  70.053  1.00  0.00    -0.235 A  
HETATM   30  C   UNL     1     -13.308  14.381  70.236  1.00  0.00     0.313 A  
HETATM   31  H   UNL     1      -9.651  13.061  70.126  1.00  0.00     0.000 HD 
HETATM   32  C   UNL     1     -13.744  15.464  71.007  1.00  0.00    -0.420 A  
HETATM   33  C   UNL     1     -10.487   9.153  70.614  1.00  0.00    -0.305 A  
HETATM   34  C   UNL     1     -12.908  16.020  71.969  1.00  0.00    -0.375 A  
HETATM   35  C   UNL     1     -11.610   8.757  71.331  1.00  0.00    -0.366 A  
HETATM   36  C   UNL     1     -12.678   9.637  71.478  1.00  0.00    -0.480 A  
HETATM   37  C   UNL     1     -11.645  15.477  72.180  1.00  0.00    -0.552 A  
HETATM   38  C   UNL     1     -12.632  10.912  70.896  1.00  0.00    -0.494 A  
HETATM   39  C   UNL     1     -11.208  14.395  71.409  1.00  0.00     0.605 A  
ENDBRANCH  18  19
ENDBRANCH  17  18
ENDBRANCH  16  17
ENDBRANCH  13  16
ENDBRANCH  10  13
ENDBRANCH   2   7
TORSDOF 6
ENDMDL
MODEL       70
REMARK 921   NORMALIZED FREE ENERGY PREDICTED BY IDOCK:   -5.44 KCAL/MOL
REMARK 922        TOTAL FREE ENERGY PREDICTED BY IDOCK:   -9.70 KCAL/MOL
REMARK 923 INTER-LIGAND FREE ENERGY PREDICTED BY IDOCK:   -8.81 KCAL/MOL
REMARK 924 INTRA-LIGAND FREE ENERGY PREDICTED BY IDOCK:   -0.89 KCAL/MOL
REMARK 927      BINDING AFFINITY PREDICTED BY RF-SCORE:    0.00 PKD
ROOT
HETATM    1  C   UNL     1     -10.976   2.009  73.092  1.00  0.00    -0.254 C  
HETATM    2  C   UNL     1     -10.138   3.308  73.131  1.00  0.00    -0.213 C  
HETATM    3  C   UNL     1      -8.867   3.024  73.957  1.00  0.00    -0.075 C  
HETATM    4  O   UNL     1      -8.579   1.940  74.447  1.00  0.00    -0.056 OA 
HETATM    5  C   UNL     1     -10.930   4.399  73.878  1.00  0.00    -0.315 C  
HETATM    6  O   UNL     1      -8.049   4.095  74.118  1.00  0.00    -0.090 OA 
ENDROOT
BRANCH   2   7
HETATM    7  C   UNL     1      -9.863   3.729  71.680  1.00  0.00    -0.240 A  
HETATM    8  C   UNL     1     -10.169   5.036  71.256  1.00  0.00    -0.273 A  
HETATM    9  C   UNL     1     -10.079   5.403  69.914  1.00  0.00    -0.322 A  
HETATM   10  C   UNL     1      -9.642   4.479  68.959  1.00  0.00    -0.245 A  
HETATM   11  C   UNL     1      -9.392   2.826  70.719  1.00  0.00    -0.221 A  
HETATM   12  C   UNL     1      -9.250   3.206  69.388  1.00  0.00    -0.219 A  
BRANCH  10  13
HETATM   13  C   UNL     1      -9.670   4.820  67.488  1.00  0.00    -0.171 C  
HETATM   14  O   UNL     1      -9.993   3.629  66.784  1.00  0.00    -0.379 OA 
HETATM   15  H   UNL     1     -10.010   3.843  65.858  1.00  0.00     0.000 HD 
BRANCH  13  16
HETATM   16  C   UNL     1     -10.655   5.975  67.228  1.00  0.00    -0.367 C  
BRANCH  16  17
HETATM   17  C   UNL     1     -10.010   7.283  66.762  1.00  0.00    -0.287 C  
BRANCH  17  18
HETATM   18  C   UNL     1      -9.108   7.963  67.801  1.00  0.00    -0.134 C  
BRANCH  18  19
HETATM   19  N   UNL     1      -9.735   9.131  68.442  1.00  0.00    -0.149 NA 
HETATM   20  C   UNL     1      -8.767  10.074  69.012  1.00  0.00    -0.158 C  
HETATM   21  C   UNL     1      -8.020  10.919  67.974  1.00  0.00    -0.109 C  
HETATM   22  C   UNL     1      -8.941  11.680  66.984  1.00  0.00    -0.182 C  
HETATM   23  C   UNL     1      -9.547  13.025  67.572  1.00  0.00    -0.204 C  
HETATM   24  C   UNL     1      -9.966  10.648  66.447  1.00  0.00    -0.273 C  
HETATM   25  C   UNL     1     -10.530  13.667  66.569  1.00  0.00    -0.281 A  
HETATM   26  C   UNL     1      -8.468  14.038  68.051  1.00  0.00    -0.171 A  
HETATM   27  C   UNL     1     -10.661   9.832  67.539  1.00  0.00    -0.264 C  
HETATM   28  O   UNL     1     -10.312  12.667  68.736  1.00  0.00    -0.343 OA 
HETATM   29  C   UNL     1     -11.912  13.386  66.639  1.00  0.00    -0.452 A  
HETATM   30  C   UNL     1      -7.155  14.064  67.542  1.00  0.00    -0.179 A  
HETATM   31  H   UNL     1     -10.675  13.472  69.087  1.00  0.00     0.000 HD 
HETATM   32  C   UNL     1      -6.185  14.924  68.070  1.00  0.00    -0.163 A  
HETATM   33  C   UNL     1     -12.814  13.897  65.704  1.00  0.00    -0.467 A  
HETATM   34  C   UNL     1      -6.512  15.803  69.097  1.00  0.00    -0.143 A  
HETATM   35  C   UNL     1     -12.360  14.726  64.683  1.00  0.00    -0.346 A  
HETATM   36  C   UNL     1     -11.005  15.033  64.597  1.00  0.00    -0.320 A  
HETATM   37  C   UNL     1      -7.816  15.841  69.580  1.00  0.00    -0.151 A  
HETATM   38  C   UNL     1     -10.097  14.500  65.523  1.00  0.00    -0.394 A  
HETATM   39  C   UNL     1      -8.785  14.981  69.054  1.00  0.00    -0.203 A  
ENDBRANCH  18  19
ENDBRANCH  17  18
ENDBRANCH  16  17
ENDBRANCH  13  16
ENDBRANCH  10  13
ENDBRANCH   2   7
TORSDOF 6
ENDMDL
MODEL       71
REMARK 921   NORMALIZED FREE ENERGY PREDICTED BY IDOCK:   -5.43 KCAL/MOL
REMARK 922        TOTAL FREE ENERGY PREDICTED BY IDOCK:   -9.69 KCAL/MOL
REMARK 923 INTER-LIGAND FREE ENERGY PREDICTED BY IDOCK:   -8.62 KCAL/MOL
REMARK 924 INTRA-LIGAND FREE ENERGY PREDICTED BY IDOCK:   -1.07 KCAL/MOL
REMARK 927      BINDING AFFINITY PREDICTED BY RF-SCORE:    0.00 PKD
ROOT
HETATM    1  C   UNL     1     -11.727   6.614  69.861  1.00  0.00    -0.333 C  
HETATM    2  C   UNL     1     -10.312   6.179  69.412  1.00  0.00    -0.283 C  
HETATM    3  C   UNL     1     -10.305   6.122  67.871  1.00  0.00    -0.203 C  
HETATM    4  O   UNL     1     -11.254   6.416  67.156  1.00  0.00    -0.370 OA 
HETATM    5  C   UNL     1     -10.038   4.750  69.920  1.00  0.00    -0.299 C  
HETATM    6  O   UNL     1      -9.133   5.706  67.328  1.00  0.00    -0.112 OA 
ENDROOT
BRANCH   2   7
HETATM    7  C   UNL     1      -9.306   7.174  70.008  1.00  0.00    -0.154 A  
HETATM    8  C   UNL     1      -9.426   8.548  69.729  1.00  0.00    -0.166 A  
HETATM    9  C   UNL     1      -8.445   9.456  70.124  1.00  0.00    -0.224 A  
HETATM   10  C   UNL     1      -7.328   9.018  70.843  1.00  0.00    -0.119 A  
HETATM   11  C   UNL     1      -8.201   6.755  70.760  1.00  0.00    -0.123 A  
HETATM   12  C   UNL     1      -7.248   7.668  71.200  1.00  0.00    -0.062 A  
BRANCH  10  13
HETATM   13  C   UNL     1      -6.193   9.965  71.156  1.00  0.00     0.017 C  
HETATM   14  O   UNL     1      -5.157   9.199  71.756  1.00  0.00    -0.038 OA 
HETATM   15  H   UNL     1      -4.444   9.795  71.954  1.00  0.00     0.000 HD 
BRANCH  13  16
HETATM   16  C   UNL     1      -5.751  10.706  69.880  1.00  0.00    -0.056 C  
BRANCH  16  17
HETATM   17  C   UNL     1      -5.162  12.100  70.114  1.00  0.00    -0.097 C  
BRANCH  17  18
HETATM   18  C   UNL     1      -5.653  13.180  69.141  1.00  0.00    -0.073 C  
BRANCH  18  19
HETATM   19  N   UNL     1      -6.957  13.752  69.516  1.00  0.00    -0.007 NA 
HETATM   20  C   UNL     1      -6.980  15.218  69.492  1.00  0.00    -0.191 C  
HETATM   21  C   UNL     1      -7.004  15.828  68.085  1.00  0.00    -0.125 C  
HETATM   22  C   UNL     1      -8.139  15.292  67.174  1.00  0.00    -0.248 C  
HETATM   23  C   UNL     1      -9.551  15.969  67.437  1.00  0.00    -0.225 C  
HETATM   24  C   UNL     1      -8.094  13.745  67.270  1.00  0.00    -0.154 C  
HETATM   25  C   UNL     1     -10.645  15.311  66.567  1.00  0.00    -0.304 A  
HETATM   26  C   UNL     1      -9.541  17.516  67.280  1.00  0.00    -0.273 A  
HETATM   27  C   UNL     1      -8.058  13.210  68.704  1.00  0.00    -0.014 C  
HETATM   28  O   UNL     1      -9.893  15.702  68.809  1.00  0.00    -0.198 OA 
HETATM   29  C   UNL     1     -11.416  14.242  67.072  1.00  0.00    -0.377 A  
HETATM   30  C   UNL     1      -8.612  18.202  66.473  1.00  0.00    -0.282 A  
HETATM   31  H   UNL     1     -10.738  16.107  68.967  1.00  0.00     0.000 HD 
HETATM   32  C   UNL     1      -8.572  19.601  66.436  1.00  0.00    -0.390 A  
HETATM   33  C   UNL     1     -12.363  13.584  66.284  1.00  0.00    -0.440 A  
HETATM   34  C   UNL     1      -9.480  20.348  67.179  1.00  0.00    -0.567 A  
HETATM   35  C   UNL     1     -12.581  13.995  64.974  1.00  0.00    -0.416 A  
HETATM   36  C   UNL     1     -11.846  15.055  64.453  1.00  0.00    -0.349 A  
HETATM   37  C   UNL     1     -10.446  19.698  67.939  1.00  0.00    -0.556 A  
HETATM   38  C   UNL     1     -10.879  15.700  65.238  1.00  0.00    -0.420 A  
HETATM   39  C   UNL     1     -10.486  18.300  67.978  1.00  0.00    -0.387 A  
ENDBRANCH  18  19
ENDBRANCH  17  18
ENDBRANCH  16  17
ENDBRANCH  13  16
ENDBRANCH  10  13
ENDBRANCH   2   7
TORSDOF 6
ENDMDL
MODEL       72
REMARK 921   NORMALIZED FREE ENERGY PREDICTED BY IDOCK:   -5.41 KCAL/MOL
REMARK 922        TOTAL FREE ENERGY PREDICTED BY IDOCK:   -9.66 KCAL/MOL
REMARK 923 INTER-LIGAND FREE ENERGY PREDICTED BY IDOCK:   -8.66 KCAL/MOL
REMARK 924 INTRA-LIGAND FREE ENERGY PREDICTED BY IDOCK:   -1.01 KCAL/MOL
REMARK 927      BINDING AFFINITY PREDICTED BY RF-SCORE:    0.00 PKD
ROOT
HETATM    1  C   UNL     1     -10.751  17.593  67.941  1.00  0.00    -0.341 C  
HETATM    2  C   UNL     1     -10.111  16.439  67.134  1.00  0.00    -0.271 C  
HETATM    3  C   UNL     1      -8.595  16.452  67.416  1.00  0.00    -0.178 C  
HETATM    4  O   UNL     1      -8.032  17.225  68.181  1.00  0.00    -0.208 OA 
HETATM    5  C   UNL     1     -10.295  16.712  65.629  1.00  0.00    -0.310 C  
HETATM    6  O   UNL     1      -7.887  15.515  66.735  1.00  0.00    -0.217 OA 
ENDROOT
BRANCH   2   7
HETATM    7  C   UNL     1     -10.815  15.137  67.544  1.00  0.00    -0.301 A  
HETATM    8  C   UNL     1     -10.965  14.817  68.907  1.00  0.00    -0.262 A  
HETATM    9  C   UNL     1     -11.456  13.577  69.310  1.00  0.00    -0.345 A  
HETATM   10  C   UNL     1     -11.846  12.630  68.357  1.00  0.00    -0.347 A  
HETATM   11  C   UNL     1     -11.243  14.194  66.602  1.00  0.00    -0.330 A  
HETATM   12  C   UNL     1     -11.783  12.976  67.003  1.00  0.00    -0.441 A  
BRANCH  10  13
HETATM   13  C   UNL     1     -12.250  11.236  68.777  1.00  0.00    -0.032 C  
HETATM   14  O   UNL     1     -11.581  10.325  67.915  1.00  0.00    -0.672 OA 
HETATM   15  H   UNL     1     -11.836   9.448  68.178  1.00  0.00     0.000 HD 
BRANCH  13  16
HETATM   16  C   UNL     1     -11.933  11.016  70.268  1.00  0.00    -0.452 C  
BRANCH  16  17
HETATM   17  C   UNL     1     -12.807   9.972  70.968  1.00  0.00    -0.455 C  
BRANCH  17  18
HETATM   18  C   UNL     1     -12.225   9.413  72.273  1.00  0.00    -0.176 C  
BRANCH  18  19
HETATM   19  N   UNL     1     -12.157   7.942  72.298  1.00  0.00    -0.325 NA 
HETATM   20  C   UNL     1     -12.086   7.339  70.963  1.00  0.00    -0.324 C  
HETATM   21  C   UNL     1     -10.727   7.491  70.271  1.00  0.00    -0.247 C  
HETATM   22  C   UNL     1      -9.521   6.995  71.112  1.00  0.00    -0.165 C  
HETATM   23  C   UNL     1      -9.310   5.422  71.072  1.00  0.00    -0.150 C  
HETATM   24  C   UNL     1      -9.669   7.628  72.519  1.00  0.00    -0.238 C  
HETATM   25  C   UNL     1      -8.160   4.999  72.012  1.00  0.00    -0.112 A  
HETATM   26  C   UNL     1      -9.121   4.854  69.636  1.00  0.00    -0.153 A  
HETATM   27  C   UNL     1     -11.057   7.449  73.141  1.00  0.00    -0.309 C  
HETATM   28  O   UNL     1     -10.513   4.825  71.589  1.00  0.00    -0.178 OA 
HETATM   29  C   UNL     1      -8.427   4.612  73.343  1.00  0.00    -0.102 A  
HETATM   30  C   UNL     1      -8.627   5.621  68.563  1.00  0.00    -0.107 A  
HETATM   31  H   UNL     1     -10.387   3.884  71.565  1.00  0.00     0.000 HD 
HETATM   32  C   UNL     1      -8.565   5.103  67.264  1.00  0.00    -0.104 A  
HETATM   33  C   UNL     1      -7.401   4.291  74.234  1.00  0.00    -0.072 A  
HETATM   34  C   UNL     1      -8.966   3.795  67.011  1.00  0.00    -0.157 A  
HETATM   35  C   UNL     1      -6.078   4.326  73.810  1.00  0.00    -0.028 A  
HETATM   36  C   UNL     1      -5.784   4.690  72.499  1.00  0.00    -0.012 A  
HETATM   37  C   UNL     1      -9.403   2.995  68.061  1.00  0.00    -0.255 A  
HETATM   38  C   UNL     1      -6.814   5.034  71.611  1.00  0.00    -0.048 A  
HETATM   39  C   UNL     1      -9.466   3.512  69.359  1.00  0.00    -0.234 A  
ENDBRANCH  18  19
ENDBRANCH  17  18
ENDBRANCH  16  17
ENDBRANCH  13  16
ENDBRANCH  10  13
ENDBRANCH   2   7
TORSDOF 6
ENDMDL
MODEL       73
REMARK 921   NORMALIZED FREE ENERGY PREDICTED BY IDOCK:   -5.39 KCAL/MOL
REMARK 922        TOTAL FREE ENERGY PREDICTED BY IDOCK:   -9.63 KCAL/MOL
REMARK 923 INTER-LIGAND FREE ENERGY PREDICTED BY IDOCK:   -8.72 KCAL/MOL
REMARK 924 INTRA-LIGAND FREE ENERGY PREDICTED BY IDOCK:   -0.91 KCAL/MOL
REMARK 927      BINDING AFFINITY PREDICTED BY RF-SCORE:    0.00 PKD
ROOT
HETATM    1  C   UNL     1      -8.974   3.019  69.901  1.00  0.00    -0.171 C  
HETATM    2  C   UNL     1      -8.602   4.454  70.339  1.00  0.00    -0.106 C  
HETATM    3  C   UNL     1      -7.766   5.089  69.209  1.00  0.00    -0.075 C  
HETATM    4  O   UNL     1      -7.497   4.544  68.147  1.00  0.00    -0.065 OA 
HETATM    5  C   UNL     1      -7.699   4.385  71.586  1.00  0.00    -0.078 C  
HETATM    6  O   UNL     1      -7.324   6.345  69.472  1.00  0.00    -0.082 OA 
ENDROOT
BRANCH   2   7
HETATM    7  C   UNL     1      -9.907   5.201  70.650  1.00  0.00    -0.274 A  
HETATM    8  C   UNL     1     -10.583   5.893  69.627  1.00  0.00    -0.383 A  
HETATM    9  C   UNL     1     -11.680   6.707  69.904  1.00  0.00    -0.333 A  
HETATM   10  C   UNL     1     -12.157   6.823  71.214  1.00  0.00    -0.421 A  
HETATM   11  C   UNL     1     -10.418   5.298  71.950  1.00  0.00    -0.282 A  
HETATM   12  C   UNL     1     -11.545   6.068  72.220  1.00  0.00    -0.359 A  
BRANCH  10  13
HETATM   13  C   UNL     1     -13.255   7.805  71.550  1.00  0.00    -0.316 C  
HETATM   14  O   UNL     1     -14.321   7.064  72.129  1.00  0.00    -0.613 OA 
HETATM   15  H   UNL     1     -15.013   7.681  72.339  1.00  0.00     0.000 HD 
BRANCH  13  16
HETATM   16  C   UNL     1     -12.712   8.919  72.465  1.00  0.00    -0.382 C  
BRANCH  16  17
HETATM   17  C   UNL     1     -13.049  10.344  72.017  1.00  0.00    -0.521 C  
BRANCH  17  18
HETATM   18  C   UNL     1     -11.977  11.018  71.150  1.00  0.00    -0.137 C  
BRANCH  18  19
HETATM   19  N   UNL     1     -12.525  12.017  70.217  1.00  0.00    -0.156 NA 
HETATM   20  C   UNL     1     -11.788  13.284  70.218  1.00  0.00    -0.234 C  
HETATM   21  C   UNL     1     -10.428  13.225  69.514  1.00  0.00     0.428 C  
HETATM   22  C   UNL     1     -10.480  12.674  68.064  1.00  0.00    -0.232 C  
HETATM   23  C   UNL     1     -10.937  13.745  66.984  1.00  0.00    -0.290 C  
HETATM   24  C   UNL     1     -11.304  11.362  68.116  1.00  0.00    -0.374 C  
HETATM   25  C   UNL     1     -11.064  13.095  65.589  1.00  0.00    -0.296 A  
HETATM   26  C   UNL     1     -10.044  15.017  66.949  1.00  0.00    -0.249 A  
HETATM   27  C   UNL     1     -12.642  11.494  68.847  1.00  0.00     0.690 C  
HETATM   28  O   UNL     1     -12.255  14.183  67.362  1.00  0.00    -0.537 OA 
HETATM   29  C   UNL     1     -12.303  12.585  65.145  1.00  0.00    -0.496 A  
HETATM   30  C   UNL     1      -8.701  15.028  67.371  1.00  0.00    -0.208 A  
HETATM   31  H   UNL     1     -12.529  14.824  66.716  1.00  0.00     0.000 HD 
HETATM   32  C   UNL     1      -7.960  16.214  67.418  1.00  0.00    -0.185 A  
HETATM   33  C   UNL     1     -12.431  11.931  63.918  1.00  0.00    -0.478 A  
HETATM   34  C   UNL     1      -8.534  17.415  67.016  1.00  0.00    -0.245 A  
HETATM   35  C   UNL     1     -11.324  11.791  63.088  1.00  0.00    -0.198 A  
HETATM   36  C   UNL     1     -10.093  12.298  63.492  1.00  0.00    -0.344 A  
HETATM   37  C   UNL     1      -9.840  17.427  66.539  1.00  0.00    -0.310 A  
HETATM   38  C   UNL     1      -9.961  12.934  64.734  1.00  0.00    -0.151 A  
HETATM   39  C   UNL     1     -10.582  16.242  66.493  1.00  0.00    -0.256 A  
ENDBRANCH  18  19
ENDBRANCH  17  18
ENDBRANCH  16  17
ENDBRANCH  13  16
ENDBRANCH  10  13
ENDBRANCH   2   7
TORSDOF 6
ENDMDL
MODEL       74
REMARK 921   NORMALIZED FREE ENERGY PREDICTED BY IDOCK:   -5.37 KCAL/MOL
REMARK 922        TOTAL FREE ENERGY PREDICTED BY IDOCK:   -9.61 KCAL/MOL
REMARK 923 INTER-LIGAND FREE ENERGY PREDICTED BY IDOCK:   -7.32 KCAL/MOL
REMARK 924 INTRA-LIGAND FREE ENERGY PREDICTED BY IDOCK:   -2.29 KCAL/MOL
REMARK 927      BINDING AFFINITY PREDICTED BY RF-SCORE:    0.00 PKD
ROOT
HETATM    1  C   UNL     1     -11.328  11.922  66.237  1.00  0.00    -0.394 C  
HETATM    2  C   UNL     1     -11.253  13.051  65.182  1.00  0.00    -0.321 C  
HETATM    3  C   UNL     1     -12.548  12.999  64.346  1.00  0.00    -0.285 C  
HETATM    4  O   UNL     1     -13.473  12.219  64.536  1.00  0.00    -0.686 OA 
HETATM    5  C   UNL     1     -10.082  12.768  64.222  1.00  0.00    -0.277 C  
HETATM    6  O   UNL     1     -12.607  13.910  63.341  1.00  0.00    -0.853 OA 
ENDROOT
BRANCH   2   7
HETATM    7  C   UNL     1     -11.041  14.375  65.930  1.00  0.00    -0.319 A  
HETATM    8  C   UNL     1     -10.275  15.400  65.341  1.00  0.00    -0.408 A  
HETATM    9  C   UNL     1      -9.933  16.549  66.053  1.00  0.00    -0.359 A  
HETATM   10  C   UNL     1     -10.380  16.722  67.368  1.00  0.00    -0.302 A  
HETATM   11  C   UNL     1     -11.511  14.579  67.233  1.00  0.00    -0.381 A  
HETATM   12  C   UNL     1     -11.215  15.748  67.926  1.00  0.00    -0.313 A  
BRANCH  10  13
HETATM   13  C   UNL     1      -9.905  17.894  68.194  1.00  0.00    -0.334 C  
HETATM   14  O   UNL     1     -10.595  17.842  69.436  1.00  0.00    -0.384 OA 
HETATM   15  H   UNL     1     -10.297  18.579  69.956  1.00  0.00     0.000 HD 
BRANCH  13  16
HETATM   16  C   UNL     1      -8.372  17.855  68.341  1.00  0.00    -0.307 C  
BRANCH  16  17
HETATM   17  C   UNL     1      -7.707  16.569  67.841  1.00  0.00    -0.162 C  
BRANCH  17  18
HETATM   18  C   UNL     1      -7.160  15.655  68.946  1.00  0.00    -0.138 C  
BRANCH  18  19
HETATM   19  N   UNL     1      -6.305  14.570  68.434  1.00  0.00    -0.092 NA 
HETATM   20  C   UNL     1      -5.980  13.558  69.443  1.00  0.00    -0.097 C  
HETATM   21  C   UNL     1      -7.139  12.616  69.791  1.00  0.00     0.528 C  
HETATM   22  C   UNL     1      -7.785  11.917  68.566  1.00  0.00    -0.135 C  
HETATM   23  C   UNL     1      -6.979  10.652  68.046  1.00  0.00    -0.073 C  
HETATM   24  C   UNL     1      -8.068  13.025  67.519  1.00  0.00    -0.179 C  
HETATM   25  C   UNL     1      -7.627  10.077  66.767  1.00  0.00    -0.103 A  
HETATM   26  C   UNL     1      -6.769   9.557  69.129  1.00  0.00    -0.049 A  
HETATM   27  C   UNL     1      -6.870  13.935  67.234  1.00  0.00     0.188 C  
HETATM   28  O   UNL     1      -5.668  11.115  67.677  1.00  0.00    -0.042 OA 
HETATM   29  C   UNL     1      -7.185  10.489  65.491  1.00  0.00    -0.103 A  
HETATM   30  C   UNL     1      -7.624   9.393  70.235  1.00  0.00    -0.143 A  
HETATM   31  H   UNL     1      -5.185  10.359  67.365  1.00  0.00     0.000 HD 
HETATM   32  C   UNL     1      -7.346   8.461  71.242  1.00  0.00    -0.088 A  
HETATM   33  C   UNL     1      -7.799  10.038  64.321  1.00  0.00    -0.144 A  
HETATM   34  C   UNL     1      -6.221   7.647  71.151  1.00  0.00    -0.035 A  
HETATM   35  C   UNL     1      -8.859   9.141  64.395  1.00  0.00    -0.156 A  
HETATM   36  C   UNL     1      -9.307   8.706  65.638  1.00  0.00    -0.173 A  
HETATM   37  C   UNL     1      -5.389   7.745  70.041  1.00  0.00    -0.023 A  
HETATM   38  C   UNL     1      -8.705   9.177  66.813  1.00  0.00    -0.138 A  
HETATM   39  C   UNL     1      -5.667   8.677  69.036  1.00  0.00    -0.039 A  
ENDBRANCH  18  19
ENDBRANCH  17  18
ENDBRANCH  16  17
ENDBRANCH  13  16
ENDBRANCH  10  13
ENDBRANCH   2   7
TORSDOF 6
ENDMDL
MODEL       75
REMARK 921   NORMALIZED FREE ENERGY PREDICTED BY IDOCK:   -5.37 KCAL/MOL
REMARK 922        TOTAL FREE ENERGY PREDICTED BY IDOCK:   -9.61 KCAL/MOL
REMARK 923 INTER-LIGAND FREE ENERGY PREDICTED BY IDOCK:   -8.32 KCAL/MOL
REMARK 924 INTRA-LIGAND FREE ENERGY PREDICTED BY IDOCK:   -1.29 KCAL/MOL
REMARK 927      BINDING AFFINITY PREDICTED BY RF-SCORE:    0.00 PKD
ROOT
HETATM    1  C   UNL     1      -9.526  13.793  66.768  1.00  0.00    -0.281 C  
HETATM    2  C   UNL     1     -11.049  13.996  66.942  1.00  0.00    -0.310 C  
HETATM    3  C   UNL     1     -11.716  13.750  65.573  1.00  0.00    -0.346 C  
HETATM    4  O   UNL     1     -11.123  13.413  64.557  1.00  0.00    -0.346 OA 
HETATM    5  C   UNL     1     -11.322  15.464  67.322  1.00  0.00    -0.220 C  
HETATM    6  O   UNL     1     -13.060  13.939  65.560  1.00  0.00    -0.699 OA 
ENDROOT
BRANCH   2   7
HETATM    7  C   UNL     1     -11.523  13.046  68.052  1.00  0.00    -0.348 A  
HETATM    8  C   UNL     1     -11.945  13.566  69.290  1.00  0.00    -0.378 A  
HETATM    9  C   UNL     1     -12.232  12.729  70.367  1.00  0.00    -0.371 A  
HETATM   10  C   UNL     1     -12.138  11.340  70.224  1.00  0.00    -0.459 A  
HETATM   11  C   UNL     1     -11.469  11.654  67.912  1.00  0.00    -0.381 A  
HETATM   12  C   UNL     1     -11.807  10.816  68.971  1.00  0.00    -0.325 A  
BRANCH  10  13
HETATM   13  C   UNL     1     -12.313  10.430  71.417  1.00  0.00    -0.397 C  
HETATM   14  O   UNL     1     -13.676  10.028  71.447  1.00  0.00    -0.242 OA 
HETATM   15  H   UNL     1     -13.786   9.456  72.198  1.00  0.00     0.000 HD 
BRANCH  13  16
HETATM   16  C   UNL     1     -11.326   9.249  71.334  1.00  0.00    -0.434 C  
BRANCH  16  17
HETATM   17  C   UNL     1     -11.976   7.863  71.331  1.00  0.00    -0.331 C  
BRANCH  17  18
HETATM   18  C   UNL     1     -10.989   6.688  71.321  1.00  0.00    -0.253 C  
BRANCH  18  19
HETATM   19  N   UNL     1     -11.070   5.869  70.100  1.00  0.00    -0.350 NA 
HETATM   20  C   UNL     1     -10.884   6.640  68.866  1.00  0.00    -0.277 C  
HETATM   21  C   UNL     1      -9.437   7.072  68.602  1.00  0.00    -0.135 C  
HETATM   22  C   UNL     1      -8.407   5.913  68.630  1.00  0.00    -0.109 C  
HETATM   23  C   UNL     1      -8.349   5.069  67.286  1.00  0.00    -0.106 C  
HETATM   24  C   UNL     1      -8.676   5.109  69.928  1.00  0.00    -0.119 C  
HETATM   25  C   UNL     1      -7.380   3.875  67.429  1.00  0.00    -0.068 A  
HETATM   26  C   UNL     1      -8.030   5.923  66.026  1.00  0.00    -0.108 A  
HETATM   27  C   UNL     1     -10.144   4.726  70.133  1.00  0.00    -0.240 C  
HETATM   28  O   UNL     1      -9.662   4.518  67.081  1.00  0.00    -0.175 OA 
HETATM   29  C   UNL     1      -7.856   2.609  67.832  1.00  0.00    -0.059 A  
HETATM   30  C   UNL     1      -7.326   7.142  66.080  1.00  0.00    -0.075 A  
HETATM   31  H   UNL     1      -9.628   4.013  66.276  1.00  0.00     0.000 HD 
HETATM   32  C   UNL     1      -7.146   7.931  64.938  1.00  0.00    -0.067 A  
HETATM   33  C   UNL     1      -6.993   1.531  68.036  1.00  0.00    -0.035 A  
HETATM   34  C   UNL     1      -7.637   7.506  63.708  1.00  0.00    -0.118 A  
HETATM   35  C   UNL     1      -5.628   1.684  67.820  1.00  0.00    -0.018 A  
HETATM   36  C   UNL     1      -5.131   2.917  67.408  1.00  0.00    -0.008 A  
HETATM   37  C   UNL     1      -8.285   6.279  63.613  1.00  0.00     0.021 A  
HETATM   38  C   UNL     1      -5.996   4.005  67.225  1.00  0.00    -0.024 A  
HETATM   39  C   UNL     1      -8.466   5.491  64.754  1.00  0.00    -0.125 A  
ENDBRANCH  18  19
ENDBRANCH  17  18
ENDBRANCH  16  17
ENDBRANCH  13  16
ENDBRANCH  10  13
ENDBRANCH   2   7
TORSDOF 6
ENDMDL
MODEL       76
REMARK 921   NORMALIZED FREE ENERGY PREDICTED BY IDOCK:   -5.34 KCAL/MOL
REMARK 922        TOTAL FREE ENERGY PREDICTED BY IDOCK:   -9.57 KCAL/MOL
REMARK 923 INTER-LIGAND FREE ENERGY PREDICTED BY IDOCK:   -8.70 KCAL/MOL
REMARK 924 INTRA-LIGAND FREE ENERGY PREDICTED BY IDOCK:   -0.87 KCAL/MOL
REMARK 927      BINDING AFFINITY PREDICTED BY RF-SCORE:    0.00 PKD
ROOT
HETATM    1  C   UNL     1     -10.103  15.063  64.962  1.00  0.00    -0.289 C  
HETATM    2  C   UNL     1      -9.978  15.959  66.216  1.00  0.00    -0.318 C  
HETATM    3  C   UNL     1     -10.551  17.347  65.864  1.00  0.00    -0.200 C  
HETATM    4  O   UNL     1     -11.050  17.644  64.786  1.00  0.00    -0.915 OA 
HETATM    5  C   UNL     1      -8.486  16.156  66.550  1.00  0.00    -0.346 C  
HETATM    6  O   UNL     1     -10.466  18.262  66.862  1.00  0.00    -0.374 OA 
ENDROOT
BRANCH   2   7
HETATM    7  C   UNL     1     -10.707  15.253  67.369  1.00  0.00    -0.293 A  
HETATM    8  C   UNL     1     -10.434  15.616  68.701  1.00  0.00    -0.231 A  
HETATM    9  C   UNL     1     -10.959  14.893  69.771  1.00  0.00    -0.280 A  
HETATM   10  C   UNL     1     -11.804  13.802  69.538  1.00  0.00    -0.394 A  
HETATM   11  C   UNL     1     -11.584  14.183  67.151  1.00  0.00    -0.400 A  
HETATM   12  C   UNL     1     -12.150  13.493  68.218  1.00  0.00    -0.295 A  
BRANCH  10  13
HETATM   13  C   UNL     1     -12.268  12.929  70.679  1.00  0.00    -0.302 C  
HETATM   14  O   UNL     1     -13.487  13.478  71.163  1.00  0.00    -0.159 OA 
HETATM   15  H   UNL     1     -13.779  12.929  71.882  1.00  0.00     0.000 HD 
BRANCH  13  16
HETATM   16  C   UNL     1     -12.395  11.466  70.213  1.00  0.00    -0.379 C  
BRANCH  16  17
HETATM   17  C   UNL     1     -11.177  10.587  70.506  1.00  0.00    -0.348 C  
BRANCH  17  18
HETATM   18  C   UNL     1     -10.779   9.636  69.369  1.00  0.00    -0.228 C  
BRANCH  18  19
HETATM   19  N   UNL     1      -9.550   8.874  69.649  1.00  0.00    -0.166 NA 
HETATM   20  C   UNL     1      -9.546   8.239  70.971  1.00  0.00    -0.160 C  
HETATM   21  C   UNL     1     -10.454   7.010  71.086  1.00  0.00    -0.229 C  
HETATM   22  C   UNL     1     -10.204   5.925  70.006  1.00  0.00    -0.286 C  
HETATM   23  C   UNL     1      -8.967   4.979  70.318  1.00  0.00    -0.116 C  
HETATM   24  C   UNL     1     -10.177   6.655  68.639  1.00  0.00    -0.184 C  
HETATM   25  C   UNL     1      -8.721   3.997  69.151  1.00  0.00    -0.127 A  
HETATM   26  C   UNL     1      -9.075   4.239  71.682  1.00  0.00    -0.169 A  
HETATM   27  C   UNL     1      -9.260   7.880  68.604  1.00  0.00    -0.142 C  
HETATM   28  O   UNL     1      -7.806   5.823  70.405  1.00  0.00    -0.098 OA 
HETATM   29  C   UNL     1      -7.811   4.320  68.122  1.00  0.00    -0.079 A  
HETATM   30  C   UNL     1     -10.303   3.961  72.313  1.00  0.00    -0.170 A  
HETATM   31  H   UNL     1      -7.066   5.257  70.592  1.00  0.00     0.000 HD 
HETATM   32  C   UNL     1     -10.355   3.383  73.586  1.00  0.00    -0.232 A  
HETATM   33  C   UNL     1      -7.620   3.483  67.021  1.00  0.00    -0.079 A  
HETATM   34  C   UNL     1      -9.181   3.039  74.248  1.00  0.00    -0.097 A  
HETATM   35  C   UNL     1      -8.320   2.284  66.931  1.00  0.00    -0.091 A  
HETATM   36  C   UNL     1      -9.213   1.932  67.938  1.00  0.00    -0.216 A  
HETATM   37  C   UNL     1      -7.955   3.248  73.626  1.00  0.00    -0.073 A  
HETATM   38  C   UNL     1      -9.421   2.784  69.032  1.00  0.00    -0.160 A  
HETATM   39  C   UNL     1      -7.903   3.827  72.353  1.00  0.00    -0.069 A  
ENDBRANCH  18  19
ENDBRANCH  17  18
ENDBRANCH  16  17
ENDBRANCH  13  16
ENDBRANCH  10  13
ENDBRANCH   2   7
TORSDOF 6
ENDMDL
MODEL       77
REMARK 921   NORMALIZED FREE ENERGY PREDICTED BY IDOCK:   -5.34 KCAL/MOL
REMARK 922        TOTAL FREE ENERGY PREDICTED BY IDOCK:   -9.56 KCAL/MOL
REMARK 923 INTER-LIGAND FREE ENERGY PREDICTED BY IDOCK:   -7.35 KCAL/MOL
REMARK 924 INTRA-LIGAND FREE ENERGY PREDICTED BY IDOCK:   -2.21 KCAL/MOL
REMARK 927      BINDING AFFINITY PREDICTED BY RF-SCORE:    0.00 PKD
ROOT
HETATM    1  C   UNL     1     -12.888  14.166  65.725  1.00  0.00    -0.363 C  
HETATM    2  C   UNL     1     -11.639  13.343  66.120  1.00  0.00    -0.378 C  
HETATM    3  C   UNL     1     -11.212  12.517  64.889  1.00  0.00    -0.305 C  
HETATM    4  O   UNL     1     -11.758  12.560  63.794  1.00  0.00    -0.400 OA 
HETATM    5  C   UNL     1     -12.023  12.341  67.226  1.00  0.00    -0.201 C  
HETATM    6  O   UNL     1     -10.146  11.703  65.099  1.00  0.00    -0.243 OA 
ENDROOT
BRANCH   2   7
HETATM    7  C   UNL     1     -10.570  14.326  66.618  1.00  0.00    -0.278 A  
HETATM    8  C   UNL     1      -9.667  14.905  65.707  1.00  0.00    -0.359 A  
HETATM    9  C   UNL     1      -8.591  15.676  66.144  1.00  0.00    -0.151 A  
HETATM   10  C   UNL     1      -8.408  15.921  67.509  1.00  0.00    -0.180 A  
HETATM   11  C   UNL     1     -10.396  14.609  67.979  1.00  0.00    -0.235 A  
HETATM   12  C   UNL     1      -9.354  15.423  68.412  1.00  0.00    -0.193 A  
BRANCH  10  13
HETATM   13  C   UNL     1      -7.174  16.637  68.005  1.00  0.00    -0.155 C  
HETATM   14  O   UNL     1      -7.391  16.955  69.373  1.00  0.00    -0.198 OA 
HETATM   15  H   UNL     1      -6.615  17.407  69.685  1.00  0.00     0.000 HD 
BRANCH  13  16
HETATM   16  C   UNL     1      -5.923  15.770  67.766  1.00  0.00    -0.170 C  
BRANCH  16  17
HETATM   17  C   UNL     1      -5.875  14.470  68.573  1.00  0.00    -0.095 C  
BRANCH  17  18
HETATM   18  C   UNL     1      -5.678  13.198  67.737  1.00  0.00    -0.129 C  
BRANCH  18  19
HETATM   19  N   UNL     1      -6.945  12.573  67.320  1.00  0.00    -0.141 NA 
HETATM   20  C   UNL     1      -6.764  11.303  66.611  1.00  0.00    -0.132 C  
HETATM   21  C   UNL     1      -6.364  10.127  67.509  1.00  0.00    -0.059 C  
HETATM   22  C   UNL     1      -7.305   9.897  68.721  1.00  0.00    -0.078 C  
HETATM   23  C   UNL     1      -8.635   9.106  68.363  1.00  0.00    -0.129 C  
HETATM   24  C   UNL     1      -7.494  11.275  69.406  1.00  0.00     0.014 C  
HETATM   25  C   UNL     1      -9.563   9.009  69.593  1.00  0.00    -0.175 A  
HETATM   26  C   UNL     1      -8.379   7.713  67.722  1.00  0.00    -0.118 A  
HETATM   27  C   UNL     1      -7.879  12.403  68.444  1.00  0.00    -0.142 C  
HETATM   28  O   UNL     1      -9.332   9.886  67.375  1.00  0.00    -0.136 OA 
HETATM   29  C   UNL     1     -10.570   9.974  69.810  1.00  0.00    -0.301 A  
HETATM   30  C   UNL     1      -7.198   6.973  67.931  1.00  0.00    -0.091 A  
HETATM   31  H   UNL     1     -10.127   9.413  67.160  1.00  0.00     0.000 HD 
HETATM   32  C   UNL     1      -6.963   5.769  67.258  1.00  0.00    -0.065 A  
HETATM   33  C   UNL     1     -11.378   9.949  70.948  1.00  0.00    -0.446 A  
HETATM   34  C   UNL     1      -7.914   5.258  66.381  1.00  0.00    -0.104 A  
HETATM   35  C   UNL     1     -11.214   8.942  71.893  1.00  0.00    -0.447 A  
HETATM   36  C   UNL     1     -10.239   7.969  71.700  1.00  0.00    -0.256 A  
HETATM   37  C   UNL     1      -9.114   5.937  66.199  1.00  0.00    -0.160 A  
HETATM   38  C   UNL     1      -9.414   8.007  70.567  1.00  0.00    -0.166 A  
HETATM   39  C   UNL     1      -9.350   7.140  66.870  1.00  0.00    -0.189 A  
ENDBRANCH  18  19
ENDBRANCH  17  18
ENDBRANCH  16  17
ENDBRANCH  13  16
ENDBRANCH  10  13
ENDBRANCH   2   7
TORSDOF 6
ENDMDL
MODEL       78
REMARK 921   NORMALIZED FREE ENERGY PREDICTED BY IDOCK:   -5.33 KCAL/MOL
REMARK 922        TOTAL FREE ENERGY PREDICTED BY IDOCK:   -9.56 KCAL/MOL
REMARK 923 INTER-LIGAND FREE ENERGY PREDICTED BY IDOCK:   -8.60 KCAL/MOL
REMARK 924 INTRA-LIGAND FREE ENERGY PREDICTED BY IDOCK:   -0.96 KCAL/MOL
REMARK 927      BINDING AFFINITY PREDICTED BY RF-SCORE:    0.00 PKD
ROOT
HETATM    1  C   UNL     1      -7.283   5.125  66.889  1.00  0.00    -0.077 C  
HETATM    2  C   UNL     1      -8.157   5.016  65.618  1.00  0.00    -0.113 C  
HETATM    3  C   UNL     1      -9.464   4.295  66.006  1.00  0.00    -0.177 C  
HETATM    4  O   UNL     1      -9.748   3.924  67.137  1.00  0.00    -0.209 OA 
HETATM    5  C   UNL     1      -7.438   4.127  64.584  1.00  0.00    -0.072 C  
HETATM    6  O   UNL     1     -10.319   4.084  64.973  1.00  0.00    -0.212 OA 
ENDROOT
BRANCH   2   7
HETATM    7  C   UNL     1      -8.362   6.436  65.069  1.00  0.00    -0.087 A  
HETATM    8  C   UNL     1      -7.902   6.766  63.781  1.00  0.00    -0.107 A  
HETATM    9  C   UNL     1      -7.932   8.080  63.315  1.00  0.00    -0.143 A  
HETATM   10  C   UNL     1      -8.458   9.099  64.116  1.00  0.00    -0.198 A  
HETATM   11  C   UNL     1      -8.920   7.460  65.845  1.00  0.00    -0.114 A  
HETATM   12  C   UNL     1      -9.000   8.762  65.361  1.00  0.00    -0.211 A  
BRANCH  10  13
HETATM   13  C   UNL     1      -8.372  10.543  63.680  1.00  0.00    -0.108 C  
HETATM   14  O   UNL     1      -7.070  10.746  63.147  1.00  0.00    -0.350 OA 
HETATM   15  H   UNL     1      -7.016  11.655  62.873  1.00  0.00     0.000 HD 
BRANCH  13  16
HETATM   16  C   UNL     1      -9.502  10.867  62.684  1.00  0.00    -0.324 C  
BRANCH  16  17
HETATM   17  C   UNL     1     -10.875  11.104  63.320  1.00  0.00    -0.115 C  
BRANCH  17  18
HETATM   18  C   UNL     1     -11.099  12.523  63.860  1.00  0.00    -0.423 C  
BRANCH  18  19
HETATM   19  N   UNL     1     -10.291  12.826  65.054  1.00  0.00    -0.300 NA 
HETATM   20  C   UNL     1      -9.789  14.204  65.085  1.00  0.00    -0.105 C  
HETATM   21  C   UNL     1     -10.852  15.258  65.413  1.00  0.00    -0.399 C  
HETATM   22  C   UNL     1     -11.646  14.982  66.717  1.00  0.00    -0.209 C  
HETATM   23  C   UNL     1     -10.881  15.413  68.040  1.00  0.00    -0.292 C  
HETATM   24  C   UNL     1     -12.115  13.506  66.649  1.00  0.00    -0.447 C  
HETATM   25  C   UNL     1     -11.689  15.013  69.295  1.00  0.00    -0.349 A  
HETATM   26  C   UNL     1     -10.479  16.915  68.068  1.00  0.00    -0.347 A  
HETATM   27  C   UNL     1     -11.003  12.513  66.302  1.00  0.00    -0.277 C  
HETATM   28  O   UNL     1      -9.654  14.663  68.077  1.00  0.00    -0.204 OA 
HETATM   29  C   UNL     1     -11.452  13.778  69.937  1.00  0.00    -0.230 A  
HETATM   30  C   UNL     1     -11.159  17.908  67.337  1.00  0.00     0.104 A  
HETATM   31  H   UNL     1      -9.196  14.920  68.869  1.00  0.00     0.000 HD 
HETATM   32  C   UNL     1     -10.705  19.232  67.309  1.00  0.00    -0.594 A  
HETATM   33  C   UNL     1     -12.213  13.361  71.030  1.00  0.00    -0.312 A  
HETATM   34  C   UNL     1      -9.579  19.603  68.036  1.00  0.00    -0.469 A  
HETATM   35  C   UNL     1     -13.221  14.181  71.527  1.00  0.00    -0.423 A  
HETATM   36  C   UNL     1     -13.468  15.410  70.924  1.00  0.00    -0.427 A  
HETATM   37  C   UNL     1      -8.921  18.656  68.814  1.00  0.00    -0.291 A  
HETATM   38  C   UNL     1     -12.718  15.818  69.812  1.00  0.00     0.200 A  
HETATM   39  C   UNL     1      -9.373  17.333  68.841  1.00  0.00    -0.191 A  
ENDBRANCH  18  19
ENDBRANCH  17  18
ENDBRANCH  16  17
ENDBRANCH  13  16
ENDBRANCH  10  13
ENDBRANCH   2   7
TORSDOF 6
ENDMDL
MODEL       79
REMARK 921   NORMALIZED FREE ENERGY PREDICTED BY IDOCK:   -5.31 KCAL/MOL
REMARK 922        TOTAL FREE ENERGY PREDICTED BY IDOCK:   -9.53 KCAL/MOL
REMARK 923 INTER-LIGAND FREE ENERGY PREDICTED BY IDOCK:   -7.94 KCAL/MOL
REMARK 924 INTRA-LIGAND FREE ENERGY PREDICTED BY IDOCK:   -1.59 KCAL/MOL
REMARK 927      BINDING AFFINITY PREDICTED BY RF-SCORE:    0.00 PKD
ROOT
HETATM    1  C   UNL     1     -14.357  15.785  71.404  1.00  0.00     0.127 C  
HETATM    2  C   UNL     1     -12.969  15.241  71.816  1.00  0.00    -0.475 C  
HETATM    3  C   UNL     1     -13.187  13.905  72.554  1.00  0.00    -0.502 C  
HETATM    4  O   UNL     1     -14.276  13.373  72.730  1.00  0.00    -0.693 OA 
HETATM    5  C   UNL     1     -12.322  16.214  72.821  1.00  0.00    -0.585 C  
HETATM    6  O   UNL     1     -12.051  13.326  73.019  1.00  0.00     1.140 OA 
ENDROOT
BRANCH   2   7
HETATM    7  C   UNL     1     -12.117  15.123  70.543  1.00  0.00    -0.390 A  
HETATM    8  C   UNL     1     -10.804  15.631  70.525  1.00  0.00    -0.347 A  
HETATM    9  C   UNL     1     -10.063  15.681  69.346  1.00  0.00    -0.269 A  
HETATM   10  C   UNL     1     -10.603  15.189  68.153  1.00  0.00    -0.246 A  
HETATM   11  C   UNL     1     -12.631  14.602  69.349  1.00  0.00     0.022 A  
HETATM   12  C   UNL     1     -11.872  14.602  68.183  1.00  0.00    -0.332 A  
BRANCH  10  13
HETATM   13  C   UNL     1      -9.866  15.361  66.845  1.00  0.00    -0.244 C  
HETATM   14  O   UNL     1      -8.668  14.602  66.932  1.00  0.00    -0.225 OA 
HETATM   15  H   UNL     1      -8.204  14.711  66.110  1.00  0.00     0.000 HD 
BRANCH  13  16
HETATM   16  C   UNL     1     -10.770  14.951  65.667  1.00  0.00    -0.352 C  
BRANCH  16  17
HETATM   17  C   UNL     1     -10.263  13.761  64.848  1.00  0.00    -0.374 C  
BRANCH  17  18
HETATM   18  C   UNL     1     -10.640  12.383  65.409  1.00  0.00    -0.284 C  
BRANCH  18  19
HETATM   19  N   UNL     1      -9.665  11.864  66.382  1.00  0.00    -0.216 NA 
HETATM   20  C   UNL     1     -10.176  11.824  67.756  1.00  0.00    -0.191 C  
HETATM   21  C   UNL     1     -11.189  10.705  68.022  1.00  0.00    -0.373 C  
HETATM   22  C   UNL     1     -10.697   9.287  67.627  1.00  0.00    -0.276 C  
HETATM   23  C   UNL     1      -9.744   8.613  68.702  1.00  0.00    -0.163 C  
HETATM   24  C   UNL     1     -10.132   9.398  66.187  1.00  0.00    -0.324 C  
HETATM   25  C   UNL     1      -9.216   7.254  68.191  1.00  0.00    -0.132 A  
HETATM   26  C   UNL     1     -10.385   8.488  70.114  1.00  0.00    -0.214 A  
HETATM   27  C   UNL     1      -9.138  10.546  65.993  1.00  0.00    -0.168 C  
HETATM   28  O   UNL     1      -8.602   9.476  68.849  1.00  0.00    -0.122 OA 
HETATM   29  C   UNL     1      -7.981   7.175  67.511  1.00  0.00    -0.113 A  
HETATM   30  C   UNL     1     -11.776   8.431  70.326  1.00  0.00     0.108 A  
HETATM   31  H   UNL     1      -8.032   9.072  69.493  1.00  0.00     0.000 HD 
HETATM   32  C   UNL     1     -12.317   8.419  71.617  1.00  0.00    -0.359 A  
HETATM   33  C   UNL     1      -7.513   5.972  66.978  1.00  0.00    -0.084 A  
HETATM   34  C   UNL     1     -11.480   8.434  72.728  1.00  0.00    -0.235 A  
HETATM   35  C   UNL     1      -8.258   4.809  67.132  1.00  0.00    -0.106 A  
HETATM   36  C   UNL     1      -9.472   4.853  67.810  1.00  0.00    -0.168 A  
HETATM   37  C   UNL     1     -10.101   8.431  72.549  1.00  0.00    -0.362 A  
HETATM   38  C   UNL     1      -9.952   6.065  68.325  1.00  0.00    -0.173 A  
HETATM   39  C   UNL     1      -9.560   8.444  71.260  1.00  0.00    -0.239 A  
ENDBRANCH  18  19
ENDBRANCH  17  18
ENDBRANCH  16  17
ENDBRANCH  13  16
ENDBRANCH  10  13
ENDBRANCH   2   7
TORSDOF 6
ENDMDL
MODEL       80
REMARK 921   NORMALIZED FREE ENERGY PREDICTED BY IDOCK:   -5.27 KCAL/MOL
REMARK 922        TOTAL FREE ENERGY PREDICTED BY IDOCK:   -9.47 KCAL/MOL
REMARK 923 INTER-LIGAND FREE ENERGY PREDICTED BY IDOCK:   -7.27 KCAL/MOL
REMARK 924 INTRA-LIGAND FREE ENERGY PREDICTED BY IDOCK:   -2.20 KCAL/MOL
REMARK 927      BINDING AFFINITY PREDICTED BY RF-SCORE:    0.00 PKD
ROOT
HETATM    1  C   UNL     1     -13.015  10.120  72.551  1.00  0.00     0.084 C  
HETATM    2  C   UNL     1     -12.764   9.599  71.117  1.00  0.00    -0.407 C  
HETATM    3  C   UNL     1     -12.468  10.818  70.219  1.00  0.00    -0.317 C  
HETATM    4  O   UNL     1     -12.409  11.977  70.610  1.00  0.00    -0.356 OA 
HETATM    5  C   UNL     1     -14.052   8.945  70.583  1.00  0.00     0.558 C  
HETATM    6  O   UNL     1     -12.270  10.519  68.910  1.00  0.00    -0.282 OA 
ENDROOT
BRANCH   2   7
HETATM    7  C   UNL     1     -11.619   8.578  71.185  1.00  0.00    -0.325 A  
HETATM    8  C   UNL     1     -10.368   8.957  71.708  1.00  0.00    -0.426 A  
HETATM    9  C   UNL     1      -9.266   8.105  71.641  1.00  0.00    -0.220 A  
HETATM   10  C   UNL     1      -9.395   6.830  71.079  1.00  0.00    -0.160 A  
HETATM   11  C   UNL     1     -11.742   7.286  70.659  1.00  0.00    -0.310 A  
HETATM   12  C   UNL     1     -10.657   6.415  70.640  1.00  0.00    -0.288 A  
BRANCH  10  13
HETATM   13  C   UNL     1      -8.183   5.952  70.876  1.00  0.00    -0.125 C  
HETATM   14  O   UNL     1      -8.644   4.702  70.382  1.00  0.00    -0.083 OA 
HETATM   15  H   UNL     1      -7.882   4.149  70.255  1.00  0.00     0.000 HD 
BRANCH  13  16
HETATM   16  C   UNL     1      -7.172   6.647  69.944  1.00  0.00    -0.080 C  
BRANCH  16  17
HETATM   17  C   UNL     1      -7.680   6.915  68.525  1.00  0.00    -0.113 C  
BRANCH  17  18
HETATM   18  C   UNL     1      -7.465   8.349  68.023  1.00  0.00    -0.097 C  
BRANCH  18  19
HETATM   19  N   UNL     1      -8.480   9.297  68.512  1.00  0.00    -0.122 NA 
HETATM   20  C   UNL     1      -7.910  10.536  69.052  1.00  0.00    -0.129 C  
HETATM   21  C   UNL     1      -7.376  11.502  67.989  1.00  0.00    -0.091 C  
HETATM   22  C   UNL     1      -8.397  11.860  66.877  1.00  0.00    -0.169 C  
HETATM   23  C   UNL     1      -9.442  12.979  67.297  1.00  0.00    -0.224 C  
HETATM   24  C   UNL     1      -8.996  10.521  66.374  1.00  0.00    -0.174 C  
HETATM   25  C   UNL     1     -10.484  13.204  66.180  1.00  0.00    -0.287 A  
HETATM   26  C   UNL     1      -8.781  14.313  67.747  1.00  0.00    -0.179 A  
HETATM   27  C   UNL     1      -9.495   9.602  67.492  1.00  0.00    -0.134 C  
HETATM   28  O   UNL     1     -10.157  12.475  68.440  1.00  0.00    -0.220 OA 
HETATM   29  C   UNL     1     -11.709  12.502  66.189  1.00  0.00    -0.466 A  
HETATM   30  C   UNL     1      -7.502  14.721  67.322  1.00  0.00    -0.173 A  
HETATM   31  H   UNL     1     -10.783  13.145  68.692  1.00  0.00     0.000 HD 
HETATM   32  C   UNL     1      -6.901  15.880  67.826  1.00  0.00    -0.174 A  
HETATM   33  C   UNL     1     -12.639  12.634  65.157  1.00  0.00    -0.459 A  
HETATM   34  C   UNL     1      -7.575  16.676  68.746  1.00  0.00    -0.227 A  
HETATM   35  C   UNL     1     -12.378  13.492  64.094  1.00  0.00    -0.387 A  
HETATM   36  C   UNL     1     -11.185  14.208  64.064  1.00  0.00     0.112 A  
HETATM   37  C   UNL     1      -8.863  16.330  69.140  1.00  0.00    -0.217 A  
HETATM   38  C   UNL     1     -10.242  14.058  65.091  1.00  0.00    -0.396 A  
HETATM   39  C   UNL     1      -9.464  15.172  68.637  1.00  0.00    -0.206 A  
ENDBRANCH  18  19
ENDBRANCH  17  18
ENDBRANCH  16  17
ENDBRANCH  13  16
ENDBRANCH  10  13
ENDBRANCH   2   7
TORSDOF 6
ENDMDL
MODEL       81
REMARK 921   NORMALIZED FREE ENERGY PREDICTED BY IDOCK:   -5.25 KCAL/MOL
REMARK 922        TOTAL FREE ENERGY PREDICTED BY IDOCK:   -9.45 KCAL/MOL
REMARK 923 INTER-LIGAND FREE ENERGY PREDICTED BY IDOCK:   -7.33 KCAL/MOL
REMARK 924 INTRA-LIGAND FREE ENERGY PREDICTED BY IDOCK:   -2.12 KCAL/MOL
REMARK 927      BINDING AFFINITY PREDICTED BY RF-SCORE:    0.00 PKD
ROOT
HETATM    1  C   UNL     1      -8.212   7.682  64.891  1.00  0.00    -0.098 C  
HETATM    2  C   UNL     1      -7.232   8.878  64.898  1.00  0.00    -0.091 C  
HETATM    3  C   UNL     1      -6.579   8.960  63.503  1.00  0.00    -0.089 C  
HETATM    4  O   UNL     1      -6.842   8.220  62.564  1.00  0.00    -0.090 OA 
HETATM    5  C   UNL     1      -6.104   8.602  65.911  1.00  0.00    -0.048 C  
HETATM    6  O   UNL     1      -5.653   9.943  63.372  1.00  0.00    -0.088 OA 
ENDROOT
BRANCH   2   7
HETATM    7  C   UNL     1      -8.028  10.131  65.293  1.00  0.00    -0.145 A  
HETATM    8  C   UNL     1      -7.595  10.929  66.370  1.00  0.00    -0.146 A  
HETATM    9  C   UNL     1      -8.374  11.979  66.852  1.00  0.00    -0.159 A  
HETATM   10  C   UNL     1      -9.597  12.285  66.246  1.00  0.00    -0.248 A  
HETATM   11  C   UNL     1      -9.236  10.472  64.673  1.00  0.00    -0.274 A  
HETATM   12  C   UNL     1      -9.989  11.553  65.120  1.00  0.00    -0.304 A  
BRANCH  10  13
HETATM   13  C   UNL     1     -10.513  13.329  66.841  1.00  0.00    -0.261 C  
HETATM   14  O   UNL     1     -10.797  14.274  65.819  1.00  0.00    -0.291 OA 
HETATM   15  H   UNL     1     -11.372  14.931  66.194  1.00  0.00     0.000 HD 
BRANCH  13  16
HETATM   16  C   UNL     1     -11.770  12.661  67.429  1.00  0.00    -0.432 C  
BRANCH  16  17
HETATM   17  C   UNL     1     -11.746  12.459  68.946  1.00  0.00    -0.372 C  
BRANCH  17  18
HETATM   18  C   UNL     1     -11.910  11.004  69.407  1.00  0.00    -0.335 C  
BRANCH  18  19
HETATM   19  N   UNL     1     -10.663  10.409  69.914  1.00  0.00    -0.281 NA 
HETATM   20  C   UNL     1     -10.827   9.708  71.192  1.00  0.00    -0.334 C  
HETATM   21  C   UNL     1     -11.546   8.358  71.085  1.00  0.00    -0.317 C  
HETATM   22  C   UNL     1     -10.925   7.382  70.052  1.00  0.00    -0.264 C  
HETATM   23  C   UNL     1      -9.648   6.604  70.587  1.00  0.00    -0.169 C  
HETATM   24  C   UNL     1     -10.735   8.184  68.739  1.00  0.00    -0.074 C  
HETATM   25  C   UNL     1      -9.029   5.734  69.471  1.00  0.00    -0.130 A  
HETATM   26  C   UNL     1      -9.914   5.781  71.879  1.00  0.00    -0.214 A  
HETATM   27  C   UNL     1     -10.024   9.527  68.925  1.00  0.00    -0.179 C  
HETATM   28  O   UNL     1      -8.667   7.598  70.933  1.00  0.00    -0.135 OA 
HETATM   29  C   UNL     1      -7.990   6.240  68.660  1.00  0.00    -0.105 A  
HETATM   30  C   UNL     1     -11.188   5.297  72.236  1.00  0.00    -0.181 A  
HETATM   31  H   UNL     1      -7.903   7.133  71.253  1.00  0.00     0.000 HD 
HETATM   32  C   UNL     1     -11.406   4.647  73.456  1.00  0.00    -0.353 A  
HETATM   33  C   UNL     1      -7.460   5.501  67.600  1.00  0.00    -0.081 A  
HETATM   34  C   UNL     1     -10.350   4.436  74.336  1.00  0.00    -0.301 A  
HETATM   35  C   UNL     1      -7.940   4.223  67.337  1.00  0.00    -0.096 A  
HETATM   36  C   UNL     1      -8.954   3.692  68.129  1.00  0.00    -0.171 A  
HETATM   37  C   UNL     1      -9.070   4.851  73.986  1.00  0.00    -0.112 A  
HETATM   38  C   UNL     1      -9.501   4.443  69.178  1.00  0.00    -0.240 A  
HETATM   39  C   UNL     1      -8.851   5.502  72.767  1.00  0.00    -0.122 A  
ENDBRANCH  18  19
ENDBRANCH  17  18
ENDBRANCH  16  17
ENDBRANCH  13  16
ENDBRANCH  10  13
ENDBRANCH   2   7
TORSDOF 6
ENDMDL
MODEL       82
REMARK 921   NORMALIZED FREE ENERGY PREDICTED BY IDOCK:   -5.22 KCAL/MOL
REMARK 922        TOTAL FREE ENERGY PREDICTED BY IDOCK:   -9.41 KCAL/MOL
REMARK 923 INTER-LIGAND FREE ENERGY PREDICTED BY IDOCK:   -7.26 KCAL/MOL
REMARK 924 INTRA-LIGAND FREE ENERGY PREDICTED BY IDOCK:   -2.15 KCAL/MOL
REMARK 927      BINDING AFFINITY PREDICTED BY RF-SCORE:    0.00 PKD
ROOT
HETATM    1  C   UNL     1      -7.466   4.392  66.688  1.00  0.00    -0.082 C  
HETATM    2  C   UNL     1      -8.642   5.328  67.050  1.00  0.00    -0.105 C  
HETATM    3  C   UNL     1      -9.887   4.838  66.284  1.00  0.00    -0.220 C  
HETATM    4  O   UNL     1      -9.919   3.853  65.558  1.00  0.00    -0.178 OA 
HETATM    5  C   UNL     1      -8.329   6.750  66.546  1.00  0.00    -0.121 C  
HETATM    6  O   UNL     1     -10.997   5.597  66.468  1.00  0.00    -0.252 OA 
ENDROOT
BRANCH   2   7
HETATM    7  C   UNL     1      -8.798   5.312  68.578  1.00  0.00    -0.102 A  
HETATM    8  C   UNL     1      -9.861   4.604  69.169  1.00  0.00    -0.242 A  
HETATM    9  C   UNL     1     -10.123   4.696  70.535  1.00  0.00    -0.263 A  
HETATM   10  C   UNL     1      -9.302   5.474  71.358  1.00  0.00    -0.174 A  
HETATM   11  C   UNL     1      -7.963   6.057  69.420  1.00  0.00    -0.103 A  
HETATM   12  C   UNL     1      -8.191   6.108  70.791  1.00  0.00    -0.125 A  
BRANCH  10  13
HETATM   13  C   UNL     1      -9.653   5.692  72.811  1.00  0.00    -0.152 C  
HETATM   14  O   UNL     1      -8.605   6.460  73.389  1.00  0.00    -0.124 OA 
HETATM   15  H   UNL     1      -8.826   6.596  74.303  1.00  0.00     0.000 HD 
BRANCH  13  16
HETATM   16  C   UNL     1     -11.039   6.355  72.930  1.00  0.00    -0.259 C  
BRANCH  16  17
HETATM   17  C   UNL     1     -11.051   7.871  72.709  1.00  0.00    -0.462 C  
BRANCH  17  18
HETATM   18  C   UNL     1     -11.593   8.319  71.345  1.00  0.00    -0.280 C  
BRANCH  18  19
HETATM   19  N   UNL     1     -11.249   9.711  71.010  1.00  0.00    -0.345 NA 
HETATM   20  C   UNL     1      -9.812   9.927  70.814  1.00  0.00     0.130 C  
HETATM   21  C   UNL     1      -9.263   9.369  69.496  1.00  0.00    -0.182 C  
HETATM   22  C   UNL     1     -10.022   9.849  68.231  1.00  0.00    -0.172 C  
HETATM   23  C   UNL     1      -9.598  11.298  67.737  1.00  0.00    -0.174 C  
HETATM   24  C   UNL     1     -11.532   9.638  68.510  1.00  0.00     0.246 C  
HETATM   25  C   UNL     1     -10.468  11.745  66.541  1.00  0.00    -0.265 A  
HETATM   26  C   UNL     1      -8.080  11.433  67.428  1.00  0.00    -0.142 A  
HETATM   27  C   UNL     1     -12.005  10.208  69.850  1.00  0.00    -0.086 C  
HETATM   28  O   UNL     1      -9.876  12.206  68.817  1.00  0.00    -0.377 OA 
HETATM   29  C   UNL     1     -11.640  12.504  66.751  1.00  0.00    -0.446 A  
HETATM   30  C   UNL     1      -7.267  10.341  67.069  1.00  0.00    -0.091 A  
HETATM   31  H   UNL     1      -9.622  13.073  68.522  1.00  0.00     0.000 HD 
HETATM   32  C   UNL     1      -5.885  10.486  66.896  1.00  0.00    -0.058 A  
HETATM   33  C   UNL     1     -12.481  12.863  65.696  1.00  0.00    -0.400 A  
HETATM   34  C   UNL     1      -5.287  11.733  67.049  1.00  0.00    -0.122 A  
HETATM   35  C   UNL     1     -12.159  12.491  64.395  1.00  0.00    -0.500 A  
HETATM   36  C   UNL     1     -11.002  11.755  64.156  1.00  0.00    -0.437 A  
HETATM   37  C   UNL     1      -6.073  12.840  67.347  1.00  0.00    -0.123 A  
HETATM   38  C   UNL     1     -10.170  11.376  65.219  1.00  0.00    -0.320 A  
HETATM   39  C   UNL     1      -7.453  12.696  67.520  1.00  0.00    -0.155 A  
ENDBRANCH  18  19
ENDBRANCH  17  18
ENDBRANCH  16  17
ENDBRANCH  13  16
ENDBRANCH  10  13
ENDBRANCH   2   7
TORSDOF 6
ENDMDL
MODEL       83
REMARK 921   NORMALIZED FREE ENERGY PREDICTED BY IDOCK:   -5.22 KCAL/MOL
REMARK 922        TOTAL FREE ENERGY PREDICTED BY IDOCK:   -9.40 KCAL/MOL
REMARK 923 INTER-LIGAND FREE ENERGY PREDICTED BY IDOCK:   -7.58 KCAL/MOL
REMARK 924 INTRA-LIGAND FREE ENERGY PREDICTED BY IDOCK:   -1.83 KCAL/MOL
REMARK 927      BINDING AFFINITY PREDICTED BY RF-SCORE:    0.00 PKD
ROOT
HETATM    1  C   UNL     1      -9.156   9.246  62.680  1.00  0.00    -0.058 C  
HETATM    2  C   UNL     1      -8.656  10.528  63.387  1.00  0.00    -0.172 C  
HETATM    3  C   UNL     1      -9.847  11.502  63.493  1.00  0.00    -0.383 C  
HETATM    4  O   UNL     1     -10.985  11.258  63.115  1.00  0.00    -0.220 OA 
HETATM    5  C   UNL     1      -7.591  11.208  62.505  1.00  0.00     0.093 C  
HETATM    6  O   UNL     1      -9.547  12.700  64.055  1.00  0.00    -0.025 OA 
ENDROOT
BRANCH   2   7
HETATM    7  C   UNL     1      -8.061  10.113  64.740  1.00  0.00    -0.153 A  
HETATM    8  C   UNL     1      -8.903   9.637  65.763  1.00  0.00    -0.186 A  
HETATM    9  C   UNL     1      -8.420   9.401  67.049  1.00  0.00    -0.127 A  
HETATM   10  C   UNL     1      -7.066   9.601  67.340  1.00  0.00    -0.085 A  
HETATM   11  C   UNL     1      -6.702  10.273  65.037  1.00  0.00    -0.108 A  
HETATM   12  C   UNL     1      -6.208   9.987  66.305  1.00  0.00    -0.070 A  
BRANCH  10  13
HETATM   13  C   UNL     1      -6.557   9.481  68.757  1.00  0.00    -0.051 C  
HETATM   14  O   UNL     1      -5.188   9.106  68.685  1.00  0.00    -0.034 OA 
HETATM   15  H   UNL     1      -4.868   9.030  69.576  1.00  0.00     0.000 HD 
BRANCH  13  16
HETATM   16  C   UNL     1      -6.795  10.798  69.521  1.00  0.00    -0.116 C  
BRANCH  16  17
HETATM   17  C   UNL     1      -5.597  11.751  69.555  1.00  0.00    -0.071 C  
BRANCH  17  18
HETATM   18  C   UNL     1      -5.852  13.130  68.933  1.00  0.00    -0.076 C  
BRANCH  18  19
HETATM   19  N   UNL     1      -7.161  13.700  69.296  1.00  0.00    -0.039 NA 
HETATM   20  C   UNL     1      -7.174  15.166  69.315  1.00  0.00    -0.182 C  
HETATM   21  C   UNL     1      -7.163  15.817  67.927  1.00  0.00    -0.154 C  
HETATM   22  C   UNL     1      -8.280  15.316  66.975  1.00  0.00    -0.267 C  
HETATM   23  C   UNL     1      -9.694  15.993  67.227  1.00  0.00    -0.232 C  
HETATM   24  C   UNL     1      -8.247  13.767  67.026  1.00  0.00    -0.055 C  
HETATM   25  C   UNL     1     -10.772  15.369  66.313  1.00  0.00    -0.312 A  
HETATM   26  C   UNL     1      -9.671  17.544  67.115  1.00  0.00    -0.279 A  
HETATM   27  C   UNL     1      -8.246  13.189  68.444  1.00  0.00    -0.130 C  
HETATM   28  O   UNL     1     -10.068  15.689  68.582  1.00  0.00    -0.202 OA 
HETATM   29  C   UNL     1     -11.561  14.291  66.768  1.00  0.00    -0.407 A  
HETATM   30  C   UNL     1      -8.721  18.248  66.351  1.00  0.00    -0.260 A  
HETATM   31  H   UNL     1     -10.914  16.094  68.733  1.00  0.00     0.000 HD 
HETATM   32  C   UNL     1      -8.672  19.647  66.355  1.00  0.00    -0.404 A  
HETATM   33  C   UNL     1     -12.493  13.663  65.941  1.00  0.00    -0.502 A  
HETATM   34  C   UNL     1      -9.592  20.378  67.100  1.00  0.00    -0.587 A  
HETATM   35  C   UNL     1     -12.680  14.113  64.639  1.00  0.00    -0.159 A  
HETATM   36  C   UNL     1     -11.927  15.184  64.167  1.00  0.00    -0.187 A  
HETATM   37  C   UNL     1     -10.578  19.712  67.819  1.00  0.00    -0.530 A  
HETATM   38  C   UNL     1     -10.974  15.799  64.991  1.00  0.00    -0.431 A  
HETATM   39  C   UNL     1     -10.627  18.314  67.815  1.00  0.00    -0.415 A  
ENDBRANCH  18  19
ENDBRANCH  17  18
ENDBRANCH  16  17
ENDBRANCH  13  16
ENDBRANCH  10  13
ENDBRANCH   2   7
TORSDOF 6
ENDMDL
MODEL       84
REMARK 921   NORMALIZED FREE ENERGY PREDICTED BY IDOCK:   -5.20 KCAL/MOL
REMARK 922        TOTAL FREE ENERGY PREDICTED BY IDOCK:   -9.37 KCAL/MOL
REMARK 923 INTER-LIGAND FREE ENERGY PREDICTED BY IDOCK:   -8.33 KCAL/MOL
REMARK 924 INTRA-LIGAND FREE ENERGY PREDICTED BY IDOCK:   -1.04 KCAL/MOL
REMARK 927      BINDING AFFINITY PREDICTED BY RF-SCORE:    0.00 PKD
ROOT
HETATM    1  C   UNL     1     -11.764  16.824  72.158  1.00  0.00     0.054 C  
HETATM    2  C   UNL     1     -12.170  15.386  71.761  1.00  0.00    -0.450 C  
HETATM    3  C   UNL     1     -13.679  15.229  72.042  1.00  0.00    -0.492 C  
HETATM    4  O   UNL     1     -14.408  16.117  72.464  1.00  0.00    -0.213 OA 
HETATM    5  C   UNL     1     -11.433  14.383  72.669  1.00  0.00     0.953 C  
HETATM    6  O   UNL     1     -14.174  13.992  71.783  1.00  0.00    -0.416 OA 
ENDROOT
BRANCH   2   7
HETATM    7  C   UNL     1     -11.781  15.180  70.290  1.00  0.00    -0.338 A  
HETATM    8  C   UNL     1     -11.180  16.228  69.567  1.00  0.00    -0.308 A  
HETATM    9  C   UNL     1     -10.958  16.128  68.195  1.00  0.00    -0.341 A  
HETATM   10  C   UNL     1     -11.299  14.957  67.509  1.00  0.00    -0.351 A  
HETATM   11  C   UNL     1     -12.084  14.000  69.598  1.00  0.00    -0.408 A  
HETATM   12  C   UNL     1     -11.813  13.879  68.238  1.00  0.00    -0.412 A  
BRANCH  10  13
HETATM   13  C   UNL     1     -11.191  14.887  66.004  1.00  0.00    -0.327 C  
HETATM   14  O   UNL     1      -9.893  15.344  65.652  1.00  0.00    -0.339 OA 
HETATM   15  H   UNL     1      -9.825  15.300  64.705  1.00  0.00     0.000 HD 
BRANCH  13  16
HETATM   16  C   UNL     1     -11.493  13.457  65.516  1.00  0.00    -0.324 C  
BRANCH  16  17
HETATM   17  C   UNL     1     -10.303  12.723  64.890  1.00  0.00    -0.330 C  
BRANCH  17  18
HETATM   18  C   UNL     1      -9.592  11.733  65.822  1.00  0.00    -0.233 C  
BRANCH  18  19
HETATM   19  N   UNL     1     -10.406  10.548  66.143  1.00  0.00    -0.233 NA 
HETATM   20  C   UNL     1      -9.741   9.280  65.826  1.00  0.00    -0.269 C  
HETATM   21  C   UNL     1      -8.617   8.896  66.796  1.00  0.00    -0.122 C  
HETATM   22  C   UNL     1      -9.035   8.885  68.290  1.00  0.00    -0.137 C  
HETATM   23  C   UNL     1      -9.803   7.569  68.735  1.00  0.00    -0.166 C  
HETATM   24  C   UNL     1      -9.768  10.226  68.556  1.00  0.00    -0.167 C  
HETATM   25  C   UNL     1     -10.275   7.679  70.202  1.00  0.00    -0.204 A  
HETATM   26  C   UNL     1      -8.998   6.262  68.485  1.00  0.00    -0.123 A  
HETATM   27  C   UNL     1     -10.866  10.550  67.540  1.00  0.00    -0.301 C  
HETATM   28  O   UNL     1     -10.986   7.479  67.921  1.00  0.00    -0.467 OA 
HETATM   29  C   UNL     1     -11.568   8.157  70.505  1.00  0.00    -0.130 A  
HETATM   30  C   UNL     1      -7.592   6.224  68.418  1.00  0.00    -0.096 A  
HETATM   31  H   UNL     1     -11.446   6.691  68.188  1.00  0.00     0.000 HD 
HETATM   32  C   UNL     1      -6.908   5.047  68.092  1.00  0.00    -0.056 A  
HETATM   33  C   UNL     1     -11.996   8.331  71.822  1.00  0.00    -0.364 A  
HETATM   34  C   UNL     1      -7.612   3.871  67.855  1.00  0.00    -0.067 A  
HETATM   35  C   UNL     1     -11.147   8.010  72.876  1.00  0.00    -0.399 A  
HETATM   36  C   UNL     1      -9.872   7.523  72.608  1.00  0.00    -0.242 A  
HETATM   37  C   UNL     1      -8.998   3.864  67.971  1.00  0.00    -0.155 A  
HETATM   38  C   UNL     1      -9.435   7.369  71.284  1.00  0.00    -0.159 A  
HETATM   39  C   UNL     1      -9.681   5.040  68.296  1.00  0.00    -0.200 A  
ENDBRANCH  18  19
ENDBRANCH  17  18
ENDBRANCH  16  17
ENDBRANCH  13  16
ENDBRANCH  10  13
ENDBRANCH   2   7
TORSDOF 6
ENDMDL
MODEL       85
REMARK 921   NORMALIZED FREE ENERGY PREDICTED BY IDOCK:   -5.18 KCAL/MOL
REMARK 922        TOTAL FREE ENERGY PREDICTED BY IDOCK:   -9.35 KCAL/MOL
REMARK 923 INTER-LIGAND FREE ENERGY PREDICTED BY IDOCK:   -8.29 KCAL/MOL
REMARK 924 INTRA-LIGAND FREE ENERGY PREDICTED BY IDOCK:   -1.06 KCAL/MOL
REMARK 927      BINDING AFFINITY PREDICTED BY RF-SCORE:    0.00 PKD
ROOT
HETATM    1  C   UNL     1     -10.596  18.407  68.051  1.00  0.00    -0.346 C  
HETATM    2  C   UNL     1      -9.995  18.221  66.639  1.00  0.00    -0.370 C  
HETATM    3  C   UNL     1      -8.498  18.584  66.713  1.00  0.00    -0.282 C  
HETATM    4  O   UNL     1      -7.909  18.917  67.733  1.00  0.00    -0.238 OA 
HETATM    5  C   UNL     1     -10.657  19.221  65.672  1.00  0.00    -0.338 C  
HETATM    6  O   UNL     1      -7.841  18.512  65.527  1.00  0.00    -0.434 OA 
ENDROOT
BRANCH   2   7
HETATM    7  C   UNL     1     -10.269  16.774  66.202  1.00  0.00    -0.363 A  
HETATM    8  C   UNL     1     -10.754  16.510  64.907  1.00  0.00    -0.168 A  
HETATM    9  C   UNL     1     -11.159  15.230  64.532  1.00  0.00    -0.260 A  
HETATM   10  C   UNL     1     -11.056  14.166  65.435  1.00  0.00    -0.321 A  
HETATM   11  C   UNL     1     -10.136  15.693  67.082  1.00  0.00    -0.256 A  
HETATM   12  C   UNL     1     -10.490  14.405  66.692  1.00  0.00    -0.274 A  
BRANCH  10  13
HETATM   13  C   UNL     1     -11.617  12.806  65.090  1.00  0.00    -0.338 C  
HETATM   14  O   UNL     1     -13.022  12.865  65.290  1.00  0.00    -0.703 OA 
HETATM   15  H   UNL     1     -13.375  12.010  65.074  1.00  0.00     0.000 HD 
BRANCH  13  16
HETATM   16  C   UNL     1     -11.216  12.414  63.655  1.00  0.00    -0.544 C  
BRANCH  16  17
HETATM   17  C   UNL     1      -9.788  11.881  63.506  1.00  0.00    -0.359 C  
BRANCH  17  18
HETATM   18  C   UNL     1      -9.688  10.375  63.225  1.00  0.00    -0.255 C  
BRANCH  18  19
HETATM   19  N   UNL     1      -8.912   9.643  64.242  1.00  0.00    -0.232 NA 
HETATM   20  C   UNL     1      -7.896  10.467  64.905  1.00  0.00    -0.099 C  
HETATM   21  C   UNL     1      -8.458  11.474  65.914  1.00  0.00     0.062 C  
HETATM   22  C   UNL     1      -9.385  10.853  66.992  1.00  0.00    -0.180 C  
HETATM   23  C   UNL     1      -8.605  10.161  68.191  1.00  0.00    -0.118 C  
HETATM   24  C   UNL     1     -10.408   9.963  66.240  1.00  0.00    -0.233 C  
HETATM   25  C   UNL     1      -9.591   9.478  69.164  1.00  0.00    -0.170 A  
HETATM   26  C   UNL     1      -7.629  11.117  68.934  1.00  0.00    -0.133 A  
HETATM   27  C   UNL     1      -9.775   8.993  65.239  1.00  0.00     0.205 C  
HETATM   28  O   UNL     1      -7.796   9.119  67.618  1.00  0.00    -0.096 OA 
HETATM   29  C   UNL     1      -9.923   8.115  69.010  1.00  0.00    -0.191 A  
HETATM   30  C   UNL     1      -7.793  12.515  68.963  1.00  0.00     0.237 A  
HETATM   31  H   UNL     1      -7.329   8.706  68.334  1.00  0.00     0.000 HD 
HETATM   32  C   UNL     1      -6.839  13.349  69.558  1.00  0.00     0.066 A  
HETATM   33  C   UNL     1     -10.862   7.491  69.832  1.00  0.00    -0.250 A  
HETATM   34  C   UNL     1      -5.713  12.804  70.166  1.00  0.00    -0.151 A  
HETATM   35  C   UNL     1     -11.481   8.209  70.849  1.00  0.00    -0.288 A  
HETATM   36  C   UNL     1     -11.163   9.551  71.035  1.00  0.00    -0.432 A  
HETATM   37  C   UNL     1      -5.554  11.423  70.204  1.00  0.00    -0.118 A  
HETATM   38  C   UNL     1     -10.236  10.183  70.194  1.00  0.00    -0.235 A  
HETATM   39  C   UNL     1      -6.506  10.589  69.609  1.00  0.00    -0.084 A  
ENDBRANCH  18  19
ENDBRANCH  17  18
ENDBRANCH  16  17
ENDBRANCH  13  16
ENDBRANCH  10  13
ENDBRANCH   2   7
TORSDOF 6
ENDMDL
MODEL       86
REMARK 921   NORMALIZED FREE ENERGY PREDICTED BY IDOCK:   -5.17 KCAL/MOL
REMARK 922        TOTAL FREE ENERGY PREDICTED BY IDOCK:   -9.34 KCAL/MOL
REMARK 923 INTER-LIGAND FREE ENERGY PREDICTED BY IDOCK:   -7.12 KCAL/MOL
REMARK 924 INTRA-LIGAND FREE ENERGY PREDICTED BY IDOCK:   -2.22 KCAL/MOL
REMARK 927      BINDING AFFINITY PREDICTED BY RF-SCORE:    0.00 PKD
ROOT
HETATM    1  C   UNL     1      -9.335   5.958  71.689  1.00  0.00    -0.162 C  
HETATM    2  C   UNL     1      -7.918   6.476  71.352  1.00  0.00    -0.108 C  
HETATM    3  C   UNL     1      -6.907   5.653  72.177  1.00  0.00    -0.076 C  
HETATM    4  O   UNL     1      -7.202   4.731  72.926  1.00  0.00    -0.076 OA 
HETATM    5  C   UNL     1      -7.792   7.941  71.811  1.00  0.00    -0.110 C  
HETATM    6  O   UNL     1      -5.612   6.029  72.019  1.00  0.00    -0.028 OA 
ENDROOT
BRANCH   2   7
HETATM    7  C   UNL     1      -7.728   6.360  69.832  1.00  0.00    -0.109 A  
HETATM    8  C   UNL     1      -7.061   7.380  69.127  1.00  0.00    -0.079 A  
HETATM    9  C   UNL     1      -7.009   7.383  67.734  1.00  0.00    -0.076 A  
HETATM   10  C   UNL     1      -7.595   6.343  67.005  1.00  0.00    -0.095 A  
HETATM   11  C   UNL     1      -8.279   5.307  69.091  1.00  0.00    -0.092 A  
HETATM   12  C   UNL     1      -8.181   5.282  67.703  1.00  0.00    -0.099 A  
BRANCH  10  13
HETATM   13  C   UNL     1      -7.665   6.403  65.497  1.00  0.00    -0.096 C  
HETATM   14  O   UNL     1      -9.006   6.113  65.124  1.00  0.00    -0.367 OA 
HETATM   15  H   UNL     1      -9.050   6.150  64.176  1.00  0.00     0.000 HD 
BRANCH  13  16
HETATM   16  C   UNL     1      -7.171   7.774  64.996  1.00  0.00    -0.065 C  
BRANCH  16  17
HETATM   17  C   UNL     1      -8.120   8.490  64.031  1.00  0.00    -0.156 C  
BRANCH  17  18
HETATM   18  C   UNL     1      -8.329   9.983  64.320  1.00  0.00    -0.169 C  
BRANCH  18  19
HETATM   19  N   UNL     1      -9.692  10.303  64.775  1.00  0.00    -0.311 NA 
HETATM   20  C   UNL     1     -10.138   9.483  65.907  1.00  0.00    -0.214 C  
HETATM   21  C   UNL     1      -9.494   9.853  67.248  1.00  0.00    -0.181 C  
HETATM   22  C   UNL     1      -9.624  11.351  67.630  1.00  0.00    -0.176 C  
HETATM   23  C   UNL     1     -11.032  11.737  68.255  1.00  0.00    -0.229 C  
HETATM   24  C   UNL     1      -9.182  12.167  66.388  1.00  0.00    -0.207 C  
HETATM   25  C   UNL     1     -11.120  13.258  68.511  1.00  0.00    -0.294 A  
HETATM   26  C   UNL     1     -11.397  10.916  69.524  1.00  0.00    -0.351 A  
HETATM   27  C   UNL     1      -9.855  11.732  65.083  1.00  0.00    -0.235 C  
HETATM   28  O   UNL     1     -12.029  11.422  67.267  1.00  0.00    -0.580 OA 
HETATM   29  C   UNL     1     -11.671  14.118  67.537  1.00  0.00    -0.418 A  
HETATM   30  C   UNL     1     -10.433  10.327  70.365  1.00  0.00    -0.141 A  
HETATM   31  H   UNL     1     -12.871  11.652  67.641  1.00  0.00     0.000 HD 
HETATM   32  C   UNL     1     -10.803   9.513  71.441  1.00  0.00    -0.382 A  
HETATM   33  C   UNL     1     -11.700  15.503  67.713  1.00  0.00    -0.098 A  
HETATM   34  C   UNL     1     -12.147   9.292  71.723  1.00  0.00    -0.457 A  
HETATM   35  C   UNL     1     -11.198  16.064  68.881  1.00  0.00    -0.353 A  
HETATM   36  C   UNL     1     -10.661  15.240  69.866  1.00  0.00    -0.300 A  
HETATM   37  C   UNL     1     -13.123   9.908  70.946  1.00  0.00    -0.344 A  
HETATM   38  C   UNL     1     -10.612  13.851  69.679  1.00  0.00     0.211 A  
HETATM   39  C   UNL     1     -12.753  10.721  69.870  1.00  0.00    -0.097 A  
ENDBRANCH  18  19
ENDBRANCH  17  18
ENDBRANCH  16  17
ENDBRANCH  13  16
ENDBRANCH  10  13
ENDBRANCH   2   7
TORSDOF 6
ENDMDL
MODEL       87
REMARK 921   NORMALIZED FREE ENERGY PREDICTED BY IDOCK:   -5.16 KCAL/MOL
REMARK 922        TOTAL FREE ENERGY PREDICTED BY IDOCK:   -9.32 KCAL/MOL
REMARK 923 INTER-LIGAND FREE ENERGY PREDICTED BY IDOCK:   -8.66 KCAL/MOL
REMARK 924 INTRA-LIGAND FREE ENERGY PREDICTED BY IDOCK:   -0.66 KCAL/MOL
REMARK 927      BINDING AFFINITY PREDICTED BY RF-SCORE:    0.00 PKD
ROOT
HETATM    1  C   UNL     1     -10.693   6.552  67.604  1.00  0.00    -0.381 C  
HETATM    2  C   UNL     1     -10.246   6.114  69.018  1.00  0.00    -0.237 C  
HETATM    3  C   UNL     1      -9.749   4.656  68.924  1.00  0.00    -0.166 C  
HETATM    4  O   UNL     1      -9.692   4.003  67.891  1.00  0.00    -0.159 OA 
HETATM    5  C   UNL     1     -11.466   6.117  69.958  1.00  0.00    -0.369 C  
HETATM    6  O   UNL     1      -9.363   4.115  70.107  1.00  0.00    -0.129 OA 
ENDROOT
BRANCH   2   7
HETATM    7  C   UNL     1      -9.181   7.110  69.500  1.00  0.00    -0.149 A  
HETATM    8  C   UNL     1      -9.317   7.732  70.755  1.00  0.00    -0.162 A  
HETATM    9  C   UNL     1      -8.456   8.753  71.155  1.00  0.00    -0.233 A  
HETATM   10  C   UNL     1      -7.407   9.157  70.321  1.00  0.00    -0.090 A  
HETATM   11  C   UNL     1      -8.105   7.499  68.692  1.00  0.00    -0.124 A  
HETATM   12  C   UNL     1      -7.213   8.480  69.112  1.00  0.00    -0.068 A  
BRANCH  10  13
HETATM   13  C   UNL     1      -6.553  10.350  70.681  1.00  0.00     0.006 C  
HETATM   14  O   UNL     1      -5.416   9.861  71.379  1.00  0.00    -0.073 OA 
HETATM   15  H   UNL     1      -4.879  10.611  71.605  1.00  0.00     0.000 HD 
BRANCH  13  16
HETATM   16  C   UNL     1      -6.200  11.152  69.414  1.00  0.00    -0.079 C  
BRANCH  16  17
HETATM   17  C   UNL     1      -5.158  12.256  69.618  1.00  0.00    -0.072 C  
BRANCH  17  18
HETATM   18  C   UNL     1      -5.727  13.681  69.659  1.00  0.00    -0.102 C  
BRANCH  18  19
HETATM   19  N   UNL     1      -6.053  14.217  68.327  1.00  0.00    -0.106 NA 
HETATM   20  C   UNL     1      -7.166  13.520  67.674  1.00  0.00    -0.168 C  
HETATM   21  C   UNL     1      -8.546  13.847  68.254  1.00  0.00    -0.177 C  
HETATM   22  C   UNL     1      -8.870  15.363  68.319  1.00  0.00    -0.176 C  
HETATM   23  C   UNL     1      -9.360  15.977  66.939  1.00  0.00    -0.228 C  
HETATM   24  C   UNL     1      -7.647  16.052  68.978  1.00  0.00    -0.209 C  
HETATM   25  C   UNL     1      -9.561  17.504  67.060  1.00  0.00    -0.268 A  
HETATM   26  C   UNL     1     -10.617  15.274  66.354  1.00  0.00    -0.308 A  
HETATM   27  C   UNL     1      -6.303  15.666  68.355  1.00  0.00    -0.111 C  
HETATM   28  O   UNL     1      -8.299  15.770  65.990  1.00  0.00    -0.299 OA 
HETATM   29  C   UNL     1      -8.518  18.394  66.724  1.00  0.00    -0.274 A  
HETATM   30  C   UNL     1     -11.555  14.586  67.148  1.00  0.00    -0.406 A  
HETATM   31  H   UNL     1      -8.592  16.137  65.164  1.00  0.00     0.000 HD 
HETATM   32  C   UNL     1     -12.619  13.881  66.574  1.00  0.00    -0.245 A  
HETATM   33  C   UNL     1      -8.650  19.774  66.889  1.00  0.00    -0.380 A  
HETATM   34  C   UNL     1     -12.790  13.871  65.193  1.00  0.00    -0.383 A  
HETATM   35  C   UNL     1      -9.840  20.305  67.373  1.00  0.00    -0.586 A  
HETATM   36  C   UNL     1     -10.891  19.453  67.698  1.00  0.00    -0.470 A  
HETATM   37  C   UNL     1     -11.914  14.590  64.388  1.00  0.00    -0.467 A  
HETATM   38  C   UNL     1     -10.751  18.066  67.554  1.00  0.00    -0.352 A  
HETATM   39  C   UNL     1     -10.850  15.294  64.960  1.00  0.00    -0.457 A  
ENDBRANCH  18  19
ENDBRANCH  17  18
ENDBRANCH  16  17
ENDBRANCH  13  16
ENDBRANCH  10  13
ENDBRANCH   2   7
TORSDOF 6
ENDMDL
MODEL       88
REMARK 921   NORMALIZED FREE ENERGY PREDICTED BY IDOCK:   -5.15 KCAL/MOL
REMARK 922        TOTAL FREE ENERGY PREDICTED BY IDOCK:   -9.31 KCAL/MOL
REMARK 923 INTER-LIGAND FREE ENERGY PREDICTED BY IDOCK:   -8.08 KCAL/MOL
REMARK 924 INTRA-LIGAND FREE ENERGY PREDICTED BY IDOCK:   -1.23 KCAL/MOL
REMARK 927      BINDING AFFINITY PREDICTED BY RF-SCORE:    0.00 PKD
ROOT
HETATM    1  C   UNL     1      -6.962   6.838  72.808  1.00  0.00    -0.075 C  
HETATM    2  C   UNL     1      -8.398   6.726  72.244  1.00  0.00    -0.106 C  
HETATM    3  C   UNL     1      -9.348   7.435  73.229  1.00  0.00    -0.200 C  
HETATM    4  O   UNL     1      -8.995   8.014  74.248  1.00  0.00    -0.136 OA 
HETATM    5  C   UNL     1      -8.810   5.241  72.205  1.00  0.00    -0.135 C  
HETATM    6  O   UNL     1     -10.660   7.378  72.886  1.00  0.00    -0.256 OA 
ENDROOT
BRANCH   2   7
HETATM    7  C   UNL     1      -8.392   7.329  70.831  1.00  0.00    -0.116 A  
HETATM    8  C   UNL     1      -8.197   6.498  69.712  1.00  0.00    -0.126 A  
HETATM    9  C   UNL     1      -8.031   7.031  68.434  1.00  0.00    -0.123 A  
HETATM   10  C   UNL     1      -8.093   8.415  68.235  1.00  0.00    -0.120 A  
HETATM   11  C   UNL     1      -8.489   8.709  70.611  1.00  0.00    -0.174 A  
HETATM   12  C   UNL     1      -8.377   9.238  69.329  1.00  0.00    -0.124 A  
BRANCH  10  13
HETATM   13  C   UNL     1      -7.780   9.012  66.883  1.00  0.00    -0.098 C  
HETATM   14  O   UNL     1      -6.538   8.468  66.457  1.00  0.00    -0.058 OA 
HETATM   15  H   UNL     1      -6.341   8.844  65.607  1.00  0.00     0.000 HD 
BRANCH  13  16
HETATM   16  C   UNL     1      -8.938   8.745  65.902  1.00  0.00    -0.240 C  
BRANCH  16  17
HETATM   17  C   UNL     1     -10.091   9.750  65.974  1.00  0.00    -0.322 C  
BRANCH  17  18
HETATM   18  C   UNL     1      -9.661  11.214  66.139  1.00  0.00    -0.218 C  
BRANCH  18  19
HETATM   19  N   UNL     1     -10.797  12.146  66.241  1.00  0.00    -0.271 NA 
HETATM   20  C   UNL     1     -11.523  12.044  67.511  1.00  0.00    -0.333 C  
HETATM   21  C   UNL     1     -10.787  12.650  68.711  1.00  0.00    -0.267 C  
HETATM   22  C   UNL     1     -10.332  14.119  68.508  1.00  0.00    -0.249 C  
HETATM   23  C   UNL     1     -11.483  15.189  68.737  1.00  0.00    -0.319 C  
HETATM   24  C   UNL     1      -9.610  14.177  67.137  1.00  0.00    -0.244 C  
HETATM   25  C   UNL     1     -10.980  16.613  68.416  1.00  0.00    -0.345 A  
HETATM   26  C   UNL     1     -12.136  15.111  70.147  1.00  0.00    -0.384 A  
HETATM   27  C   UNL     1     -10.398  13.540  65.990  1.00  0.00    -0.303 C  
HETATM   28  O   UNL     1     -12.525  14.891  67.790  1.00  0.00    -0.470 OA 
HETATM   29  C   UNL     1     -11.158  17.164  67.129  1.00  0.00     0.186 A  
HETATM   30  C   UNL     1     -11.472  14.594  71.276  1.00  0.00    -0.163 A  
HETATM   31  H   UNL     1     -13.214  15.530  67.927  1.00  0.00     0.000 HD 
HETATM   32  C   UNL     1     -12.127  14.449  72.504  1.00  0.00    -0.059 A  
HETATM   33  C   UNL     1     -10.653  18.421  66.791  1.00  0.00    -0.367 A  
HETATM   34  C   UNL     1     -13.453  14.846  72.643  1.00  0.00    -0.573 A  
HETATM   35  C   UNL     1      -9.974  19.173  67.743  1.00  0.00    -0.440 A  
HETATM   36  C   UNL     1      -9.795  18.663  69.025  1.00  0.00    -0.330 A  
HETATM   37  C   UNL     1     -14.117  15.415  71.561  1.00  0.00    -0.596 A  
HETATM   38  C   UNL     1     -10.284  17.391  69.356  1.00  0.00    -0.119 A  
HETATM   39  C   UNL     1     -13.463  15.559  70.333  1.00  0.00     0.188 A  
ENDBRANCH  18  19
ENDBRANCH  17  18
ENDBRANCH  16  17
ENDBRANCH  13  16
ENDBRANCH  10  13
ENDBRANCH   2   7
TORSDOF 6
ENDMDL
MODEL       89
REMARK 921   NORMALIZED FREE ENERGY PREDICTED BY IDOCK:   -5.10 KCAL/MOL
REMARK 922        TOTAL FREE ENERGY PREDICTED BY IDOCK:   -9.24 KCAL/MOL
REMARK 923 INTER-LIGAND FREE ENERGY PREDICTED BY IDOCK:   -8.40 KCAL/MOL
REMARK 924 INTRA-LIGAND FREE ENERGY PREDICTED BY IDOCK:   -0.84 KCAL/MOL
REMARK 927      BINDING AFFINITY PREDICTED BY RF-SCORE:    0.00 PKD
ROOT
HETATM    1  C   UNL     1     -10.373  19.742  68.715  1.00  0.00    -0.362 C  
HETATM    2  C   UNL     1      -9.483  19.263  67.545  1.00  0.00    -0.379 C  
HETATM    3  C   UNL     1      -8.012  19.478  67.954  1.00  0.00    -0.301 C  
HETATM    4  O   UNL     1      -7.643  19.913  69.037  1.00  0.00    -0.269 OA 
HETATM    5  C   UNL     1      -9.745  20.152  66.313  1.00  0.00    -0.515 C  
HETATM    6  O   UNL     1      -7.107  19.143  66.999  1.00  0.00    -0.203 OA 
ENDROOT
BRANCH   2   7
HETATM    7  C   UNL     1      -9.846  17.800  67.250  1.00  0.00    -0.312 A  
HETATM    8  C   UNL     1      -9.954  17.357  65.919  1.00  0.00    -0.166 A  
HETATM    9  C   UNL     1     -10.432  16.082  65.617  1.00  0.00    -0.416 A  
HETATM   10  C   UNL     1     -10.783  15.200  66.644  1.00  0.00    -0.310 A  
HETATM   11  C   UNL     1     -10.166  16.894  68.269  1.00  0.00    -0.318 A  
HETATM   12  C   UNL     1     -10.592  15.603  67.969  1.00  0.00    -0.271 A  
BRANCH  10  13
HETATM   13  C   UNL     1     -11.429  13.871  66.330  1.00  0.00    -0.344 C  
HETATM   14  O   UNL     1     -12.836  14.069  66.352  1.00  0.00    -0.474 OA 
HETATM   15  H   UNL     1     -13.242  13.233  66.155  1.00  0.00     0.000 HD 
BRANCH  13  16
HETATM   16  C   UNL     1     -10.905  13.328  64.987  1.00  0.00    -0.335 C  
BRANCH  16  17
HETATM   17  C   UNL     1     -11.089  11.822  64.782  1.00  0.00    -0.356 C  
BRANCH  17  18
HETATM   18  C   UNL     1      -9.886  11.104  64.156  1.00  0.00    -0.291 C  
BRANCH  18  19
HETATM   19  N   UNL     1      -8.884  10.674  65.146  1.00  0.00    -0.190 NA 
HETATM   20  C   UNL     1      -9.461  10.333  66.450  1.00  0.00    -0.174 C  
HETATM   21  C   UNL     1     -10.210   8.996  66.480  1.00  0.00    -0.318 C  
HETATM   22  C   UNL     1      -9.386   7.788  65.962  1.00  0.00    -0.102 C  
HETATM   23  C   UNL     1      -8.376   7.190  67.032  1.00  0.00    -0.118 C  
HETATM   24  C   UNL     1      -8.767   8.219  64.607  1.00  0.00     0.079 C  
HETATM   25  C   UNL     1      -7.522   6.063  66.411  1.00  0.00    -0.086 A  
HETATM   26  C   UNL     1      -9.063   6.733  68.351  1.00  0.00    -0.125 A  
HETATM   27  C   UNL     1      -8.049   9.570  64.650  1.00  0.00    -0.136 C  
HETATM   28  O   UNL     1      -7.471   8.249  67.391  1.00  0.00    -0.091 OA 
HETATM   29  C   UNL     1      -6.260   6.348  65.846  1.00  0.00    -0.038 A  
HETATM   30  C   UNL     1     -10.416   6.349  68.422  1.00  0.00    -0.266 A  
HETATM   31  H   UNL     1      -6.867   7.892  68.032  1.00  0.00     0.000 HD 
HETATM   32  C   UNL     1     -11.023   6.040  69.645  1.00  0.00    -0.470 A  
HETATM   33  C   UNL     1      -5.499   5.361  65.216  1.00  0.00    -0.013 A  
HETATM   34  C   UNL     1     -10.285   6.078  70.823  1.00  0.00    -0.258 A  
HETATM   35  C   UNL     1      -5.970   4.055  65.155  1.00  0.00    -0.023 A  
HETATM   36  C   UNL     1      -7.204   3.741  65.716  1.00  0.00    -0.071 A  
HETATM   37  C   UNL     1      -8.932   6.398  70.777  1.00  0.00    -0.144 A  
HETATM   38  C   UNL     1      -7.978   4.736  66.328  1.00  0.00    -0.103 A  
HETATM   39  C   UNL     1      -8.325   6.707  69.556  1.00  0.00    -0.131 A  
ENDBRANCH  18  19
ENDBRANCH  17  18
ENDBRANCH  16  17
ENDBRANCH  13  16
ENDBRANCH  10  13
ENDBRANCH   2   7
TORSDOF 6
ENDMDL
MODEL       90
REMARK 921   NORMALIZED FREE ENERGY PREDICTED BY IDOCK:   -5.09 KCAL/MOL
REMARK 922        TOTAL FREE ENERGY PREDICTED BY IDOCK:   -9.23 KCAL/MOL
REMARK 923 INTER-LIGAND FREE ENERGY PREDICTED BY IDOCK:   -8.56 KCAL/MOL
REMARK 924 INTRA-LIGAND FREE ENERGY PREDICTED BY IDOCK:   -0.67 KCAL/MOL
REMARK 927      BINDING AFFINITY PREDICTED BY RF-SCORE:    0.00 PKD
ROOT
HETATM    1  C   UNL     1      -7.861  19.877  68.161  1.00  0.00    -0.307 C  
HETATM    2  C   UNL     1      -8.979  18.884  67.768  1.00  0.00    -0.320 C  
HETATM    3  C   UNL     1      -9.418  19.216  66.327  1.00  0.00    -0.326 C  
HETATM    4  O   UNL     1      -8.921  20.090  65.628  1.00  0.00    -0.242 OA 
HETATM    5  C   UNL     1     -10.202  19.112  68.678  1.00  0.00    -0.407 C  
HETATM    6  O   UNL     1     -10.435  18.450  65.856  1.00  0.00    -0.531 OA 
ENDROOT
BRANCH   2   7
HETATM    7  C   UNL     1      -8.424  17.463  67.943  1.00  0.00    -0.228 A  
HETATM    8  C   UNL     1      -7.645  16.881  66.925  1.00  0.00    -0.250 A  
HETATM    9  C   UNL     1      -7.259  15.543  66.984  1.00  0.00    -0.124 A  
HETATM   10  C   UNL     1      -7.612  14.755  68.084  1.00  0.00    -0.121 A  
HETATM   11  C   UNL     1      -8.740  16.673  69.056  1.00  0.00    -0.193 A  
HETATM   12  C   UNL     1      -8.309  15.352  69.140  1.00  0.00    -0.242 A  
BRANCH  10  13
HETATM   13  C   UNL     1      -7.319  13.273  68.097  1.00  0.00    -0.120 C  
HETATM   14  O   UNL     1      -7.650  12.788  69.391  1.00  0.00    -0.293 OA 
HETATM   15  H   UNL     1      -7.465  11.856  69.399  1.00  0.00     0.000 HD 
BRANCH  13  16
HETATM   16  C   UNL     1      -8.086  12.569  66.961  1.00  0.00    -0.105 C  
BRANCH  16  17
HETATM   17  C   UNL     1      -9.608  12.551  67.124  1.00  0.00    -0.208 C  
BRANCH  17  18
HETATM   18  C   UNL     1     -10.109  11.927  68.434  1.00  0.00    -0.206 C  
BRANCH  18  19
HETATM   19  N   UNL     1     -10.914  10.710  68.230  1.00  0.00    -0.242 NA 
HETATM   20  C   UNL     1     -10.300   9.753  67.305  1.00  0.00    -0.248 C  
HETATM   21  C   UNL     1      -9.106   8.988  67.886  1.00  0.00    -0.141 C  
HETATM   22  C   UNL     1      -9.397   8.271  69.231  1.00  0.00    -0.155 C  
HETATM   23  C   UNL     1     -10.148   6.881  69.071  1.00  0.00    -0.170 C  
HETATM   24  C   UNL     1     -10.081   9.314  70.152  1.00  0.00    -0.249 C  
HETATM   25  C   UNL     1     -10.493   6.283  70.453  1.00  0.00    -0.277 A  
HETATM   26  C   UNL     1      -9.389   5.862  68.175  1.00  0.00    -0.117 A  
HETATM   27  C   UNL     1     -11.255  10.049  69.499  1.00  0.00    -0.208 C  
HETATM   28  O   UNL     1     -11.396   7.153  68.410  1.00  0.00    -0.465 OA 
HETATM   29  C   UNL     1     -11.748   6.533  71.049  1.00  0.00    -0.402 A  
HETATM   30  C   UNL     1      -7.995   5.893  67.983  1.00  0.00    -0.105 A  
HETATM   31  H   UNL     1     -11.846   6.322  68.315  1.00  0.00     0.000 HD 
HETATM   32  C   UNL     1      -7.361   5.020  67.090  1.00  0.00    -0.082 A  
HETATM   33  C   UNL     1     -12.061   6.063  72.326  1.00  0.00    -0.196 A  
HETATM   34  C   UNL     1      -8.103   4.074  66.390  1.00  0.00    -0.098 A  
HETATM   35  C   UNL     1     -11.132   5.307  73.034  1.00  0.00    -0.377 A  
HETATM   36  C   UNL     1      -9.892   5.032  72.466  1.00  0.00    -0.200 A  
HETATM   37  C   UNL     1      -9.474   3.981  66.602  1.00  0.00    -0.214 A  
HETATM   38  C   UNL     1      -9.571   5.524  71.193  1.00  0.00    -0.207 A  
HETATM   39  C   UNL     1     -10.107   4.853  67.494  1.00  0.00    -0.184 A  
ENDBRANCH  18  19
ENDBRANCH  17  18
ENDBRANCH  16  17
ENDBRANCH  13  16
ENDBRANCH  10  13
ENDBRANCH   2   7
TORSDOF 6
ENDMDL
MODEL       91
REMARK 921   NORMALIZED FREE ENERGY PREDICTED BY IDOCK:   -5.05 KCAL/MOL
REMARK 922        TOTAL FREE ENERGY PREDICTED BY IDOCK:   -9.18 KCAL/MOL
REMARK 923 INTER-LIGAND FREE ENERGY PREDICTED BY IDOCK:   -7.79 KCAL/MOL
REMARK 924 INTRA-LIGAND FREE ENERGY PREDICTED BY IDOCK:   -1.39 KCAL/MOL
REMARK 927      BINDING AFFINITY PREDICTED BY RF-SCORE:    0.00 PKD
ROOT
HETATM    1  C   UNL     1     -12.726  15.215  69.611  1.00  0.00     0.017 C  
HETATM    2  C   UNL     1     -11.821  14.066  69.110  1.00  0.00    -0.391 C  
HETATM    3  C   UNL     1     -10.371  14.591  69.073  1.00  0.00    -0.223 C  
HETATM    4  O   UNL     1     -10.024  15.711  69.425  1.00  0.00    -0.241 OA 
HETATM    5  C   UNL     1     -12.211  13.709  67.662  1.00  0.00    -0.224 C  
HETATM    6  O   UNL     1      -9.461  13.700  68.605  1.00  0.00    -0.177 OA 
ENDROOT
BRANCH   2   7
HETATM    7  C   UNL     1     -12.030  12.865  70.044  1.00  0.00    -0.380 A  
HETATM    8  C   UNL     1     -11.459  11.618  69.726  1.00  0.00    -0.339 A  
HETATM    9  C   UNL     1     -11.756  10.475  70.466  1.00  0.00    -0.443 A  
HETATM   10  C   UNL     1     -12.610  10.554  71.572  1.00  0.00    -0.529 A  
HETATM   11  C   UNL     1     -12.853  12.936  71.175  1.00  0.00    -0.326 A  
HETATM   12  C   UNL     1     -13.108  11.807  71.946  1.00  0.00    -0.482 A  
BRANCH  10  13
HETATM   13  C   UNL     1     -13.048   9.304  72.298  1.00  0.00    -0.441 C  
HETATM   14  O   UNL     1     -14.395   9.502  72.705  1.00  0.00    -0.769 OA 
HETATM   15  H   UNL     1     -14.670   8.715  73.162  1.00  0.00     0.000 HD 
BRANCH  13  16
HETATM   16  C   UNL     1     -12.852   8.069  71.397  1.00  0.00    -0.289 C  
BRANCH  16  17
HETATM   17  C   UNL     1     -11.815   7.061  71.899  1.00  0.00    -0.341 C  
BRANCH  17  18
HETATM   18  C   UNL     1     -11.277   6.102  70.828  1.00  0.00    -0.306 C  
BRANCH  18  19
HETATM   19  N   UNL     1      -9.822   6.209  70.628  1.00  0.00    -0.177 NA 
HETATM   20  C   UNL     1      -9.304   5.290  69.609  1.00  0.00    -0.126 C  
HETATM   21  C   UNL     1      -9.633   5.693  68.168  1.00  0.00    -0.135 C  
HETATM   22  C   UNL     1      -9.219   7.141  67.796  1.00  0.00    -0.125 C  
HETATM   23  C   UNL     1      -7.680   7.300  67.437  1.00  0.00    -0.110 C  
HETATM   24  C   UNL     1      -9.755   8.060  68.924  1.00  0.00    -0.159 C  
HETATM   25  C   UNL     1      -7.327   8.782  67.182  1.00  0.00    -0.080 A  
HETATM   26  C   UNL     1      -7.215   6.386  66.268  1.00  0.00    -0.072 A  
HETATM   27  C   UNL     1      -9.400   7.587  70.336  1.00  0.00    -0.161 C  
HETATM   28  O   UNL     1      -6.935   6.887  68.597  1.00  0.00    -0.070 OA 
HETATM   29  C   UNL     1      -6.842   9.594  68.230  1.00  0.00    -0.069 A  
HETATM   30  C   UNL     1      -8.086   5.906  65.272  1.00  0.00    -0.133 A  
HETATM   31  H   UNL     1      -6.015   6.982  68.382  1.00  0.00     0.000 HD 
HETATM   32  C   UNL     1      -7.650   5.006  64.293  1.00  0.00    -0.074 A  
HETATM   33  C   UNL     1      -6.580  10.953  68.044  1.00  0.00    -0.062 A  
HETATM   34  C   UNL     1      -6.324   4.587  64.268  1.00  0.00    -0.033 A  
HETATM   35  C   UNL     1      -6.775  11.533  66.795  1.00  0.00    -0.121 A  
HETATM   36  C   UNL     1      -7.239  10.754  65.740  1.00  0.00    -0.057 A  
HETATM   37  C   UNL     1      -5.426   5.089  65.203  1.00  0.00    -0.013 A  
HETATM   38  C   UNL     1      -7.523   9.395  65.933  1.00  0.00    -0.099 A  
HETATM   39  C   UNL     1      -5.862   5.988  66.182  1.00  0.00    -0.027 A  
ENDBRANCH  18  19
ENDBRANCH  17  18
ENDBRANCH  16  17
ENDBRANCH  13  16
ENDBRANCH  10  13
ENDBRANCH   2   7
TORSDOF 6
ENDMDL
MODEL       92
REMARK 921   NORMALIZED FREE ENERGY PREDICTED BY IDOCK:   -5.05 KCAL/MOL
REMARK 922        TOTAL FREE ENERGY PREDICTED BY IDOCK:   -9.18 KCAL/MOL
REMARK 923 INTER-LIGAND FREE ENERGY PREDICTED BY IDOCK:   -7.58 KCAL/MOL
REMARK 924 INTRA-LIGAND FREE ENERGY PREDICTED BY IDOCK:   -1.60 KCAL/MOL
REMARK 927      BINDING AFFINITY PREDICTED BY RF-SCORE:    0.00 PKD
ROOT
HETATM    1  C   UNL     1     -12.171   8.437  72.642  1.00  0.00    -0.302 C  
HETATM    2  C   UNL     1     -11.604   8.465  71.203  1.00  0.00    -0.317 C  
HETATM    3  C   UNL     1     -11.924   9.848  70.599  1.00  0.00    -0.277 C  
HETATM    4  O   UNL     1     -12.489  10.757  71.192  1.00  0.00    -0.354 OA 
HETATM    5  C   UNL     1     -12.341   7.416  70.349  1.00  0.00     0.141 C  
HETATM    6  O   UNL     1     -11.524  10.006  69.311  1.00  0.00    -0.168 OA 
ENDROOT
BRANCH   2   7
HETATM    7  C   UNL     1     -10.104   8.148  71.286  1.00  0.00    -0.240 A  
HETATM    8  C   UNL     1      -9.351   8.590  72.390  1.00  0.00    -0.349 A  
HETATM    9  C   UNL     1      -7.964   8.456  72.422  1.00  0.00    -0.164 A  
HETATM   10  C   UNL     1      -7.292   7.839  71.361  1.00  0.00    -0.067 A  
HETATM   11  C   UNL     1      -9.422   7.499  70.249  1.00  0.00    -0.165 A  
HETATM   12  C   UNL     1      -8.044   7.316  70.304  1.00  0.00    -0.121 A  
BRANCH  10  13
HETATM   13  C   UNL     1      -5.782   7.809  71.320  1.00  0.00    -0.034 C  
HETATM   14  O   UNL     1      -5.405   6.817  70.374  1.00  0.00    -0.018 OA 
HETATM   15  H   UNL     1      -4.455   6.798  70.348  1.00  0.00     0.000 HD 
BRANCH  13  16
HETATM   16  C   UNL     1      -5.231   9.210  70.994  1.00  0.00    -0.031 C  
BRANCH  16  17
HETATM   17  C   UNL     1      -5.263   9.589  69.511  1.00  0.00    -0.035 C  
BRANCH  17  18
HETATM   18  C   UNL     1      -5.262  11.098  69.230  1.00  0.00    -0.041 C  
BRANCH  18  19
HETATM   19  N   UNL     1      -6.518  11.763  69.614  1.00  0.00    -0.126 NA 
HETATM   20  C   UNL     1      -6.410  13.224  69.677  1.00  0.00    -0.089 C  
HETATM   21  C   UNL     1      -6.344  13.914  68.310  1.00  0.00    -0.110 C  
HETATM   22  C   UNL     1      -7.500  13.537  67.346  1.00  0.00    -0.136 C  
HETATM   23  C   UNL     1      -8.852  14.322  67.623  1.00  0.00    -0.196 C  
HETATM   24  C   UNL     1      -7.596  11.989  67.350  1.00  0.00    -0.151 C  
HETATM   25  C   UNL     1      -9.978  13.817  66.694  1.00  0.00    -0.279 A  
HETATM   26  C   UNL     1      -8.701  15.868  67.559  1.00  0.00    -0.189 A  
HETATM   27  C   UNL     1      -7.642  11.370  68.750  1.00  0.00    -0.132 C  
HETATM   28  O   UNL     1      -9.250  14.008  68.969  1.00  0.00    -0.391 OA 
HETATM   29  C   UNL     1     -10.854  12.795  67.118  1.00  0.00    -0.282 A  
HETATM   30  C   UNL     1      -7.695  16.513  66.813  1.00  0.00    -0.294 A  
HETATM   31  H   UNL     1     -10.059  14.478  69.135  1.00  0.00     0.000 HD 
HETATM   32  C   UNL     1      -7.530  17.902  66.861  1.00  0.00    -0.227 A  
HETATM   33  C   UNL     1     -11.836  12.273  66.274  1.00  0.00    -0.387 A  
HETATM   34  C   UNL     1      -8.385  18.684  67.630  1.00  0.00    -0.283 A  
HETATM   35  C   UNL     1     -11.985  12.777  64.987  1.00  0.00    -0.456 A  
HETATM   36  C   UNL     1     -11.145  13.795  64.546  1.00  0.00    -0.388 A  
HETATM   37  C   UNL     1      -9.424  18.081  68.331  1.00  0.00    -0.314 A  
HETATM   38  C   UNL     1     -10.145  14.303  65.386  1.00  0.00    -0.379 A  
HETATM   39  C   UNL     1      -9.589  16.693  68.284  1.00  0.00    -0.233 A  
ENDBRANCH  18  19
ENDBRANCH  17  18
ENDBRANCH  16  17
ENDBRANCH  13  16
ENDBRANCH  10  13
ENDBRANCH   2   7
TORSDOF 6
ENDMDL
MODEL       93
REMARK 921   NORMALIZED FREE ENERGY PREDICTED BY IDOCK:   -5.03 KCAL/MOL
REMARK 922        TOTAL FREE ENERGY PREDICTED BY IDOCK:   -9.15 KCAL/MOL
REMARK 923 INTER-LIGAND FREE ENERGY PREDICTED BY IDOCK:   -6.99 KCAL/MOL
REMARK 924 INTRA-LIGAND FREE ENERGY PREDICTED BY IDOCK:   -2.16 KCAL/MOL
REMARK 927      BINDING AFFINITY PREDICTED BY RF-SCORE:    0.00 PKD
ROOT
HETATM    1  C   UNL     1      -9.964   5.514  71.794  1.00  0.00    -0.228 C  
HETATM    2  C   UNL     1      -9.128   4.243  72.071  1.00  0.00    -0.158 C  
HETATM    3  C   UNL     1     -10.014   3.260  72.863  1.00  0.00    -0.145 C  
HETATM    4  O   UNL     1     -11.182   3.461  73.167  1.00  0.00    -0.122 OA 
HETATM    5  C   UNL     1      -7.936   4.608  72.975  1.00  0.00    -0.100 C  
HETATM    6  O   UNL     1      -9.395   2.106  73.221  1.00  0.00    -0.075 OA 
ENDROOT
BRANCH   2   7
HETATM    7  C   UNL     1      -8.642   3.700  70.718  1.00  0.00    -0.111 A  
HETATM    8  C   UNL     1      -7.336   3.981  70.276  1.00  0.00    -0.042 A  
HETATM    9  C   UNL     1      -6.917   3.638  68.991  1.00  0.00    -0.046 A  
HETATM   10  C   UNL     1      -7.786   2.970  68.122  1.00  0.00    -0.056 A  
HETATM   11  C   UNL     1      -9.489   2.998  69.851  1.00  0.00    -0.189 A  
HETATM   12  C   UNL     1      -9.054   2.608  68.588  1.00  0.00    -0.211 A  
BRANCH  10  13
HETATM   13  C   UNL     1      -7.393   2.715  66.686  1.00  0.00    -0.069 C  
HETATM   14  O   UNL     1      -8.469   2.020  66.070  1.00  0.00    -0.091 OA 
HETATM   15  H   UNL     1      -8.221   1.859  65.167  1.00  0.00     0.000 HD 
BRANCH  13  16
HETATM   16  C   UNL     1      -7.038   4.042  65.988  1.00  0.00    -0.067 C  
BRANCH  16  17
HETATM   17  C   UNL     1      -8.187   4.691  65.211  1.00  0.00    -0.117 C  
BRANCH  17  18
HETATM   18  C   UNL     1      -9.225   5.415  66.079  1.00  0.00    -0.158 C  
BRANCH  18  19
HETATM   19  N   UNL     1      -8.626   6.375  67.023  1.00  0.00    -0.111 NA 
HETATM   20  C   UNL     1      -8.385   7.697  66.436  1.00  0.00    -0.129 C  
HETATM   21  C   UNL     1      -9.650   8.537  66.227  1.00  0.00    -0.306 C  
HETATM   22  C   UNL     1     -10.527   8.702  67.497  1.00  0.00    -0.335 C  
HETATM   23  C   UNL     1     -10.008   9.822  68.497  1.00  0.00    -0.160 C  
HETATM   24  C   UNL     1     -10.713   7.285  68.096  1.00  0.00    -0.191 C  
HETATM   25  C   UNL     1     -10.870   9.853  69.778  1.00  0.00    -0.300 A  
HETATM   26  C   UNL     1      -9.886  11.230  67.849  1.00  0.00    -0.187 A  
HETATM   27  C   UNL     1      -9.409   6.500  68.262  1.00  0.00    -0.118 C  
HETATM   28  O   UNL     1      -8.679   9.442  68.896  1.00  0.00    -0.127 OA 
HETATM   29  C   UNL     1     -10.491   9.107  70.916  1.00  0.00    -0.347 A  
HETATM   30  C   UNL     1     -10.644  11.633  66.732  1.00  0.00    -0.280 A  
HETATM   31  H   UNL     1      -8.368  10.112  69.495  1.00  0.00     0.000 HD 
HETATM   32  C   UNL     1     -10.434  12.872  66.116  1.00  0.00    -0.283 A  
HETATM   33  C   UNL     1     -11.286   9.063  72.062  1.00  0.00    -0.379 A  
HETATM   34  C   UNL     1      -9.483  13.753  66.621  1.00  0.00    -0.289 A  
HETATM   35  C   UNL     1     -12.474   9.784  72.111  1.00  0.00    -0.303 A  
HETATM   36  C   UNL     1     -12.866  10.540  71.011  1.00  0.00    -0.502 A  
HETATM   37  C   UNL     1      -8.761  13.407  67.757  1.00  0.00    -0.197 A  
HETATM   38  C   UNL     1     -12.078  10.566  69.852  1.00  0.00    -0.318 A  
HETATM   39  C   UNL     1      -8.969  12.168  68.372  1.00  0.00    -0.146 A  
ENDBRANCH  18  19
ENDBRANCH  17  18
ENDBRANCH  16  17
ENDBRANCH  13  16
ENDBRANCH  10  13
ENDBRANCH   2   7
TORSDOF 6
ENDMDL
MODEL       94
REMARK 921   NORMALIZED FREE ENERGY PREDICTED BY IDOCK:   -5.03 KCAL/MOL
REMARK 922        TOTAL FREE ENERGY PREDICTED BY IDOCK:   -9.14 KCAL/MOL
REMARK 923 INTER-LIGAND FREE ENERGY PREDICTED BY IDOCK:   -8.01 KCAL/MOL
REMARK 924 INTRA-LIGAND FREE ENERGY PREDICTED BY IDOCK:   -1.13 KCAL/MOL
REMARK 927      BINDING AFFINITY PREDICTED BY RF-SCORE:    0.00 PKD
ROOT
HETATM    1  C   UNL     1     -10.432  19.056  66.035  1.00  0.00    -0.530 C  
HETATM    2  C   UNL     1      -9.209  18.887  66.965  1.00  0.00    -0.325 C  
HETATM    3  C   UNL     1      -9.488  19.679  68.259  1.00  0.00    -0.368 C  
HETATM    4  O   UNL     1     -10.523  20.288  68.496  1.00  0.00    -0.325 OA 
HETATM    5  C   UNL     1      -7.975  19.526  66.300  1.00  0.00    -0.332 C  
HETATM    6  O   UNL     1      -8.474  19.660  69.161  1.00  0.00    -0.259 OA 
ENDROOT
BRANCH   2   7
HETATM    7  C   UNL     1      -8.994  17.382  67.184  1.00  0.00    -0.248 A  
HETATM    8  C   UNL     1      -7.736  16.806  66.924  1.00  0.00    -0.254 A  
HETATM    9  C   UNL     1      -7.550  15.425  66.962  1.00  0.00    -0.195 A  
HETATM   10  C   UNL     1      -8.613  14.580  67.298  1.00  0.00    -0.231 A  
HETATM   11  C   UNL     1     -10.039  16.527  67.555  1.00  0.00    -0.267 A  
HETATM   12  C   UNL     1      -9.841  15.153  67.645  1.00  0.00    -0.219 A  
BRANCH  10  13
HETATM   13  C   UNL     1      -8.462  13.079  67.210  1.00  0.00    -0.199 C  
HETATM   14  O   UNL     1      -9.170  12.650  66.055  1.00  0.00    -0.419 OA 
HETATM   15  H   UNL     1      -9.075  11.706  66.000  1.00  0.00     0.000 HD 
BRANCH  13  16
HETATM   16  C   UNL     1      -6.970  12.695  67.195  1.00  0.00    -0.031 C  
BRANCH  16  17
HETATM   17  C   UNL     1      -6.686  11.202  67.383  1.00  0.00    -0.084 C  
BRANCH  17  18
HETATM   18  C   UNL     1      -6.843  10.351  66.116  1.00  0.00    -0.125 C  
BRANCH  18  19
HETATM   19  N   UNL     1      -8.154   9.687  66.018  1.00  0.00    -0.111 NA 
HETATM   20  C   UNL     1      -8.194   8.618  65.016  1.00  0.00    -0.157 C  
HETATM   21  C   UNL     1      -7.463   7.335  65.430  1.00  0.00    -0.087 C  
HETATM   22  C   UNL     1      -7.908   6.758  66.800  1.00  0.00    -0.107 C  
HETATM   23  C   UNL     1      -9.251   5.914  66.739  1.00  0.00    -0.133 C  
HETATM   24  C   UNL     1      -7.887   7.937  67.807  1.00  0.00    -0.123 C  
HETATM   25  C   UNL     1      -9.681   5.464  68.153  1.00  0.00    -0.174 A  
HETATM   26  C   UNL     1      -9.193   4.719  65.746  1.00  0.00    -0.149 A  
HETATM   27  C   UNL     1      -8.623   9.187  67.320  1.00  0.00    -0.118 C  
HETATM   28  O   UNL     1     -10.278   6.797  66.252  1.00  0.00    -0.440 OA 
HETATM   29  C   UNL     1     -10.578   6.246  68.913  1.00  0.00    -0.321 A  
HETATM   30  C   UNL     1      -7.992   4.089  65.368  1.00  0.00    -0.093 A  
HETATM   31  H   UNL     1     -11.082   6.292  66.215  1.00  0.00     0.000 HD 
HETATM   32  C   UNL     1      -7.970   3.082  64.396  1.00  0.00    -0.082 A  
HETATM   33  C   UNL     1     -10.929   5.899  70.218  1.00  0.00    -0.390 A  
HETATM   34  C   UNL     1      -9.153   2.659  63.799  1.00  0.00    -0.099 A  
HETATM   35  C   UNL     1     -10.409   4.744  70.793  1.00  0.00    -0.184 A  
HETATM   36  C   UNL     1      -9.534   3.946  70.063  1.00  0.00    -0.263 A  
HETATM   37  C   UNL     1     -10.362   3.222  64.194  1.00  0.00    -0.159 A  
HETATM   38  C   UNL     1      -9.164   4.307  68.760  1.00  0.00    -0.200 A  
HETATM   39  C   UNL     1     -10.384   4.229  65.164  1.00  0.00    -0.215 A  
ENDBRANCH  18  19
ENDBRANCH  17  18
ENDBRANCH  16  17
ENDBRANCH  13  16
ENDBRANCH  10  13
ENDBRANCH   2   7
TORSDOF 6
ENDMDL
MODEL       95
REMARK 921   NORMALIZED FREE ENERGY PREDICTED BY IDOCK:   -5.01 KCAL/MOL
REMARK 922        TOTAL FREE ENERGY PREDICTED BY IDOCK:   -9.12 KCAL/MOL
REMARK 923 INTER-LIGAND FREE ENERGY PREDICTED BY IDOCK:   -8.26 KCAL/MOL
REMARK 924 INTRA-LIGAND FREE ENERGY PREDICTED BY IDOCK:   -0.86 KCAL/MOL
REMARK 927      BINDING AFFINITY PREDICTED BY RF-SCORE:    0.00 PKD
ROOT
HETATM    1  C   UNL     1      -9.044  15.291  68.712  1.00  0.00    -0.200 C  
HETATM    2  C   UNL     1     -10.339  16.016  68.279  1.00  0.00    -0.261 C  
HETATM    3  C   UNL     1      -9.978  17.483  67.973  1.00  0.00    -0.310 C  
HETATM    4  O   UNL     1      -8.848  17.952  68.030  1.00  0.00    -0.255 OA 
HETATM    5  C   UNL     1     -11.329  16.030  69.460  1.00  0.00    -0.344 C  
HETATM    6  O   UNL     1     -11.033  18.262  67.621  1.00  0.00    -0.333 OA 
ENDROOT
BRANCH   2   7
HETATM    7  C   UNL     1     -10.925  15.250  67.083  1.00  0.00    -0.331 A  
HETATM    8  C   UNL     1     -11.726  14.113  67.300  1.00  0.00    -0.421 A  
HETATM    9  C   UNL     1     -12.142  13.308  66.241  1.00  0.00    -0.472 A  
HETATM   10  C   UNL     1     -11.797  13.640  64.926  1.00  0.00    -0.398 A  
HETATM   11  C   UNL     1     -10.618  15.590  65.760  1.00  0.00    -0.370 A  
HETATM   12  C   UNL     1     -11.078  14.818  64.698  1.00  0.00    -0.337 A  
BRANCH  10  13
HETATM   13  C   UNL     1     -12.124  12.705  63.785  1.00  0.00    -0.522 C  
HETATM   14  O   UNL     1     -12.083  13.470  62.588  1.00  0.00    -0.673 OA 
HETATM   15  H   UNL     1     -12.290  12.882  61.870  1.00  0.00     0.000 HD 
BRANCH  13  16
HETATM   16  C   UNL     1     -11.154  11.508  63.783  1.00  0.00    -0.471 C  
BRANCH  16  17
HETATM   17  C   UNL     1      -9.757  11.807  64.333  1.00  0.00    -0.166 C  
BRANCH  17  18
HETATM   18  C   UNL     1      -9.271  10.840  65.422  1.00  0.00    -0.205 C  
BRANCH  18  19
HETATM   19  N   UNL     1      -9.863   9.496  65.313  1.00  0.00    -0.222 NA 
HETATM   20  C   UNL     1      -9.067   8.572  64.499  1.00  0.00     0.493 C  
HETATM   21  C   UNL     1      -7.791   8.065  65.182  1.00  0.00    -0.116 C  
HETATM   22  C   UNL     1      -8.020   7.435  66.581  1.00  0.00    -0.121 C  
HETATM   23  C   UNL     1      -8.532   5.933  66.535  1.00  0.00    -0.113 C  
HETATM   24  C   UNL     1      -8.898   8.431  67.380  1.00  0.00    -0.140 C  
HETATM   25  C   UNL     1      -8.835   5.413  67.957  1.00  0.00    -0.105 A  
HETATM   26  C   UNL     1      -7.586   4.973  65.759  1.00  0.00    -0.086 A  
HETATM   27  C   UNL     1     -10.146   8.905  66.630  1.00  0.00    -0.287 C  
HETATM   28  O   UNL     1      -9.780   5.938  65.819  1.00  0.00    -0.369 OA 
HETATM   29  C   UNL     1     -10.136   5.508  68.495  1.00  0.00    -0.240 A  
HETATM   30  C   UNL     1      -6.207   5.213  65.601  1.00  0.00    -0.034 A  
HETATM   31  H   UNL     1     -10.087   5.040  65.791  1.00  0.00     0.000 HD 
HETATM   32  C   UNL     1      -5.407   4.378  64.812  1.00  0.00    -0.013 A  
HETATM   33  C   UNL     1     -10.422   5.110  69.802  1.00  0.00    -0.274 A  
HETATM   34  C   UNL     1      -5.959   3.266  64.186  1.00  0.00    -0.018 A  
HETATM   35  C   UNL     1      -9.415   4.582  70.602  1.00  0.00    -0.240 A  
HETATM   36  C   UNL     1      -8.125   4.462  70.095  1.00  0.00    -0.059 A  
HETATM   37  C   UNL     1      -7.306   2.971  64.371  1.00  0.00    -0.069 A  
HETATM   38  C   UNL     1      -7.834   4.883  68.790  1.00  0.00    -0.077 A  
HETATM   39  C   UNL     1      -8.106   3.805  65.158  1.00  0.00    -0.097 A  
ENDBRANCH  18  19
ENDBRANCH  17  18
ENDBRANCH  16  17
ENDBRANCH  13  16
ENDBRANCH  10  13
ENDBRANCH   2   7
TORSDOF 6
ENDMDL
MODEL       96
REMARK 921   NORMALIZED FREE ENERGY PREDICTED BY IDOCK:   -4.98 KCAL/MOL
REMARK 922        TOTAL FREE ENERGY PREDICTED BY IDOCK:   -9.09 KCAL/MOL
REMARK 923 INTER-LIGAND FREE ENERGY PREDICTED BY IDOCK:   -9.61 KCAL/MOL
REMARK 924 INTRA-LIGAND FREE ENERGY PREDICTED BY IDOCK:    0.52 KCAL/MOL
REMARK 927      BINDING AFFINITY PREDICTED BY RF-SCORE:    0.00 PKD
ROOT
HETATM    1  C   UNL     1     -10.491   8.868  69.369  1.00  0.00    -0.228 C  
HETATM    2  C   UNL     1      -9.742   8.696  68.026  1.00  0.00    -0.184 C  
HETATM    3  C   UNL     1     -10.147   7.332  67.433  1.00  0.00    -0.204 C  
HETATM    4  O   UNL     1     -10.953   6.561  67.937  1.00  0.00    -0.284 OA 
HETATM    5  C   UNL     1      -8.226   8.642  68.296  1.00  0.00    -0.122 C  
HETATM    6  O   UNL     1      -9.529   7.019  66.265  1.00  0.00    -0.158 OA 
ENDROOT
BRANCH   2   7
HETATM    7  C   UNL     1     -10.097   9.898  67.138  1.00  0.00    -0.270 A  
HETATM    8  C   UNL     1     -11.093  10.805  67.545  1.00  0.00    -0.374 A  
HETATM    9  C   UNL     1     -11.548  11.812  66.696  1.00  0.00    -0.273 A  
HETATM   10  C   UNL     1     -10.990  11.964  65.421  1.00  0.00    -0.352 A  
HETATM   11  C   UNL     1      -9.522  10.084  65.874  1.00  0.00    -0.260 A  
HETATM   12  C   UNL     1      -9.937  11.122  65.046  1.00  0.00    -0.325 A  
BRANCH  10  13
HETATM   13  C   UNL     1     -11.565  12.960  64.443  1.00  0.00    -0.363 C  
HETATM   14  O   UNL     1     -12.890  12.543  64.144  1.00  0.00    -0.705 OA 
HETATM   15  H   UNL     1     -13.251  13.170  63.527  1.00  0.00     0.000 HD 
BRANCH  13  16
HETATM   16  C   UNL     1     -11.485  14.385  65.025  1.00  0.00    -0.372 C  
BRANCH  16  17
HETATM   17  C   UNL     1     -12.199  14.575  66.366  1.00  0.00    -0.274 C  
BRANCH  17  18
HETATM   18  C   UNL     1     -11.375  15.302  67.438  1.00  0.00    -0.284 C  
BRANCH  18  19
HETATM   19  N   UNL     1      -9.923  15.243  67.197  1.00  0.00    -0.232 NA 
HETATM   20  C   UNL     1      -9.487  16.065  66.063  1.00  0.00    -0.349 C  
HETATM   21  C   UNL     1      -9.482  17.572  66.339  1.00  0.00    -0.276 C  
HETATM   22  C   UNL     1      -8.682  17.990  67.601  1.00  0.00    -0.247 C  
HETATM   23  C   UNL     1      -7.114  18.077  67.370  1.00  0.00    -0.192 C  
HETATM   24  C   UNL     1      -9.152  17.065  68.752  1.00  0.00    -0.252 C  
HETATM   25  C   UNL     1      -6.382  18.396  68.693  1.00  0.00    -0.223 A  
HETATM   26  C   UNL     1      -6.703  19.056  66.234  1.00  0.00    -0.235 A  
HETATM   27  C   UNL     1      -9.145  15.576  68.399  1.00  0.00    -0.190 C  
HETATM   28  O   UNL     1      -6.678  16.770  66.957  1.00  0.00    -0.167 OA 
HETATM   29  C   UNL     1      -5.887  17.355  69.507  1.00  0.00    -0.238 A  
HETATM   30  C   UNL     1      -7.498  20.147  65.832  1.00  0.00    -0.284 A  
HETATM   31  H   UNL     1      -5.740  16.821  66.819  1.00  0.00     0.000 HD 
HETATM   32  C   UNL     1      -7.142  20.946  64.739  1.00  0.00     0.248 A  
HETATM   33  C   UNL     1      -5.283  17.611  70.740  1.00  0.00    -0.264 A  
HETATM   34  C   UNL     1      -5.966  20.693  64.040  1.00  0.00    -0.343 A  
HETATM   35  C   UNL     1      -5.138  18.921  71.182  1.00  0.00    -0.282 A  
HETATM   36  C   UNL     1      -5.603  19.969  70.394  1.00  0.00    -0.318 A  
HETATM   37  C   UNL     1      -5.132  19.659  64.449  1.00  0.00    -0.201 A  
HETATM   38  C   UNL     1      -6.229  19.710  69.167  1.00  0.00    -0.322 A  
HETATM   39  C   UNL     1      -5.487  18.860  65.541  1.00  0.00    -0.207 A  
ENDBRANCH  18  19
ENDBRANCH  17  18
ENDBRANCH  16  17
ENDBRANCH  13  16
ENDBRANCH  10  13
ENDBRANCH   2   7
TORSDOF 6
ENDMDL
MODEL       97
REMARK 921   NORMALIZED FREE ENERGY PREDICTED BY IDOCK:   -4.97 KCAL/MOL
REMARK 922        TOTAL FREE ENERGY PREDICTED BY IDOCK:   -9.07 KCAL/MOL
REMARK 923 INTER-LIGAND FREE ENERGY PREDICTED BY IDOCK:   -8.21 KCAL/MOL
REMARK 924 INTRA-LIGAND FREE ENERGY PREDICTED BY IDOCK:   -0.86 KCAL/MOL
REMARK 927      BINDING AFFINITY PREDICTED BY RF-SCORE:    0.00 PKD
ROOT
HETATM    1  C   UNL     1     -10.205  19.889  68.266  1.00  0.00    -0.562 C  
HETATM    2  C   UNL     1      -9.643  19.360  66.926  1.00  0.00    -0.419 C  
HETATM    3  C   UNL     1      -8.316  20.095  66.649  1.00  0.00    -0.285 C  
HETATM    4  O   UNL     1      -7.803  20.917  67.397  1.00  0.00    -0.319 OA 
HETATM    5  C   UNL     1     -10.614  19.732  65.788  1.00  0.00    -0.522 C  
HETATM    6  O   UNL     1      -7.724  19.765  65.473  1.00  0.00    -0.392 OA 
ENDROOT
BRANCH   2   7
HETATM    7  C   UNL     1      -9.502  17.835  67.048  1.00  0.00    -0.271 A  
HETATM    8  C   UNL     1      -8.789  17.279  68.126  1.00  0.00    -0.239 A  
HETATM    9  C   UNL     1      -8.509  15.914  68.183  1.00  0.00    -0.167 A  
HETATM   10  C   UNL     1      -8.969  15.059  67.177  1.00  0.00    -0.235 A  
HETATM   11  C   UNL     1      -9.988  16.962  66.067  1.00  0.00    -0.313 A  
HETATM   12  C   UNL     1      -9.755  15.592  66.150  1.00  0.00    -0.348 A  
BRANCH  10  13
HETATM   13  C   UNL     1      -8.559  13.605  67.155  1.00  0.00    -0.192 C  
HETATM   14  O   UNL     1      -7.148  13.567  66.986  1.00  0.00    -0.379 OA 
HETATM   15  H   UNL     1      -6.890  12.652  66.972  1.00  0.00     0.000 HD 
BRANCH  13  16
HETATM   16  C   UNL     1      -9.045  12.895  68.433  1.00  0.00    -0.126 C  
BRANCH  16  17
HETATM   17  C   UNL     1     -10.213  11.926  68.229  1.00  0.00    -0.207 C  
BRANCH  17  18
HETATM   18  C   UNL     1     -10.506  11.008  69.424  1.00  0.00    -0.142 C  
BRANCH  18  19
HETATM   19  N   UNL     1     -11.112   9.723  69.037  1.00  0.00    -0.158 NA 
HETATM   20  C   UNL     1     -10.780   9.309  67.670  1.00  0.00    -0.209 C  
HETATM   21  C   UNL     1      -9.345   8.800  67.493  1.00  0.00    -0.161 C  
HETATM   22  C   UNL     1      -8.942   7.667  68.474  1.00  0.00    -0.129 C  
HETATM   23  C   UNL     1      -9.454   6.228  68.041  1.00  0.00    -0.116 C  
HETATM   24  C   UNL     1      -9.353   8.139  69.892  1.00  0.00    -0.159 C  
HETATM   25  C   UNL     1      -9.104   5.175  69.116  1.00  0.00    -0.135 A  
HETATM   26  C   UNL     1      -8.971   5.792  66.629  1.00  0.00    -0.123 A  
HETATM   27  C   UNL     1     -10.794   8.648  69.989  1.00  0.00    -0.221 C  
HETATM   28  O   UNL     1     -10.889   6.296  67.976  1.00  0.00    -0.272 OA 
HETATM   29  C   UNL     1     -10.030   4.852  70.132  1.00  0.00    -0.325 A  
HETATM   30  C   UNL     1      -7.801   6.293  66.026  1.00  0.00    -0.106 A  
HETATM   31  H   UNL     1     -11.196   5.435  67.717  1.00  0.00     0.000 HD 
HETATM   32  C   UNL     1      -7.452   5.953  64.714  1.00  0.00    -0.078 A  
HETATM   33  C   UNL     1      -9.714   3.957  71.155  1.00  0.00    -0.248 A  
HETATM   34  C   UNL     1      -8.249   5.078  63.982  1.00  0.00    -0.125 A  
HETATM   35  C   UNL     1      -8.468   3.340  71.177  1.00  0.00    -0.098 A  
HETATM   36  C   UNL     1      -7.540   3.628  70.181  1.00  0.00    -0.047 A  
HETATM   37  C   UNL     1      -9.379   4.522  64.571  1.00  0.00    -0.114 A  
HETATM   38  C   UNL     1      -7.850   4.544  69.167  1.00  0.00    -0.069 A  
HETATM   39  C   UNL     1      -9.728   4.862  65.882  1.00  0.00    -0.197 A  
ENDBRANCH  18  19
ENDBRANCH  17  18
ENDBRANCH  16  17
ENDBRANCH  13  16
ENDBRANCH  10  13
ENDBRANCH   2   7
TORSDOF 6
ENDMDL
MODEL       98
REMARK 921   NORMALIZED FREE ENERGY PREDICTED BY IDOCK:   -4.96 KCAL/MOL
REMARK 922        TOTAL FREE ENERGY PREDICTED BY IDOCK:   -9.06 KCAL/MOL
REMARK 923 INTER-LIGAND FREE ENERGY PREDICTED BY IDOCK:   -8.02 KCAL/MOL
REMARK 924 INTRA-LIGAND FREE ENERGY PREDICTED BY IDOCK:   -1.04 KCAL/MOL
REMARK 927      BINDING AFFINITY PREDICTED BY RF-SCORE:    0.00 PKD
ROOT
HETATM    1  C   UNL     1     -11.851  13.842  67.830  1.00  0.00    -0.415 C  
HETATM    2  C   UNL     1     -11.454  14.025  66.347  1.00  0.00    -0.361 C  
HETATM    3  C   UNL     1     -10.803  15.416  66.202  1.00  0.00    -0.313 C  
HETATM    4  O   UNL     1     -10.610  16.197  67.125  1.00  0.00    -0.305 OA 
HETATM    5  C   UNL     1     -12.727  14.028  65.479  1.00  0.00    -0.517 C  
HETATM    6  O   UNL     1     -10.441  15.740  64.935  1.00  0.00    -0.499 OA 
ENDROOT
BRANCH   2   7
HETATM    7  C   UNL     1     -10.532  12.858  65.962  1.00  0.00    -0.290 A  
HETATM    8  C   UNL     1     -10.786  12.117  64.793  1.00  0.00    -0.342 A  
HETATM    9  C   UNL     1     -10.067  10.960  64.498  1.00  0.00    -0.404 A  
HETATM   10  C   UNL     1      -9.044  10.530  65.351  1.00  0.00    -0.215 A  
HETATM   11  C   UNL     1      -9.481  12.437  66.787  1.00  0.00    -0.228 A  
HETATM   12  C   UNL     1      -8.727  11.312  66.466  1.00  0.00    -0.178 A  
BRANCH  10  13
HETATM   13  C   UNL     1      -8.350   9.208  65.116  1.00  0.00    -0.154 C  
HETATM   14  O   UNL     1      -8.975   8.596  63.996  1.00  0.00    -0.403 OA 
HETATM   15  H   UNL     1      -8.539   7.765  63.849  1.00  0.00     0.000 HD 
BRANCH  13  16
HETATM   16  C   UNL     1      -6.836   9.427  64.933  1.00  0.00    -0.093 C  
BRANCH  16  17
HETATM   17  C   UNL     1      -5.952   8.731  65.972  1.00  0.00    -0.051 C  
BRANCH  17  18
HETATM   18  C   UNL     1      -5.836   9.465  67.315  1.00  0.00    -0.045 C  
BRANCH  18  19
HETATM   19  N   UNL     1      -5.893   8.563  68.478  1.00  0.00    -0.040 NA 
HETATM   20  C   UNL     1      -7.050   8.802  69.346  1.00  0.00    -0.057 C  
HETATM   21  C   UNL     1      -8.384   8.311  68.773  1.00  0.00    -0.124 C  
HETATM   22  C   UNL     1      -8.384   6.823  68.334  1.00  0.00    -0.123 C  
HETATM   23  C   UNL     1      -8.577   5.798  69.531  1.00  0.00    -0.112 C  
HETATM   24  C   UNL     1      -7.122   6.618  67.457  1.00  0.00    -0.084 C  
HETATM   25  C   UNL     1      -8.461   4.341  69.030  1.00  0.00    -0.099 A  
HETATM   26  C   UNL     1      -9.884   6.026  70.344  1.00  0.00    -0.222 A  
HETATM   27  C   UNL     1      -5.831   7.146  68.088  1.00  0.00    -0.022 C  
HETATM   28  O   UNL     1      -7.488   6.012  70.446  1.00  0.00    -0.085 OA 
HETATM   29  C   UNL     1      -7.223   3.666  69.068  1.00  0.00    -0.050 A  
HETATM   30  C   UNL     1     -11.028   6.646  69.805  1.00  0.00    -0.367 A  
HETATM   31  H   UNL     1      -7.603   5.399  71.162  1.00  0.00     0.000 HD 
HETATM   32  C   UNL     1     -12.148   6.923  70.596  1.00  0.00    -0.363 A  
HETATM   33  C   UNL     1      -7.074   2.375  68.559  1.00  0.00    -0.044 A  
HETATM   34  C   UNL     1     -12.165   6.560  71.939  1.00  0.00    -0.373 A  
HETATM   35  C   UNL     1      -8.170   1.713  68.016  1.00  0.00    -0.070 A  
HETATM   36  C   UNL     1      -9.408   2.348  67.977  1.00  0.00    -0.253 A  
HETATM   37  C   UNL     1     -11.073   5.894  72.484  1.00  0.00    -0.328 A  
HETATM   38  C   UNL     1      -9.551   3.653  68.469  1.00  0.00    -0.163 A  
HETATM   39  C   UNL     1      -9.953   5.617  71.694  1.00  0.00    -0.222 A  
ENDBRANCH  18  19
ENDBRANCH  17  18
ENDBRANCH  16  17
ENDBRANCH  13  16
ENDBRANCH  10  13
ENDBRANCH   2   7
TORSDOF 6
ENDMDL
MODEL       99
REMARK 921   NORMALIZED FREE ENERGY PREDICTED BY IDOCK:   -4.96 KCAL/MOL
REMARK 922        TOTAL FREE ENERGY PREDICTED BY IDOCK:   -9.05 KCAL/MOL
REMARK 923 INTER-LIGAND FREE ENERGY PREDICTED BY IDOCK:   -7.68 KCAL/MOL
REMARK 924 INTRA-LIGAND FREE ENERGY PREDICTED BY IDOCK:   -1.38 KCAL/MOL
REMARK 927      BINDING AFFINITY PREDICTED BY RF-SCORE:    0.00 PKD
ROOT
HETATM    1  C   UNL     1     -11.391   4.828  73.131  1.00  0.00    -0.380 C  
HETATM    2  C   UNL     1      -9.852   4.692  73.192  1.00  0.00    -0.170 C  
HETATM    3  C   UNL     1      -9.525   3.349  73.876  1.00  0.00    -0.095 C  
HETATM    4  O   UNL     1     -10.358   2.536  74.254  1.00  0.00    -0.121 OA 
HETATM    5  C   UNL     1      -9.281   5.808  74.088  1.00  0.00    -0.128 C  
HETATM    6  O   UNL     1      -8.199   3.110  74.043  1.00  0.00    -0.069 OA 
ENDROOT
BRANCH   2   7
HETATM    7  C   UNL     1      -9.315   4.813  71.758  1.00  0.00    -0.186 A  
HETATM    8  C   UNL     1      -8.281   5.723  71.468  1.00  0.00    -0.119 A  
HETATM    9  C   UNL     1      -7.880   5.970  70.156  1.00  0.00    -0.101 A  
HETATM   10  C   UNL     1      -8.480   5.284  69.095  1.00  0.00    -0.098 A  
HETATM   11  C   UNL     1      -9.881   4.106  70.689  1.00  0.00    -0.249 A  
HETATM   12  C   UNL     1      -9.444   4.313  69.384  1.00  0.00    -0.256 A  
BRANCH  10  13
HETATM   13  C   UNL     1      -8.151   5.639  67.664  1.00  0.00    -0.101 C  
HETATM   14  O   UNL     1      -9.259   6.362  67.143  1.00  0.00    -0.120 OA 
HETATM   15  H   UNL     1      -9.053   6.585  66.243  1.00  0.00     0.000 HD 
BRANCH  13  16
HETATM   16  C   UNL     1      -6.824   6.418  67.600  1.00  0.00    -0.076 C  
BRANCH  16  17
HETATM   17  C   UNL     1      -6.914   7.795  66.937  1.00  0.00    -0.073 C  
BRANCH  17  18
HETATM   18  C   UNL     1      -7.176   8.960  67.901  1.00  0.00    -0.083 C  
BRANCH  18  19
HETATM   19  N   UNL     1      -8.606   9.277  68.056  1.00  0.00    -0.121 NA 
HETATM   20  C   UNL     1      -8.869  10.313  69.061  1.00  0.00    -0.168 C  
HETATM   21  C   UNL     1      -8.500  11.732  68.616  1.00  0.00    -0.068 C  
HETATM   22  C   UNL     1      -9.132  12.167  67.268  1.00  0.00    -0.181 C  
HETATM   23  C   UNL     1     -10.640  12.649  67.389  1.00  0.00    -0.224 C  
HETATM   24  C   UNL     1      -8.862  11.021  66.260  1.00  0.00    -0.187 C  
HETATM   25  C   UNL     1     -11.228  12.964  65.996  1.00  0.00    -0.325 A  
HETATM   26  C   UNL     1     -10.840  13.831  68.380  1.00  0.00    -0.268 A  
HETATM   27  C   UNL     1      -9.241   9.631  66.778  1.00  0.00    -0.149 C  
HETATM   28  O   UNL     1     -11.392  11.544  67.919  1.00  0.00    -0.259 OA 
HETATM   29  C   UNL     1     -11.934  11.976  65.275  1.00  0.00    -0.207 A  
HETATM   30  C   UNL     1      -9.819  14.745  68.705  1.00  0.00    -0.225 A  
HETATM   31  H   UNL     1     -12.294  11.832  67.992  1.00  0.00     0.000 HD 
HETATM   32  C   UNL     1     -10.007  15.735  69.676  1.00  0.00    -0.284 A  
HETATM   33  C   UNL     1     -12.416  12.212  63.986  1.00  0.00    -0.541 A  
HETATM   34  C   UNL     1     -11.232  15.856  70.325  1.00  0.00    -0.388 A  
HETATM   35  C   UNL     1     -12.226  13.454  63.391  1.00  0.00    -0.419 A  
HETATM   36  C   UNL     1     -11.547  14.452  64.083  1.00  0.00    -0.183 A  
HETATM   37  C   UNL     1     -12.277  15.005  69.983  1.00  0.00    -0.373 A  
HETATM   38  C   UNL     1     -11.043  14.207  65.368  1.00  0.00    -0.321 A  
HETATM   39  C   UNL     1     -12.089  14.015  69.014  1.00  0.00    -0.358 A  
ENDBRANCH  18  19
ENDBRANCH  17  18
ENDBRANCH  16  17
ENDBRANCH  13  16
ENDBRANCH  10  13
ENDBRANCH   2   7
TORSDOF 6
ENDMDL
MODEL      100
REMARK 921   NORMALIZED FREE ENERGY PREDICTED BY IDOCK:   -4.90 KCAL/MOL
REMARK 922        TOTAL FREE ENERGY PREDICTED BY IDOCK:   -8.97 KCAL/MOL
REMARK 923 INTER-LIGAND FREE ENERGY PREDICTED BY IDOCK:   -6.30 KCAL/MOL
REMARK 924 INTRA-LIGAND FREE ENERGY PREDICTED BY IDOCK:   -2.67 KCAL/MOL
REMARK 927      BINDING AFFINITY PREDICTED BY RF-SCORE:    0.00 PKD
ROOT
HETATM    1  C   UNL     1      -8.146   6.752  63.164  1.00  0.00    -0.023 C  
HETATM    2  C   UNL     1      -7.384   7.739  64.078  1.00  0.00    -0.098 C  
HETATM    3  C   UNL     1      -8.061   9.119  63.949  1.00  0.00    -0.155 C  
HETATM    4  O   UNL     1      -9.051   9.351  63.268  1.00  0.00    -0.204 OA 
HETATM    5  C   UNL     1      -5.940   7.893  63.563  1.00  0.00    -0.062 C  
HETATM    6  O   UNL     1      -7.468  10.107  64.666  1.00  0.00    -0.141 OA 
ENDROOT
BRANCH   2   7
HETATM    7  C   UNL     1      -7.399   7.163  65.502  1.00  0.00    -0.079 A  
HETATM    8  C   UNL     1      -8.585   6.619  66.028  1.00  0.00    -0.152 A  
HETATM    9  C   UNL     1      -8.674   6.232  67.365  1.00  0.00    -0.105 A  
HETATM   10  C   UNL     1      -7.563   6.347  68.207  1.00  0.00    -0.103 A  
HETATM   11  C   UNL     1      -6.284   7.238  66.346  1.00  0.00    -0.040 A  
HETATM   12  C   UNL     1      -6.356   6.803  67.666  1.00  0.00    -0.044 A  
BRANCH  10  13
HETATM   13  C   UNL     1      -7.684   6.061  69.685  1.00  0.00    -0.097 C  
HETATM   14  O   UNL     1      -7.077   7.145  70.376  1.00  0.00    -0.063 OA 
HETATM   15  H   UNL     1      -7.153   6.965  71.306  1.00  0.00     0.000 HD 
BRANCH  13  16
HETATM   16  C   UNL     1      -9.161   5.839  70.065  1.00  0.00    -0.157 C  
BRANCH  16  17
HETATM   17  C   UNL     1      -9.822   7.008  70.799  1.00  0.00    -0.190 C  
BRANCH  17  18
HETATM   18  C   UNL     1     -10.932   7.720  70.013  1.00  0.00    -0.214 C  
BRANCH  18  19
HETATM   19  N   UNL     1     -10.908   9.184  70.167  1.00  0.00    -0.234 NA 
HETATM   20  C   UNL     1      -9.554   9.738  70.274  1.00  0.00    -0.208 C  
HETATM   21  C   UNL     1      -8.774   9.763  68.955  1.00  0.00    -0.148 C  
HETATM   22  C   UNL     1      -9.513  10.465  67.786  1.00  0.00    -0.159 C  
HETATM   23  C   UNL     1      -9.412  12.050  67.819  1.00  0.00    -0.190 C  
HETATM   24  C   UNL     1     -10.946   9.874  67.746  1.00  0.00    -0.278 C  
HETATM   25  C   UNL     1     -10.257  12.676  66.688  1.00  0.00    -0.246 A  
HETATM   26  C   UNL     1      -7.951  12.582  67.811  1.00  0.00    -0.163 A  
HETATM   27  C   UNL     1     -11.657   9.868  69.102  1.00  0.00     0.122 C  
HETATM   28  O   UNL     1      -9.994  12.481  69.062  1.00  0.00    -0.420 OA 
HETATM   29  C   UNL     1     -11.591  13.072  66.924  1.00  0.00    -0.419 A  
HETATM   30  C   UNL     1      -6.869  11.856  67.277  1.00  0.00    -0.142 A  
HETATM   31  H   UNL     1      -9.934  13.429  69.082  1.00  0.00     0.000 HD 
HETATM   32  C   UNL     1      -5.554  12.325  67.378  1.00  0.00    -0.134 A  
HETATM   33  C   UNL     1     -12.399  13.577  65.903  1.00  0.00    -0.507 A  
HETATM   34  C   UNL     1      -5.291  13.547  67.988  1.00  0.00    -0.114 A  
HETATM   35  C   UNL     1     -11.884  13.722  64.620  1.00  0.00    -0.427 A  
HETATM   36  C   UNL     1     -10.568  13.355  64.360  1.00  0.00    -0.423 A  
HETATM   37  C   UNL     1      -6.345  14.314  68.472  1.00  0.00    -0.092 A  
HETATM   38  C   UNL     1      -9.764  12.827  65.380  1.00  0.00    -0.061 A  
HETATM   39  C   UNL     1      -7.659  13.846  68.372  1.00  0.00    -0.130 A  
ENDBRANCH  18  19
ENDBRANCH  17  18
ENDBRANCH  16  17
ENDBRANCH  13  16
ENDBRANCH  10  13
ENDBRANCH   2   7
TORSDOF 6
ENDMDL
MODEL      101
REMARK 921   NORMALIZED FREE ENERGY PREDICTED BY IDOCK:   -4.88 KCAL/MOL
REMARK 922        TOTAL FREE ENERGY PREDICTED BY IDOCK:   -8.94 KCAL/MOL
REMARK 923 INTER-LIGAND FREE ENERGY PREDICTED BY IDOCK:   -8.08 KCAL/MOL
REMARK 924 INTRA-LIGAND FREE ENERGY PREDICTED BY IDOCK:   -0.86 KCAL/MOL
REMARK 927      BINDING AFFINITY PREDICTED BY RF-SCORE:    0.00 PKD
ROOT
HETATM    1  C   UNL     1     -10.193  20.245  68.143  1.00  0.00    -0.399 C  
HETATM    2  C   UNL     1      -9.702  19.343  66.988  1.00  0.00    -0.425 C  
HETATM    3  C   UNL     1      -8.247  19.740  66.666  1.00  0.00    -0.323 C  
HETATM    4  O   UNL     1      -7.606  20.594  67.265  1.00  0.00    -0.329 OA 
HETATM    5  C   UNL     1     -10.540  19.633  65.728  1.00  0.00    -0.537 C  
HETATM    6  O   UNL     1      -7.692  19.059  65.631  1.00  0.00    -0.465 OA 
ENDROOT
BRANCH   2   7
HETATM    7  C   UNL     1      -9.870  17.882  67.432  1.00  0.00    -0.305 A  
HETATM    8  C   UNL     1     -10.595  16.981  66.629  1.00  0.00    -0.182 A  
HETATM    9  C   UNL     1     -10.899  15.696  67.075  1.00  0.00    -0.294 A  
HETATM   10  C   UNL     1     -10.452  15.261  68.327  1.00  0.00    -0.244 A  
HETATM   11  C   UNL     1      -9.398  17.421  68.667  1.00  0.00    -0.267 A  
HETATM   12  C   UNL     1      -9.655  16.120  69.090  1.00  0.00    -0.249 A  
BRANCH  10  13
HETATM   13  C   UNL     1     -10.888  13.924  68.878  1.00  0.00    -0.255 C  
HETATM   14  O   UNL     1     -12.308  13.895  68.843  1.00  0.00    -0.468 OA 
HETATM   15  H   UNL     1     -12.583  13.054  69.191  1.00  0.00     0.000 HD 
BRANCH  13  16
HETATM   16  C   UNL     1     -10.230  12.780  68.083  1.00  0.00    -0.241 C  
BRANCH  16  17
HETATM   17  C   UNL     1     -11.205  11.754  67.499  1.00  0.00    -0.354 C  
BRANCH  17  18
HETATM   18  C   UNL     1     -11.193  10.385  68.193  1.00  0.00    -0.268 C  
BRANCH  18  19
HETATM   19  N   UNL     1      -9.842   9.819  68.343  1.00  0.00    -0.149 NA 
HETATM   20  C   UNL     1      -9.822   8.534  69.049  1.00  0.00    -0.183 C  
HETATM   21  C   UNL     1     -10.335   7.350  68.223  1.00  0.00    -0.231 C  
HETATM   22  C   UNL     1      -9.639   7.179  66.847  1.00  0.00    -0.216 C  
HETATM   23  C   UNL     1      -8.230   6.451  66.924  1.00  0.00    -0.110 C  
HETATM   24  C   UNL     1      -9.652   8.571  66.165  1.00  0.00    -0.276 C  
HETATM   25  C   UNL     1      -7.557   6.412  65.534  1.00  0.00    -0.087 A  
HETATM   26  C   UNL     1      -8.291   5.040  67.575  1.00  0.00    -0.105 A  
HETATM   27  C   UNL     1      -9.139   9.707  67.055  1.00  0.00    -0.135 C  
HETATM   28  O   UNL     1      -7.390   7.254  67.772  1.00  0.00    -0.088 OA 
HETATM   29  C   UNL     1      -6.657   7.428  65.145  1.00  0.00    -0.044 A  
HETATM   30  C   UNL     1      -9.454   4.245  67.584  1.00  0.00    -0.217 A  
HETATM   31  H   UNL     1      -6.547   6.818  67.818  1.00  0.00     0.000 HD 
HETATM   32  C   UNL     1      -9.497   3.024  68.267  1.00  0.00    -0.216 A  
HETATM   33  C   UNL     1      -6.087   7.455  63.870  1.00  0.00    -0.048 A  
HETATM   34  C   UNL     1      -8.370   2.552  68.931  1.00  0.00    -0.083 A  
HETATM   35  C   UNL     1      -6.385   6.451  62.956  1.00  0.00    -0.033 A  
HETATM   36  C   UNL     1      -7.258   5.428  63.316  1.00  0.00    -0.048 A  
HETATM   37  C   UNL     1      -7.190   3.287  68.890  1.00  0.00    -0.049 A  
HETATM   38  C   UNL     1      -7.847   5.414  64.588  1.00  0.00    -0.105 A  
HETATM   39  C   UNL     1      -7.146   4.508  68.209  1.00  0.00    -0.057 A  
ENDBRANCH  18  19
ENDBRANCH  17  18
ENDBRANCH  16  17
ENDBRANCH  13  16
ENDBRANCH  10  13
ENDBRANCH   2   7
TORSDOF 6
ENDMDL
MODEL      102
REMARK 921   NORMALIZED FREE ENERGY PREDICTED BY IDOCK:   -4.86 KCAL/MOL
REMARK 922        TOTAL FREE ENERGY PREDICTED BY IDOCK:   -8.92 KCAL/MOL
REMARK 923 INTER-LIGAND FREE ENERGY PREDICTED BY IDOCK:   -8.61 KCAL/MOL
REMARK 924 INTRA-LIGAND FREE ENERGY PREDICTED BY IDOCK:   -0.31 KCAL/MOL
REMARK 927      BINDING AFFINITY PREDICTED BY RF-SCORE:    0.00 PKD
ROOT
HETATM    1  C   UNL     1     -11.831   9.368  71.813  1.00  0.00    -0.452 C  
HETATM    2  C   UNL     1     -10.799   8.392  71.202  1.00  0.00    -0.286 C  
HETATM    3  C   UNL     1     -11.387   6.969  71.293  1.00  0.00    -0.274 C  
HETATM    4  O   UNL     1     -12.495   6.697  71.736  1.00  0.00    -0.352 OA 
HETATM    5  C   UNL     1      -9.519   8.409  72.058  1.00  0.00    -0.339 C  
HETATM    6  O   UNL     1     -10.567   5.990  70.832  1.00  0.00    -0.226 OA 
ENDROOT
BRANCH   2   7
HETATM    7  C   UNL     1     -10.506   8.860  69.769  1.00  0.00    -0.217 A  
HETATM    8  C   UNL     1     -10.983   8.115  68.674  1.00  0.00     0.161 A  
HETATM    9  C   UNL     1     -10.604   8.423  67.368  1.00  0.00    -0.313 A  
HETATM   10  C   UNL     1      -9.763   9.511  67.117  1.00  0.00    -0.221 A  
HETATM   11  C   UNL     1      -9.694   9.969  69.500  1.00  0.00    -0.253 A  
HETATM   12  C   UNL     1      -9.359  10.309  68.193  1.00  0.00    -0.144 A  
BRANCH  10  13
HETATM   13  C   UNL     1      -9.236   9.773  65.725  1.00  0.00    -0.191 C  
HETATM   14  O   UNL     1      -9.302   8.546  65.011  1.00  0.00    -0.394 OA 
HETATM   15  H   UNL     1      -8.971   8.711  64.136  1.00  0.00     0.000 HD 
BRANCH  13  16
HETATM   16  C   UNL     1     -10.030  10.915  65.062  1.00  0.00    -0.356 C  
BRANCH  16  17
HETATM   17  C   UNL     1     -11.366  11.247  65.732  1.00  0.00     0.022 C  
BRANCH  17  18
HETATM   18  C   UNL     1     -11.636  12.745  65.926  1.00  0.00    -0.382 C  
BRANCH  18  19
HETATM   19  N   UNL     1     -10.536  13.602  65.450  1.00  0.00    -0.304 NA 
HETATM   20  C   UNL     1     -10.907  15.016  65.331  1.00  0.00    -0.364 C  
HETATM   21  C   UNL     1     -11.036  15.751  66.669  1.00  0.00    -0.179 C  
HETATM   22  C   UNL     1      -9.791  15.634  67.587  1.00  0.00    -0.227 C  
HETATM   23  C   UNL     1      -8.614  16.630  67.209  1.00  0.00    -0.191 C  
HETATM   24  C   UNL     1      -9.420  14.130  67.643  1.00  0.00    -0.213 C  
HETATM   25  C   UNL     1      -7.377  16.381  68.099  1.00  0.00    -0.151 A  
HETATM   26  C   UNL     1      -9.037  18.127  67.215  1.00  0.00    -0.252 A  
HETATM   27  C   UNL     1      -9.324  13.458  66.271  1.00  0.00    -0.121 C  
HETATM   28  O   UNL     1      -8.225  16.324  65.858  1.00  0.00    -0.183 OA 
HETATM   29  C   UNL     1      -6.351  15.509  67.673  1.00  0.00    -0.181 A  
HETATM   30  C   UNL     1     -10.109  18.621  67.983  1.00  0.00    -0.413 A  
HETATM   31  H   UNL     1      -7.521  16.920  65.631  1.00  0.00     0.000 HD 
HETATM   32  C   UNL     1     -10.522  19.955  67.886  1.00  0.00    -0.505 A  
HETATM   33  C   UNL     1      -5.256  15.212  68.486  1.00  0.00    -0.100 A  
HETATM   34  C   UNL     1      -9.854  20.836  67.041  1.00  0.00    -0.339 A  
HETATM   35  C   UNL     1      -5.145  15.799  69.742  1.00  0.00    -0.107 A  
HETATM   36  C   UNL     1      -6.133  16.674  70.183  1.00  0.00    -0.061 A  
HETATM   37  C   UNL     1      -8.756  20.391  66.314  1.00  0.00    -0.099 A  
HETATM   38  C   UNL     1      -7.244  16.954  69.375  1.00  0.00    -0.087 A  
HETATM   39  C   UNL     1      -8.343  19.058  66.410  1.00  0.00    -0.315 A  
ENDBRANCH  18  19
ENDBRANCH  17  18
ENDBRANCH  16  17
ENDBRANCH  13  16
ENDBRANCH  10  13
ENDBRANCH   2   7
TORSDOF 6
ENDMDL
MODEL      103
REMARK 921   NORMALIZED FREE ENERGY PREDICTED BY IDOCK:   -4.81 KCAL/MOL
REMARK 922        TOTAL FREE ENERGY PREDICTED BY IDOCK:   -8.86 KCAL/MOL
REMARK 923 INTER-LIGAND FREE ENERGY PREDICTED BY IDOCK:   -5.88 KCAL/MOL
REMARK 924 INTRA-LIGAND FREE ENERGY PREDICTED BY IDOCK:   -2.98 KCAL/MOL
REMARK 927      BINDING AFFINITY PREDICTED BY RF-SCORE:    0.00 PKD
ROOT
HETATM    1  C   UNL     1      -9.381   7.218  71.179  1.00  0.00    -0.156 C  
HETATM    2  C   UNL     1     -10.641   7.823  70.516  1.00  0.00    -0.226 C  
HETATM    3  C   UNL     1     -11.467   8.515  71.619  1.00  0.00    -0.298 C  
HETATM    4  O   UNL     1     -11.137   8.592  72.795  1.00  0.00    -0.258 OA 
HETATM    5  C   UNL     1     -11.509   6.684  69.946  1.00  0.00    -0.414 C  
HETATM    6  O   UNL     1     -12.636   9.057  71.192  1.00  0.00    -0.293 OA 
ENDROOT
BRANCH   2   7
HETATM    7  C   UNL     1     -10.173   8.766  69.397  1.00  0.00    -0.210 A  
HETATM    8  C   UNL     1     -10.587   8.543  68.071  1.00  0.00    -0.197 A  
HETATM    9  C   UNL     1     -10.059   9.282  67.013  1.00  0.00    -0.313 A  
HETATM   10  C   UNL     1      -9.124  10.293  67.258  1.00  0.00    -0.150 A  
HETATM   11  C   UNL     1      -9.264   9.805  69.632  1.00  0.00    -0.239 A  
HETATM   12  C   UNL     1      -8.777  10.579  68.583  1.00  0.00    -0.143 A  
BRANCH  10  13
HETATM   13  C   UNL     1      -8.443  11.007  66.114  1.00  0.00    -0.168 C  
HETATM   14  O   UNL     1      -9.138  12.229  65.905  1.00  0.00    -0.421 OA 
HETATM   15  H   UNL     1      -8.711  12.678  65.185  1.00  0.00     0.000 HD 
BRANCH  13  16
HETATM   16  C   UNL     1      -6.945  11.196  66.420  1.00  0.00    -0.093 C  
BRANCH  16  17
HETATM   17  C   UNL     1      -6.050  10.022  66.014  1.00  0.00    -0.077 C  
BRANCH  17  18
HETATM   18  C   UNL     1      -5.476   9.212  67.184  1.00  0.00    -0.041 C  
BRANCH  18  19
HETATM   19  N   UNL     1      -5.284   7.787  66.868  1.00  0.00    -0.026 NA 
HETATM   20  C   UNL     1      -5.566   6.895  67.997  1.00  0.00    -0.020 C  
HETATM   21  C   UNL     1      -7.056   6.727  68.314  1.00  0.00    -0.086 C  
HETATM   22  C   UNL     1      -7.924   6.295  67.103  1.00  0.00    -0.109 C  
HETATM   23  C   UNL     1      -7.866   4.740  66.790  1.00  0.00    -0.099 C  
HETATM   24  C   UNL     1      -7.555   7.241  65.931  1.00  0.00    -0.090 C  
HETATM   25  C   UNL     1      -8.669   4.407  65.513  1.00  0.00    -0.123 A  
HETATM   26  C   UNL     1      -8.291   3.845  67.989  1.00  0.00    -0.100 A  
HETATM   27  C   UNL     1      -6.050   7.371  65.683  1.00  0.00    -0.038 C  
HETATM   28  O   UNL     1      -6.491   4.420  66.513  1.00  0.00    -0.036 OA 
HETATM   29  C   UNL     1      -8.031   4.363  64.255  1.00  0.00    -0.091 A  
HETATM   30  C   UNL     1      -9.150   4.288  69.014  1.00  0.00    -0.187 A  
HETATM   31  H   UNL     1      -6.455   3.489  66.325  1.00  0.00     0.000 HD 
HETATM   32  C   UNL     1      -9.430   3.488  70.127  1.00  0.00    -0.252 A  
HETATM   33  C   UNL     1      -8.745   4.133  63.078  1.00  0.00    -0.109 A  
HETATM   34  C   UNL     1      -8.883   2.213  70.230  1.00  0.00    -0.131 A  
HETATM   35  C   UNL     1     -10.117   3.917  63.129  1.00  0.00    -0.166 A  
HETATM   36  C   UNL     1     -10.772   3.939  64.357  1.00  0.00    -0.200 A  
HETATM   37  C   UNL     1      -8.078   1.726  69.205  1.00  0.00    -0.060 A  
HETATM   38  C   UNL     1     -10.058   4.193  65.537  1.00  0.00    -0.198 A  
HETATM   39  C   UNL     1      -7.797   2.526  68.092  1.00  0.00    -0.059 A  
ENDBRANCH  18  19
ENDBRANCH  17  18
ENDBRANCH  16  17
ENDBRANCH  13  16
ENDBRANCH  10  13
ENDBRANCH   2   7
TORSDOF 6
ENDMDL
MODEL      104
REMARK 921   NORMALIZED FREE ENERGY PREDICTED BY IDOCK:   -4.73 KCAL/MOL
REMARK 922        TOTAL FREE ENERGY PREDICTED BY IDOCK:   -8.75 KCAL/MOL
REMARK 923 INTER-LIGAND FREE ENERGY PREDICTED BY IDOCK:   -6.93 KCAL/MOL
REMARK 924 INTRA-LIGAND FREE ENERGY PREDICTED BY IDOCK:   -1.82 KCAL/MOL
REMARK 927      BINDING AFFINITY PREDICTED BY RF-SCORE:    0.00 PKD
ROOT
HETATM    1  C   UNL     1      -8.802   9.348  63.563  1.00  0.00    -0.198 C  
HETATM    2  C   UNL     1      -7.958   9.529  64.845  1.00  0.00    -0.121 C  
HETATM    3  C   UNL     1      -6.623  10.187  64.441  1.00  0.00    -0.116 C  
HETATM    4  O   UNL     1      -6.329  10.532  63.304  1.00  0.00    -0.123 OA 
HETATM    5  C   UNL     1      -7.622   8.144  65.430  1.00  0.00    -0.089 C  
HETATM    6  O   UNL     1      -5.751  10.369  65.466  1.00  0.00    -0.090 OA 
ENDROOT
BRANCH   2   7
HETATM    7  C   UNL     1      -8.789  10.355  65.838  1.00  0.00    -0.179 A  
HETATM    8  C   UNL     1      -8.396  10.437  67.188  1.00  0.00    -0.126 A  
HETATM    9  C   UNL     1      -9.209  11.045  68.143  1.00  0.00    -0.165 A  
HETATM   10  C   UNL     1     -10.426  11.624  67.768  1.00  0.00    -0.213 A  
HETATM   11  C   UNL     1      -9.992  10.970  65.471  1.00  0.00    -0.308 A  
HETATM   12  C   UNL     1     -10.779  11.625  66.414  1.00  0.00    -0.316 A  
BRANCH  10  13
HETATM   13  C   UNL     1     -11.376  12.163  68.810  1.00  0.00    -0.288 C  
HETATM   14  O   UNL     1     -12.112  13.219  68.206  1.00  0.00    -0.333 OA 
HETATM   15  H   UNL     1     -12.709  13.559  68.862  1.00  0.00     0.000 HD 
BRANCH  13  16
HETATM   16  C   UNL     1     -12.264  11.030  69.359  1.00  0.00    -0.329 C  
BRANCH  16  17
HETATM   17  C   UNL     1     -12.341  10.950  70.886  1.00  0.00    -0.501 C  
BRANCH  17  18
HETATM   18  C   UNL     1     -12.386   9.526  71.456  1.00  0.00    -0.380 C  
BRANCH  18  19
HETATM   19  N   UNL     1     -11.112   9.099  72.058  1.00  0.00    -0.313 NA 
HETATM   20  C   UNL     1     -11.169   7.762  72.658  1.00  0.00    -0.381 C  
HETATM   21  C   UNL     1     -11.192   6.613  71.644  1.00  0.00    -0.306 C  
HETATM   22  C   UNL     1     -10.038   6.650  70.607  1.00  0.00    -0.205 C  
HETATM   23  C   UNL     1      -8.662   6.075  71.154  1.00  0.00    -0.132 C  
HETATM   24  C   UNL     1      -9.997   8.092  70.038  1.00  0.00    -0.191 C  
HETATM   25  C   UNL     1      -7.542   6.242  70.103  1.00  0.00    -0.096 A  
HETATM   26  C   UNL     1      -8.758   4.610  71.667  1.00  0.00    -0.135 A  
HETATM   27  C   UNL     1      -9.991   9.186  71.109  1.00  0.00    -0.307 C  
HETATM   28  O   UNL     1      -8.293   6.880  72.288  1.00  0.00    -0.105 OA 
HETATM   29  C   UNL     1      -6.709   7.382  70.118  1.00  0.00    -0.050 A  
HETATM   30  C   UNL     1      -9.730   3.697  71.215  1.00  0.00    -0.239 A  
HETATM   31  H   UNL     1      -7.470   6.536  72.615  1.00  0.00     0.000 HD 
HETATM   32  C   UNL     1      -9.846   2.419  71.773  1.00  0.00    -0.228 A  
HETATM   33  C   UNL     1      -5.735   7.592  69.140  1.00  0.00    -0.026 A  
HETATM   34  C   UNL     1      -8.974   2.011  72.776  1.00  0.00    -0.079 A  
HETATM   35  C   UNL     1      -5.552   6.653  68.130  1.00  0.00    -0.012 A  
HETATM   36  C   UNL     1      -6.349   5.513  68.098  1.00  0.00    -0.042 A  
HETATM   37  C   UNL     1      -7.966   2.870  73.203  1.00  0.00    -0.060 A  
HETATM   38  C   UNL     1      -7.342   5.314  69.068  1.00  0.00    -0.066 A  
HETATM   39  C   UNL     1      -7.850   4.147  72.646  1.00  0.00    -0.080 A  
ENDBRANCH  18  19
ENDBRANCH  17  18
ENDBRANCH  16  17
ENDBRANCH  13  16
ENDBRANCH  10  13
ENDBRANCH   2   7
TORSDOF 6
ENDMDL
MODEL      105
REMARK 921   NORMALIZED FREE ENERGY PREDICTED BY IDOCK:   -4.73 KCAL/MOL
REMARK 922        TOTAL FREE ENERGY PREDICTED BY IDOCK:   -8.75 KCAL/MOL
REMARK 923 INTER-LIGAND FREE ENERGY PREDICTED BY IDOCK:   -7.74 KCAL/MOL
REMARK 924 INTRA-LIGAND FREE ENERGY PREDICTED BY IDOCK:   -1.00 KCAL/MOL
REMARK 927      BINDING AFFINITY PREDICTED BY RF-SCORE:    0.00 PKD
ROOT
HETATM    1  C   UNL     1      -9.420   9.922  69.141  1.00  0.00    -0.201 C  
HETATM    2  C   UNL     1      -8.833   9.607  67.746  1.00  0.00    -0.125 C  
HETATM    3  C   UNL     1      -8.947   8.085  67.520  1.00  0.00    -0.138 C  
HETATM    4  O   UNL     1      -9.456   7.298  68.307  1.00  0.00    -0.141 OA 
HETATM    5  C   UNL     1      -7.332   9.955  67.739  1.00  0.00    -0.089 C  
HETATM    6  O   UNL     1      -8.425   7.649  66.346  1.00  0.00    -0.124 OA 
ENDROOT
BRANCH   2   7
HETATM    7  C   UNL     1      -9.595  10.453  66.716  1.00  0.00    -0.209 A  
HETATM    8  C   UNL     1     -10.743  11.170  67.106  1.00  0.00    -0.305 A  
HETATM    9  C   UNL     1     -11.544  11.819  66.168  1.00  0.00    -0.215 A  
HETATM   10  C   UNL     1     -11.199  11.800  64.812  1.00  0.00    -0.333 A  
HETATM   11  C   UNL     1      -9.242  10.473  65.361  1.00  0.00    -0.229 A  
HETATM   12  C   UNL     1     -10.012  11.165  64.431  1.00  0.00    -0.354 A  
BRANCH  10  13
HETATM   13  C   UNL     1     -12.129  12.380  63.773  1.00  0.00    -0.529 C  
HETATM   14  O   UNL     1     -13.455  12.045  64.156  1.00  0.00    -0.672 OA 
HETATM   15  H   UNL     1     -14.040  12.410  63.502  1.00  0.00     0.000 HD 
BRANCH  13  16
HETATM   16  C   UNL     1     -11.893  13.897  63.636  1.00  0.00    -0.128 C  
BRANCH  16  17
HETATM   17  C   UNL     1     -12.592  14.757  64.693  1.00  0.00    -0.116 C  
BRANCH  17  18
HETATM   18  C   UNL     1     -11.749  15.060  65.939  1.00  0.00    -0.098 C  
BRANCH  18  19
HETATM   19  N   UNL     1     -10.315  15.223  65.647  1.00  0.00    -0.336 NA 
HETATM   20  C   UNL     1      -9.841  16.602  65.801  1.00  0.00    -0.211 C  
HETATM   21  C   UNL     1      -9.700  17.063  67.256  1.00  0.00    -0.253 C  
HETATM   22  C   UNL     1      -8.834  16.131  68.143  1.00  0.00    -0.184 C  
HETATM   23  C   UNL     1      -7.270  16.350  67.974  1.00  0.00    -0.136 C  
HETATM   24  C   UNL     1      -9.350  14.688  67.909  1.00  0.00    -0.198 C  
HETATM   25  C   UNL     1      -6.478  15.319  68.808  1.00  0.00    -0.097 A  
HETATM   26  C   UNL     1      -6.808  17.806  68.268  1.00  0.00    -0.213 A  
HETATM   27  C   UNL     1      -9.479  14.303  66.433  1.00  0.00    -0.275 C  
HETATM   28  O   UNL     1      -6.959  16.096  66.593  1.00  0.00    -0.211 OA 
HETATM   29  C   UNL     1      -6.052  14.104  68.230  1.00  0.00    -0.118 A  
HETATM   30  C   UNL     1      -7.518  18.684  69.109  1.00  0.00    -0.177 A  
HETATM   31  H   UNL     1      -6.024  16.227  66.491  1.00  0.00     0.000 HD 
HETATM   32  C   UNL     1      -7.125  20.018  69.270  1.00  0.00    -0.209 A  
HETATM   33  C   UNL     1      -5.395  13.125  68.978  1.00  0.00    -0.069 A  
HETATM   34  C   UNL     1      -5.994  20.499  68.617  1.00  0.00    -0.366 A  
HETATM   35  C   UNL     1      -5.127  13.345  70.324  1.00  0.00    -0.098 A  
HETATM   36  C   UNL     1      -5.522  14.539  70.919  1.00  0.00    -0.156 A  
HETATM   37  C   UNL     1      -5.240  19.639  67.826  1.00  0.00    -0.180 A  
HETATM   38  C   UNL     1      -6.201  15.512  70.172  1.00  0.00    -0.099 A  
HETATM   39  C   UNL     1      -5.633  18.307  67.664  1.00  0.00    -0.150 A  
ENDBRANCH  18  19
ENDBRANCH  17  18
ENDBRANCH  16  17
ENDBRANCH  13  16
ENDBRANCH  10  13
ENDBRANCH   2   7
TORSDOF 6
ENDMDL
MODEL      106
REMARK 921   NORMALIZED FREE ENERGY PREDICTED BY IDOCK:   -4.73 KCAL/MOL
REMARK 922        TOTAL FREE ENERGY PREDICTED BY IDOCK:   -8.74 KCAL/MOL
REMARK 923 INTER-LIGAND FREE ENERGY PREDICTED BY IDOCK:   -6.96 KCAL/MOL
REMARK 924 INTRA-LIGAND FREE ENERGY PREDICTED BY IDOCK:   -1.78 KCAL/MOL
REMARK 927      BINDING AFFINITY PREDICTED BY RF-SCORE:    0.00 PKD
ROOT
HETATM    1  C   UNL     1     -10.059   7.279  73.904  1.00  0.00    -0.312 C  
HETATM    2  C   UNL     1     -10.194   7.057  72.379  1.00  0.00    -0.210 C  
HETATM    3  C   UNL     1     -11.227   5.933  72.156  1.00  0.00    -0.287 C  
HETATM    4  O   UNL     1     -11.847   5.367  73.047  1.00  0.00    -0.236 OA 
HETATM    5  C   UNL     1      -8.849   6.552  71.821  1.00  0.00    -0.138 C  
HETATM    6  O   UNL     1     -11.418   5.593  70.856  1.00  0.00    -0.059 OA 
ENDROOT
BRANCH   2   7
HETATM    7  C   UNL     1     -10.580   8.400  71.744  1.00  0.00    -0.352 A  
HETATM    8  C   UNL     1     -11.917   8.840  71.786  1.00  0.00    -0.418 A  
HETATM    9  C   UNL     1     -12.329   9.974  71.087  1.00  0.00    -0.477 A  
HETATM   10  C   UNL     1     -11.404  10.723  70.351  1.00  0.00    -0.342 A  
HETATM   11  C   UNL     1      -9.659   9.180  71.034  1.00  0.00    -0.350 A  
HETATM   12  C   UNL     1     -10.059  10.341  70.379  1.00  0.00     0.095 A  
BRANCH  10  13
HETATM   13  C   UNL     1     -11.861  11.870  69.481  1.00  0.00    -0.331 C  
HETATM   14  O   UNL     1     -11.075  13.002  69.828  1.00  0.00    -0.480 OA 
HETATM   15  H   UNL     1     -11.362  13.724  69.281  1.00  0.00     0.000 HD 
BRANCH  13  16
HETATM   16  C   UNL     1     -11.758  11.483  67.993  1.00  0.00    -0.343 C  
BRANCH  16  17
HETATM   17  C   UNL     1     -10.573  12.099  67.246  1.00  0.00    -0.255 C  
BRANCH  17  18
HETATM   18  C   UNL     1      -9.441  11.118  66.911  1.00  0.00    -0.185 C  
BRANCH  18  19
HETATM   19  N   UNL     1      -9.923   9.824  66.400  1.00  0.00    -0.233 NA 
HETATM   20  C   UNL     1      -9.242   9.388  65.177  1.00  0.00    -0.225 C  
HETATM   21  C   UNL     1      -7.811   8.882  65.396  1.00  0.00    -0.102 C  
HETATM   22  C   UNL     1      -7.682   7.769  66.468  1.00  0.00    -0.097 C  
HETATM   23  C   UNL     1      -8.061   6.320  65.941  1.00  0.00    -0.123 C  
HETATM   24  C   UNL     1      -8.453   8.263  67.719  1.00  0.00    -0.131 C  
HETATM   25  C   UNL     1      -8.008   5.288  67.089  1.00  0.00    -0.101 A  
HETATM   26  C   UNL     1      -7.221   5.862  64.715  1.00  0.00    -0.063 A  
HETATM   27  C   UNL     1      -9.868   8.767  67.421  1.00  0.00    -0.194 C  
HETATM   28  O   UNL     1      -9.428   6.380  65.497  1.00  0.00    -0.364 OA 
HETATM   29  C   UNL     1      -9.169   4.978  67.829  1.00  0.00    -0.131 A  
HETATM   30  C   UNL     1      -5.933   6.358  64.434  1.00  0.00    -0.023 A  
HETATM   31  H   UNL     1      -9.655   5.513  65.182  1.00  0.00     0.000 HD 
HETATM   32  C   UNL     1      -5.250   5.997  63.267  1.00  0.00    -0.017 A  
HETATM   33  C   UNL     1      -9.135   4.101  68.915  1.00  0.00    -0.186 A  
HETATM   34  C   UNL     1      -5.825   5.106  62.366  1.00  0.00    -0.014 A  
HETATM   35  C   UNL     1      -7.940   3.491  69.277  1.00  0.00    -0.057 A  
HETATM   36  C   UNL     1      -6.781   3.766  68.557  1.00  0.00    -0.046 A  
HETATM   37  C   UNL     1      -7.070   4.555  62.645  1.00  0.00    -0.039 A  
HETATM   38  C   UNL     1      -6.811   4.663  67.481  1.00  0.00    -0.059 A  
HETATM   39  C   UNL     1      -7.754   4.916  63.811  1.00  0.00    -0.076 A  
ENDBRANCH  18  19
ENDBRANCH  17  18
ENDBRANCH  16  17
ENDBRANCH  13  16
ENDBRANCH  10  13
ENDBRANCH   2   7
TORSDOF 6
ENDMDL
MODEL      107
REMARK 921   NORMALIZED FREE ENERGY PREDICTED BY IDOCK:   -4.72 KCAL/MOL
REMARK 922        TOTAL FREE ENERGY PREDICTED BY IDOCK:   -8.74 KCAL/MOL
REMARK 923 INTER-LIGAND FREE ENERGY PREDICTED BY IDOCK:   -6.77 KCAL/MOL
REMARK 924 INTRA-LIGAND FREE ENERGY PREDICTED BY IDOCK:   -1.97 KCAL/MOL
REMARK 927      BINDING AFFINITY PREDICTED BY RF-SCORE:    0.00 PKD
ROOT
HETATM    1  C   UNL     1      -7.836   4.993  66.612  1.00  0.00    -0.100 C  
HETATM    2  C   UNL     1      -8.072   3.906  67.686  1.00  0.00    -0.090 C  
HETATM    3  C   UNL     1      -6.796   3.043  67.771  1.00  0.00    -0.049 C  
HETATM    4  O   UNL     1      -5.778   3.235  67.120  1.00  0.00    -0.021 OA 
HETATM    5  C   UNL     1      -9.215   2.981  67.227  1.00  0.00    -0.214 C  
HETATM    6  O   UNL     1      -6.872   2.010  68.648  1.00  0.00    -0.035 OA 
ENDROOT
BRANCH   2   7
HETATM    7  C   UNL     1      -8.437   4.617  68.998  1.00  0.00    -0.088 A  
HETATM    8  C   UNL     1      -7.458   5.349  69.697  1.00  0.00    -0.066 A  
HETATM    9  C   UNL     1      -7.713   5.873  70.963  1.00  0.00    -0.101 A  
HETATM   10  C   UNL     1      -8.972   5.711  71.553  1.00  0.00    -0.148 A  
HETATM   11  C   UNL     1      -9.703   4.495  69.584  1.00  0.00    -0.288 A  
HETATM   12  C   UNL     1      -9.975   5.064  70.824  1.00  0.00    -0.291 A  
BRANCH  10  13
HETATM   13  C   UNL     1      -9.219   6.154  72.975  1.00  0.00    -0.133 C  
HETATM   14  O   UNL     1      -8.219   5.551  73.786  1.00  0.00    -0.111 OA 
HETATM   15  H   UNL     1      -8.375   5.829  74.681  1.00  0.00     0.000 HD 
BRANCH  13  16
HETATM   16  C   UNL     1      -9.233   7.693  73.059  1.00  0.00    -0.256 C  
BRANCH  16  17
HETATM   17  C   UNL     1     -10.402   8.369  72.337  1.00  0.00    -0.399 C  
BRANCH  17  18
HETATM   18  C   UNL     1      -9.995   9.340  71.220  1.00  0.00    -0.271 C  
BRANCH  18  19
HETATM   19  N   UNL     1     -10.567   8.992  69.908  1.00  0.00    -0.223 NA 
HETATM   20  C   UNL     1     -11.275  10.104  69.266  1.00  0.00    -0.196 C  
HETATM   21  C   UNL     1     -10.359  11.191  68.692  1.00  0.00    -0.219 C  
HETATM   22  C   UNL     1      -9.268  10.663  67.723  1.00  0.00    -0.151 C  
HETATM   23  C   UNL     1      -9.792  10.394  66.248  1.00  0.00    -0.218 C  
HETATM   24  C   UNL     1      -8.583   9.467  68.433  1.00  0.00    -0.124 C  
HETATM   25  C   UNL     1      -8.678   9.774  65.376  1.00  0.00    -0.176 A  
HETATM   26  C   UNL     1     -10.426  11.643  65.573  1.00  0.00    -0.321 A  
HETATM   27  C   UNL     1      -9.561   8.431  68.994  1.00  0.00    -0.160 C  
HETATM   28  O   UNL     1     -10.838   9.411  66.349  1.00  0.00     0.030 OA 
HETATM   29  C   UNL     1      -8.560   8.373  65.251  1.00  0.00    -0.177 A  
HETATM   30  C   UNL     1     -10.097  12.964  65.933  1.00  0.00    -0.295 A  
HETATM   31  H   UNL     1     -11.152   9.250  65.466  1.00  0.00     0.000 HD 
HETATM   32  C   UNL     1     -10.761  14.060  65.372  1.00  0.00    -0.344 A  
HETATM   33  C   UNL     1      -7.522   7.785  64.526  1.00  0.00    -0.097 A  
HETATM   34  C   UNL     1     -11.751  13.865  64.414  1.00  0.00    -0.427 A  
HETATM   35  C   UNL     1      -6.585   8.586  63.884  1.00  0.00    -0.076 A  
HETATM   36  C   UNL     1      -6.683   9.970  63.976  1.00  0.00    -0.128 A  
HETATM   37  C   UNL     1     -12.057  12.574  63.996  1.00  0.00    -0.557 A  
HETATM   38  C   UNL     1      -7.713  10.560  64.724  1.00  0.00     0.000 A  
HETATM   39  C   UNL     1     -11.394  11.478  64.557  1.00  0.00    -0.250 A  
ENDBRANCH  18  19
ENDBRANCH  17  18
ENDBRANCH  16  17
ENDBRANCH  13  16
ENDBRANCH  10  13
ENDBRANCH   2   7
TORSDOF 6
ENDMDL
MODEL      108
REMARK 921   NORMALIZED FREE ENERGY PREDICTED BY IDOCK:   -4.71 KCAL/MOL
REMARK 922        TOTAL FREE ENERGY PREDICTED BY IDOCK:   -8.71 KCAL/MOL
REMARK 923 INTER-LIGAND FREE ENERGY PREDICTED BY IDOCK:   -7.09 KCAL/MOL
REMARK 924 INTRA-LIGAND FREE ENERGY PREDICTED BY IDOCK:   -1.62 KCAL/MOL
REMARK 927      BINDING AFFINITY PREDICTED BY RF-SCORE:    0.00 PKD
ROOT
HETATM    1  C   UNL     1     -12.452   9.483  71.247  1.00  0.00    -0.432 C  
HETATM    2  C   UNL     1     -11.365   8.401  71.446  1.00  0.00    -0.317 C  
HETATM    3  C   UNL     1     -11.880   7.095  70.807  1.00  0.00    -0.325 C  
HETATM    4  O   UNL     1     -12.946   6.978  70.217  1.00  0.00     0.257 OA 
HETATM    5  C   UNL     1     -11.191   8.131  72.953  1.00  0.00    -0.312 C  
HETATM    6  O   UNL     1     -11.045   6.033  70.945  1.00  0.00    -0.291 OA 
ENDROOT
BRANCH   2   7
HETATM    7  C   UNL     1     -10.061   8.929  70.830  1.00  0.00    -0.304 A  
HETATM    8  C   UNL     1     -10.089   9.605  69.596  1.00  0.00    -0.242 A  
HETATM    9  C   UNL     1      -8.913   9.958  68.936  1.00  0.00    -0.153 A  
HETATM   10  C   UNL     1      -7.670   9.676  69.514  1.00  0.00    -0.109 A  
HETATM   11  C   UNL     1      -8.811   8.687  71.413  1.00  0.00    -0.276 A  
HETATM   12  C   UNL     1      -7.638   9.086  70.782  1.00  0.00    -0.131 A  
BRANCH  10  13
HETATM   13  C   UNL     1      -6.391   9.929  68.750  1.00  0.00    -0.045 C  
HETATM   14  O   UNL     1      -6.734  10.043  67.376  1.00  0.00    -0.072 OA 
HETATM   15  H   UNL     1      -5.930  10.201  66.896  1.00  0.00     0.000 HD 
BRANCH  13  16
HETATM   16  C   UNL     1      -5.674  11.172  69.310  1.00  0.00    -0.042 C  
BRANCH  16  17
HETATM   17  C   UNL     1      -5.477  12.311  68.306  1.00  0.00    -0.055 C  
BRANCH  17  18
HETATM   18  C   UNL     1      -5.303  13.701  68.934  1.00  0.00    -0.074 C  
BRANCH  18  19
HETATM   19  N   UNL     1      -6.288  14.685  68.453  1.00  0.00    -0.092 NA 
HETATM   20  C   UNL     1      -6.988  14.263  67.235  1.00  0.00     0.129 C  
HETATM   21  C   UNL     1      -8.038  13.169  67.456  1.00  0.00    -0.181 C  
HETATM   22  C   UNL     1      -9.087  13.499  68.550  1.00  0.00    -0.092 C  
HETATM   23  C   UNL     1     -10.256  14.453  68.056  1.00  0.00    -0.228 C  
HETATM   24  C   UNL     1      -8.296  13.977  69.795  1.00  0.00     1.075 C  
HETATM   25  C   UNL     1     -11.197  14.818  69.225  1.00  0.00    -0.303 A  
HETATM   26  C   UNL     1     -11.041  13.897  66.835  1.00  0.00    -0.309 A  
HETATM   27  C   UNL     1      -7.255  15.059  69.496  1.00  0.00    -0.199 C  
HETATM   28  O   UNL     1      -9.640  15.678  67.619  1.00  0.00    -0.218 OA 
HETATM   29  C   UNL     1     -10.984  15.992  69.979  1.00  0.00    -0.365 A  
HETATM   30  C   UNL     1     -11.130  12.524  66.536  1.00  0.00    -0.330 A  
HETATM   31  H   UNL     1     -10.339  16.249  67.324  1.00  0.00     0.000 HD 
HETATM   32  C   UNL     1     -11.762  12.069  65.373  1.00  0.00    -0.317 A  
HETATM   33  C   UNL     1     -11.777  16.310  71.083  1.00  0.00    -0.353 A  
HETATM   34  C   UNL     1     -12.348  12.974  64.495  1.00  0.00    -0.461 A  
HETATM   35  C   UNL     1     -12.823  15.471  71.450  1.00  0.00    -0.531 A  
HETATM   36  C   UNL     1     -13.067  14.313  70.718  1.00  0.00    -0.321 A  
HETATM   37  C   UNL     1     -12.327  14.333  64.792  1.00  0.00    -0.440 A  
HETATM   38  C   UNL     1     -12.256  13.983  69.623  1.00  0.00    -0.383 A  
HETATM   39  C   UNL     1     -11.695  14.787  65.954  1.00  0.00    -0.248 A  
ENDBRANCH  18  19
ENDBRANCH  17  18
ENDBRANCH  16  17
ENDBRANCH  13  16
ENDBRANCH  10  13
ENDBRANCH   2   7
TORSDOF 6
ENDMDL
MODEL      109
REMARK 921   NORMALIZED FREE ENERGY PREDICTED BY IDOCK:   -4.67 KCAL/MOL
REMARK 922        TOTAL FREE ENERGY PREDICTED BY IDOCK:   -8.66 KCAL/MOL
REMARK 923 INTER-LIGAND FREE ENERGY PREDICTED BY IDOCK:   -7.36 KCAL/MOL
REMARK 924 INTRA-LIGAND FREE ENERGY PREDICTED BY IDOCK:   -1.30 KCAL/MOL
REMARK 927      BINDING AFFINITY PREDICTED BY RF-SCORE:    0.00 PKD
ROOT
HETATM    1  C   UNL     1     -13.428   9.153  72.667  1.00  0.00    -0.395 C  
HETATM    2  C   UNL     1     -12.276   8.502  71.867  1.00  0.00    -0.411 C  
HETATM    3  C   UNL     1     -12.862   7.307  71.086  1.00  0.00    -0.286 C  
HETATM    4  O   UNL     1     -14.042   6.983  71.087  1.00  0.00    -0.234 OA 
HETATM    5  C   UNL     1     -11.235   7.934  72.851  1.00  0.00    -0.429 C  
HETATM    6  O   UNL     1     -11.951   6.603  70.367  1.00  0.00    -0.396 OA 
ENDROOT
BRANCH   2   7
HETATM    7  C   UNL     1     -11.653   9.588  70.977  1.00  0.00    -0.419 A  
HETATM    8  C   UNL     1     -12.449  10.641  70.490  1.00  0.00    -0.445 A  
HETATM    9  C   UNL     1     -11.955  11.552  69.558  1.00  0.00    -0.402 A  
HETATM   10  C   UNL     1     -10.632  11.456  69.112  1.00  0.00    -0.196 A  
HETATM   11  C   UNL     1     -10.320   9.526  70.551  1.00  0.00    -0.350 A  
HETATM   12  C   UNL     1      -9.810  10.467  69.662  1.00  0.00    -0.179 A  
BRANCH  10  13
HETATM   13  C   UNL     1     -10.126  12.350  68.005  1.00  0.00    -0.214 C  
HETATM   14  O   UNL     1      -9.328  13.359  68.608  1.00  0.00    -0.351 OA 
HETATM   15  H   UNL     1      -9.009  13.922  67.911  1.00  0.00     0.000 HD 
BRANCH  13  16
HETATM   16  C   UNL     1      -9.370  11.516  66.952  1.00  0.00    -0.189 C  
BRANCH  16  17
HETATM   17  C   UNL     1     -10.108  10.264  66.469  1.00  0.00    -0.290 C  
BRANCH  17  18
HETATM   18  C   UNL     1      -9.325   9.399  65.471  1.00  0.00    -0.251 C  
BRANCH  18  19
HETATM   19  N   UNL     1      -8.169   8.715  66.075  1.00  0.00    -0.121 NA 
HETATM   20  C   UNL     1      -8.389   8.315  67.469  1.00  0.00    -0.130 C  
HETATM   21  C   UNL     1      -9.320   7.110  67.642  1.00  0.00    -0.135 C  
HETATM   22  C   UNL     1      -8.911   5.860  66.819  1.00  0.00    -0.118 C  
HETATM   23  C   UNL     1      -7.754   5.000  67.486  1.00  0.00    -0.091 C  
HETATM   24  C   UNL     1      -8.650   6.347  65.371  1.00  0.00    -0.088 C  
HETATM   25  C   UNL     1      -7.333   3.838  66.561  1.00  0.00    -0.072 A  
HETATM   26  C   UNL     1      -8.094   4.503  68.920  1.00  0.00    -0.077 A  
HETATM   27  C   UNL     1      -7.724   7.562  65.277  1.00  0.00    -0.112 C  
HETATM   28  O   UNL     1      -6.612   5.865  67.617  1.00  0.00    -0.052 OA 
HETATM   29  C   UNL     1      -6.262   3.994  65.655  1.00  0.00    -0.031 A  
HETATM   30  C   UNL     1      -9.412   4.318  69.379  1.00  0.00    -0.256 A  
HETATM   31  H   UNL     1      -5.920   5.351  68.016  1.00  0.00     0.000 HD 
HETATM   32  C   UNL     1      -9.680   3.965  70.707  1.00  0.00    -0.255 A  
HETATM   33  C   UNL     1      -5.904   2.985  64.760  1.00  0.00    -0.018 A  
HETATM   34  C   UNL     1      -8.634   3.757  71.601  1.00  0.00    -0.113 A  
HETATM   35  C   UNL     1      -6.595   1.778  64.762  1.00  0.00    -0.026 A  
HETATM   36  C   UNL     1      -7.646   1.589  65.655  1.00  0.00    -0.065 A  
HETATM   37  C   UNL     1      -7.320   3.876  71.161  1.00  0.00    -0.040 A  
HETATM   38  C   UNL     1      -8.019   2.612  66.538  1.00  0.00    -0.081 A  
HETATM   39  C   UNL     1      -7.053   4.229  69.835  1.00  0.00    -0.042 A  
ENDBRANCH  18  19
ENDBRANCH  17  18
ENDBRANCH  16  17
ENDBRANCH  13  16
ENDBRANCH  10  13
ENDBRANCH   2   7
TORSDOF 6
ENDMDL
MODEL      110
REMARK 921   NORMALIZED FREE ENERGY PREDICTED BY IDOCK:   -4.65 KCAL/MOL
REMARK 922        TOTAL FREE ENERGY PREDICTED BY IDOCK:   -8.64 KCAL/MOL
REMARK 923 INTER-LIGAND FREE ENERGY PREDICTED BY IDOCK:   -8.13 KCAL/MOL
REMARK 924 INTRA-LIGAND FREE ENERGY PREDICTED BY IDOCK:   -0.51 KCAL/MOL
REMARK 927      BINDING AFFINITY PREDICTED BY RF-SCORE:    0.00 PKD
ROOT
HETATM    1  C   UNL     1     -10.288  19.753  68.311  1.00  0.00    -0.536 C  
HETATM    2  C   UNL     1      -9.674  19.306  66.964  1.00  0.00    -0.406 C  
HETATM    3  C   UNL     1      -8.315  20.019  66.805  1.00  0.00    -0.323 C  
HETATM    4  O   UNL     1      -7.818  20.768  67.636  1.00  0.00    -0.256 OA 
HETATM    5  C   UNL     1     -10.576  19.789  65.812  1.00  0.00    -0.522 C  
HETATM    6  O   UNL     1      -7.674  19.757  65.638  1.00  0.00    -0.367 OA 
ENDROOT
BRANCH   2   7
HETATM    7  C   UNL     1      -9.580  17.773  66.980  1.00  0.00    -0.284 A  
HETATM    8  C   UNL     1      -8.918  17.120  68.036  1.00  0.00    -0.233 A  
HETATM    9  C   UNL     1      -8.680  15.746  68.003  1.00  0.00    -0.171 A  
HETATM   10  C   UNL     1      -9.130  14.979  66.923  1.00  0.00    -0.269 A  
HETATM   11  C   UNL     1     -10.057  16.987  65.923  1.00  0.00    -0.281 A  
HETATM   12  C   UNL     1      -9.866  15.609  65.914  1.00  0.00    -0.382 A  
BRANCH  10  13
HETATM   13  C   UNL     1      -8.760  13.519  66.808  1.00  0.00    -0.083 C  
HETATM   14  O   UNL     1      -7.344  13.448  66.717  1.00  0.00    -0.271 OA 
HETATM   15  H   UNL     1      -7.111  12.529  66.644  1.00  0.00     0.000 HD 
BRANCH  13  16
HETATM   16  C   UNL     1      -9.340  12.728  67.997  1.00  0.00    -0.213 C  
BRANCH  16  17
HETATM   17  C   UNL     1     -10.850  12.480  67.932  1.00  0.00    -0.251 C  
BRANCH  17  18
HETATM   18  C   UNL     1     -11.454  11.844  69.191  1.00  0.00    -0.296 C  
BRANCH  18  19
HETATM   19  N   UNL     1     -11.630  10.386  69.081  1.00  0.00    -0.205 NA 
HETATM   20  C   UNL     1     -10.684   9.752  68.156  1.00  0.00    -0.233 C  
HETATM   21  C   UNL     1      -9.253   9.639  68.694  1.00  0.00    -0.136 C  
HETATM   22  C   UNL     1      -9.141   8.951  70.080  1.00  0.00    -0.174 C  
HETATM   23  C   UNL     1      -9.189   7.365  70.016  1.00  0.00    -0.148 C  
HETATM   24  C   UNL     1     -10.188   9.629  71.000  1.00  0.00    -0.252 C  
HETATM   25  C   UNL     1      -9.178   6.759  71.437  1.00  0.00    -0.153 A  
HETATM   26  C   UNL     1      -8.086   6.742  69.115  1.00  0.00    -0.120 A  
HETATM   27  C   UNL     1     -11.590   9.719  70.391  1.00  0.00    -0.258 C  
HETATM   28  O   UNL     1     -10.450   7.008  69.421  1.00  0.00    -0.200 OA 
HETATM   29  C   UNL     1     -10.388   6.455  72.097  1.00  0.00    -0.213 A  
HETATM   30  C   UNL     1      -6.863   7.383  68.839  1.00  0.00    -0.072 A  
HETATM   31  H   UNL     1     -10.479   6.059  69.383  1.00  0.00     0.000 HD 
HETATM   32  C   UNL     1      -5.937   6.836  67.944  1.00  0.00    -0.031 A  
HETATM   33  C   UNL     1     -10.409   5.971  73.407  1.00  0.00    -0.247 A  
HETATM   34  C   UNL     1      -6.198   5.618  67.324  1.00  0.00    -0.030 A  
HETATM   35  C   UNL     1      -9.214   5.756  74.086  1.00  0.00    -0.128 A  
HETATM   36  C   UNL     1      -8.005   6.033  73.456  1.00  0.00    -0.103 A  
HETATM   37  C   UNL     1      -7.371   4.933  67.621  1.00  0.00    -0.078 A  
HETATM   38  C   UNL     1      -7.986   6.540  72.149  1.00  0.00    -0.102 A  
HETATM   39  C   UNL     1      -8.296   5.480  68.515  1.00  0.00    -0.101 A  
ENDBRANCH  18  19
ENDBRANCH  17  18
ENDBRANCH  16  17
ENDBRANCH  13  16
ENDBRANCH  10  13
ENDBRANCH   2   7
TORSDOF 6
ENDMDL
MODEL      111
REMARK 921   NORMALIZED FREE ENERGY PREDICTED BY IDOCK:   -4.65 KCAL/MOL
REMARK 922        TOTAL FREE ENERGY PREDICTED BY IDOCK:   -8.63 KCAL/MOL
REMARK 923 INTER-LIGAND FREE ENERGY PREDICTED BY IDOCK:   -7.48 KCAL/MOL
REMARK 924 INTRA-LIGAND FREE ENERGY PREDICTED BY IDOCK:   -1.15 KCAL/MOL
REMARK 927      BINDING AFFINITY PREDICTED BY RF-SCORE:    0.00 PKD
ROOT
HETATM    1  C   UNL     1      -5.253  17.619  67.311  1.00  0.00    -0.147 C  
HETATM    2  C   UNL     1      -6.383  18.631  67.609  1.00  0.00    -0.200 C  
HETATM    3  C   UNL     1      -6.226  19.813  66.630  1.00  0.00    -0.177 C  
HETATM    4  O   UNL     1      -5.374  19.887  65.755  1.00  0.00    -0.160 OA 
HETATM    5  C   UNL     1      -6.197  19.193  69.031  1.00  0.00    -0.287 C  
HETATM    6  O   UNL     1      -7.129  20.812  66.803  1.00  0.00    -0.281 OA 
ENDROOT
BRANCH   2   7
HETATM    7  C   UNL     1      -7.721  17.887  67.485  1.00  0.00    -0.217 A  
HETATM    8  C   UNL     1      -8.643  17.915  68.549  1.00  0.00    -0.298 A  
HETATM    9  C   UNL     1      -9.792  17.127  68.533  1.00  0.00    -0.297 A  
HETATM   10  C   UNL     1     -10.072  16.312  67.431  1.00  0.00    -0.260 A  
HETATM   11  C   UNL     1      -8.033  17.095  66.373  1.00  0.00    -0.346 A  
HETATM   12  C   UNL     1      -9.206  16.349  66.332  1.00  0.00    -0.335 A  
BRANCH  10  13
HETATM   13  C   UNL     1     -11.239  15.353  67.458  1.00  0.00    -0.302 C  
HETATM   14  O   UNL     1     -11.135  14.527  66.306  1.00  0.00    -0.320 OA 
HETATM   15  H   UNL     1     -11.869  13.924  66.323  1.00  0.00     0.000 HD 
BRANCH  13  16
HETATM   16  C   UNL     1     -11.248  14.564  68.781  1.00  0.00    -0.281 C  
BRANCH  16  17
HETATM   17  C   UNL     1     -12.203  13.367  68.814  1.00  0.00    -0.150 C  
BRANCH  17  18
HETATM   18  C   UNL     1     -11.557  12.036  69.222  1.00  0.00    -0.321 C  
BRANCH  18  19
HETATM   19  N   UNL     1     -11.621  11.010  68.169  1.00  0.00    -0.496 NA 
HETATM   20  C   UNL     1     -10.808  11.329  66.991  1.00  0.00    -0.280 C  
HETATM   21  C   UNL     1      -9.299  11.163  67.201  1.00  0.00    -0.176 C  
HETATM   22  C   UNL     1      -8.876   9.772  67.742  1.00  0.00    -0.129 C  
HETATM   23  C   UNL     1      -8.796   8.644  66.627  1.00  0.00    -0.133 C  
HETATM   24  C   UNL     1      -9.793   9.468  68.954  1.00  0.00    -0.179 C  
HETATM   25  C   UNL     1      -8.472   7.272  67.257  1.00  0.00    -0.118 A  
HETATM   26  C   UNL     1      -7.825   8.987  65.461  1.00  0.00    -0.096 A  
HETATM   27  C   UNL     1     -11.285   9.670  68.675  1.00  0.00     0.046 C  
HETATM   28  O   UNL     1     -10.107   8.537  66.045  1.00  0.00    -0.473 OA 
HETATM   29  C   UNL     1      -9.510   6.389  67.627  1.00  0.00    -0.120 A  
HETATM   30  C   UNL     1      -6.734   9.866  65.600  1.00  0.00    -0.098 A  
HETATM   31  H   UNL     1     -10.059   7.862  65.377  1.00  0.00     0.000 HD 
HETATM   32  C   UNL     1      -5.942  10.226  64.504  1.00  0.00    -0.132 A  
HETATM   33  C   UNL     1      -9.249   5.174  68.262  1.00  0.00    -0.139 A  
HETATM   34  C   UNL     1      -6.203   9.693  63.246  1.00  0.00    -0.104 A  
HETATM   35  C   UNL     1      -7.937   4.795  68.523  1.00  0.00    -0.084 A  
HETATM   36  C   UNL     1      -6.892   5.638  68.157  1.00  0.00    -0.060 A  
HETATM   37  C   UNL     1      -7.238   8.777  63.089  1.00  0.00    -0.094 A  
HETATM   38  C   UNL     1      -7.156   6.869  67.540  1.00  0.00    -0.085 A  
HETATM   39  C   UNL     1      -8.029   8.417  64.184  1.00  0.00    -0.151 A  
ENDBRANCH  18  19
ENDBRANCH  17  18
ENDBRANCH  16  17
ENDBRANCH  13  16
ENDBRANCH  10  13
ENDBRANCH   2   7
TORSDOF 6
ENDMDL
MODEL      112
REMARK 921   NORMALIZED FREE ENERGY PREDICTED BY IDOCK:   -4.64 KCAL/MOL
REMARK 922        TOTAL FREE ENERGY PREDICTED BY IDOCK:   -8.62 KCAL/MOL
REMARK 923 INTER-LIGAND FREE ENERGY PREDICTED BY IDOCK:   -7.80 KCAL/MOL
REMARK 924 INTRA-LIGAND FREE ENERGY PREDICTED BY IDOCK:   -0.82 KCAL/MOL
REMARK 927      BINDING AFFINITY PREDICTED BY RF-SCORE:    0.00 PKD
ROOT
HETATM    1  C   UNL     1      -8.788   4.370  67.971  1.00  0.00    -0.125 C  
HETATM    2  C   UNL     1      -7.640   4.982  67.135  1.00  0.00    -0.088 C  
HETATM    3  C   UNL     1      -7.972   4.759  65.646  1.00  0.00    -0.099 C  
HETATM    4  O   UNL     1      -8.992   4.226  65.229  1.00  0.00    -0.125 OA 
HETATM    5  C   UNL     1      -6.336   4.216  67.429  1.00  0.00    -0.037 C  
HETATM    6  O   UNL     1      -7.024   5.207  64.784  1.00  0.00    -0.048 OA 
ENDROOT
BRANCH   2   7
HETATM    7  C   UNL     1      -7.508   6.460  67.534  1.00  0.00    -0.092 A  
HETATM    8  C   UNL     1      -6.233   7.045  67.655  1.00  0.00    -0.041 A  
HETATM    9  C   UNL     1      -6.073   8.332  68.164  1.00  0.00    -0.050 A  
HETATM   10  C   UNL     1      -7.190   9.088  68.535  1.00  0.00    -0.073 A  
HETATM   11  C   UNL     1      -8.620   7.241  67.874  1.00  0.00    -0.120 A  
HETATM   12  C   UNL     1      -8.464   8.545  68.332  1.00  0.00    -0.138 A  
BRANCH  10  13
HETATM   13  C   UNL     1      -7.024  10.427  69.213  1.00  0.00    -0.080 C  
HETATM   14  O   UNL     1      -7.413  10.265  70.570  1.00  0.00    -0.431 OA 
HETATM   15  H   UNL     1      -7.309  11.108  70.997  1.00  0.00     0.000 HD 
BRANCH  13  16
HETATM   16  C   UNL     1      -5.579  10.934  69.044  1.00  0.00    -0.040 C  
BRANCH  16  17
HETATM   17  C   UNL     1      -5.239  12.197  69.840  1.00  0.00    -0.082 C  
BRANCH  17  18
HETATM   18  C   UNL     1      -5.561  13.516  69.125  1.00  0.00    -0.075 C  
BRANCH  18  19
HETATM   19  N   UNL     1      -6.878  14.068  69.488  1.00  0.00    -0.090 NA 
HETATM   20  C   UNL     1      -6.933  15.533  69.428  1.00  0.00    -0.187 C  
HETATM   21  C   UNL     1      -6.971  16.107  68.008  1.00  0.00    -0.139 C  
HETATM   22  C   UNL     1      -8.094  15.524  67.110  1.00  0.00    -0.249 C  
HETATM   23  C   UNL     1      -9.520  16.176  67.358  1.00  0.00    -0.226 C  
HETATM   24  C   UNL     1      -8.015  13.982  67.244  1.00  0.00    -0.157 C  
HETATM   25  C   UNL     1     -10.600  15.473  66.505  1.00  0.00    -0.307 A  
HETATM   26  C   UNL     1      -9.545  17.718  67.163  1.00  0.00    -0.276 A  
HETATM   27  C   UNL     1      -7.966  13.482  68.690  1.00  0.00    -0.073 C  
HETATM   28  O   UNL     1      -9.856  15.935  68.737  1.00  0.00    -0.200 OA 
HETATM   29  C   UNL     1     -11.347  14.400  67.036  1.00  0.00    -0.357 A  
HETATM   30  C   UNL     1      -8.632  18.406  66.340  1.00  0.00    -0.264 A  
HETATM   31  H   UNL     1     -10.710  16.325  68.886  1.00  0.00     0.000 HD 
HETATM   32  C   UNL     1      -8.623  19.803  66.268  1.00  0.00    -0.397 A  
HETATM   33  C   UNL     1     -12.280  13.703  66.266  1.00  0.00    -0.484 A  
HETATM   34  C   UNL     1      -9.547  20.548  66.994  1.00  0.00    -0.540 A  
HETATM   35  C   UNL     1     -12.507  14.076  64.946  1.00  0.00    -0.419 A  
HETATM   36  C   UNL     1     -11.796  15.140  64.400  1.00  0.00    -0.314 A  
HETATM   37  C   UNL     1     -10.498  19.895  67.771  1.00  0.00    -0.511 A  
HETATM   38  C   UNL     1     -10.844  15.825  65.167  1.00  0.00    -0.444 A  
HETATM   39  C   UNL     1     -10.507  18.499  67.843  1.00  0.00    -0.419 A  
ENDBRANCH  18  19
ENDBRANCH  17  18
ENDBRANCH  16  17
ENDBRANCH  13  16
ENDBRANCH  10  13
ENDBRANCH   2   7
TORSDOF 6
ENDMDL
MODEL      113
REMARK 921   NORMALIZED FREE ENERGY PREDICTED BY IDOCK:   -4.64 KCAL/MOL
REMARK 922        TOTAL FREE ENERGY PREDICTED BY IDOCK:   -8.62 KCAL/MOL
REMARK 923 INTER-LIGAND FREE ENERGY PREDICTED BY IDOCK:   -5.52 KCAL/MOL
REMARK 924 INTRA-LIGAND FREE ENERGY PREDICTED BY IDOCK:   -3.10 KCAL/MOL
REMARK 927      BINDING AFFINITY PREDICTED BY RF-SCORE:    0.00 PKD
ROOT
HETATM    1  C   UNL     1      -9.475   3.610  69.163  1.00  0.00    -0.235 C  
HETATM    2  C   UNL     1      -8.299   3.650  68.159  1.00  0.00    -0.095 C  
HETATM    3  C   UNL     1      -8.463   2.457  67.195  1.00  0.00    -0.097 C  
HETATM    4  O   UNL     1      -9.393   1.662  67.218  1.00  0.00    -0.100 OA 
HETATM    5  C   UNL     1      -6.977   3.439  68.922  1.00  0.00    -0.045 C  
HETATM    6  O   UNL     1      -7.470   2.335  66.278  1.00  0.00    -0.064 OA 
ENDROOT
BRANCH   2   7
HETATM    7  C   UNL     1      -8.320   5.022  67.470  1.00  0.00    -0.105 A  
HETATM    8  C   UNL     1      -9.545   5.676  67.241  1.00  0.00    -0.125 A  
HETATM    9  C   UNL     1      -9.613   6.844  66.482  1.00  0.00    -0.197 A  
HETATM   10  C   UNL     1      -8.446   7.412  65.959  1.00  0.00    -0.152 A  
HETATM   11  C   UNL     1      -7.157   5.623  66.972  1.00  0.00    -0.070 A  
HETATM   12  C   UNL     1      -7.217   6.817  66.260  1.00  0.00    -0.072 A  
BRANCH  10  13
HETATM   13  C   UNL     1      -8.519   8.597  65.024  1.00  0.00    -0.173 C  
HETATM   14  O   UNL     1      -9.785   9.212  65.219  1.00  0.00    -0.462 OA 
HETATM   15  H   UNL     1      -9.831   9.956  64.630  1.00  0.00     0.000 HD 
BRANCH  13  16
HETATM   16  C   UNL     1      -7.330   9.545  65.273  1.00  0.00    -0.104 C  
BRANCH  16  17
HETATM   17  C   UNL     1      -7.460  10.432  66.514  1.00  0.00    -0.119 C  
BRANCH  17  18
HETATM   18  C   UNL     1      -6.283  10.347  67.495  1.00  0.00    -0.057 C  
BRANCH  18  19
HETATM   19  N   UNL     1      -6.694  10.434  68.907  1.00  0.00    -0.056 NA 
HETATM   20  C   UNL     1      -8.144  10.336  69.100  1.00  0.00    -0.138 C  
HETATM   21  C   UNL     1      -8.713   8.924  68.918  1.00  0.00    -0.136 C  
HETATM   22  C   UNL     1      -8.016   7.836  69.777  1.00  0.00    -0.115 C  
HETATM   23  C   UNL     1      -8.514   7.788  71.284  1.00  0.00    -0.119 C  
HETATM   24  C   UNL     1      -6.490   8.014  69.567  1.00  0.00    -0.034 C  
HETATM   25  C   UNL     1      -7.702   6.755  72.096  1.00  0.00    -0.095 A  
HETATM   26  C   UNL     1     -10.045   7.562  71.429  1.00  0.00    -0.201 A  
HETATM   27  C   UNL     1      -5.997   9.451  69.751  1.00  0.00    -0.036 C  
HETATM   28  O   UNL     1      -8.238   9.079  71.857  1.00  0.00    -0.362 OA 
HETATM   29  C   UNL     1      -6.556   7.151  72.819  1.00  0.00    -0.063 A  
HETATM   30  C   UNL     1     -10.825   6.919  70.448  1.00  0.00    -0.297 A  
HETATM   31  H   UNL     1      -8.536   9.051  72.758  1.00  0.00     0.000 HD 
HETATM   32  C   UNL     1     -12.216   6.823  70.569  1.00  0.00    -0.253 A  
HETATM   33  C   UNL     1      -5.765   6.228  73.505  1.00  0.00    -0.046 A  
HETATM   34  C   UNL     1     -12.859   7.340  71.689  1.00  0.00    -0.415 A  
HETATM   35  C   UNL     1      -6.114   4.882  73.506  1.00  0.00    -0.037 A  
HETATM   36  C   UNL     1      -7.247   4.464  72.815  1.00  0.00    -0.073 A  
HETATM   37  C   UNL     1     -12.109   7.928  72.702  1.00  0.00    -0.240 A  
HETATM   38  C   UNL     1      -8.028   5.389  72.108  1.00  0.00    -0.107 A  
HETATM   39  C   UNL     1     -10.719   8.025  72.580  1.00  0.00    -0.426 A  
ENDBRANCH  18  19
ENDBRANCH  17  18
ENDBRANCH  16  17
ENDBRANCH  13  16
ENDBRANCH  10  13
ENDBRANCH   2   7
TORSDOF 6
ENDMDL
MODEL      114
REMARK 921   NORMALIZED FREE ENERGY PREDICTED BY IDOCK:   -4.60 KCAL/MOL
REMARK 922        TOTAL FREE ENERGY PREDICTED BY IDOCK:   -8.56 KCAL/MOL
REMARK 923 INTER-LIGAND FREE ENERGY PREDICTED BY IDOCK:   -8.18 KCAL/MOL
REMARK 924 INTRA-LIGAND FREE ENERGY PREDICTED BY IDOCK:   -0.38 KCAL/MOL
REMARK 927      BINDING AFFINITY PREDICTED BY RF-SCORE:    0.00 PKD
ROOT
HETATM    1  C   UNL     1     -10.420  17.739  69.140  1.00  0.00    -0.069 C  
HETATM    2  C   UNL     1     -10.332  16.201  69.275  1.00  0.00    -0.265 C  
HETATM    3  C   UNL     1     -11.043  15.802  70.584  1.00  0.00    -0.354 C  
HETATM    4  O   UNL     1     -11.605  16.582  71.341  1.00  0.00    -0.367 OA 
HETATM    5  C   UNL     1      -8.854  15.790  69.418  1.00  0.00    -0.237 C  
HETATM    6  O   UNL     1     -11.006  14.474  70.862  1.00  0.00     0.060 OA 
ENDROOT
BRANCH   2   7
HETATM    7  C   UNL     1     -10.951  15.586  68.011  1.00  0.00    -0.311 A  
HETATM    8  C   UNL     1     -11.902  14.554  68.125  1.00  0.00    -0.348 A  
HETATM    9  C   UNL     1     -12.365  13.869  67.002  1.00  0.00    -0.287 A  
HETATM   10  C   UNL     1     -11.916  14.224  65.726  1.00  0.00    -0.399 A  
HETATM   11  C   UNL     1     -10.539  15.955  66.725  1.00  0.00    -0.309 A  
HETATM   12  C   UNL     1     -11.041  15.308  65.600  1.00  0.00    -0.308 A  
BRANCH  10  13
HETATM   13  C   UNL     1     -12.304  13.404  64.517  1.00  0.00    -0.360 C  
HETATM   14  O   UNL     1     -12.053  14.201  63.368  1.00  0.00    -0.927 OA 
HETATM   15  H   UNL     1     -12.298  13.686  62.608  1.00  0.00     0.000 HD 
BRANCH  13  16
HETATM   16  C   UNL     1     -11.542  12.065  64.516  1.00  0.00    -0.387 C  
BRANCH  16  17
HETATM   17  C   UNL     1     -10.033  12.180  64.752  1.00  0.00    -0.224 C  
BRANCH  17  18
HETATM   18  C   UNL     1      -9.601  12.086  66.222  1.00  0.00    -0.231 C  
BRANCH  18  19
HETATM   19  N   UNL     1      -8.503  11.131  66.446  1.00  0.00    -0.164 NA 
HETATM   20  C   UNL     1      -8.264  10.838  67.863  1.00  0.00    -0.113 C  
HETATM   21  C   UNL     1      -9.317   9.932  68.509  1.00  0.00    -0.143 C  
HETATM   22  C   UNL     1      -9.565   8.599  67.754  1.00  0.00    -0.178 C  
HETATM   23  C   UNL     1      -8.485   7.476  68.059  1.00  0.00    -0.123 C  
HETATM   24  C   UNL     1      -9.769   8.963  66.262  1.00  0.00    -0.345 C  
HETATM   25  C   UNL     1      -8.740   6.221  67.195  1.00  0.00    -0.109 A  
HETATM   26  C   UNL     1      -8.360   7.121  69.568  1.00  0.00    -0.133 A  
HETATM   27  C   UNL     1      -8.687   9.883  65.690  1.00  0.00    -0.151 C  
HETATM   28  O   UNL     1      -7.208   8.005  67.659  1.00  0.00    -0.087 OA 
HETATM   29  C   UNL     1      -8.093   6.063  65.950  1.00  0.00    -0.119 A  
HETATM   30  C   UNL     1      -9.406   7.308  70.492  1.00  0.00    -0.158 A  
HETATM   31  H   UNL     1      -6.561   7.333  67.841  1.00  0.00     0.000 HD 
HETATM   32  C   UNL     1      -9.223   7.071  71.859  1.00  0.00    -0.147 A  
HETATM   33  C   UNL     1      -8.357   4.974  65.118  1.00  0.00    -0.138 A  
HETATM   34  C   UNL     1      -7.998   6.612  72.333  1.00  0.00    -0.099 A  
HETATM   35  C   UNL     1      -9.262   3.998  65.520  1.00  0.00    -0.150 A  
HETATM   36  C   UNL     1      -9.905   4.119  66.748  1.00  0.00    -0.203 A  
HETATM   37  C   UNL     1      -6.965   6.362  71.436  1.00  0.00    -0.076 A  
HETATM   38  C   UNL     1      -9.656   5.225  67.573  1.00  0.00    -0.150 A  
HETATM   39  C   UNL     1      -7.147   6.600  70.070  1.00  0.00    -0.071 A  
ENDBRANCH  18  19
ENDBRANCH  17  18
ENDBRANCH  16  17
ENDBRANCH  13  16
ENDBRANCH  10  13
ENDBRANCH   2   7
TORSDOF 6
ENDMDL
MODEL      115
REMARK 921   NORMALIZED FREE ENERGY PREDICTED BY IDOCK:   -4.56 KCAL/MOL
REMARK 922        TOTAL FREE ENERGY PREDICTED BY IDOCK:   -8.52 KCAL/MOL
REMARK 923 INTER-LIGAND FREE ENERGY PREDICTED BY IDOCK:   -6.88 KCAL/MOL
REMARK 924 INTRA-LIGAND FREE ENERGY PREDICTED BY IDOCK:   -1.64 KCAL/MOL
REMARK 927      BINDING AFFINITY PREDICTED BY RF-SCORE:    0.00 PKD
ROOT
HETATM    1  C   UNL     1      -8.800   3.514  68.407  1.00  0.00    -0.158 C  
HETATM    2  C   UNL     1      -8.410   4.527  69.509  1.00  0.00    -0.082 C  
HETATM    3  C   UNL     1      -7.484   5.583  68.871  1.00  0.00    -0.082 C  
HETATM    4  O   UNL     1      -7.167   5.612  67.689  1.00  0.00    -0.073 OA 
HETATM    5  C   UNL     1      -7.590   3.802  70.594  1.00  0.00    -0.041 C  
HETATM    6  O   UNL     1      -7.019   6.520  69.735  1.00  0.00    -0.062 OA 
ENDROOT
BRANCH   2   7
HETATM    7  C   UNL     1      -9.707   5.102  70.096  1.00  0.00    -0.274 A  
HETATM    8  C   UNL     1     -10.642   5.733  69.253  1.00  0.00    -0.376 A  
HETATM    9  C   UNL     1     -11.750   6.401  69.772  1.00  0.00    -0.261 A  
HETATM   10  C   UNL     1     -11.975   6.424  71.153  1.00  0.00    -0.273 A  
HETATM   11  C   UNL     1      -9.965   5.102  71.472  1.00  0.00    -0.248 A  
HETATM   12  C   UNL     1     -11.099   5.722  71.987  1.00  0.00    -0.318 A  
BRANCH  10  13
HETATM   13  C   UNL     1     -13.093   7.256  71.737  1.00  0.00    -0.317 C  
HETATM   14  O   UNL     1     -13.964   6.370  72.426  1.00  0.00    -0.498 OA 
HETATM   15  H   UNL     1     -14.668   6.893  72.792  1.00  0.00     0.000 HD 
BRANCH  13  16
HETATM   16  C   UNL     1     -12.516   8.370  72.631  1.00  0.00    -0.255 C  
BRANCH  16  17
HETATM   17  C   UNL     1     -12.997   9.784  72.294  1.00  0.00    -0.420 C  
BRANCH  17  18
HETATM   18  C   UNL     1     -12.094  10.558  71.324  1.00  0.00    -0.332 C  
BRANCH  18  19
HETATM   19  N   UNL     1     -11.704   9.775  70.139  1.00  0.00    -0.182 NA 
HETATM   20  C   UNL     1     -12.264  10.293  68.887  1.00  0.00     0.644 C  
HETATM   21  C   UNL     1     -11.600  11.578  68.380  1.00  0.00    -0.375 C  
HETATM   22  C   UNL     1     -10.057  11.491  68.244  1.00  0.00    -0.205 C  
HETATM   23  C   UNL     1      -9.567  10.772  66.915  1.00  0.00    -0.171 C  
HETATM   24  C   UNL     1      -9.525  10.900  69.575  1.00  0.00     0.157 C  
HETATM   25  C   UNL     1      -8.029  10.632  66.903  1.00  0.00    -0.124 A  
HETATM   26  C   UNL     1     -10.096  11.438  65.613  1.00  0.00    -0.293 A  
HETATM   27  C   UNL     1     -10.245   9.627  70.025  1.00  0.00    -0.255 C  
HETATM   28  O   UNL     1     -10.107   9.439  66.937  1.00  0.00    -0.211 OA 
HETATM   29  C   UNL     1      -7.411   9.460  67.389  1.00  0.00    -0.091 A  
HETATM   30  C   UNL     1     -10.472  12.794  65.539  1.00  0.00    -0.306 A  
HETATM   31  H   UNL     1      -9.814   9.008  66.142  1.00  0.00     0.000 HD 
HETATM   32  C   UNL     1     -11.037  13.332  64.377  1.00  0.00    -0.407 A  
HETATM   33  C   UNL     1      -6.022   9.335  67.453  1.00  0.00    -0.049 A  
HETATM   34  C   UNL     1     -11.213  12.536  63.250  1.00  0.00    -0.326 A  
HETATM   35  C   UNL     1      -5.211  10.373  67.010  1.00  0.00    -0.041 A  
HETATM   36  C   UNL     1      -5.791  11.535  66.512  1.00  0.00    -0.106 A  
HETATM   37  C   UNL     1     -10.798  11.209  63.274  1.00  0.00    -0.115 A  
HETATM   38  C   UNL     1      -7.186  11.669  66.468  1.00  0.00     0.048 A  
HETATM   39  C   UNL     1     -10.234  10.671  64.435  1.00  0.00    -0.400 A  
ENDBRANCH  18  19
ENDBRANCH  17  18
ENDBRANCH  16  17
ENDBRANCH  13  16
ENDBRANCH  10  13
ENDBRANCH   2   7
TORSDOF 6
ENDMDL
MODEL      116
REMARK 921   NORMALIZED FREE ENERGY PREDICTED BY IDOCK:   -4.56 KCAL/MOL
REMARK 922        TOTAL FREE ENERGY PREDICTED BY IDOCK:   -8.51 KCAL/MOL
REMARK 923 INTER-LIGAND FREE ENERGY PREDICTED BY IDOCK:   -7.68 KCAL/MOL
REMARK 924 INTRA-LIGAND FREE ENERGY PREDICTED BY IDOCK:   -0.83 KCAL/MOL
REMARK 927      BINDING AFFINITY PREDICTED BY RF-SCORE:    0.00 PKD
ROOT
HETATM    1  C   UNL     1      -9.422  17.594  65.887  1.00  0.00     0.031 C  
HETATM    2  C   UNL     1      -9.409  17.734  67.427  1.00  0.00    -0.252 C  
HETATM    3  C   UNL     1     -10.217  18.997  67.791  1.00  0.00    -0.402 C  
HETATM    4  O   UNL     1     -10.791  19.716  66.984  1.00  0.00    -0.487 OA 
HETATM    5  C   UNL     1      -7.962  17.970  67.901  1.00  0.00    -0.241 C  
HETATM    6  O   UNL     1     -10.256  19.277  69.118  1.00  0.00    -0.340 OA 
ENDROOT
BRANCH   2   7
HETATM    7  C   UNL     1      -9.974  16.435  68.019  1.00  0.00    -0.242 A  
HETATM    8  C   UNL     1      -9.108  15.371  68.335  1.00  0.00    -0.191 A  
HETATM    9  C   UNL     1      -9.601  14.127  68.725  1.00  0.00    -0.122 A  
HETATM   10  C   UNL     1     -10.980  13.922  68.845  1.00  0.00    -0.290 A  
HETATM   11  C   UNL     1     -11.350  16.226  68.179  1.00  0.00    -0.248 A  
HETATM   12  C   UNL     1     -11.841  15.001  68.620  1.00  0.00    -0.325 A  
BRANCH  10  13
HETATM   13  C   UNL     1     -11.532  12.546  69.134  1.00  0.00    -0.305 C  
HETATM   14  O   UNL     1     -10.545  11.603  68.738  1.00  0.00    -0.206 OA 
HETATM   15  H   UNL     1     -10.892  10.737  68.918  1.00  0.00     0.000 HD 
BRANCH  13  16
HETATM   16  C   UNL     1     -11.931  12.432  70.618  1.00  0.00    -0.202 C  
BRANCH  16  17
HETATM   17  C   UNL     1     -12.540  11.087  71.022  1.00  0.00    -0.512 C  
BRANCH  17  18
HETATM   18  C   UNL     1     -11.535  10.056  71.553  1.00  0.00    -0.146 C  
BRANCH  18  19
HETATM   19  N   UNL     1     -11.780   8.692  71.054  1.00  0.00    -0.283 NA 
HETATM   20  C   UNL     1     -10.897   8.308  69.948  1.00  0.00    -0.213 C  
HETATM   21  C   UNL     1      -9.454   8.004  70.367  1.00  0.00    -0.166 C  
HETATM   22  C   UNL     1      -9.324   6.955  71.503  1.00  0.00    -0.155 C  
HETATM   23  C   UNL     1      -9.446   5.451  71.008  1.00  0.00    -0.160 C  
HETATM   24  C   UNL     1     -10.306   7.387  72.622  1.00  0.00    -0.292 C  
HETATM   25  C   UNL     1      -9.411   4.476  72.205  1.00  0.00    -0.165 A  
HETATM   26  C   UNL     1      -8.404   5.066  69.920  1.00  0.00    -0.081 A  
HETATM   27  C   UNL     1     -11.723   7.688  72.127  1.00  0.00    -0.311 C  
HETATM   28  O   UNL     1     -10.741   5.315  70.397  1.00  0.00    -0.250 OA 
HETATM   29  C   UNL     1     -10.609   4.041  72.812  1.00  0.00    -0.218 A  
HETATM   30  C   UNL     1      -7.164   5.718  69.775  1.00  0.00    -0.069 A  
HETATM   31  H   UNL     1     -10.814   4.415  70.100  1.00  0.00     0.000 HD 
HETATM   32  C   UNL     1      -6.296   5.409  68.722  1.00  0.00    -0.038 A  
HETATM   33  C   UNL     1     -10.605   3.215  73.937  1.00  0.00    -0.269 A  
HETATM   34  C   UNL     1      -6.632   4.419  67.804  1.00  0.00    -0.046 A  
HETATM   35  C   UNL     1      -9.398   2.781  74.475  1.00  0.00    -0.107 A  
HETATM   36  C   UNL     1      -8.201   3.181  73.890  1.00  0.00    -0.074 A  
HETATM   37  C   UNL     1      -7.823   3.718  67.955  1.00  0.00    -0.073 A  
HETATM   38  C   UNL     1      -8.206   4.029  72.773  1.00  0.00    -0.095 A  
HETATM   39  C   UNL     1      -8.691   4.027  69.007  1.00  0.00    -0.130 A  
ENDBRANCH  18  19
ENDBRANCH  17  18
ENDBRANCH  16  17
ENDBRANCH  13  16
ENDBRANCH  10  13
ENDBRANCH   2   7
TORSDOF 6
ENDMDL
MODEL      117
REMARK 921   NORMALIZED FREE ENERGY PREDICTED BY IDOCK:   -4.55 KCAL/MOL
REMARK 922        TOTAL FREE ENERGY PREDICTED BY IDOCK:   -8.50 KCAL/MOL
REMARK 923 INTER-LIGAND FREE ENERGY PREDICTED BY IDOCK:   -8.17 KCAL/MOL
REMARK 924 INTRA-LIGAND FREE ENERGY PREDICTED BY IDOCK:   -0.32 KCAL/MOL
REMARK 927      BINDING AFFINITY PREDICTED BY RF-SCORE:    0.00 PKD
ROOT
HETATM    1  C   UNL     1     -12.101   6.377  71.984  1.00  0.00    -0.353 C  
HETATM    2  C   UNL     1     -11.212   7.461  71.329  1.00  0.00    -0.275 C  
HETATM    3  C   UNL     1     -10.866   6.987  69.903  1.00  0.00    -0.251 C  
HETATM    4  O   UNL     1     -11.273   5.951  69.392  1.00  0.00    -0.375 OA 
HETATM    5  C   UNL     1      -9.886   7.564  72.107  1.00  0.00    -0.209 C  
HETATM    6  O   UNL     1     -10.045   7.821  69.215  1.00  0.00    -0.188 OA 
ENDROOT
BRANCH   2   7
HETATM    7  C   UNL     1     -11.981   8.789  71.380  1.00  0.00    -0.367 A  
HETATM    8  C   UNL     1     -11.454   9.932  70.749  1.00  0.00    -0.433 A  
HETATM    9  C   UNL     1     -12.046  11.184  70.907  1.00  0.00    -0.427 A  
HETATM   10  C   UNL     1     -13.206  11.323  71.675  1.00  0.00    -0.431 A  
HETATM   11  C   UNL     1     -13.164   8.937  72.116  1.00  0.00    -0.478 A  
HETATM   12  C   UNL     1     -13.785  10.177  72.230  1.00  0.00    -0.132 A  
BRANCH  10  13
HETATM   13  C   UNL     1     -13.778  12.691  71.967  1.00  0.00    -0.210 C  
HETATM   14  O   UNL     1     -13.207  13.136  73.189  1.00  0.00    -0.321 OA 
HETATM   15  H   UNL     1     -13.567  13.996  73.373  1.00  0.00     0.000 HD 
BRANCH  13  16
HETATM   16  C   UNL     1     -13.514  13.641  70.783  1.00  0.00     0.186 C  
BRANCH  16  17
HETATM   17  C   UNL     1     -12.307  14.567  70.954  1.00  0.00    -0.415 C  
BRANCH  17  18
HETATM   18  C   UNL     1     -12.371  15.868  70.141  1.00  0.00    -0.163 C  
BRANCH  18  19
HETATM   19  N   UNL     1     -11.768  15.748  68.803  1.00  0.00    -0.395 NA 
HETATM   20  C   UNL     1     -11.017  16.939  68.393  1.00  0.00    -0.296 C  
HETATM   21  C   UNL     1      -9.666  17.108  69.096  1.00  0.00    -0.150 C  
HETATM   22  C   UNL     1      -8.736  15.870  69.004  1.00  0.00    -0.236 C  
HETATM   23  C   UNL     1      -7.950  15.755  67.629  1.00  0.00    -0.146 C  
HETATM   24  C   UNL     1      -9.590  14.640  69.406  1.00  0.00     0.054 C  
HETATM   25  C   UNL     1      -7.130  14.447  67.574  1.00  0.00    -0.197 A  
HETATM   26  C   UNL     1      -7.075  16.999  67.304  1.00  0.00    -0.193 A  
HETATM   27  C   UNL     1     -10.931  14.546  68.674  1.00  0.00    -0.251 C  
HETATM   28  O   UNL     1      -8.939  15.671  66.588  1.00  0.00    -0.234 OA 
HETATM   29  C   UNL     1      -7.677  13.281  66.996  1.00  0.00     0.105 A  
HETATM   30  C   UNL     1      -6.566  17.862  68.293  1.00  0.00    -0.199 A  
HETATM   31  H   UNL     1      -8.469  15.602  65.765  1.00  0.00     0.000 HD 
HETATM   32  C   UNL     1      -5.867  19.027  67.956  1.00  0.00    -0.205 A  
HETATM   33  C   UNL     1      -6.985  12.069  66.995  1.00  0.00    -0.095 A  
HETATM   34  C   UNL     1      -5.632  19.341  66.621  1.00  0.00    -0.163 A  
HETATM   35  C   UNL     1      -5.713  11.995  67.553  1.00  0.00    -0.107 A  
HETATM   36  C   UNL     1      -5.142  13.131  68.117  1.00  0.00    -0.094 A  
HETATM   37  C   UNL     1      -6.072  18.477  65.624  1.00  0.00    -0.279 A  
HETATM   38  C   UNL     1      -5.847  14.343  68.138  1.00  0.00    -0.135 A  
HETATM   39  C   UNL     1      -6.772  17.314  65.961  1.00  0.00    -0.114 A  
ENDBRANCH  18  19
ENDBRANCH  17  18
ENDBRANCH  16  17
ENDBRANCH  13  16
ENDBRANCH  10  13
ENDBRANCH   2   7
TORSDOF 6
ENDMDL
MODEL      118
REMARK 921   NORMALIZED FREE ENERGY PREDICTED BY IDOCK:   -4.49 KCAL/MOL
REMARK 922        TOTAL FREE ENERGY PREDICTED BY IDOCK:   -8.41 KCAL/MOL
REMARK 923 INTER-LIGAND FREE ENERGY PREDICTED BY IDOCK:   -7.01 KCAL/MOL
REMARK 924 INTRA-LIGAND FREE ENERGY PREDICTED BY IDOCK:   -1.40 KCAL/MOL
REMARK 927      BINDING AFFINITY PREDICTED BY RF-SCORE:    0.00 PKD
ROOT
HETATM    1  C   UNL     1     -11.811  16.776  71.767  1.00  0.00     0.303 C  
HETATM    2  C   UNL     1     -12.091  15.292  71.436  1.00  0.00    -0.415 C  
HETATM    3  C   UNL     1     -13.593  15.032  71.672  1.00  0.00    -0.440 C  
HETATM    4  O   UNL     1     -14.403  15.881  72.019  1.00  0.00    -0.343 OA 
HETATM    5  C   UNL     1     -11.316  14.399  72.424  1.00  0.00     1.133 C  
HETATM    6  O   UNL     1     -13.982  13.748  71.464  1.00  0.00    -0.255 OA 
ENDROOT
BRANCH   2   7
HETATM    7  C   UNL     1     -11.629  15.040  69.993  1.00  0.00    -0.324 A  
HETATM    8  C   UNL     1     -10.281  15.238  69.641  1.00  0.00    -0.253 A  
HETATM    9  C   UNL     1      -9.861  15.171  68.313  1.00  0.00    -0.223 A  
HETATM   10  C   UNL     1     -10.776  14.866  67.300  1.00  0.00    -0.294 A  
HETATM   11  C   UNL     1     -12.527  14.700  68.973  1.00  0.00     0.029 A  
HETATM   12  C   UNL     1     -12.099  14.579  67.655  1.00  0.00    -0.266 A  
BRANCH  10  13
HETATM   13  C   UNL     1     -10.365  14.924  65.848  1.00  0.00    -0.314 C  
HETATM   14  O   UNL     1      -8.990  14.568  65.784  1.00  0.00    -0.410 OA 
HETATM   15  H   UNL     1      -8.731  14.605  64.870  1.00  0.00     0.000 HD 
BRANCH  13  16
HETATM   16  C   UNL     1     -11.275  14.015  65.000  1.00  0.00    -0.352 C  
BRANCH  16  17
HETATM   17  C   UNL     1     -10.566  12.837  64.327  1.00  0.00    -0.424 C  
BRANCH  17  18
HETATM   18  C   UNL     1     -10.594  11.526  65.124  1.00  0.00    -0.293 C  
BRANCH  18  19
HETATM   19  N   UNL     1     -10.225  11.696  66.540  1.00  0.00    -0.209 NA 
HETATM   20  C   UNL     1     -11.180  11.084  67.469  1.00  0.00    -0.302 C  
HETATM   21  C   UNL     1     -11.110   9.554  67.531  1.00  0.00     0.021 C  
HETATM   22  C   UNL     1      -9.694   8.988  67.819  1.00  0.00    -0.190 C  
HETATM   23  C   UNL     1      -9.287   9.020  69.353  1.00  0.00    -0.158 C  
HETATM   24  C   UNL     1      -8.724   9.699  66.840  1.00  0.00    -0.139 C  
HETATM   25  C   UNL     1      -7.831   8.540  69.544  1.00  0.00    -0.097 A  
HETATM   26  C   UNL     1     -10.274   8.251  70.277  1.00  0.00    -0.199 A  
HETATM   27  C   UNL     1      -8.861  11.223  66.821  1.00  0.00    -0.170 C  
HETATM   28  O   UNL     1      -9.330  10.397  69.769  1.00  0.00    -0.391 OA 
HETATM   29  C   UNL     1      -6.767   9.467  69.567  1.00  0.00    -0.049 A  
HETATM   30  C   UNL     1     -11.089   7.196  69.825  1.00  0.00    -0.239 A  
HETATM   31  H   UNL     1      -9.086  10.416  70.687  1.00  0.00     0.000 HD 
HETATM   32  C   UNL     1     -12.036   6.595  70.662  1.00  0.00    -0.404 A  
HETATM   33  C   UNL     1      -5.437   9.056  69.669  1.00  0.00    -0.034 A  
HETATM   34  C   UNL     1     -12.170   7.014  71.982  1.00  0.00    -0.317 A  
HETATM   35  C   UNL     1      -5.135   7.702  69.773  1.00  0.00    -0.023 A  
HETATM   36  C   UNL     1      -6.164   6.766  69.768  1.00  0.00    -0.037 A  
HETATM   37  C   UNL     1     -11.339   8.015  72.473  1.00  0.00    -0.469 A  
HETATM   38  C   UNL     1      -7.498   7.178  69.643  1.00  0.00    -0.098 A  
HETATM   39  C   UNL     1     -10.393   8.616  71.637  1.00  0.00    -0.366 A  
ENDBRANCH  18  19
ENDBRANCH  17  18
ENDBRANCH  16  17
ENDBRANCH  13  16
ENDBRANCH  10  13
ENDBRANCH   2   7
TORSDOF 6
ENDMDL
MODEL      119
REMARK 921   NORMALIZED FREE ENERGY PREDICTED BY IDOCK:   -4.46 KCAL/MOL
REMARK 922        TOTAL FREE ENERGY PREDICTED BY IDOCK:   -8.38 KCAL/MOL
REMARK 923 INTER-LIGAND FREE ENERGY PREDICTED BY IDOCK:   -6.61 KCAL/MOL
REMARK 924 INTRA-LIGAND FREE ENERGY PREDICTED BY IDOCK:   -1.77 KCAL/MOL
REMARK 927      BINDING AFFINITY PREDICTED BY RF-SCORE:    0.00 PKD
ROOT
HETATM    1  C   UNL     1     -11.305   4.199  73.668  1.00  0.00    -0.270 C  
HETATM    2  C   UNL     1     -10.368   5.185  72.934  1.00  0.00    -0.238 C  
HETATM    3  C   UNL     1      -9.744   4.439  71.737  1.00  0.00    -0.170 C  
HETATM    4  O   UNL     1      -9.998   3.284  71.424  1.00  0.00    -0.167 OA 
HETATM    5  C   UNL     1      -9.213   5.580  73.875  1.00  0.00    -0.126 C  
HETATM    6  O   UNL     1      -8.855   5.172  71.018  1.00  0.00    -0.128 OA 
ENDROOT
BRANCH   2   7
HETATM    7  C   UNL     1     -11.200   6.416  72.543  1.00  0.00    -0.307 A  
HETATM    8  C   UNL     1     -12.230   6.295  71.592  1.00  0.00    -0.161 A  
HETATM    9  C   UNL     1     -12.898   7.416  71.100  1.00  0.00    -0.305 A  
HETATM   10  C   UNL     1     -12.576   8.692  71.576  1.00  0.00    -0.360 A  
HETATM   11  C   UNL     1     -10.914   7.695  73.036  1.00  0.00    -0.457 A  
HETATM   12  C   UNL     1     -11.616   8.809  72.586  1.00  0.00    -0.046 A  
BRANCH  10  13
HETATM   13  C   UNL     1     -13.194   9.923  70.955  1.00  0.00    -0.304 C  
HETATM   14  O   UNL     1     -13.266  10.916  71.969  1.00  0.00    -0.502 OA 
HETATM   15  H   UNL     1     -13.655  11.690  71.579  1.00  0.00     0.000 HD 
BRANCH  13  16
HETATM   16  C   UNL     1     -12.381  10.362  69.722  1.00  0.00    -0.122 C  
BRANCH  16  17
HETATM   17  C   UNL     1     -11.008  10.963  70.033  1.00  0.00    -0.221 C  
BRANCH  17  18
HETATM   18  C   UNL     1      -9.879  10.512  69.097  1.00  0.00    -0.218 C  
BRANCH  18  19
HETATM   19  N   UNL     1     -10.317   9.540  68.081  1.00  0.00    -0.198 NA 
HETATM   20  C   UNL     1      -9.590   9.654  66.812  1.00  0.00    -0.173 C  
HETATM   21  C   UNL     1      -8.156   9.115  66.854  1.00  0.00    -0.112 C  
HETATM   22  C   UNL     1      -8.033   7.659  67.376  1.00  0.00    -0.119 C  
HETATM   23  C   UNL     1      -8.364   6.553  66.285  1.00  0.00    -0.124 C  
HETATM   24  C   UNL     1      -8.851   7.587  68.691  1.00  0.00    -0.127 C  
HETATM   25  C   UNL     1      -8.321   5.140  66.907  1.00  0.00    -0.107 A  
HETATM   26  C   UNL     1      -7.479   6.650  65.010  1.00  0.00    -0.089 A  
HETATM   27  C   UNL     1     -10.268   8.156  68.577  1.00  0.00    -0.208 C  
HETATM   28  O   UNL     1      -9.719   6.780  65.857  1.00  0.00    -0.391 OA 
HETATM   29  C   UNL     1      -9.496   4.543  67.412  1.00  0.00    -0.189 A  
HETATM   30  C   UNL     1      -6.195   7.228  65.005  1.00  0.00    -0.038 A  
HETATM   31  H   UNL     1      -9.917   6.119  65.205  1.00  0.00     0.000 HD 
HETATM   32  C   UNL     1      -5.471   7.386  63.818  1.00  0.00    -0.037 A  
HETATM   33  C   UNL     1      -9.474   3.296  68.041  1.00  0.00    -0.217 A  
HETATM   34  C   UNL     1      -5.999   6.942  62.610  1.00  0.00    -0.040 A  
HETATM   35  C   UNL     1      -8.276   2.601  68.162  1.00  0.00    -0.075 A  
HETATM   36  C   UNL     1      -7.104   3.159  67.660  1.00  0.00    -0.050 A  
HETATM   37  C   UNL     1      -7.239   6.314  62.592  1.00  0.00    -0.053 A  
HETATM   38  C   UNL     1      -7.123   4.420  67.049  1.00  0.00    -0.068 A  
HETATM   39  C   UNL     1      -7.964   6.157  63.778  1.00  0.00    -0.101 A  
ENDBRANCH  18  19
ENDBRANCH  17  18
ENDBRANCH  16  17
ENDBRANCH  13  16
ENDBRANCH  10  13
ENDBRANCH   2   7
TORSDOF 6
ENDMDL
MODEL      120
REMARK 921   NORMALIZED FREE ENERGY PREDICTED BY IDOCK:   -4.45 KCAL/MOL
REMARK 922        TOTAL FREE ENERGY PREDICTED BY IDOCK:   -8.37 KCAL/MOL
REMARK 923 INTER-LIGAND FREE ENERGY PREDICTED BY IDOCK:   -7.53 KCAL/MOL
REMARK 924 INTRA-LIGAND FREE ENERGY PREDICTED BY IDOCK:   -0.84 KCAL/MOL
REMARK 927      BINDING AFFINITY PREDICTED BY RF-SCORE:    0.00 PKD
ROOT
HETATM    1  C   UNL     1     -11.859  13.727  67.737  1.00  0.00    -0.404 C  
HETATM    2  C   UNL     1     -11.472  14.263  66.339  1.00  0.00    -0.361 C  
HETATM    3  C   UNL     1     -10.761  15.617  66.535  1.00  0.00    -0.293 C  
HETATM    4  O   UNL     1     -10.521  16.131  67.620  1.00  0.00    -0.278 OA 
HETATM    5  C   UNL     1     -12.755  14.538  65.530  1.00  0.00    -0.193 C  
HETATM    6  O   UNL     1     -10.400  16.236  65.383  1.00  0.00    -0.499 OA 
ENDROOT
BRANCH   2   7
HETATM    7  C   UNL     1     -10.610  13.194  65.652  1.00  0.00    -0.289 A  
HETATM    8  C   UNL     1     -10.712  12.995  64.262  1.00  0.00    -0.430 A  
HETATM    9  C   UNL     1     -10.063  11.934  63.632  1.00  0.00    -0.450 A  
HETATM   10  C   UNL     1      -9.261  11.060  64.373  1.00  0.00    -0.179 A  
HETATM   11  C   UNL     1      -9.775  12.334  66.374  1.00  0.00    -0.243 A  
HETATM   12  C   UNL     1      -9.084  11.307  65.739  1.00  0.00    -0.216 A  
BRANCH  10  13
HETATM   13  C   UNL     1      -8.664   9.830  63.730  1.00  0.00    -0.224 C  
HETATM   14  O   UNL     1      -9.653   9.281  62.870  1.00  0.00    -0.427 OA 
HETATM   15  H   UNL     1      -9.278   8.507  62.465  1.00  0.00     0.000 HD 
BRANCH  13  16
HETATM   16  C   UNL     1      -7.352  10.191  63.007  1.00  0.00    -0.139 C  
BRANCH  16  17
HETATM   17  C   UNL     1      -6.212   9.188  63.199  1.00  0.00    -0.090 C  
BRANCH  17  18
HETATM   18  C   UNL     1      -5.630   9.136  64.618  1.00  0.00    -0.062 C  
BRANCH  18  19
HETATM   19  N   UNL     1      -5.569   7.773  65.173  1.00  0.00    -0.036 NA 
HETATM   20  C   UNL     1      -6.194   7.652  66.494  1.00  0.00    -0.045 C  
HETATM   21  C   UNL     1      -7.726   7.684  66.474  1.00  0.00    -0.097 C  
HETATM   22  C   UNL     1      -8.376   6.654  65.514  1.00  0.00    -0.144 C  
HETATM   23  C   UNL     1      -8.464   5.184  66.108  1.00  0.00    -0.115 C  
HETATM   24  C   UNL     1      -7.651   6.796  64.151  1.00  0.00    -0.105 C  
HETATM   25  C   UNL     1      -9.024   4.200  65.058  1.00  0.00    -0.137 A  
HETATM   26  C   UNL     1      -9.243   5.099  67.452  1.00  0.00    -0.121 A  
HETATM   27  C   UNL     1      -6.124   6.771  64.250  1.00  0.00    -0.035 C  
HETATM   28  O   UNL     1      -7.117   4.767  66.393  1.00  0.00    -0.072 OA 
HETATM   29  C   UNL     1      -8.153   3.470  64.221  1.00  0.00    -0.086 A  
HETATM   30  C   UNL     1     -10.227   6.032  67.832  1.00  0.00    -0.217 A  
HETATM   31  H   UNL     1      -7.168   3.888  66.749  1.00  0.00     0.000 HD 
HETATM   32  C   UNL     1     -10.834   5.979  69.092  1.00  0.00    -0.422 A  
HETATM   33  C   UNL     1      -8.633   2.627  63.218  1.00  0.00    -0.085 A  
HETATM   34  C   UNL     1     -10.496   4.974  69.991  1.00  0.00    -0.226 A  
HETATM   35  C   UNL     1     -10.003   2.472  63.039  1.00  0.00    -0.103 A  
HETATM   36  C   UNL     1     -10.887   3.167  63.858  1.00  0.00    -0.082 A  
HETATM   37  C   UNL     1      -9.570   4.004  69.622  1.00  0.00    -0.270 A  
HETATM   38  C   UNL     1     -10.404   4.031  64.850  1.00  0.00    -0.197 A  
HETATM   39  C   UNL     1      -8.962   4.057  68.363  1.00  0.00    -0.159 A  
ENDBRANCH  18  19
ENDBRANCH  17  18
ENDBRANCH  16  17
ENDBRANCH  13  16
ENDBRANCH  10  13
ENDBRANCH   2   7
TORSDOF 6
ENDMDL
MODEL      121
REMARK 921   NORMALIZED FREE ENERGY PREDICTED BY IDOCK:   -4.45 KCAL/MOL
REMARK 922        TOTAL FREE ENERGY PREDICTED BY IDOCK:   -8.36 KCAL/MOL
REMARK 923 INTER-LIGAND FREE ENERGY PREDICTED BY IDOCK:   -6.99 KCAL/MOL
REMARK 924 INTRA-LIGAND FREE ENERGY PREDICTED BY IDOCK:   -1.37 KCAL/MOL
REMARK 927      BINDING AFFINITY PREDICTED BY RF-SCORE:    0.00 PKD
ROOT
HETATM    1  C   UNL     1     -12.007  12.138  66.314  1.00  0.00    -0.213 C  
HETATM    2  C   UNL     1     -11.435  13.282  65.444  1.00  0.00    -0.328 C  
HETATM    3  C   UNL     1     -12.613  14.174  65.004  1.00  0.00    -0.380 C  
HETATM    4  O   UNL     1     -13.780  14.005  65.335  1.00  0.00    -0.376 OA 
HETATM    5  C   UNL     1     -10.816  12.684  64.166  1.00  0.00    -0.431 C  
HETATM    6  O   UNL     1     -12.267  15.203  64.189  1.00  0.00    -0.600 OA 
ENDROOT
BRANCH   2   7
HETATM    7  C   UNL     1     -10.371  14.013  66.276  1.00  0.00    -0.294 A  
HETATM    8  C   UNL     1      -9.514  14.945  65.661  1.00  0.00    -0.152 A  
HETATM    9  C   UNL     1      -8.441  15.508  66.350  1.00  0.00    -0.226 A  
HETATM   10  C   UNL     1      -8.215  15.180  67.691  1.00  0.00    -0.178 A  
HETATM   11  C   UNL     1     -10.155  13.722  67.629  1.00  0.00    -0.242 A  
HETATM   12  C   UNL     1      -9.116  14.324  68.333  1.00  0.00    -0.194 A  
BRANCH  10  13
HETATM   13  C   UNL     1      -6.981  15.675  68.408  1.00  0.00    -0.115 C  
HETATM   14  O   UNL     1      -7.417  16.401  69.549  1.00  0.00    -0.189 OA 
HETATM   15  H   UNL     1      -6.641  16.713  70.000  1.00  0.00     0.000 HD 
BRANCH  13  16
HETATM   16  C   UNL     1      -6.053  14.493  68.748  1.00  0.00    -0.087 C  
BRANCH  16  17
HETATM   17  C   UNL     1      -5.589  13.668  67.544  1.00  0.00     0.079 C  
BRANCH  17  18
HETATM   18  C   UNL     1      -5.229  12.210  67.861  1.00  0.00    -0.065 C  
BRANCH  18  19
HETATM   19  N   UNL     1      -6.245  11.246  67.404  1.00  0.00    -0.064 NA 
HETATM   20  C   UNL     1      -5.905   9.853  67.709  1.00  0.00    -0.039 C  
HETATM   21  C   UNL     1      -6.063   9.472  69.185  1.00  0.00    -0.041 C  
HETATM   22  C   UNL     1      -7.456   9.794  69.786  1.00  0.00    -0.127 C  
HETATM   23  C   UNL     1      -8.571   8.717  69.440  1.00  0.00    -0.127 C  
HETATM   24  C   UNL     1      -7.780  11.259  69.398  1.00  0.00     0.083 C  
HETATM   25  C   UNL     1      -9.948   9.159  69.983  1.00  0.00    -0.223 A  
HETATM   26  C   UNL     1      -8.208   7.275  69.895  1.00  0.00    -0.133 A  
HETATM   27  C   UNL     1      -7.587  11.569  67.912  1.00  0.00    -0.113 C  
HETATM   28  O   UNL     1      -8.682   8.674  68.006  1.00  0.00    -0.139 OA 
HETATM   29  C   UNL     1     -10.842   9.884  69.165  1.00  0.00    -0.248 A  
HETATM   30  C   UNL     1      -7.322   7.001  70.955  1.00  0.00    -0.077 A  
HETATM   31  H   UNL     1      -9.348   8.030  67.799  1.00  0.00     0.000 HD 
HETATM   32  C   UNL     1      -6.943   5.691  71.270  1.00  0.00    -0.066 A  
HETATM   33  C   UNL     1     -12.063  10.355  69.651  1.00  0.00    -0.167 A  
HETATM   34  C   UNL     1      -7.465   4.619  70.553  1.00  0.00    -0.053 A  
HETATM   35  C   UNL     1     -12.434  10.095  70.965  1.00  0.00    -0.474 A  
HETATM   36  C   UNL     1     -11.580   9.371  71.791  1.00  0.00    -0.433 A  
HETATM   37  C   UNL     1      -8.387   4.855  69.539  1.00  0.00    -0.085 A  
HETATM   38  C   UNL     1     -10.344   8.917  71.309  1.00  0.00    -0.355 A  
HETATM   39  C   UNL     1      -8.765   6.164  69.223  1.00  0.00    -0.122 A  
ENDBRANCH  18  19
ENDBRANCH  17  18
ENDBRANCH  16  17
ENDBRANCH  13  16
ENDBRANCH  10  13
ENDBRANCH   2   7
TORSDOF 6
ENDMDL
MODEL      122
REMARK 921   NORMALIZED FREE ENERGY PREDICTED BY IDOCK:   -4.45 KCAL/MOL
REMARK 922        TOTAL FREE ENERGY PREDICTED BY IDOCK:   -8.36 KCAL/MOL
REMARK 923 INTER-LIGAND FREE ENERGY PREDICTED BY IDOCK:   -7.08 KCAL/MOL
REMARK 924 INTRA-LIGAND FREE ENERGY PREDICTED BY IDOCK:   -1.28 KCAL/MOL
REMARK 927      BINDING AFFINITY PREDICTED BY RF-SCORE:    0.00 PKD
ROOT
HETATM    1  C   UNL     1      -7.313   7.254  68.442  1.00  0.00    -0.103 C  
HETATM    2  C   UNL     1      -8.339   6.111  68.261  1.00  0.00    -0.114 C  
HETATM    3  C   UNL     1      -7.601   4.776  68.492  1.00  0.00    -0.073 C  
HETATM    4  O   UNL     1      -6.422   4.674  68.805  1.00  0.00    -0.035 OA 
HETATM    5  C   UNL     1      -8.838   6.106  66.803  1.00  0.00    -0.122 C  
HETATM    6  O   UNL     1      -8.370   3.670  68.320  1.00  0.00    -0.081 OA 
ENDROOT
BRANCH   2   7
HETATM    7  C   UNL     1      -9.498   6.364  69.235  1.00  0.00    -0.140 A  
HETATM    8  C   UNL     1     -10.816   6.464  68.750  1.00  0.00    -0.378 A  
HETATM    9  C   UNL     1     -11.867   6.848  69.582  1.00  0.00     0.019 A  
HETATM   10  C   UNL     1     -11.635   7.108  70.936  1.00  0.00    -0.350 A  
HETATM   11  C   UNL     1      -9.287   6.592  70.601  1.00  0.00    -0.164 A  
HETATM   12  C   UNL     1     -10.344   6.923  71.443  1.00  0.00    -0.219 A  
BRANCH  10  13
HETATM   13  C   UNL     1     -12.735   7.655  71.816  1.00  0.00    -0.330 C  
HETATM   14  O   UNL     1     -12.195   7.809  73.121  1.00  0.00    -0.514 OA 
HETATM   15  H   UNL     1     -12.887   8.153  73.674  1.00  0.00     0.000 HD 
BRANCH  13  16
HETATM   16  C   UNL     1     -13.291   8.963  71.221  1.00  0.00    -0.227 C  
BRANCH  16  17
HETATM   17  C   UNL     1     -12.843  10.240  71.938  1.00  0.00    -0.528 C  
BRANCH  17  18
HETATM   18  C   UNL     1     -12.743  11.481  71.041  1.00  0.00    -0.328 C  
BRANCH  18  19
HETATM   19  N   UNL     1     -11.490  11.543  70.269  1.00  0.00    -0.201 NA 
HETATM   20  C   UNL     1     -11.596  10.942  68.936  1.00  0.00    -0.309 C  
HETATM   21  C   UNL     1     -12.379  11.783  67.923  1.00  0.00     0.699 C  
HETATM   22  C   UNL     1     -11.877  13.244  67.777  1.00  0.00    -0.394 C  
HETATM   23  C   UNL     1     -10.601  13.397  66.844  1.00  0.00    -0.273 C  
HETATM   24  C   UNL     1     -11.744  13.813  69.213  1.00  0.00    -0.376 C  
HETATM   25  C   UNL     1     -10.101  14.858  66.834  1.00  0.00    -0.242 A  
HETATM   26  C   UNL     1     -10.813  12.849  65.404  1.00  0.00    -0.307 A  
HETATM   27  C   UNL     1     -10.962  12.912  70.172  1.00  0.00     0.889 C  
HETATM   28  O   UNL     1      -9.555  12.602  67.431  1.00  0.00    -0.187 OA 
HETATM   29  C   UNL     1      -9.101  15.280  67.735  1.00  0.00    -0.182 A  
HETATM   30  C   UNL     1     -12.078  12.754  64.794  1.00  0.00    -0.488 A  
HETATM   31  H   UNL     1      -8.792  12.693  66.873  1.00  0.00     0.000 HD 
HETATM   32  C   UNL     1     -12.239  12.163  63.535  1.00  0.00    -0.670 A  
HETATM   33  C   UNL     1      -8.680  16.610  67.795  1.00  0.00    -0.201 A  
HETATM   34  C   UNL     1     -11.134  11.681  62.841  1.00  0.00     0.183 A  
HETATM   35  C   UNL     1      -9.233  17.552  66.935  1.00  0.00    -0.273 A  
HETATM   36  C   UNL     1     -10.211  17.162  66.025  1.00  0.00    -0.332 A  
HETATM   37  C   UNL     1      -9.864  11.814  63.393  1.00  0.00    -0.407 A  
HETATM   38  C   UNL     1     -10.650  15.831  65.982  1.00  0.00    -0.334 A  
HETATM   39  C   UNL     1      -9.704  12.403  64.651  1.00  0.00     0.008 A  
ENDBRANCH  18  19
ENDBRANCH  17  18
ENDBRANCH  16  17
ENDBRANCH  13  16
ENDBRANCH  10  13
ENDBRANCH   2   7
TORSDOF 6
ENDMDL
MODEL      123
REMARK 921   NORMALIZED FREE ENERGY PREDICTED BY IDOCK:   -4.45 KCAL/MOL
REMARK 922        TOTAL FREE ENERGY PREDICTED BY IDOCK:   -8.36 KCAL/MOL
REMARK 923 INTER-LIGAND FREE ENERGY PREDICTED BY IDOCK:   -7.10 KCAL/MOL
REMARK 924 INTRA-LIGAND FREE ENERGY PREDICTED BY IDOCK:   -1.26 KCAL/MOL
REMARK 927      BINDING AFFINITY PREDICTED BY RF-SCORE:    0.00 PKD
ROOT
HETATM    1  C   UNL     1     -11.984  14.753  67.123  1.00  0.00    -0.224 C  
HETATM    2  C   UNL     1     -11.009  13.774  66.429  1.00  0.00    -0.298 C  
HETATM    3  C   UNL     1     -10.752  14.300  65.001  1.00  0.00    -0.420 C  
HETATM    4  O   UNL     1     -11.218  15.334  64.543  1.00  0.00    -0.356 OA 
HETATM    5  C   UNL     1     -11.688  12.398  66.290  1.00  0.00    -0.457 C  
HETATM    6  O   UNL     1      -9.944  13.512  64.248  1.00  0.00    -0.270 OA 
ENDROOT
BRANCH   2   7
HETATM    7  C   UNL     1      -9.747  13.677  67.298  1.00  0.00    -0.243 A  
HETATM    8  C   UNL     1      -9.709  14.308  68.556  1.00  0.00    -0.225 A  
HETATM    9  C   UNL     1      -8.531  14.371  69.299  1.00  0.00     0.171 A  
HETATM   10  C   UNL     1      -7.362  13.770  68.819  1.00  0.00    -0.103 A  
HETATM   11  C   UNL     1      -8.580  13.048  66.848  1.00  0.00    -0.126 A  
HETATM   12  C   UNL     1      -7.418  13.064  67.613  1.00  0.00    -0.156 A  
BRANCH  10  13
HETATM   13  C   UNL     1      -6.050  13.947  69.547  1.00  0.00    -0.110 C  
HETATM   14  O   UNL     1      -6.355  14.195  70.913  1.00  0.00    -0.398 OA 
HETATM   15  H   UNL     1      -5.530  14.307  71.371  1.00  0.00     0.000 HD 
BRANCH  13  16
HETATM   16  C   UNL     1      -5.151  12.715  69.331  1.00  0.00    -0.073 C  
BRANCH  16  17
HETATM   17  C   UNL     1      -5.139  11.713  70.488  1.00  0.00    -0.101 C  
BRANCH  17  18
HETATM   18  C   UNL     1      -5.571  10.288  70.113  1.00  0.00    -0.053 C  
BRANCH  18  19
HETATM   19  N   UNL     1      -6.806  10.245  69.313  1.00  0.00    -0.060 NA 
HETATM   20  C   UNL     1      -6.898   9.069  68.443  1.00  0.00    -0.064 C  
HETATM   21  C   UNL     1      -7.209   7.760  69.178  1.00  0.00    -0.082 C  
HETATM   22  C   UNL     1      -8.469   7.817  70.082  1.00  0.00    -0.134 C  
HETATM   23  C   UNL     1      -9.836   7.642  69.293  1.00  0.00    -0.168 C  
HETATM   24  C   UNL     1      -8.339   9.098  70.946  1.00  0.00    -0.231 C  
HETATM   25  C   UNL     1     -11.042   7.814  70.242  1.00  0.00    -0.242 A  
HETATM   26  C   UNL     1      -9.923   6.317  68.483  1.00  0.00    -0.163 A  
HETATM   27  C   UNL     1      -8.013  10.361  70.146  1.00  0.00     0.274 C  
HETATM   28  O   UNL     1      -9.905   8.710  68.333  1.00  0.00    -0.162 OA 
HETATM   29  C   UNL     1     -11.659   9.074  70.398  1.00  0.00    -0.145 A  
HETATM   30  C   UNL     1      -9.192   5.160  68.816  1.00  0.00    -0.152 A  
HETATM   31  H   UNL     1     -10.723   8.606  67.860  1.00  0.00     0.000 HD 
HETATM   32  C   UNL     1      -9.221   4.020  68.005  1.00  0.00    -0.200 A  
HETATM   33  C   UNL     1     -12.706   9.273  71.299  1.00  0.00    -0.368 A  
HETATM   34  C   UNL     1     -10.007   3.996  66.857  1.00  0.00    -0.059 A  
HETATM   35  C   UNL     1     -13.181   8.208  72.056  1.00  0.00    -0.306 A  
HETATM   36  C   UNL     1     -12.603   6.950  71.914  1.00  0.00    -0.336 A  
HETATM   37  C   UNL     1     -10.785   5.102  66.534  1.00  0.00    -0.262 A  
HETATM   38  C   UNL     1     -11.537   6.756  71.025  1.00  0.00    -0.388 A  
HETATM   39  C   UNL     1     -10.756   6.243  67.344  1.00  0.00    -0.409 A  
ENDBRANCH  18  19
ENDBRANCH  17  18
ENDBRANCH  16  17
ENDBRANCH  13  16
ENDBRANCH  10  13
ENDBRANCH   2   7
TORSDOF 6
ENDMDL
MODEL      124
REMARK 921   NORMALIZED FREE ENERGY PREDICTED BY IDOCK:   -4.44 KCAL/MOL
REMARK 922        TOTAL FREE ENERGY PREDICTED BY IDOCK:   -8.36 KCAL/MOL
REMARK 923 INTER-LIGAND FREE ENERGY PREDICTED BY IDOCK:   -7.32 KCAL/MOL
REMARK 924 INTRA-LIGAND FREE ENERGY PREDICTED BY IDOCK:   -1.04 KCAL/MOL
REMARK 927      BINDING AFFINITY PREDICTED BY RF-SCORE:    0.00 PKD
ROOT
HETATM    1  C   UNL     1     -11.384  15.527  67.498  1.00  0.00    -0.232 C  
HETATM    2  C   UNL     1     -10.002  15.537  66.804  1.00  0.00    -0.257 C  
HETATM    3  C   UNL     1      -9.710  16.985  66.358  1.00  0.00    -0.293 C  
HETATM    4  O   UNL     1     -10.442  17.943  66.569  1.00  0.00    -0.355 OA 
HETATM    5  C   UNL     1     -10.070  14.676  65.528  1.00  0.00    -0.405 C  
HETATM    6  O   UNL     1      -8.540  17.143  65.688  1.00  0.00    -0.470 OA 
ENDROOT
BRANCH   2   7
HETATM    7  C   UNL     1      -8.977  14.966  67.795  1.00  0.00    -0.177 A  
HETATM    8  C   UNL     1      -8.647  15.687  68.958  1.00  0.00    -0.232 A  
HETATM    9  C   UNL     1      -7.612  15.275  69.796  1.00  0.00    -0.101 A  
HETATM   10  C   UNL     1      -6.898  14.105  69.512  1.00  0.00    -0.084 A  
HETATM   11  C   UNL     1      -8.280  13.779  67.543  1.00  0.00    -0.194 A  
HETATM   12  C   UNL     1      -7.282  13.338  68.407  1.00  0.00    -0.110 A  
BRANCH  10  13
HETATM   13  C   UNL     1      -5.689  13.722  70.332  1.00  0.00    -0.153 C  
HETATM   14  O   UNL     1      -6.066  13.795  71.700  1.00  0.00    -0.561 OA 
HETATM   15  H   UNL     1      -5.306  13.554  72.217  1.00  0.00     0.000 HD 
BRANCH  13  16
HETATM   16  C   UNL     1      -5.178  12.332  69.908  1.00  0.00    -0.083 C  
BRANCH  16  17
HETATM   17  C   UNL     1      -5.214  11.267  71.008  1.00  0.00    -0.115 C  
BRANCH  17  18
HETATM   18  C   UNL     1      -5.543   9.849  70.523  1.00  0.00    -0.056 C  
BRANCH  18  19
HETATM   19  N   UNL     1      -6.979   9.637  70.271  1.00  0.00    -0.103 NA 
HETATM   20  C   UNL     1      -7.263   9.082  68.945  1.00  0.00    -0.073 C  
HETATM   21  C   UNL     1      -6.915   7.597  68.792  1.00  0.00    -0.071 C  
HETATM   22  C   UNL     1      -7.548   6.677  69.869  1.00  0.00    -0.100 C  
HETATM   23  C   UNL     1      -9.064   6.300  69.585  1.00  0.00    -0.142 C  
HETATM   24  C   UNL     1      -7.253   7.332  71.243  1.00  0.00    -0.072 C  
HETATM   25  C   UNL     1      -9.650   5.472  70.750  1.00  0.00    -0.220 A  
HETATM   26  C   UNL     1      -9.288   5.604  68.213  1.00  0.00    -0.123 A  
HETATM   27  C   UNL     1      -7.612   8.818  71.316  1.00  0.00    -0.110 C  
HETATM   28  O   UNL     1      -9.800   7.535  69.540  1.00  0.00    -0.167 OA 
HETATM   29  C   UNL     1     -10.335   6.107  71.808  1.00  0.00    -0.250 A  
HETATM   30  C   UNL     1      -8.283   4.878  67.544  1.00  0.00    -0.105 A  
HETATM   31  H   UNL     1     -10.708   7.310  69.370  1.00  0.00     0.000 HD 
HETATM   32  C   UNL     1      -8.493   4.351  66.265  1.00  0.00    -0.112 A  
HETATM   33  C   UNL     1     -10.815   5.391  72.907  1.00  0.00    -0.318 A  
HETATM   34  C   UNL     1      -9.722   4.510  65.634  1.00  0.00    -0.207 A  
HETATM   35  C   UNL     1     -10.641   4.012  72.966  1.00  0.00    -0.256 A  
HETATM   36  C   UNL     1      -9.983   3.357  71.930  1.00  0.00    -0.210 A  
HETATM   37  C   UNL     1     -10.752   5.172  66.294  1.00  0.00    -0.272 A  
HETATM   38  C   UNL     1      -9.482   4.079  70.838  1.00  0.00    -0.237 A  
HETATM   39  C   UNL     1     -10.543   5.700  67.572  1.00  0.00    -0.296 A  
ENDBRANCH  18  19
ENDBRANCH  17  18
ENDBRANCH  16  17
ENDBRANCH  13  16
ENDBRANCH  10  13
ENDBRANCH   2   7
TORSDOF 6
ENDMDL
MODEL      125
REMARK 921   NORMALIZED FREE ENERGY PREDICTED BY IDOCK:   -4.42 KCAL/MOL
REMARK 922        TOTAL FREE ENERGY PREDICTED BY IDOCK:   -8.33 KCAL/MOL
REMARK 923 INTER-LIGAND FREE ENERGY PREDICTED BY IDOCK:   -7.10 KCAL/MOL
REMARK 924 INTRA-LIGAND FREE ENERGY PREDICTED BY IDOCK:   -1.23 KCAL/MOL
REMARK 927      BINDING AFFINITY PREDICTED BY RF-SCORE:    0.00 PKD
ROOT
HETATM    1  C   UNL     1      -7.620   2.200  72.301  1.00  0.00    -0.044 C  
HETATM    2  C   UNL     1      -9.107   2.555  72.074  1.00  0.00    -0.137 C  
HETATM    3  C   UNL     1      -9.854   2.329  73.405  1.00  0.00    -0.096 C  
HETATM    4  O   UNL     1      -9.327   1.972  74.450  1.00  0.00    -0.074 OA 
HETATM    5  C   UNL     1      -9.709   1.579  71.045  1.00  0.00    -0.174 C  
HETATM    6  O   UNL     1     -11.191   2.558  73.347  1.00  0.00    -0.195 OA 
ENDROOT
BRANCH   2   7
HETATM    7  C   UNL     1      -9.168   4.000  71.558  1.00  0.00    -0.190 A  
HETATM    8  C   UNL     1      -9.580   4.259  70.237  1.00  0.00    -0.269 A  
HETATM    9  C   UNL     1      -9.498   5.538  69.689  1.00  0.00    -0.183 A  
HETATM   10  C   UNL     1      -9.033   6.607  70.463  1.00  0.00    -0.152 A  
HETATM   11  C   UNL     1      -8.740   5.086  72.332  1.00  0.00    -0.125 A  
HETATM   12  C   UNL     1      -8.708   6.373  71.803  1.00  0.00    -0.132 A  
BRANCH  10  13
HETATM   13  C   UNL     1      -8.810   7.967  69.844  1.00  0.00    -0.141 C  
HETATM   14  O   UNL     1      -8.804   8.917  70.901  1.00  0.00    -0.180 OA 
HETATM   15  H   UNL     1      -8.665   9.772  70.511  1.00  0.00     0.000 HD 
BRANCH  13  16
HETATM   16  C   UNL     1      -7.514   7.966  69.010  1.00  0.00    -0.097 C  
BRANCH  16  17
HETATM   17  C   UNL     1      -6.463   8.988  69.450  1.00  0.00    -0.044 C  
BRANCH  17  18
HETATM   18  C   UNL     1      -6.470  10.303  68.658  1.00  0.00    -0.052 C  
BRANCH  18  19
HETATM   19  N   UNL     1      -7.438  11.287  69.171  1.00  0.00    -0.110 NA 
HETATM   20  C   UNL     1      -6.879  12.636  69.313  1.00  0.00    -0.012 C  
HETATM   21  C   UNL     1      -6.674  13.378  67.988  1.00  0.00    -0.131 C  
HETATM   22  C   UNL     1      -7.938  13.449  67.091  1.00  0.00    -0.068 C  
HETATM   23  C   UNL     1      -8.965  14.585  67.512  1.00  0.00    -0.188 C  
HETATM   24  C   UNL     1      -8.508  12.009  67.011  1.00  0.00    -0.183 C  
HETATM   25  C   UNL     1     -10.239  14.523  66.640  1.00  0.00    -0.276 A  
HETATM   26  C   UNL     1      -8.346  16.011  67.528  1.00  0.00    -0.177 A  
HETATM   27  C   UNL     1      -8.671  11.326  68.371  1.00  0.00    -0.159 C  
HETATM   28  O   UNL     1      -9.370  14.302  68.863  1.00  0.00    -0.333 OA 
HETATM   29  C   UNL     1     -11.365  13.786  67.067  1.00  0.00    -0.345 A  
HETATM   30  C   UNL     1      -7.230  16.375  66.750  1.00  0.00    -0.245 A  
HETATM   31  H   UNL     1      -9.984  14.982  69.115  1.00  0.00     0.000 HD 
HETATM   32  C   UNL     1      -6.640  17.640  66.867  1.00  0.00    -0.213 A  
HETATM   33  C   UNL     1     -12.503  13.657  66.268  1.00  0.00    -0.420 A  
HETATM   34  C   UNL     1      -7.171  18.582  67.742  1.00  0.00    -0.228 A  
HETATM   35  C   UNL     1     -12.554  14.282  65.027  1.00  0.00    -0.360 A  
HETATM   36  C   UNL     1     -11.465  15.027  64.586  1.00  0.00    -0.382 A  
HETATM   37  C   UNL     1      -8.307  18.271  68.480  1.00  0.00    -0.327 A  
HETATM   38  C   UNL     1     -10.314  15.138  65.379  1.00  0.00    -0.415 A  
HETATM   39  C   UNL     1      -8.896  17.008  68.364  1.00  0.00    -0.247 A  
ENDBRANCH  18  19
ENDBRANCH  17  18
ENDBRANCH  16  17
ENDBRANCH  13  16
ENDBRANCH  10  13
ENDBRANCH   2   7
TORSDOF 6
ENDMDL
MODEL      126
REMARK 921   NORMALIZED FREE ENERGY PREDICTED BY IDOCK:   -4.41 KCAL/MOL
REMARK 922        TOTAL FREE ENERGY PREDICTED BY IDOCK:   -8.32 KCAL/MOL
REMARK 923 INTER-LIGAND FREE ENERGY PREDICTED BY IDOCK:   -6.60 KCAL/MOL
REMARK 924 INTRA-LIGAND FREE ENERGY PREDICTED BY IDOCK:   -1.72 KCAL/MOL
REMARK 927      BINDING AFFINITY PREDICTED BY RF-SCORE:    0.00 PKD
ROOT
HETATM    1  C   UNL     1     -13.183  10.949  72.178  1.00  0.00    -0.333 C  
HETATM    2  C   UNL     1     -12.918  10.036  70.958  1.00  0.00    -0.445 C  
HETATM    3  C   UNL     1     -12.196  10.879  69.887  1.00  0.00    -0.336 C  
HETATM    4  O   UNL     1     -11.867  12.050  70.024  1.00  0.00    -0.323 OA 
HETATM    5  C   UNL     1     -14.265   9.594  70.356  1.00  0.00     1.158 C  
HETATM    6  O   UNL     1     -11.936  10.218  68.731  1.00  0.00    -0.125 OA 
ENDROOT
BRANCH   2   7
HETATM    7  C   UNL     1     -12.114   8.823  71.450  1.00  0.00    -0.361 A  
HETATM    8  C   UNL     1     -12.668   7.532  71.369  1.00  0.00    -0.382 A  
HETATM    9  C   UNL     1     -12.034   6.433  71.945  1.00  0.00    -0.381 A  
HETATM   10  C   UNL     1     -10.802   6.590  72.591  1.00  0.00    -0.278 A  
HETATM   11  C   UNL     1     -10.864   8.959  72.067  1.00  0.00    -0.404 A  
HETATM   12  C   UNL     1     -10.204   7.854  72.596  1.00  0.00    -0.361 A  
BRANCH  10  13
HETATM   13  C   UNL     1     -10.172   5.438  73.337  1.00  0.00    -0.196 C  
HETATM   14  O   UNL     1     -11.157   4.913  74.216  1.00  0.00    -0.366 OA 
HETATM   15  H   UNL     1     -10.760   4.188  74.686  1.00  0.00     0.000 HD 
BRANCH  13  16
HETATM   16  C   UNL     1      -9.619   4.399  72.342  1.00  0.00    -0.198 C  
BRANCH  16  17
HETATM   17  C   UNL     1      -8.987   4.987  71.078  1.00  0.00    -0.162 C  
BRANCH  17  18
HETATM   18  C   UNL     1      -9.025   4.068  69.849  1.00  0.00    -0.098 C  
BRANCH  18  19
HETATM   19  N   UNL     1      -9.738   4.657  68.703  1.00  0.00    -0.160 NA 
HETATM   20  C   UNL     1     -10.090   6.067  68.896  1.00  0.00    -0.176 C  
HETATM   21  C   UNL     1      -8.907   7.036  68.786  1.00  0.00    -0.129 C  
HETATM   22  C   UNL     1      -8.085   6.897  67.478  1.00  0.00    -0.116 C  
HETATM   23  C   UNL     1      -8.735   7.627  66.227  1.00  0.00    -0.152 C  
HETATM   24  C   UNL     1      -7.778   5.387  67.303  1.00  0.00    -0.096 C  
HETATM   25  C   UNL     1      -7.915   7.356  64.947  1.00  0.00    -0.128 A  
HETATM   26  C   UNL     1      -8.975   9.148  66.448  1.00  0.00    -0.182 A  
HETATM   27  C   UNL     1      -9.004   4.481  67.441  1.00  0.00    -0.114 C  
HETATM   28  O   UNL     1     -10.032   7.037  66.026  1.00  0.00    -0.408 OA 
HETATM   29  C   UNL     1      -8.250   6.282  64.094  1.00  0.00    -0.010 A  
HETATM   30  C   UNL     1      -8.231   9.921  67.359  1.00  0.00    -0.118 A  
HETATM   31  H   UNL     1     -10.421   7.474  65.277  1.00  0.00     0.000 HD 
HETATM   32  C   UNL     1      -8.542  11.264  67.602  1.00  0.00    -0.124 A  
HETATM   33  C   UNL     1      -7.486   5.973  62.968  1.00  0.00    -0.066 A  
HETATM   34  C   UNL     1      -9.587  11.876  66.917  1.00  0.00    -0.208 A  
HETATM   35  C   UNL     1      -6.375   6.746  62.650  1.00  0.00    -0.043 A  
HETATM   36  C   UNL     1      -6.028   7.820  63.464  1.00  0.00    -0.058 A  
HETATM   37  C   UNL     1     -10.303  11.154  65.969  1.00  0.00    -0.308 A  
HETATM   38  C   UNL     1      -6.784   8.117  64.607  1.00  0.00    -0.067 A  
HETATM   39  C   UNL     1      -9.993   9.812  65.726  1.00  0.00    -0.349 A  
ENDBRANCH  18  19
ENDBRANCH  17  18
ENDBRANCH  16  17
ENDBRANCH  13  16
ENDBRANCH  10  13
ENDBRANCH   2   7
TORSDOF 6
ENDMDL
MODEL      127
REMARK 921   NORMALIZED FREE ENERGY PREDICTED BY IDOCK:   -4.41 KCAL/MOL
REMARK 922        TOTAL FREE ENERGY PREDICTED BY IDOCK:   -8.31 KCAL/MOL
REMARK 923 INTER-LIGAND FREE ENERGY PREDICTED BY IDOCK:   -7.52 KCAL/MOL
REMARK 924 INTRA-LIGAND FREE ENERGY PREDICTED BY IDOCK:   -0.79 KCAL/MOL
REMARK 927      BINDING AFFINITY PREDICTED BY RF-SCORE:    0.00 PKD
ROOT
HETATM    1  C   UNL     1     -13.700  15.434  71.155  1.00  0.00    -0.497 C  
HETATM    2  C   UNL     1     -12.603  14.359  71.333  1.00  0.00    -0.426 C  
HETATM    3  C   UNL     1     -13.221  13.180  72.112  1.00  0.00    -0.462 C  
HETATM    4  O   UNL     1     -14.389  13.116  72.474  1.00  0.00    -0.613 OA 
HETATM    5  C   UNL     1     -11.469  14.933  72.204  1.00  0.00    -0.194 C  
HETATM    6  O   UNL     1     -12.356  12.170  72.386  1.00  0.00     0.739 OA 
ENDROOT
BRANCH   2   7
HETATM    7  C   UNL     1     -12.084  13.985  69.936  1.00  0.00    -0.406 A  
HETATM    8  C   UNL     1     -11.914  14.984  68.959  1.00  0.00    -0.298 A  
HETATM    9  C   UNL     1     -11.596  14.661  67.640  1.00  0.00    -0.383 A  
HETATM   10  C   UNL     1     -11.403  13.325  67.270  1.00  0.00    -0.347 A  
HETATM   11  C   UNL     1     -11.852  12.657  69.559  1.00  0.00    -0.376 A  
HETATM   12  C   UNL     1     -11.482  12.337  68.257  1.00  0.00    -0.367 A  
BRANCH  10  13
HETATM   13  C   UNL     1     -11.193  12.951  65.821  1.00  0.00    -0.294 C  
HETATM   14  O   UNL     1     -10.167  13.791  65.312  1.00  0.00    -0.333 OA 
HETATM   15  H   UNL     1     -10.035  13.556  64.400  1.00  0.00     0.000 HD 
BRANCH  13  16
HETATM   16  C   UNL     1     -10.875  11.448  65.701  1.00  0.00    -0.280 C  
BRANCH  16  17
HETATM   17  C   UNL     1      -9.390  11.114  65.529  1.00  0.00    -0.247 C  
BRANCH  17  18
HETATM   18  C   UNL     1      -9.100   9.675  65.083  1.00  0.00    -0.228 C  
BRANCH  18  19
HETATM   19  N   UNL     1      -8.246   8.933  66.026  1.00  0.00    -0.114 NA 
HETATM   20  C   UNL     1      -8.754   8.939  67.402  1.00  0.00    -0.125 C  
HETATM   21  C   UNL     1      -9.969   8.032  67.632  1.00  0.00    -0.234 C  
HETATM   22  C   UNL     1      -9.767   6.563  67.176  1.00  0.00    -0.176 C  
HETATM   23  C   UNL     1      -8.966   5.670  68.215  1.00  0.00    -0.114 C  
HETATM   24  C   UNL     1      -9.192   6.618  65.737  1.00  0.00     0.067 C  
HETATM   25  C   UNL     1      -8.717   4.256  67.645  1.00  0.00    -0.116 A  
HETATM   26  C   UNL     1      -9.618   5.617  69.626  1.00  0.00    -0.197 A  
HETATM   27  C   UNL     1      -7.991   7.555  65.581  1.00  0.00    -0.117 C  
HETATM   28  O   UNL     1      -7.676   6.283  68.387  1.00  0.00    -0.100 OA 
HETATM   29  C   UNL     1      -7.523   3.962  66.952  1.00  0.00    -0.072 A  
HETATM   30  C   UNL     1     -10.992   5.827  69.848  1.00  0.00    -0.389 A  
HETATM   31  H   UNL     1      -7.196   5.749  69.009  1.00  0.00     0.000 HD 
HETATM   32  C   UNL     1     -11.524   5.870  71.142  1.00  0.00    -0.152 A  
HETATM   33  C   UNL     1      -7.302   2.713  66.368  1.00  0.00    -0.066 A  
HETATM   34  C   UNL     1     -10.700   5.673  72.245  1.00  0.00    -0.281 A  
HETATM   35  C   UNL     1      -8.263   1.714  66.481  1.00  0.00    -0.080 A  
HETATM   36  C   UNL     1      -9.443   1.970  67.171  1.00  0.00     0.074 A  
HETATM   37  C   UNL     1      -9.349   5.406  72.055  1.00  0.00    -0.163 A  
HETATM   38  C   UNL     1      -9.674   3.231  67.739  1.00  0.00    -0.012 A  
HETATM   39  C   UNL     1      -8.817   5.363  70.762  1.00  0.00    -0.145 A  
ENDBRANCH  18  19
ENDBRANCH  17  18
ENDBRANCH  16  17
ENDBRANCH  13  16
ENDBRANCH  10  13
ENDBRANCH   2   7
TORSDOF 6
ENDMDL
MODEL      128
REMARK 921   NORMALIZED FREE ENERGY PREDICTED BY IDOCK:   -4.40 KCAL/MOL
REMARK 922        TOTAL FREE ENERGY PREDICTED BY IDOCK:   -8.29 KCAL/MOL
REMARK 923 INTER-LIGAND FREE ENERGY PREDICTED BY IDOCK:   -6.37 KCAL/MOL
REMARK 924 INTRA-LIGAND FREE ENERGY PREDICTED BY IDOCK:   -1.93 KCAL/MOL
REMARK 927      BINDING AFFINITY PREDICTED BY RF-SCORE:    0.00 PKD
ROOT
HETATM    1  C   UNL     1     -11.738  12.052  67.201  1.00  0.00    -0.344 C  
HETATM    2  C   UNL     1     -10.654  11.852  66.117  1.00  0.00    -0.295 C  
HETATM    3  C   UNL     1     -11.125  12.578  64.840  1.00  0.00    -0.299 C  
HETATM    4  O   UNL     1     -12.158  13.227  64.746  1.00  0.00    -0.372 OA 
HETATM    5  C   UNL     1     -10.553  10.353  65.774  1.00  0.00    -0.100 C  
HETATM    6  O   UNL     1     -10.289  12.450  63.779  1.00  0.00    -0.411 OA 
ENDROOT
BRANCH   2   7
HETATM    7  C   UNL     1      -9.325  12.374  66.683  1.00  0.00    -0.227 A  
HETATM    8  C   UNL     1      -8.168  11.575  66.613  1.00  0.00    -0.156 A  
HETATM    9  C   UNL     1      -6.988  11.951  67.253  1.00  0.00    -0.145 A  
HETATM   10  C   UNL     1      -6.922  13.160  67.954  1.00  0.00    -0.132 A  
HETATM   11  C   UNL     1      -9.233  13.598  67.356  1.00  0.00    -0.222 A  
HETATM   12  C   UNL     1      -8.040  14.000  67.950  1.00  0.00    -0.156 A  
BRANCH  10  13
HETATM   13  C   UNL     1      -5.696  13.514  68.763  1.00  0.00    -0.082 C  
HETATM   14  O   UNL     1      -5.559  14.928  68.725  1.00  0.00    -0.083 OA 
HETATM   15  H   UNL     1      -4.788  15.151  69.234  1.00  0.00     0.000 HD 
BRANCH  13  16
HETATM   16  C   UNL     1      -5.820  12.947  70.191  1.00  0.00    -0.155 C  
BRANCH  16  17
HETATM   17  C   UNL     1      -5.206  11.558  70.390  1.00  0.00    -0.105 C  
BRANCH  17  18
HETATM   18  C   UNL     1      -5.948  10.662  71.391  1.00  0.00     0.338 C  
BRANCH  18  19
HETATM   19  N   UNL     1      -5.864   9.229  71.064  1.00  0.00    -0.053 NA 
HETATM   20  C   UNL     1      -6.518   8.365  72.053  1.00  0.00    -0.069 C  
HETATM   21  C   UNL     1      -8.049   8.390  71.999  1.00  0.00    -0.194 C  
HETATM   22  C   UNL     1      -8.647   8.094  70.598  1.00  0.00    -0.130 C  
HETATM   23  C   UNL     1      -8.708   6.549  70.238  1.00  0.00    -0.151 C  
HETATM   24  C   UNL     1      -7.892   9.000  69.592  1.00  0.00    -0.088 C  
HETATM   25  C   UNL     1      -9.215   6.343  68.793  1.00  0.00    -0.127 A  
HETATM   26  C   UNL     1      -9.517   5.700  71.259  1.00  0.00    -0.179 A  
HETATM   27  C   UNL     1      -6.367   8.934  69.714  1.00  0.00    -0.035 C  
HETATM   28  O   UNL     1      -7.357   6.055  70.280  1.00  0.00    -0.082 OA 
HETATM   29  C   UNL     1      -8.303   6.234  67.721  1.00  0.00    -0.117 A  
HETATM   30  C   UNL     1     -10.536   6.237  72.071  1.00  0.00    -0.239 A  
HETATM   31  H   UNL     1      -7.394   5.131  70.064  1.00  0.00     0.000 HD 
HETATM   32  C   UNL     1     -11.173   5.465  73.048  1.00  0.00    -0.370 A  
HETATM   33  C   UNL     1      -8.734   6.117  66.399  1.00  0.00    -0.138 A  
HETATM   34  C   UNL     1     -10.829   4.128  73.219  1.00  0.00    -0.315 A  
HETATM   35  C   UNL     1     -10.095   6.082  66.114  1.00  0.00     0.025 A  
HETATM   36  C   UNL     1     -11.018   6.172  67.151  1.00  0.00    -0.420 A  
HETATM   37  C   UNL     1      -9.868   3.554  72.393  1.00  0.00    -0.229 A  
HETATM   38  C   UNL     1     -10.584   6.313  68.476  1.00  0.00    -0.315 A  
HETATM   39  C   UNL     1      -9.231   4.326  71.417  1.00  0.00    -0.194 A  
ENDBRANCH  18  19
ENDBRANCH  17  18
ENDBRANCH  16  17
ENDBRANCH  13  16
ENDBRANCH  10  13
ENDBRANCH   2   7
TORSDOF 6
ENDMDL
MODEL      129
REMARK 921   NORMALIZED FREE ENERGY PREDICTED BY IDOCK:   -4.34 KCAL/MOL
REMARK 922        TOTAL FREE ENERGY PREDICTED BY IDOCK:   -8.21 KCAL/MOL
REMARK 923 INTER-LIGAND FREE ENERGY PREDICTED BY IDOCK:   -7.08 KCAL/MOL
REMARK 924 INTRA-LIGAND FREE ENERGY PREDICTED BY IDOCK:   -1.13 KCAL/MOL
REMARK 927      BINDING AFFINITY PREDICTED BY RF-SCORE:    0.00 PKD
ROOT
HETATM    1  C   UNL     1     -12.515  14.206  65.354  1.00  0.00    -0.488 C  
HETATM    2  C   UNL     1     -11.038  13.809  65.589  1.00  0.00    -0.297 C  
HETATM    3  C   UNL     1     -10.249  15.097  65.901  1.00  0.00    -0.324 C  
HETATM    4  O   UNL     1     -10.740  16.215  65.983  1.00  0.00    -0.308 OA 
HETATM    5  C   UNL     1     -10.458  13.226  64.286  1.00  0.00    -0.372 C  
HETATM    6  O   UNL     1      -8.917  14.911  66.086  1.00  0.00    -0.232 OA 
ENDROOT
BRANCH   2   7
HETATM    7  C   UNL     1     -11.009  12.766  66.716  1.00  0.00    -0.301 A  
HETATM    8  C   UNL     1     -10.623  11.441  66.438  1.00  0.00    -0.311 A  
HETATM    9  C   UNL     1     -10.735  10.438  67.399  1.00  0.00    -0.338 A  
HETATM   10  C   UNL     1     -11.203  10.740  68.682  1.00  0.00    -0.333 A  
HETATM   11  C   UNL     1     -11.441  13.061  68.015  1.00  0.00    -0.348 A  
HETATM   12  C   UNL     1     -11.502  12.071  68.991  1.00  0.00    -0.357 A  
BRANCH  10  13
HETATM   13  C   UNL     1     -11.458   9.642  69.688  1.00  0.00    -0.001 C  
HETATM   14  O   UNL     1     -11.257   8.403  69.021  1.00  0.00    -0.412 OA 
HETATM   15  H   UNL     1     -11.417   7.712  69.653  1.00  0.00     0.000 HD 
BRANCH  13  16
HETATM   16  C   UNL     1     -10.554   9.830  70.921  1.00  0.00    -0.344 C  
BRANCH  16  17
HETATM   17  C   UNL     1      -9.232   9.059  70.877  1.00  0.00    -0.320 C  
BRANCH  17  18
HETATM   18  C   UNL     1      -8.147   9.687  69.992  1.00  0.00    -0.178 C  
BRANCH  18  19
HETATM   19  N   UNL     1      -7.140   8.717  69.527  1.00  0.00    -0.054 NA 
HETATM   20  C   UNL     1      -7.405   7.344  69.968  1.00  0.00    -0.082 C  
HETATM   21  C   UNL     1      -8.558   6.654  69.230  1.00  0.00    -0.131 C  
HETATM   22  C   UNL     1      -8.430   6.670  67.684  1.00  0.00    -0.121 C  
HETATM   23  C   UNL     1      -7.457   5.556  67.106  1.00  0.00    -0.084 C  
HETATM   24  C   UNL     1      -8.110   8.132  67.279  1.00  0.00    -0.121 C  
HETATM   25  C   UNL     1      -7.303   5.704  65.576  1.00  0.00    -0.073 A  
HETATM   26  C   UNL     1      -7.858   4.108  67.508  1.00  0.00    -0.091 A  
HETATM   27  C   UNL     1      -6.958   8.760  68.068  1.00  0.00    -0.078 C  
HETATM   28  O   UNL     1      -6.160   5.793  67.681  1.00  0.00    -0.020 OA 
HETATM   29  C   UNL     1      -6.244   6.462  65.032  1.00  0.00    -0.030 A  
HETATM   30  C   UNL     1      -9.175   3.737  67.839  1.00  0.00    -0.218 A  
HETATM   31  H   UNL     1      -5.578   5.127  67.335  1.00  0.00     0.000 HD 
HETATM   32  C   UNL     1      -9.478   2.448  68.292  1.00  0.00    -0.222 A  
HETATM   33  C   UNL     1      -6.120   6.669  63.657  1.00  0.00    -0.034 A  
HETATM   34  C   UNL     1      -8.477   1.488  68.396  1.00  0.00    -0.081 A  
HETATM   35  C   UNL     1      -7.041   6.102  62.784  1.00  0.00    -0.050 A  
HETATM   36  C   UNL     1      -8.088   5.337  63.290  1.00  0.00    -0.104 A  
HETATM   37  C   UNL     1      -7.177   1.808  68.020  1.00  0.00    -0.043 A  
HETATM   38  C   UNL     1      -8.224   5.148  64.672  1.00  0.00    -0.132 A  
HETATM   39  C   UNL     1      -6.873   3.097  67.568  1.00  0.00    -0.046 A  
ENDBRANCH  18  19
ENDBRANCH  17  18
ENDBRANCH  16  17
ENDBRANCH  13  16
ENDBRANCH  10  13
ENDBRANCH   2   7
TORSDOF 6
ENDMDL
MODEL      130
REMARK 921   NORMALIZED FREE ENERGY PREDICTED BY IDOCK:   -4.33 KCAL/MOL
REMARK 922        TOTAL FREE ENERGY PREDICTED BY IDOCK:   -8.20 KCAL/MOL
REMARK 923 INTER-LIGAND FREE ENERGY PREDICTED BY IDOCK:   -7.24 KCAL/MOL
REMARK 924 INTRA-LIGAND FREE ENERGY PREDICTED BY IDOCK:   -0.96 KCAL/MOL
REMARK 927      BINDING AFFINITY PREDICTED BY RF-SCORE:    0.00 PKD
ROOT
HETATM    1  C   UNL     1      -9.946  14.887  69.869  1.00  0.00     0.080 C  
HETATM    2  C   UNL     1     -11.320  14.595  69.220  1.00  0.00    -0.313 C  
HETATM    3  C   UNL     1     -11.096  14.421  67.704  1.00  0.00    -0.300 C  
HETATM    4  O   UNL     1     -10.007  14.467  67.148  1.00  0.00    -0.246 OA 
HETATM    5  C   UNL     1     -12.236  15.820  69.405  1.00  0.00    -0.149 C  
HETATM    6  O   UNL     1     -12.229  14.203  66.989  1.00  0.00    -0.432 OA 
ENDROOT
BRANCH   2   7
HETATM    7  C   UNL     1     -11.911  13.360  69.915  1.00  0.00    -0.385 A  
HETATM    8  C   UNL     1     -12.660  13.508  71.097  1.00  0.00    -0.438 A  
HETATM    9  C   UNL     1     -13.077  12.401  71.835  1.00  0.00    -0.471 A  
HETATM   10  C   UNL     1     -12.785  11.107  71.389  1.00  0.00    -0.524 A  
HETATM   11  C   UNL     1     -11.658  12.059  69.461  1.00  0.00    -0.389 A  
HETATM   12  C   UNL     1     -12.119  10.953  70.168  1.00  0.00    -0.431 A  
BRANCH  10  13
HETATM   13  C   UNL     1     -13.110   9.906  72.245  1.00  0.00    -0.327 C  
HETATM   14  O   UNL     1     -14.191   9.224  71.623  1.00  0.00    -0.227 OA 
HETATM   15  H   UNL     1     -14.396   8.469  72.162  1.00  0.00     0.000 HD 
BRANCH  13  16
HETATM   16  C   UNL     1     -11.856   9.030  72.431  1.00  0.00    -0.212 C  
BRANCH  16  17
HETATM   17  C   UNL     1     -12.109   7.521  72.383  1.00  0.00    -0.216 C  
BRANCH  17  18
HETATM   18  C   UNL     1     -10.926   6.684  71.877  1.00  0.00    -0.244 C  
BRANCH  18  19
HETATM   19  N   UNL     1     -10.995   6.388  70.436  1.00  0.00    -0.282 NA 
HETATM   20  C   UNL     1     -11.422   7.532  69.625  1.00  0.00     0.195 C  
HETATM   21  C   UNL     1     -10.355   8.618  69.452  1.00  0.00    -0.221 C  
HETATM   22  C   UNL     1      -8.995   8.101  68.915  1.00  0.00    -0.141 C  
HETATM   23  C   UNL     1      -8.961   7.887  67.342  1.00  0.00    -0.127 C  
HETATM   24  C   UNL     1      -8.614   6.871  69.780  1.00  0.00    -0.141 C  
HETATM   25  C   UNL     1      -7.614   7.274  66.901  1.00  0.00    -0.105 A  
HETATM   26  C   UNL     1      -9.306   9.168  66.531  1.00  0.00    -0.244 A  
HETATM   27  C   UNL     1      -9.733   5.836  69.920  1.00  0.00    -0.164 C  
HETATM   28  O   UNL     1      -9.981   6.921  67.030  1.00  0.00    -0.169 OA 
HETATM   29  C   UNL     1      -7.468   5.876  66.777  1.00  0.00    -0.087 A  
HETATM   30  C   UNL     1      -9.118  10.471  67.031  1.00  0.00    -0.156 A  
HETATM   31  H   UNL     1      -9.961   6.793  66.089  1.00  0.00     0.000 HD 
HETATM   32  C   UNL     1      -9.534  11.596  66.309  1.00  0.00    -0.233 A  
HETATM   33  C   UNL     1      -6.243   5.292  66.447  1.00  0.00    -0.035 A  
HETATM   34  C   UNL     1     -10.119  11.448  65.056  1.00  0.00    -0.323 A  
HETATM   35  C   UNL     1      -5.134   6.095  66.209  1.00  0.00    -0.012 A  
HETATM   36  C   UNL     1      -5.251   7.478  66.309  1.00  0.00    -0.024 A  
HETATM   37  C   UNL     1     -10.265  10.177  64.511  1.00  0.00     0.005 A  
HETATM   38  C   UNL     1      -6.475   8.062  66.662  1.00  0.00    -0.055 A  
HETATM   39  C   UNL     1      -9.851   9.053  65.232  1.00  0.00     0.308 A  
ENDBRANCH  18  19
ENDBRANCH  17  18
ENDBRANCH  16  17
ENDBRANCH  13  16
ENDBRANCH  10  13
ENDBRANCH   2   7
TORSDOF 6
ENDMDL
MODEL      131
REMARK 921   NORMALIZED FREE ENERGY PREDICTED BY IDOCK:   -4.31 KCAL/MOL
REMARK 922        TOTAL FREE ENERGY PREDICTED BY IDOCK:   -8.18 KCAL/MOL
REMARK 923 INTER-LIGAND FREE ENERGY PREDICTED BY IDOCK:   -7.58 KCAL/MOL
REMARK 924 INTRA-LIGAND FREE ENERGY PREDICTED BY IDOCK:   -0.59 KCAL/MOL
REMARK 927      BINDING AFFINITY PREDICTED BY RF-SCORE:    0.00 PKD
ROOT
HETATM    1  C   UNL     1      -8.646   1.606  66.164  1.00  0.00    -0.108 C  
HETATM    2  C   UNL     1      -7.628   2.738  65.896  1.00  0.00    -0.073 C  
HETATM    3  C   UNL     1      -7.020   2.503  64.498  1.00  0.00    -0.048 C  
HETATM    4  O   UNL     1      -7.340   1.597  63.740  1.00  0.00    -0.048 OA 
HETATM    5  C   UNL     1      -6.475   2.634  66.914  1.00  0.00    -0.035 C  
HETATM    6  O   UNL     1      -6.067   3.401  64.139  1.00  0.00    -0.017 OA 
ENDROOT
BRANCH   2   7
HETATM    7  C   UNL     1      -8.367   4.076  66.042  1.00  0.00    -0.109 A  
HETATM    8  C   UNL     1      -7.643   5.257  66.294  1.00  0.00    -0.088 A  
HETATM    9  C   UNL     1      -8.291   6.456  66.586  1.00  0.00    -0.113 A  
HETATM   10  C   UNL     1      -9.689   6.516  66.600  1.00  0.00    -0.201 A  
HETATM   11  C   UNL     1      -9.765   4.160  66.023  1.00  0.00    -0.212 A  
HETATM   12  C   UNL     1     -10.413   5.368  66.262  1.00  0.00    -0.277 A  
BRANCH  10  13
HETATM   13  C   UNL     1     -10.401   7.771  67.047  1.00  0.00    -0.334 C  
HETATM   14  O   UNL     1     -10.812   7.566  68.393  1.00  0.00    -0.391 OA 
HETATM   15  H   UNL     1     -11.261   8.355  68.674  1.00  0.00     0.000 HD 
BRANCH  13  16
HETATM   16  C   UNL     1      -9.486   8.997  66.863  1.00  0.00    -0.219 C  
BRANCH  16  17
HETATM   17  C   UNL     1      -9.674   9.752  65.545  1.00  0.00    -0.382 C  
BRANCH  17  18
HETATM   18  C   UNL     1     -10.142  11.206  65.694  1.00  0.00    -0.253 C  
BRANCH  18  19
HETATM   19  N   UNL     1      -9.681  11.841  66.941  1.00  0.00    -0.195 NA 
HETATM   20  C   UNL     1      -9.257  13.233  66.764  1.00  0.00    -0.233 C  
HETATM   21  C   UNL     1     -10.408  14.225  66.566  1.00  0.00    -0.278 C  
HETATM   22  C   UNL     1     -11.500  14.168  67.667  1.00  0.00    -0.364 C  
HETATM   23  C   UNL     1     -11.119  14.951  68.995  1.00  0.00    -0.250 C  
HETATM   24  C   UNL     1     -11.879  12.674  67.840  1.00  0.00    -0.388 C  
HETATM   25  C   UNL     1     -12.207  14.760  70.075  1.00  0.00    -0.383 A  
HETATM   26  C   UNL     1     -10.795  16.454  68.762  1.00  0.00    -0.338 A  
HETATM   27  C   UNL     1     -10.678  11.742  68.018  1.00  0.00    -0.208 C  
HETATM   28  O   UNL     1      -9.915  14.350  69.504  1.00  0.00    -0.418 OA 
HETATM   29  C   UNL     1     -12.096  13.725  71.029  1.00  0.00    -0.324 A  
HETATM   30  C   UNL     1     -11.301  17.192  67.674  1.00  0.00     0.309 A  
HETATM   31  H   UNL     1      -9.687  14.818  70.298  1.00  0.00     0.000 HD 
HETATM   32  C   UNL     1     -10.907  18.515  67.444  1.00  0.00    -0.342 A  
HETATM   33  C   UNL     1     -13.097  13.487  71.972  1.00  0.00    -0.481 A  
HETATM   34  C   UNL     1     -10.021  19.143  68.312  1.00  0.00    -0.482 A  
HETATM   35  C   UNL     1     -14.229  14.294  72.002  1.00  0.00    -0.631 A  
HETATM   36  C   UNL     1     -14.359  15.331  71.084  1.00  0.00    -0.384 A  
HETATM   37  C   UNL     1      -9.550  18.459  69.427  1.00  0.00     0.170 A  
HETATM   38  C   UNL     1     -13.364  15.555  70.122  1.00  0.00     0.367 A  
HETATM   39  C   UNL     1      -9.943  17.137  69.658  1.00  0.00     0.176 A  
ENDBRANCH  18  19
ENDBRANCH  17  18
ENDBRANCH  16  17
ENDBRANCH  13  16
ENDBRANCH  10  13
ENDBRANCH   2   7
TORSDOF 6
ENDMDL
MODEL      132
REMARK 921   NORMALIZED FREE ENERGY PREDICTED BY IDOCK:   -4.31 KCAL/MOL
REMARK 922        TOTAL FREE ENERGY PREDICTED BY IDOCK:   -8.17 KCAL/MOL
REMARK 923 INTER-LIGAND FREE ENERGY PREDICTED BY IDOCK:   -7.05 KCAL/MOL
REMARK 924 INTRA-LIGAND FREE ENERGY PREDICTED BY IDOCK:   -1.12 KCAL/MOL
REMARK 927      BINDING AFFINITY PREDICTED BY RF-SCORE:    0.00 PKD
ROOT
HETATM    1  C   UNL     1     -10.373  16.974  68.679  1.00  0.00    -0.351 C  
HETATM    2  C   UNL     1      -9.820  16.972  67.235  1.00  0.00    -0.260 C  
HETATM    3  C   UNL     1      -8.289  17.143  67.317  1.00  0.00    -0.192 C  
HETATM    4  O   UNL     1      -7.649  17.221  68.357  1.00  0.00    -0.220 OA 
HETATM    5  C   UNL     1     -10.373  18.195  66.480  1.00  0.00    -0.397 C  
HETATM    6  O   UNL     1      -7.664  17.206  66.114  1.00  0.00    -0.307 OA 
ENDROOT
BRANCH   2   7
HETATM    7  C   UNL     1     -10.270  15.665  66.564  1.00  0.00    -0.291 A  
HETATM    8  C   UNL     1     -10.623  15.659  65.202  1.00  0.00    -0.449 A  
HETATM    9  C   UNL     1     -11.183  14.532  64.603  1.00  0.00    -0.359 A  
HETATM   10  C   UNL     1     -11.373  13.361  65.346  1.00  0.00    -0.309 A  
HETATM   11  C   UNL     1     -10.432  14.476  67.286  1.00  0.00    -0.266 A  
HETATM   12  C   UNL     1     -10.941  13.333  66.676  1.00  0.00    -0.297 A  
BRANCH  10  13
HETATM   13  C   UNL     1     -12.102  12.180  64.749  1.00  0.00    -0.294 C  
HETATM   14  O   UNL     1     -13.391  12.633  64.358  1.00  0.00    -0.568 OA 
HETATM   15  H   UNL     1     -13.850  11.890  63.983  1.00  0.00     0.000 HD 
BRANCH  13  16
HETATM   16  C   UNL     1     -11.283  11.580  63.590  1.00  0.00    -0.451 C  
BRANCH  16  17
HETATM   17  C   UNL     1      -9.816  11.288  63.918  1.00  0.00    -0.341 C  
BRANCH  17  18
HETATM   18  C   UNL     1      -9.484   9.804  64.123  1.00  0.00    -0.097 C  
BRANCH  18  19
HETATM   19  N   UNL     1      -8.166   9.581  64.742  1.00  0.00    -0.133 NA 
HETATM   20  C   UNL     1      -8.078  10.073  66.120  1.00  0.00    -0.122 C  
HETATM   21  C   UNL     1      -8.818   9.211  67.149  1.00  0.00    -0.130 C  
HETATM   22  C   UNL     1      -8.429   7.709  67.124  1.00  0.00    -0.121 C  
HETATM   23  C   UNL     1      -7.079   7.380  67.893  1.00  0.00    -0.085 C  
HETATM   24  C   UNL     1      -8.499   7.255  65.644  1.00  0.00    -0.138 C  
HETATM   25  C   UNL     1      -6.708   5.889  67.736  1.00  0.00    -0.058 A  
HETATM   26  C   UNL     1      -7.088   7.818  69.386  1.00  0.00    -0.071 A  
HETATM   27  C   UNL     1      -7.750   8.172  64.673  1.00  0.00    -0.118 C  
HETATM   28  O   UNL     1      -6.038   8.140  67.254  1.00  0.00    -0.051 OA 
HETATM   29  C   UNL     1      -5.848   5.470  66.697  1.00  0.00    -0.018 A  
HETATM   30  C   UNL     1      -8.269   7.957  70.140  1.00  0.00    -0.125 A  
HETATM   31  H   UNL     1      -5.230   7.943  67.714  1.00  0.00     0.000 HD 
HETATM   32  C   UNL     1      -8.244   8.449  71.450  1.00  0.00    -0.172 A  
HETATM   33  C   UNL     1      -5.551   4.122  66.489  1.00  0.00    -0.018 A  
HETATM   34  C   UNL     1      -7.034   8.785  72.050  1.00  0.00    -0.041 A  
HETATM   35  C   UNL     1      -6.089   3.155  67.332  1.00  0.00    -0.028 A  
HETATM   36  C   UNL     1      -6.927   3.540  68.373  1.00  0.00    -0.050 A  
HETATM   37  C   UNL     1      -5.847   8.603  71.350  1.00  0.00    -0.044 A  
HETATM   38  C   UNL     1      -7.243   4.892  68.567  1.00  0.00    -0.062 A  
HETATM   39  C   UNL     1      -5.871   8.112  70.040  1.00  0.00    -0.022 A  
ENDBRANCH  18  19
ENDBRANCH  17  18
ENDBRANCH  16  17
ENDBRANCH  13  16
ENDBRANCH  10  13
ENDBRANCH   2   7
TORSDOF 6
ENDMDL
MODEL      133
REMARK 921   NORMALIZED FREE ENERGY PREDICTED BY IDOCK:   -4.30 KCAL/MOL
REMARK 922        TOTAL FREE ENERGY PREDICTED BY IDOCK:   -8.16 KCAL/MOL
REMARK 923 INTER-LIGAND FREE ENERGY PREDICTED BY IDOCK:   -5.49 KCAL/MOL
REMARK 924 INTRA-LIGAND FREE ENERGY PREDICTED BY IDOCK:   -2.67 KCAL/MOL
REMARK 927      BINDING AFFINITY PREDICTED BY RF-SCORE:    0.00 PKD
ROOT
HETATM    1  C   UNL     1      -7.543   4.532  65.968  1.00  0.00    -0.086 C  
HETATM    2  C   UNL     1      -8.769   5.070  65.194  1.00  0.00    -0.150 C  
HETATM    3  C   UNL     1      -9.895   4.023  65.311  1.00  0.00    -0.197 C  
HETATM    4  O   UNL     1      -9.817   2.980  65.946  1.00  0.00     0.101 OA 
HETATM    5  C   UNL     1      -8.412   5.187  63.700  1.00  0.00    -0.115 C  
HETATM    6  O   UNL     1     -11.030   4.339  64.637  1.00  0.00    -0.236 OA 
ENDROOT
BRANCH   2   7
HETATM    7  C   UNL     1      -9.125   6.444  65.781  1.00  0.00    -0.021 A  
HETATM    8  C   UNL     1     -10.173   6.560  66.714  1.00  0.00    -0.257 A  
HETATM    9  C   UNL     1     -10.623   7.807  67.146  1.00  0.00    -0.401 A  
HETATM   10  C   UNL     1     -10.011   8.976  66.682  1.00  0.00    -0.349 A  
HETATM   11  C   UNL     1      -8.498   7.621  65.353  1.00  0.00    -0.110 A  
HETATM   12  C   UNL     1      -8.912   8.863  65.825  1.00  0.00    -0.249 A  
BRANCH  10  13
HETATM   13  C   UNL     1     -10.575  10.332  67.035  1.00  0.00    -0.239 C  
HETATM   14  O   UNL     1     -11.593  10.128  68.006  1.00  0.00    -0.665 OA 
HETATM   15  H   UNL     1     -11.948  10.981  68.227  1.00  0.00     0.000 HD 
BRANCH  13  16
HETATM   16  C   UNL     1      -9.449  11.269  67.512  1.00  0.00    -0.177 C  
BRANCH  16  17
HETATM   17  C   UNL     1      -8.812  10.885  68.850  1.00  0.00    -0.143 C  
BRANCH  17  18
HETATM   18  C   UNL     1      -7.342  10.453  68.764  1.00  0.00    -0.089 C  
BRANCH  18  19
HETATM   19  N   UNL     1      -6.922   9.589  69.880  1.00  0.00    -0.068 NA 
HETATM   20  C   UNL     1      -8.013   9.250  70.799  1.00  0.00    -0.154 C  
HETATM   21  C   UNL     1      -9.009   8.224  70.247  1.00  0.00    -0.142 C  
HETATM   22  C   UNL     1      -8.358   6.912  69.733  1.00  0.00    -0.132 C  
HETATM   23  C   UNL     1      -8.002   5.876  70.882  1.00  0.00    -0.111 C  
HETATM   24  C   UNL     1      -7.189   7.330  68.804  1.00  0.00    -0.090 C  
HETATM   25  C   UNL     1      -7.266   4.647  70.303  1.00  0.00    -0.050 A  
HETATM   26  C   UNL     1      -9.224   5.461  71.749  1.00  0.00    -0.160 A  
HETATM   27  C   UNL     1      -6.245   8.368  69.416  1.00  0.00    -0.037 C  
HETATM   28  O   UNL     1      -7.080   6.535  71.768  1.00  0.00    -0.080 OA 
HETATM   29  C   UNL     1      -5.856   4.608  70.265  1.00  0.00    -0.017 A  
HETATM   30  C   UNL     1     -10.552   5.509  71.283  1.00  0.00    -0.304 A  
HETATM   31  H   UNL     1      -6.866   5.915  72.456  1.00  0.00     0.000 HD 
HETATM   32  C   UNL     1     -11.632   5.223  72.125  1.00  0.00     0.076 A  
HETATM   33  C   UNL     1      -5.166   3.542  69.685  1.00  0.00    -0.008 A  
HETATM   34  C   UNL     1     -11.410   4.851  73.447  1.00  0.00    -0.379 A  
HETATM   35  C   UNL     1      -5.871   2.471  69.147  1.00  0.00    -0.023 A  
HETATM   36  C   UNL     1      -7.262   2.474  69.183  1.00  0.00    -0.044 A  
HETATM   37  C   UNL     1     -10.108   4.738  73.920  1.00  0.00    -0.218 A  
HETATM   38  C   UNL     1      -7.954   3.556  69.745  1.00  0.00    -0.056 A  
HETATM   39  C   UNL     1      -9.028   5.025  73.079  1.00  0.00    -0.115 A  
ENDBRANCH  18  19
ENDBRANCH  17  18
ENDBRANCH  16  17
ENDBRANCH  13  16
ENDBRANCH  10  13
ENDBRANCH   2   7
TORSDOF 6
ENDMDL
MODEL      134
REMARK 921   NORMALIZED FREE ENERGY PREDICTED BY IDOCK:   -4.30 KCAL/MOL
REMARK 922        TOTAL FREE ENERGY PREDICTED BY IDOCK:   -8.16 KCAL/MOL
REMARK 923 INTER-LIGAND FREE ENERGY PREDICTED BY IDOCK:   -7.31 KCAL/MOL
REMARK 924 INTRA-LIGAND FREE ENERGY PREDICTED BY IDOCK:   -0.85 KCAL/MOL
REMARK 927      BINDING AFFINITY PREDICTED BY RF-SCORE:    0.00 PKD
ROOT
HETATM    1  C   UNL     1     -10.359  15.852  68.969  1.00  0.00    -0.231 C  
HETATM    2  C   UNL     1     -10.476  15.401  67.495  1.00  0.00    -0.275 C  
HETATM    3  C   UNL     1     -10.400  16.662  66.609  1.00  0.00    -0.296 C  
HETATM    4  O   UNL     1     -10.233  17.800  67.027  1.00  0.00    -0.321 OA 
HETATM    5  C   UNL     1     -11.864  14.771  67.267  1.00  0.00    -0.316 C  
HETATM    6  O   UNL     1     -10.536  16.426  65.280  1.00  0.00    -0.548 OA 
ENDROOT
BRANCH   2   7
HETATM    7  C   UNL     1      -9.361  14.379  67.229  1.00  0.00    -0.211 A  
HETATM    8  C   UNL     1      -9.659  13.165  66.582  1.00  0.00    -0.260 A  
HETATM    9  C   UNL     1      -8.707  12.153  66.465  1.00  0.00    -0.114 A  
HETATM   10  C   UNL     1      -7.413  12.343  66.963  1.00  0.00    -0.037 A  
HETATM   11  C   UNL     1      -8.052  14.569  67.690  1.00  0.00    -0.190 A  
HETATM   12  C   UNL     1      -7.086  13.581  67.526  1.00  0.00    -0.159 A  
BRANCH  10  13
HETATM   13  C   UNL     1      -6.415  11.209  66.966  1.00  0.00    -0.107 C  
HETATM   14  O   UNL     1      -5.615  11.347  65.800  1.00  0.00    -0.458 OA 
HETATM   15  H   UNL     1      -4.987  10.634  65.801  1.00  0.00     0.000 HD 
BRANCH  13  16
HETATM   16  C   UNL     1      -5.603  11.218  68.275  1.00  0.00    -0.045 C  
BRANCH  16  17
HETATM   17  C   UNL     1      -5.155   9.840  68.768  1.00  0.00    -0.036 C  
BRANCH  17  18
HETATM   18  C   UNL     1      -5.150   9.669  70.293  1.00  0.00    -0.028 C  
BRANCH  18  19
HETATM   19  N   UNL     1      -5.900   8.487  70.750  1.00  0.00    -0.032 NA 
HETATM   20  C   UNL     1      -7.116   8.821  71.499  1.00  0.00    -0.083 C  
HETATM   21  C   UNL     1      -8.269   9.343  70.634  1.00  0.00    -0.207 C  
HETATM   22  C   UNL     1      -8.647   8.420  69.445  1.00  0.00    -0.129 C  
HETATM   23  C   UNL     1      -9.572   7.194  69.850  1.00  0.00    -0.163 C  
HETATM   24  C   UNL     1      -7.325   8.067  68.718  1.00  0.00    -0.085 C  
HETATM   25  C   UNL     1      -9.817   6.269  68.638  1.00  0.00    -0.152 A  
HETATM   26  C   UNL     1     -10.903   7.615  70.534  1.00  0.00    -0.249 A  
HETATM   27  C   UNL     1      -6.215   7.567  69.646  1.00  0.00    -0.031 C  
HETATM   28  O   UNL     1      -8.842   6.424  70.822  1.00  0.00    -0.142 OA 
HETATM   29  C   UNL     1      -8.982   5.156  68.404  1.00  0.00    -0.118 A  
HETATM   30  C   UNL     1     -11.510   8.870  70.331  1.00  0.00    -0.182 A  
HETATM   31  H   UNL     1      -9.395   5.690  71.064  1.00  0.00     0.000 HD 
HETATM   32  C   UNL     1     -12.655   9.249  71.041  1.00  0.00    -0.248 A  
HETATM   33  C   UNL     1      -9.138   4.344  67.279  1.00  0.00    -0.145 A  
HETATM   34  C   UNL     1     -13.240   8.372  71.948  1.00  0.00    -0.381 A  
HETATM   35  C   UNL     1     -10.152   4.611  66.366  1.00  0.00    -0.289 A  
HETATM   36  C   UNL     1     -11.001   5.693  66.578  1.00  0.00    -0.140 A  
HETATM   37  C   UNL     1     -12.697   7.105  72.126  1.00  0.00    -0.130 A  
HETATM   38  C   UNL     1     -10.829   6.521  67.696  1.00  0.00    -0.419 A  
HETATM   39  C   UNL     1     -11.553   6.725  71.418  1.00  0.00    -0.350 A  
ENDBRANCH  18  19
ENDBRANCH  17  18
ENDBRANCH  16  17
ENDBRANCH  13  16
ENDBRANCH  10  13
ENDBRANCH   2   7
TORSDOF 6
ENDMDL
MODEL      135
REMARK 921   NORMALIZED FREE ENERGY PREDICTED BY IDOCK:   -4.27 KCAL/MOL
REMARK 922        TOTAL FREE ENERGY PREDICTED BY IDOCK:   -8.12 KCAL/MOL
REMARK 923 INTER-LIGAND FREE ENERGY PREDICTED BY IDOCK:   -6.11 KCAL/MOL
REMARK 924 INTRA-LIGAND FREE ENERGY PREDICTED BY IDOCK:   -2.01 KCAL/MOL
REMARK 927      BINDING AFFINITY PREDICTED BY RF-SCORE:    0.00 PKD
ROOT
HETATM    1  C   UNL     1      -8.537   6.397  70.385  1.00  0.00    -0.142 C  
HETATM    2  C   UNL     1      -8.984   5.629  69.120  1.00  0.00    -0.120 C  
HETATM    3  C   UNL     1     -10.443   6.027  68.818  1.00  0.00    -0.248 C  
HETATM    4  O   UNL     1     -11.092   6.842  69.460  1.00  0.00    -0.252 OA 
HETATM    5  C   UNL     1      -8.979   4.117  69.418  1.00  0.00    -0.161 C  
HETATM    6  O   UNL     1     -10.992   5.392  67.752  1.00  0.00    -0.034 OA 
ENDROOT
BRANCH   2   7
HETATM    7  C   UNL     1      -7.995   5.968  67.994  1.00  0.00    -0.109 A  
HETATM    8  C   UNL     1      -7.056   7.002  68.170  1.00  0.00    -0.085 A  
HETATM    9  C   UNL     1      -6.253   7.438  67.117  1.00  0.00    -0.051 A  
HETATM   10  C   UNL     1      -6.341   6.825  65.863  1.00  0.00    -0.049 A  
HETATM   11  C   UNL     1      -8.047   5.339  66.744  1.00  0.00    -0.105 A  
HETATM   12  C   UNL     1      -7.208   5.737  65.708  1.00  0.00    -0.075 A  
BRANCH  10  13
HETATM   13  C   UNL     1      -5.578   7.375  64.681  1.00  0.00    -0.033 C  
HETATM   14  O   UNL     1      -5.924   6.586  63.551  1.00  0.00    -0.029 OA 
HETATM   15  H   UNL     1      -5.443   6.932  62.807  1.00  0.00     0.000 HD 
BRANCH  13  16
HETATM   16  C   UNL     1      -5.883   8.874  64.502  1.00  0.00    -0.065 C  
BRANCH  16  17
HETATM   17  C   UNL     1      -7.372   9.231  64.472  1.00  0.00    -0.101 C  
BRANCH  17  18
HETATM   18  C   UNL     1      -7.764  10.437  65.337  1.00  0.00    -0.136 C  
BRANCH  18  19
HETATM   19  N   UNL     1      -9.209  10.516  65.606  1.00  0.00    -0.177 NA 
HETATM   20  C   UNL     1      -9.671   9.546  66.604  1.00  0.00    -0.211 C  
HETATM   21  C   UNL     1      -9.282   9.889  68.047  1.00  0.00    -0.129 C  
HETATM   22  C   UNL     1      -9.695  11.314  68.500  1.00  0.00    -0.199 C  
HETATM   23  C   UNL     1     -11.218  11.436  68.934  1.00  0.00    -0.248 C  
HETATM   24  C   UNL     1      -9.221  12.289  67.392  1.00  0.00    -0.182 C  
HETATM   25  C   UNL     1     -11.576  12.901  69.271  1.00  0.00    -0.368 A  
HETATM   26  C   UNL     1     -11.620  10.466  70.081  1.00  0.00    -0.392 A  
HETATM   27  C   UNL     1      -9.633  11.874  65.977  1.00  0.00    -0.235 C  
HETATM   28  O   UNL     1     -12.009  11.065  67.792  1.00  0.00    -0.661 OA 
HETATM   29  C   UNL     1     -12.117  13.752  68.284  1.00  0.00    -0.314 A  
HETATM   30  C   UNL     1     -10.699   9.953  71.015  1.00  0.00    -0.241 A  
HETATM   31  H   UNL     1     -12.920  11.138  68.051  1.00  0.00     0.000 HD 
HETATM   32  C   UNL     1     -11.081   9.004  71.971  1.00  0.00    -0.371 A  
HETATM   33  C   UNL     1     -12.385  15.098  68.542  1.00  0.00     0.150 A  
HETATM   34  C   UNL     1     -12.400   8.567  72.036  1.00  0.00    -0.423 A  
HETATM   35  C   UNL     1     -12.140  15.624  69.805  1.00  0.00    -0.346 A  
HETATM   36  C   UNL     1     -11.621  14.805  70.803  1.00  0.00    -0.318 A  
HETATM   37  C   UNL     1     -13.344   9.099  71.165  1.00  0.00    -0.195 A  
HETATM   38  C   UNL     1     -11.331  13.460  70.537  1.00  0.00     0.486 A  
HETATM   39  C   UNL     1     -12.963  10.046  70.209  1.00  0.00     0.061 A  
ENDBRANCH  18  19
ENDBRANCH  17  18
ENDBRANCH  16  17
ENDBRANCH  13  16
ENDBRANCH  10  13
ENDBRANCH   2   7
TORSDOF 6
ENDMDL
MODEL      136
REMARK 921   NORMALIZED FREE ENERGY PREDICTED BY IDOCK:   -4.24 KCAL/MOL
REMARK 922        TOTAL FREE ENERGY PREDICTED BY IDOCK:   -8.08 KCAL/MOL
REMARK 923 INTER-LIGAND FREE ENERGY PREDICTED BY IDOCK:   -6.30 KCAL/MOL
REMARK 924 INTRA-LIGAND FREE ENERGY PREDICTED BY IDOCK:   -1.78 KCAL/MOL
REMARK 927      BINDING AFFINITY PREDICTED BY RF-SCORE:    0.00 PKD
ROOT
HETATM    1  C   UNL     1     -11.533   6.223  68.944  1.00  0.00    -0.101 C  
HETATM    2  C   UNL     1     -10.103   5.668  68.756  1.00  0.00    -0.245 C  
HETATM    3  C   UNL     1      -9.899   5.388  67.253  1.00  0.00    -0.156 C  
HETATM    4  O   UNL     1     -10.727   5.617  66.381  1.00  0.00    -0.261 OA 
HETATM    5  C   UNL     1      -9.985   4.317  69.488  1.00  0.00    -0.127 C  
HETATM    6  O   UNL     1      -8.694   4.849  66.938  1.00  0.00    -0.109 OA 
ENDROOT
BRANCH   2   7
HETATM    7  C   UNL     1      -9.122   6.694  69.342  1.00  0.00    -0.143 A  
HETATM    8  C   UNL     1      -7.933   6.260  69.958  1.00  0.00    -0.111 A  
HETATM    9  C   UNL     1      -7.101   7.150  70.635  1.00  0.00    -0.066 A  
HETATM   10  C   UNL     1      -7.419   8.512  70.685  1.00  0.00    -0.066 A  
HETATM   11  C   UNL     1      -9.408   8.065  69.369  1.00  0.00    -0.155 A  
HETATM   12  C   UNL     1      -8.551   8.962  69.999  1.00  0.00    -0.145 A  
BRANCH  10  13
HETATM   13  C   UNL     1      -6.602   9.463  71.528  1.00  0.00     0.083 C  
HETATM   14  O   UNL     1      -6.496   8.893  72.826  1.00  0.00    -0.266 OA 
HETATM   15  H   UNL     1      -5.983   9.491  73.357  1.00  0.00     0.000 HD 
BRANCH  13  16
HETATM   16  C   UNL     1      -5.239   9.729  70.861  1.00  0.00    -0.052 C  
BRANCH  16  17
HETATM   17  C   UNL     1      -5.170  11.008  70.021  1.00  0.00    -0.052 C  
BRANCH  17  18
HETATM   18  C   UNL     1      -5.544  10.830  68.543  1.00  0.00    -0.040 C  
BRANCH  18  19
HETATM   19  N   UNL     1      -6.019  12.071  67.909  1.00  0.00    -0.055 NA 
HETATM   20  C   UNL     1      -6.795  11.842  66.686  1.00  0.00     0.089 C  
HETATM   21  C   UNL     1      -8.210  11.304  66.926  1.00  0.00    -0.153 C  
HETATM   22  C   UNL     1      -9.059  12.151  67.909  1.00  0.00    -0.185 C  
HETATM   23  C   UNL     1      -9.714  13.439  67.251  1.00  0.00    -0.232 C  
HETATM   24  C   UNL     1      -8.178  12.397  69.161  1.00  0.00     0.506 C  
HETATM   25  C   UNL     1     -10.454  14.282  68.313  1.00  0.00    -0.247 A  
HETATM   26  C   UNL     1     -10.623  13.123  66.030  1.00  0.00    -0.291 A  
HETATM   27  C   UNL     1      -6.775  12.920  68.843  1.00  0.00    -0.097 C  
HETATM   28  O   UNL     1      -8.634  14.250  66.754  1.00  0.00    -0.372 OA 
HETATM   29  C   UNL     1      -9.796  15.341  68.975  1.00  0.00    -0.230 A  
HETATM   30  C   UNL     1     -11.264  11.882  65.847  1.00  0.00    -0.373 A  
HETATM   31  H   UNL     1      -9.025  15.021  66.360  1.00  0.00     0.000 HD 
HETATM   32  C   UNL     1     -11.993  11.601  64.686  1.00  0.00    -0.046 A  
HETATM   33  C   UNL     1     -10.418  16.074  69.987  1.00  0.00    -0.259 A  
HETATM   34  C   UNL     1     -12.126  12.565  63.692  1.00  0.00    -0.642 A  
HETATM   35  C   UNL     1     -11.728  15.781  70.351  1.00  0.00    -0.390 A  
HETATM   36  C   UNL     1     -12.407  14.752  69.707  1.00  0.00    -0.291 A  
HETATM   37  C   UNL     1     -11.554  13.820  63.870  1.00  0.00    -0.229 A  
HETATM   38  C   UNL     1     -11.774  14.002  68.706  1.00  0.00    -0.388 A  
HETATM   39  C   UNL     1     -10.824  14.101  65.030  1.00  0.00    -0.408 A  
ENDBRANCH  18  19
ENDBRANCH  17  18
ENDBRANCH  16  17
ENDBRANCH  13  16
ENDBRANCH  10  13
ENDBRANCH   2   7
TORSDOF 6
ENDMDL
MODEL      137
REMARK 921   NORMALIZED FREE ENERGY PREDICTED BY IDOCK:   -4.18 KCAL/MOL
REMARK 922        TOTAL FREE ENERGY PREDICTED BY IDOCK:   -8.01 KCAL/MOL
REMARK 923 INTER-LIGAND FREE ENERGY PREDICTED BY IDOCK:   -6.59 KCAL/MOL
REMARK 924 INTRA-LIGAND FREE ENERGY PREDICTED BY IDOCK:   -1.42 KCAL/MOL
REMARK 927      BINDING AFFINITY PREDICTED BY RF-SCORE:    0.00 PKD
ROOT
HETATM    1  C   UNL     1      -6.869   3.495  66.777  1.00  0.00    -0.054 C  
HETATM    2  C   UNL     1      -6.788   4.794  67.612  1.00  0.00    -0.060 C  
HETATM    3  C   UNL     1      -6.924   5.986  66.643  1.00  0.00    -0.067 C  
HETATM    4  O   UNL     1      -7.106   5.888  65.436  1.00  0.00    -0.062 OA 
HETATM    5  C   UNL     1      -5.393   4.893  68.259  1.00  0.00    -0.011 C  
HETATM    6  O   UNL     1      -6.825   7.205  67.231  1.00  0.00    -0.068 OA 
ENDROOT
BRANCH   2   7
HETATM    7  C   UNL     1      -7.885   4.729  68.685  1.00  0.00    -0.077 A  
HETATM    8  C   UNL     1      -9.240   4.797  68.311  1.00  0.00    -0.159 A  
HETATM    9  C   UNL     1     -10.252   4.898  69.265  1.00  0.00    -0.205 A  
HETATM   10  C   UNL     1      -9.936   4.897  70.628  1.00  0.00    -0.305 A  
HETATM   11  C   UNL     1      -7.587   4.691  70.053  1.00  0.00    -0.054 A  
HETATM   12  C   UNL     1      -8.599   4.738  71.007  1.00  0.00    -0.126 A  
BRANCH  10  13
HETATM   13  C   UNL     1     -11.006   5.142  71.666  1.00  0.00     0.020 C  
HETATM   14  O   UNL     1     -10.772   4.237  72.736  1.00  0.00    -0.184 OA 
HETATM   15  H   UNL     1     -11.445   4.390  73.389  1.00  0.00     0.000 HD 
BRANCH  13  16
HETATM   16  C   UNL     1     -10.998   6.621  72.099  1.00  0.00    -0.277 C  
BRANCH  16  17
HETATM   17  C   UNL     1     -11.698   7.580  71.132  1.00  0.00    -0.315 C  
BRANCH  17  18
HETATM   18  C   UNL     1     -10.981   8.921  70.923  1.00  0.00    -0.266 C  
BRANCH  18  19
HETATM   19  N   UNL     1     -10.169   8.963  69.695  1.00  0.00    -0.200 NA 
HETATM   20  C   UNL     1     -10.968   9.079  68.470  1.00  0.00     0.086 C  
HETATM   21  C   UNL     1     -11.572  10.469  68.238  1.00  0.00    -0.180 C  
HETATM   22  C   UNL     1     -10.544  11.630  68.280  1.00  0.00    -0.232 C  
HETATM   23  C   UNL     1      -9.725  11.815  66.933  1.00  0.00    -0.198 C  
HETATM   24  C   UNL     1      -9.703  11.433  69.568  1.00  0.00     0.520 C  
HETATM   25  C   UNL     1      -8.655  12.917  67.089  1.00  0.00    -0.198 A  
HETATM   26  C   UNL     1     -10.622  12.054  65.685  1.00  0.00    -0.303 A  
HETATM   27  C   UNL     1      -9.145  10.018  69.740  1.00  0.00    -0.193 C  
HETATM   28  O   UNL     1      -9.023  10.582  66.697  1.00  0.00    -0.140 OA 
HETATM   29  C   UNL     1      -7.337  12.588  67.473  1.00  0.00    -0.151 A  
HETATM   30  C   UNL     1     -11.916  12.606  65.761  1.00  0.00    -0.503 A  
HETATM   31  H   UNL     1      -8.533  10.692  65.890  1.00  0.00     0.000 HD 
HETATM   32  C   UNL     1     -12.731  12.713  64.628  1.00  0.00    -0.458 A  
HETATM   33  C   UNL     1      -6.368  13.570  67.689  1.00  0.00    -0.156 A  
HETATM   34  C   UNL     1     -12.261  12.301  63.385  1.00  0.00    -0.630 A  
HETATM   35  C   UNL     1      -6.686  14.911  67.502  1.00  0.00    -0.167 A  
HETATM   36  C   UNL     1      -7.972  15.265  67.108  1.00  0.00    -0.251 A  
HETATM   37  C   UNL     1     -10.966  11.806  63.269  1.00  0.00    -0.387 A  
HETATM   38  C   UNL     1      -8.951  14.280  66.914  1.00  0.00    -0.255 A  
HETATM   39  C   UNL     1     -10.152  11.698  64.401  1.00  0.00    -0.322 A  
ENDBRANCH  18  19
ENDBRANCH  17  18
ENDBRANCH  16  17
ENDBRANCH  13  16
ENDBRANCH  10  13
ENDBRANCH   2   7
TORSDOF 6
ENDMDL
MODEL      138
REMARK 921   NORMALIZED FREE ENERGY PREDICTED BY IDOCK:   -4.16 KCAL/MOL
REMARK 922        TOTAL FREE ENERGY PREDICTED BY IDOCK:   -7.97 KCAL/MOL
REMARK 923 INTER-LIGAND FREE ENERGY PREDICTED BY IDOCK:   -7.17 KCAL/MOL
REMARK 924 INTRA-LIGAND FREE ENERGY PREDICTED BY IDOCK:   -0.80 KCAL/MOL
REMARK 927      BINDING AFFINITY PREDICTED BY RF-SCORE:    0.00 PKD
ROOT
HETATM    1  C   UNL     1     -10.642   2.511  72.860  1.00  0.00    -0.227 C  
HETATM    2  C   UNL     1      -9.264   3.210  72.900  1.00  0.00    -0.120 C  
HETATM    3  C   UNL     1      -8.333   2.473  71.915  1.00  0.00    -0.057 C  
HETATM    4  O   UNL     1      -8.668   1.531  71.209  1.00  0.00    -0.049 OA 
HETATM    5  C   UNL     1      -8.655   3.048  74.306  1.00  0.00    -0.075 C  
HETATM    6  O   UNL     1      -7.063   2.950  71.876  1.00  0.00    -0.036 OA 
ENDROOT
BRANCH   2   7
HETATM    7  C   UNL     1      -9.483   4.693  72.567  1.00  0.00    -0.169 A  
HETATM    8  C   UNL     1      -8.910   5.689  73.380  1.00  0.00    -0.123 A  
HETATM    9  C   UNL     1      -9.215   7.037  73.199  1.00  0.00    -0.165 A  
HETATM   10  C   UNL     1     -10.079   7.431  72.171  1.00  0.00    -0.223 A  
HETATM   11  C   UNL     1     -10.316   5.105  71.519  1.00  0.00    -0.278 A  
HETATM   12  C   UNL     1     -10.580   6.454  71.304  1.00  0.00    -0.275 A  
BRANCH  10  13
HETATM   13  C   UNL     1     -10.525   8.869  72.049  1.00  0.00    -0.313 C  
HETATM   14  O   UNL     1      -9.512   9.567  71.337  1.00  0.00    -0.289 OA 
HETATM   15  H   UNL     1      -9.792  10.472  71.261  1.00  0.00     0.000 HD 
BRANCH  13  16
HETATM   16  C   UNL     1     -11.910   8.942  71.377  1.00  0.00    -0.383 C  
BRANCH  16  17
HETATM   17  C   UNL     1     -12.780  10.122  71.816  1.00  0.00    -0.534 C  
BRANCH  17  18
HETATM   18  C   UNL     1     -12.752  11.332  70.872  1.00  0.00    -0.318 C  
BRANCH  18  19
HETATM   19  N   UNL     1     -11.455  11.515  70.199  1.00  0.00    -0.232 NA 
HETATM   20  C   UNL     1     -11.364  10.826  68.908  1.00  0.00    -0.284 C  
HETATM   21  C   UNL     1     -12.158  11.491  67.778  1.00  0.00     0.113 C  
HETATM   22  C   UNL     1     -11.838  12.995  67.569  1.00  0.00    -0.408 C  
HETATM   23  C   UNL     1     -10.517  13.262  66.730  1.00  0.00    -0.270 C  
HETATM   24  C   UNL     1     -11.907  13.663  68.966  1.00  0.00    -0.393 C  
HETATM   25  C   UNL     1     -10.211  14.774  66.655  1.00  0.00    -0.271 A  
HETATM   26  C   UNL     1     -10.528  12.605  65.321  1.00  0.00    -0.312 A  
HETATM   27  C   UNL     1     -11.102  12.935  70.046  1.00  0.00     0.466 C  
HETATM   28  O   UNL     1      -9.432  12.653  67.454  1.00  0.00    -0.181 OA 
HETATM   29  C   UNL     1      -9.357  15.381  67.601  1.00  0.00    -0.203 A  
HETATM   30  C   UNL     1     -11.712  12.303  64.621  1.00  0.00    -0.420 A  
HETATM   31  H   UNL     1      -8.641  12.812  66.952  1.00  0.00     0.000 HD 
HETATM   32  C   UNL     1     -11.684  11.621  63.399  1.00  0.00    -0.325 A  
HETATM   33  C   UNL     1      -9.118  16.757  67.598  1.00  0.00    -0.218 A  
HETATM   34  C   UNL     1     -10.470  11.251  62.831  1.00  0.00    -0.062 A  
HETATM   35  C   UNL     1      -9.712  17.562  66.632  1.00  0.00    -0.303 A  
HETATM   36  C   UNL     1     -10.548  16.989  65.678  1.00  0.00    -0.206 A  
HETATM   37  C   UNL     1      -9.281  11.587  63.470  1.00  0.00    -0.054 A  
HETATM   38  C   UNL     1     -10.804  15.611  65.695  1.00  0.00    -0.336 A  
HETATM   39  C   UNL     1      -9.309  12.268  64.692  1.00  0.00     0.365 A  
ENDBRANCH  18  19
ENDBRANCH  17  18
ENDBRANCH  16  17
ENDBRANCH  13  16
ENDBRANCH  10  13
ENDBRANCH   2   7
TORSDOF 6
ENDMDL
MODEL      139
REMARK 921   NORMALIZED FREE ENERGY PREDICTED BY IDOCK:   -4.15 KCAL/MOL
REMARK 922        TOTAL FREE ENERGY PREDICTED BY IDOCK:   -7.97 KCAL/MOL
REMARK 923 INTER-LIGAND FREE ENERGY PREDICTED BY IDOCK:   -4.99 KCAL/MOL
REMARK 924 INTRA-LIGAND FREE ENERGY PREDICTED BY IDOCK:   -2.98 KCAL/MOL
REMARK 927      BINDING AFFINITY PREDICTED BY RF-SCORE:    0.00 PKD
ROOT
HETATM    1  C   UNL     1     -10.590   5.199  67.316  1.00  0.00    -0.139 C  
HETATM    2  C   UNL     1      -9.365   5.075  66.380  1.00  0.00    -0.145 C  
HETATM    3  C   UNL     1      -9.842   4.431  65.063  1.00  0.00    -0.157 C  
HETATM    4  O   UNL     1     -11.000   4.122  64.815  1.00  0.00    -0.255 OA 
HETATM    5  C   UNL     1      -8.341   4.112  67.011  1.00  0.00    -0.100 C  
HETATM    6  O   UNL     1      -8.859   4.215  64.152  1.00  0.00    -0.121 OA 
ENDROOT
BRANCH   2   7
HETATM    7  C   UNL     1      -8.763   6.478  66.211  1.00  0.00    -0.148 A  
HETATM    8  C   UNL     1      -9.572   7.617  66.389  1.00  0.00    -0.223 A  
HETATM    9  C   UNL     1      -9.100   8.894  66.092  1.00  0.00    -0.251 A  
HETATM   10  C   UNL     1      -7.787   9.073  65.640  1.00  0.00    -0.102 A  
HETATM   11  C   UNL     1      -7.441   6.676  65.794  1.00  0.00    -0.081 A  
HETATM   12  C   UNL     1      -6.952   7.955  65.548  1.00  0.00    -0.059 A  
BRANCH  10  13
HETATM   13  C   UNL     1      -7.308  10.431  65.186  1.00  0.00    -0.088 C  
HETATM   14  O   UNL     1      -8.420  11.314  65.246  1.00  0.00    -0.385 OA 
HETATM   15  H   UNL     1      -8.118  12.169  64.959  1.00  0.00     0.000 HD 
BRANCH  13  16
HETATM   16  C   UNL     1      -6.113  10.888  66.044  1.00  0.00    -0.122 C  
BRANCH  16  17
HETATM   17  C   UNL     1      -6.338  10.814  67.557  1.00  0.00    -0.057 C  
BRANCH  17  18
HETATM   18  C   UNL     1      -5.245  10.068  68.336  1.00  0.00    -0.035 C  
BRANCH  18  19
HETATM   19  N   UNL     1      -5.658   9.685  69.696  1.00  0.00    -0.033 NA 
HETATM   20  C   UNL     1      -7.017  10.119  70.038  1.00  0.00    -0.145 C  
HETATM   21  C   UNL     1      -8.129   9.307  69.364  1.00  0.00    -0.108 C  
HETATM   22  C   UNL     1      -8.022   7.774  69.575  1.00  0.00    -0.117 C  
HETATM   23  C   UNL     1      -8.577   7.277  70.977  1.00  0.00    -0.128 C  
HETATM   24  C   UNL     1      -6.560   7.380  69.241  1.00  0.00    -0.037 C  
HETATM   25  C   UNL     1      -8.341   5.761  71.154  1.00  0.00    -0.123 A  
HETATM   26  C   UNL     1     -10.061   7.663  71.234  1.00  0.00    -0.203 A  
HETATM   27  C   UNL     1      -5.505   8.242  69.939  1.00  0.00    -0.022 C  
HETATM   28  O   UNL     1      -7.804   7.940  71.993  1.00  0.00    -0.090 OA 
HETATM   29  C   UNL     1      -7.180   5.286  71.801  1.00  0.00    -0.080 A  
HETATM   30  C   UNL     1     -10.985   7.904  70.198  1.00  0.00    -0.235 A  
HETATM   31  H   UNL     1      -8.135   7.643  72.832  1.00  0.00     0.000 HD 
HETATM   32  C   UNL     1     -12.285   8.347  70.468  1.00  0.00     0.234 A  
HETATM   33  C   UNL     1      -6.908   3.921  71.913  1.00  0.00    -0.026 A  
HETATM   34  C   UNL     1     -12.704   8.530  71.781  1.00  0.00    -0.385 A  
HETATM   35  C   UNL     1      -7.804   2.991  71.399  1.00  0.00    -0.051 A  
HETATM   36  C   UNL     1      -8.964   3.428  70.769  1.00  0.00    -0.163 A  
HETATM   37  C   UNL     1     -11.833   8.244  72.827  1.00  0.00    -0.273 A  
HETATM   38  C   UNL     1      -9.226   4.799  70.637  1.00  0.00    -0.191 A  
HETATM   39  C   UNL     1     -10.534   7.803  72.558  1.00  0.00    -0.343 A  
ENDBRANCH  18  19
ENDBRANCH  17  18
ENDBRANCH  16  17
ENDBRANCH  13  16
ENDBRANCH  10  13
ENDBRANCH   2   7
TORSDOF 6
ENDMDL
MODEL      140
REMARK 921   NORMALIZED FREE ENERGY PREDICTED BY IDOCK:   -4.15 KCAL/MOL
REMARK 922        TOTAL FREE ENERGY PREDICTED BY IDOCK:   -7.96 KCAL/MOL
REMARK 923 INTER-LIGAND FREE ENERGY PREDICTED BY IDOCK:   -6.90 KCAL/MOL
REMARK 924 INTRA-LIGAND FREE ENERGY PREDICTED BY IDOCK:   -1.06 KCAL/MOL
REMARK 927      BINDING AFFINITY PREDICTED BY RF-SCORE:    0.00 PKD
ROOT
HETATM    1  C   UNL     1      -5.434   4.381  69.822  1.00  0.00    -0.012 C  
HETATM    2  C   UNL     1      -6.784   4.380  69.069  1.00  0.00    -0.046 C  
HETATM    3  C   UNL     1      -7.871   3.898  70.052  1.00  0.00    -0.051 C  
HETATM    4  O   UNL     1      -7.675   3.615  71.227  1.00  0.00    -0.056 OA 
HETATM    5  C   UNL     1      -6.723   3.352  67.922  1.00  0.00    -0.045 C  
HETATM    6  O   UNL     1      -9.114   3.800  69.515  1.00  0.00    -0.105 OA 
ENDROOT
BRANCH   2   7
HETATM    7  C   UNL     1      -7.016   5.796  68.523  1.00  0.00    -0.068 A  
HETATM    8  C   UNL     1      -6.651   6.108  67.199  1.00  0.00    -0.055 A  
HETATM    9  C   UNL     1      -6.702   7.417  66.723  1.00  0.00    -0.064 A  
HETATM   10  C   UNL     1      -7.156   8.451  67.550  1.00  0.00    -0.083 A  
HETATM   11  C   UNL     1      -7.503   6.834  69.327  1.00  0.00    -0.095 A  
HETATM   12  C   UNL     1      -7.605   8.132  68.836  1.00  0.00    -0.098 A  
BRANCH  10  13
HETATM   13  C   UNL     1      -7.088   9.889  67.094  1.00  0.00    -0.085 C  
HETATM   14  O   UNL     1      -5.755  10.336  67.305  1.00  0.00    -0.045 OA 
HETATM   15  H   UNL     1      -5.712  11.241  67.018  1.00  0.00     0.000 HD 
BRANCH  13  16
HETATM   16  C   UNL     1      -7.551  10.005  65.629  1.00  0.00    -0.137 C  
BRANCH  16  17
HETATM   17  C   UNL     1      -8.938  10.625  65.437  1.00  0.00    -0.208 C  
BRANCH  17  18
HETATM   18  C   UNL     1      -9.844  10.576  66.676  1.00  0.00    -0.199 C  
BRANCH  18  19
HETATM   19  N   UNL     1     -10.915  11.587  66.654  1.00  0.00    -0.288 NA 
HETATM   20  C   UNL     1     -11.708  11.622  67.887  1.00  0.00    -0.259 C  
HETATM   21  C   UNL     1     -10.992  12.261  69.082  1.00  0.00    -0.217 C  
HETATM   22  C   UNL     1     -10.426  13.679  68.807  1.00  0.00    -0.214 C  
HETATM   23  C   UNL     1     -11.509  14.835  68.902  1.00  0.00    -0.297 C  
HETATM   24  C   UNL     1      -9.635  13.592  67.476  1.00  0.00    -0.221 C  
HETATM   25  C   UNL     1     -10.893  16.197  68.514  1.00  0.00    -0.313 A  
HETATM   26  C   UNL     1     -12.235  14.900  70.276  1.00  0.00    -0.389 A  
HETATM   27  C   UNL     1     -10.408  12.929  66.333  1.00  0.00    -0.268 C  
HETATM   28  O   UNL     1     -12.521  14.542  67.922  1.00  0.00    -0.599 OA 
HETATM   29  C   UNL     1     -10.968  16.667  67.185  1.00  0.00    -0.023 A  
HETATM   30  C   UNL     1     -11.666  14.420  71.471  1.00  0.00    -0.082 A  
HETATM   31  H   UNL     1     -13.170  15.233  67.978  1.00  0.00     0.000 HD 
HETATM   32  C   UNL     1     -12.389  14.405  72.669  1.00  0.00    -0.203 A  
HETATM   33  C   UNL     1     -10.360  17.861  66.793  1.00  0.00    -0.357 A  
HETATM   34  C   UNL     1     -13.689  14.899  72.709  1.00  0.00    -0.501 A  
HETATM   35  C   UNL     1      -9.678  18.632  67.727  1.00  0.00    -0.344 A  
HETATM   36  C   UNL     1      -9.599  18.202  69.048  1.00  0.00    -0.168 A  
HETATM   37  C   UNL     1     -14.257  15.433  71.557  1.00  0.00    -0.584 A  
HETATM   38  C   UNL     1     -10.191  16.992  69.437  1.00  0.00    -0.190 A  
HETATM   39  C   UNL     1     -13.535  15.447  70.360  1.00  0.00     0.071 A  
ENDBRANCH  18  19
ENDBRANCH  17  18
ENDBRANCH  16  17
ENDBRANCH  13  16
ENDBRANCH  10  13
ENDBRANCH   2   7
TORSDOF 6
ENDMDL
MODEL      141
REMARK 921   NORMALIZED FREE ENERGY PREDICTED BY IDOCK:   -4.15 KCAL/MOL
REMARK 922        TOTAL FREE ENERGY PREDICTED BY IDOCK:   -7.96 KCAL/MOL
REMARK 923 INTER-LIGAND FREE ENERGY PREDICTED BY IDOCK:   -6.64 KCAL/MOL
REMARK 924 INTRA-LIGAND FREE ENERGY PREDICTED BY IDOCK:   -1.31 KCAL/MOL
REMARK 927      BINDING AFFINITY PREDICTED BY RF-SCORE:    0.00 PKD
ROOT
HETATM    1  C   UNL     1     -12.591  14.037  66.465  1.00  0.00    -0.214 C  
HETATM    2  C   UNL     1     -11.134  13.521  66.515  1.00  0.00    -0.310 C  
HETATM    3  C   UNL     1     -10.212  14.735  66.748  1.00  0.00    -0.266 C  
HETATM    4  O   UNL     1     -10.598  15.886  66.905  1.00  0.00    -0.311 OA 
HETATM    5  C   UNL     1     -10.762  12.925  65.143  1.00  0.00    -0.326 C  
HETATM    6  O   UNL     1      -8.888  14.441  66.769  1.00  0.00    -0.239 OA 
ENDROOT
BRANCH   2   7
HETATM    7  C   UNL     1     -11.055  12.452  67.615  1.00  0.00    -0.306 A  
HETATM    8  C   UNL     1     -10.699  11.130  67.287  1.00  0.00    -0.304 A  
HETATM    9  C   UNL     1     -10.769  10.106  68.231  1.00  0.00    -0.277 A  
HETATM   10  C   UNL     1     -11.165  10.383  69.544  1.00  0.00    -0.325 A  
HETATM   11  C   UNL     1     -11.413  12.722  68.942  1.00  0.00    -0.352 A  
HETATM   12  C   UNL     1     -11.432  11.710  69.897  1.00  0.00    -0.308 A  
BRANCH  10  13
HETATM   13  C   UNL     1     -11.376   9.265  70.537  1.00  0.00    -0.258 C  
HETATM   14  O   UNL     1     -11.626   8.080  69.793  1.00  0.00    -0.435 OA 
HETATM   15  H   UNL     1     -11.759   7.377  70.417  1.00  0.00     0.000 HD 
BRANCH  13  16
HETATM   16  C   UNL     1     -10.162   9.155  71.480  1.00  0.00    -0.403 C  
BRANCH  16  17
HETATM   17  C   UNL     1      -8.929   8.482  70.870  1.00  0.00    -0.206 C  
BRANCH  17  18
HETATM   18  C   UNL     1      -7.694   9.385  70.750  1.00  0.00    -0.115 C  
BRANCH  18  19
HETATM   19  N   UNL     1      -6.654   8.834  69.865  1.00  0.00    -0.041 NA 
HETATM   20  C   UNL     1      -6.901   7.445  69.468  1.00  0.00    -0.049 C  
HETATM   21  C   UNL     1      -8.015   7.272  68.430  1.00  0.00    -0.124 C  
HETATM   22  C   UNL     1      -7.843   8.138  67.154  1.00  0.00    -0.101 C  
HETATM   23  C   UNL     1      -6.830   7.528  66.094  1.00  0.00    -0.061 C  
HETATM   24  C   UNL     1      -7.544   9.581  67.633  1.00  0.00    -0.094 C  
HETATM   25  C   UNL     1      -6.634   8.495  64.905  1.00  0.00    -0.068 A  
HETATM   26  C   UNL     1      -7.210   6.097  65.618  1.00  0.00    -0.074 A  
HETATM   27  C   UNL     1      -6.430   9.674  68.679  1.00  0.00    -0.047 C  
HETATM   28  O   UNL     1      -5.556   7.413  66.752  1.00  0.00    -0.022 OA 
HETATM   29  C   UNL     1      -5.577   9.430  64.908  1.00  0.00    -0.062 A  
HETATM   30  C   UNL     1      -8.528   5.602  65.642  1.00  0.00    -0.147 A  
HETATM   31  H   UNL     1      -4.949   7.048  66.118  1.00  0.00     0.000 HD 
HETATM   32  C   UNL     1      -8.815   4.276  65.300  1.00  0.00    -0.131 A  
HETATM   33  C   UNL     1      -5.417  10.360  63.879  1.00  0.00    -0.152 A  
HETATM   34  C   UNL     1      -7.796   3.420  64.895  1.00  0.00    -0.082 A  
HETATM   35  C   UNL     1      -6.300  10.365  62.805  1.00  0.00    -0.139 A  
HETATM   36  C   UNL     1      -7.344   9.446  62.768  1.00  0.00    -0.100 A  
HETATM   37  C   UNL     1      -6.493   3.897  64.805  1.00  0.00    -0.042 A  
HETATM   38  C   UNL     1      -7.516   8.526  63.812  1.00  0.00    -0.118 A  
HETATM   39  C   UNL     1      -6.205   5.222  65.148  1.00  0.00    -0.034 A  
ENDBRANCH  18  19
ENDBRANCH  17  18
ENDBRANCH  16  17
ENDBRANCH  13  16
ENDBRANCH  10  13
ENDBRANCH   2   7
TORSDOF 6
ENDMDL
MODEL      142
REMARK 921   NORMALIZED FREE ENERGY PREDICTED BY IDOCK:   -4.13 KCAL/MOL
REMARK 922        TOTAL FREE ENERGY PREDICTED BY IDOCK:   -7.93 KCAL/MOL
REMARK 923 INTER-LIGAND FREE ENERGY PREDICTED BY IDOCK:   -7.03 KCAL/MOL
REMARK 924 INTRA-LIGAND FREE ENERGY PREDICTED BY IDOCK:   -0.90 KCAL/MOL
REMARK 927      BINDING AFFINITY PREDICTED BY RF-SCORE:    0.00 PKD
ROOT
HETATM    1  C   UNL     1     -10.231  20.177  68.620  1.00  0.00    -0.363 C  
HETATM    2  C   UNL     1      -9.256  19.293  67.808  1.00  0.00    -0.367 C  
HETATM    3  C   UNL     1      -7.915  19.248  68.569  1.00  0.00    -0.361 C  
HETATM    4  O   UNL     1      -7.704  19.792  69.645  1.00  0.00    -0.100 OA 
HETATM    5  C   UNL     1      -8.983  19.960  66.447  1.00  0.00    -0.434 C  
HETATM    6  O   UNL     1      -6.938  18.539  67.948  1.00  0.00    -0.214 OA 
ENDROOT
BRANCH   2   7
HETATM    7  C   UNL     1      -9.918  17.919  67.621  1.00  0.00    -0.324 A  
HETATM    8  C   UNL     1     -10.488  17.256  68.725  1.00  0.00    -0.340 A  
HETATM    9  C   UNL     1     -10.955  15.947  68.621  1.00  0.00    -0.320 A  
HETATM   10  C   UNL     1     -10.898  15.274  67.396  1.00  0.00    -0.304 A  
HETATM   11  C   UNL     1      -9.901  17.246  66.393  1.00  0.00    -0.310 A  
HETATM   12  C   UNL     1     -10.416  15.959  66.276  1.00  0.00    -0.324 A  
BRANCH  10  13
HETATM   13  C   UNL     1     -11.273  13.813  67.302  1.00  0.00    -0.311 C  
HETATM   14  O   UNL     1     -12.692  13.740  67.306  1.00  0.00    -0.280 OA 
HETATM   15  H   UNL     1     -12.928  12.822  67.247  1.00  0.00     0.000 HD 
BRANCH  13  16
HETATM   16  C   UNL     1     -10.627  13.178  66.056  1.00  0.00    -0.291 C  
BRANCH  16  17
HETATM   17  C   UNL     1      -9.486  12.200  66.347  1.00  0.00    -0.238 C  
BRANCH  17  18
HETATM   18  C   UNL     1      -8.916  12.278  67.770  1.00  0.00    -0.177 C  
BRANCH  18  19
HETATM   19  N   UNL     1      -7.765  11.385  67.987  1.00  0.00    -0.108 NA 
HETATM   20  C   UNL     1      -7.610  10.961  69.382  1.00  0.00    -0.094 C  
HETATM   21  C   UNL     1      -8.634   9.918  69.844  1.00  0.00    -0.216 C  
HETATM   22  C   UNL     1      -8.719   8.659  68.942  1.00  0.00    -0.131 C  
HETATM   23  C   UNL     1      -7.578   7.590  69.220  1.00  0.00    -0.100 C  
HETATM   24  C   UNL     1      -8.839   9.165  67.482  1.00  0.00    -0.124 C  
HETATM   25  C   UNL     1      -7.668   6.419  68.216  1.00  0.00    -0.104 A  
HETATM   26  C   UNL     1      -7.539   7.087  70.691  1.00  0.00    -0.093 A  
HETATM   27  C   UNL     1      -7.793  10.214  67.097  1.00  0.00    -0.099 C  
HETATM   28  O   UNL     1      -6.321   8.247  68.982  1.00  0.00    -0.042 OA 
HETATM   29  C   UNL     1      -6.919   6.441  67.020  1.00  0.00    -0.071 A  
HETATM   30  C   UNL     1      -8.662   7.099  71.540  1.00  0.00    -0.119 A  
HETATM   31  H   UNL     1      -5.638   7.608  69.148  1.00  0.00     0.000 HD 
HETATM   32  C   UNL     1      -8.563   6.732  72.887  1.00  0.00    -0.127 A  
HETATM   33  C   UNL     1      -7.034   5.430  66.064  1.00  0.00    -0.066 A  
HETATM   34  C   UNL     1      -7.345   6.313  73.411  1.00  0.00    -0.087 A  
HETATM   35  C   UNL     1      -7.886   4.355  66.290  1.00  0.00    -0.095 A  
HETATM   36  C   UNL     1      -8.626   4.299  67.466  1.00  0.00    -0.108 A  
HETATM   37  C   UNL     1      -6.231   6.234  72.583  1.00  0.00    -0.054 A  
HETATM   38  C   UNL     1      -8.527   5.325  68.416  1.00  0.00    -0.096 A  
HETATM   39  C   UNL     1      -6.329   6.602  71.237  1.00  0.00    -0.041 A  
ENDBRANCH  18  19
ENDBRANCH  17  18
ENDBRANCH  16  17
ENDBRANCH  13  16
ENDBRANCH  10  13
ENDBRANCH   2   7
TORSDOF 6
ENDMDL
MODEL      143
REMARK 921   NORMALIZED FREE ENERGY PREDICTED BY IDOCK:   -4.13 KCAL/MOL
REMARK 922        TOTAL FREE ENERGY PREDICTED BY IDOCK:   -7.93 KCAL/MOL
REMARK 923 INTER-LIGAND FREE ENERGY PREDICTED BY IDOCK:   -6.55 KCAL/MOL
REMARK 924 INTRA-LIGAND FREE ENERGY PREDICTED BY IDOCK:   -1.39 KCAL/MOL
REMARK 927      BINDING AFFINITY PREDICTED BY RF-SCORE:    0.00 PKD
ROOT
HETATM    1  C   UNL     1      -9.020   6.550  72.657  1.00  0.00    -0.134 C  
HETATM    2  C   UNL     1      -8.381   5.231  72.164  1.00  0.00    -0.125 C  
HETATM    3  C   UNL     1      -8.987   4.077  72.989  1.00  0.00    -0.101 C  
HETATM    4  O   UNL     1      -9.850   4.209  73.846  1.00  0.00    -0.112 OA 
HETATM    5  C   UNL     1      -6.870   5.257  72.464  1.00  0.00    -0.075 C  
HETATM    6  O   UNL     1      -8.484   2.850  72.696  1.00  0.00    -0.070 OA 
ENDROOT
BRANCH   2   7
HETATM    7  C   UNL     1      -8.637   5.124  70.653  1.00  0.00    -0.126 A  
HETATM    8  C   UNL     1      -7.563   5.228  69.748  1.00  0.00    -0.069 A  
HETATM    9  C   UNL     1      -7.779   5.293  68.373  1.00  0.00    -0.080 A  
HETATM   10  C   UNL     1      -9.078   5.218  67.859  1.00  0.00    -0.117 A  
HETATM   11  C   UNL     1      -9.928   5.014  70.123  1.00  0.00    -0.328 A  
HETATM   12  C   UNL     1     -10.140   5.024  68.748  1.00  0.00    -0.200 A  
BRANCH  10  13
HETATM   13  C   UNL     1      -9.336   5.423  66.385  1.00  0.00    -0.150 C  
HETATM   14  O   UNL     1     -10.303   6.458  66.265  1.00  0.00    -0.432 OA 
HETATM   15  H   UNL     1     -10.466   6.587  65.338  1.00  0.00     0.000 HD 
BRANCH  13  16
HETATM   16  C   UNL     1      -8.016   5.727  65.651  1.00  0.00    -0.116 C  
BRANCH  16  17
HETATM   17  C   UNL     1      -7.872   7.167  65.150  1.00  0.00    -0.124 C  
BRANCH  17  18
HETATM   18  C   UNL     1      -7.203   8.130  66.139  1.00  0.00    -0.066 C  
BRANCH  18  19
HETATM   19  N   UNL     1      -8.165   8.873  66.970  1.00  0.00    -0.106 NA 
HETATM   20  C   UNL     1      -7.543   9.909  67.801  1.00  0.00    -0.090 C  
HETATM   21  C   UNL     1      -7.095  11.155  67.028  1.00  0.00    -0.124 C  
HETATM   22  C   UNL     1      -8.206  11.805  66.162  1.00  0.00     0.158 C  
HETATM   23  C   UNL     1      -9.203  12.731  66.981  1.00  0.00    -0.221 C  
HETATM   24  C   UNL     1      -8.855  10.662  65.340  1.00  0.00    -0.204 C  
HETATM   25  C   UNL     1     -10.336  13.255  66.071  1.00  0.00    -0.290 A  
HETATM   26  C   UNL     1      -8.496  13.886  67.746  1.00  0.00    -0.183 A  
HETATM   27  C   UNL     1      -9.262   9.446  66.175  1.00  0.00    -0.190 C  
HETATM   28  O   UNL     1      -9.820  11.900  67.980  1.00  0.00    -0.178 OA 
HETATM   29  C   UNL     1     -11.560  12.559  65.977  1.00  0.00    -0.456 A  
HETATM   30  C   UNL     1      -7.256  14.424  67.353  1.00  0.00    -0.148 A  
HETATM   31  H   UNL     1     -10.417  12.453  68.470  1.00  0.00     0.000 HD 
HETATM   32  C   UNL     1      -6.605  15.394  68.124  1.00  0.00    -0.141 A  
HETATM   33  C   UNL     1     -12.575  12.971  65.111  1.00  0.00    -0.530 A  
HETATM   34  C   UNL     1      -7.192  15.872  69.291  1.00  0.00    -0.217 A  
HETATM   35  C   UNL     1     -12.400  14.109  64.330  1.00  0.00    -0.410 A  
HETATM   36  C   UNL     1     -11.210  14.824  64.413  1.00  0.00    -0.184 A  
HETATM   37  C   UNL     1      -8.443  15.401  69.673  1.00  0.00    -0.124 A  
HETATM   38  C   UNL     1     -10.183  14.396  65.266  1.00  0.00    -0.416 A  
HETATM   39  C   UNL     1      -9.094  14.432  68.903  1.00  0.00    -0.069 A  
ENDBRANCH  18  19
ENDBRANCH  17  18
ENDBRANCH  16  17
ENDBRANCH  13  16
ENDBRANCH  10  13
ENDBRANCH   2   7
TORSDOF 6
ENDMDL
MODEL      144
REMARK 921   NORMALIZED FREE ENERGY PREDICTED BY IDOCK:   -4.12 KCAL/MOL
REMARK 922        TOTAL FREE ENERGY PREDICTED BY IDOCK:   -7.92 KCAL/MOL
REMARK 923 INTER-LIGAND FREE ENERGY PREDICTED BY IDOCK:   -6.32 KCAL/MOL
REMARK 924 INTRA-LIGAND FREE ENERGY PREDICTED BY IDOCK:   -1.60 KCAL/MOL
REMARK 927      BINDING AFFINITY PREDICTED BY RF-SCORE:    0.00 PKD
ROOT
HETATM    1  C   UNL     1     -11.621   5.421  72.678  1.00  0.00    -0.270 C  
HETATM    2  C   UNL     1     -10.756   5.674  71.421  1.00  0.00    -0.310 C  
HETATM    3  C   UNL     1     -11.617   6.453  70.406  1.00  0.00    -0.373 C  
HETATM    4  O   UNL     1     -12.765   6.829  70.606  1.00  0.00    -0.206 OA 
HETATM    5  C   UNL     1     -10.401   4.323  70.771  1.00  0.00     0.114 C  
HETATM    6  O   UNL     1     -11.001   6.710  69.225  1.00  0.00    -0.261 OA 
ENDROOT
BRANCH   2   7
HETATM    7  C   UNL     1      -9.488   6.415  71.869  1.00  0.00    -0.157 A  
HETATM    8  C   UNL     1      -9.586   7.706  72.421  1.00  0.00    -0.220 A  
HETATM    9  C   UNL     1      -8.449   8.467  72.692  1.00  0.00    -0.223 A  
HETATM   10  C   UNL     1      -7.175   7.940  72.450  1.00  0.00    -0.100 A  
HETATM   11  C   UNL     1      -8.207   5.887  71.666  1.00  0.00    -0.119 A  
HETATM   12  C   UNL     1      -7.071   6.625  71.986  1.00  0.00    -0.080 A  
BRANCH  10  13
HETATM   13  C   UNL     1      -5.944   8.800  72.610  1.00  0.00    -0.071 C  
HETATM   14  O   UNL     1      -5.223   8.302  73.729  1.00  0.00    -0.048 OA 
HETATM   15  H   UNL     1      -4.448   8.843  73.829  1.00  0.00     0.000 HD 
BRANCH  13  16
HETATM   16  C   UNL     1      -5.126   8.805  71.304  1.00  0.00    -0.029 C  
BRANCH  16  17
HETATM   17  C   UNL     1      -5.475   9.932  70.327  1.00  0.00    -0.045 C  
BRANCH  17  18
HETATM   18  C   UNL     1      -6.115   9.470  69.011  1.00  0.00    -0.042 C  
BRANCH  18  19
HETATM   19  N   UNL     1      -7.584   9.574  69.009  1.00  0.00    -0.073 NA 
HETATM   20  C   UNL     1      -8.093  10.667  69.844  1.00  0.00     0.286 C  
HETATM   21  C   UNL     1      -7.893  12.064  69.247  1.00  0.00     0.377 C  
HETATM   22  C   UNL     1      -8.445  12.232  67.807  1.00  0.00    -0.163 C  
HETATM   23  C   UNL     1     -10.011  12.483  67.742  1.00  0.00    -0.210 C  
HETATM   24  C   UNL     1      -7.912  11.031  66.983  1.00  0.00    -0.137 C  
HETATM   25  C   UNL     1     -10.499  12.534  66.278  1.00  0.00    -0.268 A  
HETATM   26  C   UNL     1     -10.478  13.727  68.550  1.00  0.00    -0.248 A  
HETATM   27  C   UNL     1      -8.134   9.670  67.648  1.00  0.00    -0.113 C  
HETATM   28  O   UNL     1     -10.643  11.343  68.352  1.00  0.00    -0.185 OA 
HETATM   29  C   UNL     1     -10.977  11.370  65.639  1.00  0.00    -0.254 A  
HETATM   30  C   UNL     1      -9.638  14.822  68.832  1.00  0.00    -0.210 A  
HETATM   31  H   UNL     1     -11.581  11.492  68.314  1.00  0.00     0.000 HD 
HETATM   32  C   UNL     1     -10.064  15.878  69.646  1.00  0.00    -0.271 A  
HETATM   33  C   UNL     1     -11.359  11.372  64.297  1.00  0.00    -0.244 A  
HETATM   34  C   UNL     1     -11.351  15.880  70.173  1.00  0.00    -0.369 A  
HETATM   35  C   UNL     1     -11.293  12.550  63.559  1.00  0.00    -0.556 A  
HETATM   36  C   UNL     1     -10.839  13.717  64.165  1.00  0.00    -0.178 A  
HETATM   37  C   UNL     1     -12.223  14.842  69.865  1.00  0.00    -0.358 A  
HETATM   38  C   UNL     1     -10.435  13.708  65.508  1.00  0.00    -0.314 A  
HETATM   39  C   UNL     1     -11.797  13.786  69.052  1.00  0.00    -0.397 A  
ENDBRANCH  18  19
ENDBRANCH  17  18
ENDBRANCH  16  17
ENDBRANCH  13  16
ENDBRANCH  10  13
ENDBRANCH   2   7
TORSDOF 6
ENDMDL
MODEL      145
REMARK 921   NORMALIZED FREE ENERGY PREDICTED BY IDOCK:   -4.12 KCAL/MOL
REMARK 922        TOTAL FREE ENERGY PREDICTED BY IDOCK:   -7.92 KCAL/MOL
REMARK 923 INTER-LIGAND FREE ENERGY PREDICTED BY IDOCK:   -7.60 KCAL/MOL
REMARK 924 INTRA-LIGAND FREE ENERGY PREDICTED BY IDOCK:   -0.31 KCAL/MOL
REMARK 927      BINDING AFFINITY PREDICTED BY RF-SCORE:    0.00 PKD
ROOT
HETATM    1  C   UNL     1     -11.472  16.583  68.448  1.00  0.00    -0.104 C  
HETATM    2  C   UNL     1     -11.154  15.199  69.060  1.00  0.00    -0.260 C  
HETATM    3  C   UNL     1     -12.253  14.878  70.094  1.00  0.00    -0.336 C  
HETATM    4  O   UNL     1     -13.217  15.593  70.334  1.00  0.00    -0.361 OA 
HETATM    5  C   UNL     1      -9.820  15.280  69.828  1.00  0.00    -0.188 C  
HETATM    6  O   UNL     1     -12.081  13.704  70.753  1.00  0.00    -0.340 OA 
ENDROOT
BRANCH   2   7
HETATM    7  C   UNL     1     -11.061  14.189  67.908  1.00  0.00    -0.285 A  
HETATM    8  C   UNL     1     -11.832  13.011  67.941  1.00  0.00    -0.389 A  
HETATM    9  C   UNL     1     -11.657  12.004  66.993  1.00  0.00    -0.387 A  
HETATM   10  C   UNL     1     -10.727  12.162  65.960  1.00  0.00    -0.308 A  
HETATM   11  C   UNL     1     -10.160  14.349  66.848  1.00  0.00    -0.259 A  
HETATM   12  C   UNL     1     -10.023  13.368  65.871  1.00  0.00    -0.287 A  
BRANCH  10  13
HETATM   13  C   UNL     1     -10.430  11.026  65.010  1.00  0.00    -0.277 C  
HETATM   14  O   UNL     1      -9.411  11.471  64.125  1.00  0.00    -0.399 OA 
HETATM   15  H   UNL     1      -9.225  10.756  63.527  1.00  0.00     0.000 HD 
BRANCH  13  16
HETATM   16  C   UNL     1     -10.049   9.758  65.799  1.00  0.00    -0.308 C  
BRANCH  16  17
HETATM   17  C   UNL     1      -8.547   9.555  66.010  1.00  0.00    -0.145 C  
BRANCH  17  18
HETATM   18  C   UNL     1      -7.980  10.205  67.280  1.00  0.00    -0.110 C  
BRANCH  18  19
HETATM   19  N   UNL     1      -7.313   9.247  68.177  1.00  0.00    -0.079 NA 
HETATM   20  C   UNL     1      -7.926   9.168  69.506  1.00  0.00    -0.098 C  
HETATM   21  C   UNL     1      -9.265   8.423  69.542  1.00  0.00    -0.154 C  
HETATM   22  C   UNL     1      -9.225   7.002  68.921  1.00  0.00    -0.136 C  
HETATM   23  C   UNL     1      -8.637   5.891  69.891  1.00  0.00    -0.129 C  
HETATM   24  C   UNL     1      -8.531   7.139  67.541  1.00  0.00    -0.123 C  
HETATM   25  C   UNL     1      -8.533   4.530  69.167  1.00  0.00    -0.091 A  
HETATM   26  C   UNL     1      -9.403   5.770  71.239  1.00  0.00    -0.166 A  
HETATM   27  C   UNL     1      -7.207   7.906  67.581  1.00  0.00    -0.088 C  
HETATM   28  O   UNL     1      -7.295   6.291  70.222  1.00  0.00    -0.083 OA 
HETATM   29  C   UNL     1      -7.336   4.150  68.522  1.00  0.00    -0.056 A  
HETATM   30  C   UNL     1     -10.751   6.146  71.395  1.00  0.00    -0.308 A  
HETATM   31  H   UNL     1      -6.943   5.626  70.802  1.00  0.00     0.000 HD 
HETATM   32  C   UNL     1     -11.377   6.116  72.646  1.00  0.00    -0.298 A  
HETATM   33  C   UNL     1      -7.236   2.958  67.802  1.00  0.00    -0.053 A  
HETATM   34  C   UNL     1     -10.680   5.680  73.768  1.00  0.00    -0.277 A  
HETATM   35  C   UNL     1      -8.327   2.100  67.728  1.00  0.00    -0.081 A  
HETATM   36  C   UNL     1      -9.516   2.440  68.366  1.00  0.00    -0.219 A  
HETATM   37  C   UNL     1      -9.366   5.247  73.635  1.00  0.00    -0.133 A  
HETATM   38  C   UNL     1      -9.622   3.648  69.069  1.00  0.00    -0.165 A  
HETATM   39  C   UNL     1      -8.739   5.277  72.384  1.00  0.00    -0.125 A  
ENDBRANCH  18  19
ENDBRANCH  17  18
ENDBRANCH  16  17
ENDBRANCH  13  16
ENDBRANCH  10  13
ENDBRANCH   2   7
TORSDOF 6
ENDMDL
MODEL      146
REMARK 921   NORMALIZED FREE ENERGY PREDICTED BY IDOCK:   -4.11 KCAL/MOL
REMARK 922        TOTAL FREE ENERGY PREDICTED BY IDOCK:   -7.91 KCAL/MOL
REMARK 923 INTER-LIGAND FREE ENERGY PREDICTED BY IDOCK:   -5.58 KCAL/MOL
REMARK 924 INTRA-LIGAND FREE ENERGY PREDICTED BY IDOCK:   -2.33 KCAL/MOL
REMARK 927      BINDING AFFINITY PREDICTED BY RF-SCORE:    0.00 PKD
ROOT
HETATM    1  C   UNL     1     -12.532   8.193  72.317  1.00  0.00    -0.345 C  
HETATM    2  C   UNL     1     -11.404   7.924  71.294  1.00  0.00    -0.289 C  
HETATM    3  C   UNL     1     -11.211   9.206  70.458  1.00  0.00    -0.264 C  
HETATM    4  O   UNL     1     -11.827  10.250  70.627  1.00  0.00    -0.294 OA 
HETATM    5  C   UNL     1     -11.855   6.815  70.324  1.00  0.00    -0.359 C  
HETATM    6  O   UNL     1     -10.276   9.105  69.479  1.00  0.00    -0.190 OA 
ENDROOT
BRANCH   2   7
HETATM    7  C   UNL     1     -10.156   7.491  72.077  1.00  0.00    -0.225 A  
HETATM    8  C   UNL     1      -9.324   8.461  72.667  1.00  0.00    -0.334 A  
HETATM    9  C   UNL     1      -8.105   8.114  73.248  1.00  0.00    -0.246 A  
HETATM   10  C   UNL     1      -7.700   6.775  73.289  1.00  0.00    -0.091 A  
HETATM   11  C   UNL     1      -9.755   6.152  72.158  1.00  0.00    -0.168 A  
HETATM   12  C   UNL     1      -8.565   5.798  72.786  1.00  0.00    -0.119 A  
BRANCH  10  13
HETATM   13  C   UNL     1      -6.326   6.402  73.792  1.00  0.00    -0.065 C  
HETATM   14  O   UNL     1      -6.269   4.983  73.851  1.00  0.00    -0.048 OA 
HETATM   15  H   UNL     1      -5.404   4.747  74.167  1.00  0.00     0.000 HD 
BRANCH  13  16
HETATM   16  C   UNL     1      -5.242   7.024  72.890  1.00  0.00    -0.037 C  
BRANCH  16  17
HETATM   17  C   UNL     1      -5.360   6.676  71.404  1.00  0.00    -0.027 C  
BRANCH  17  18
HETATM   18  C   UNL     1      -5.400   7.885  70.459  1.00  0.00    -0.023 C  
BRANCH  18  19
HETATM   19  N   UNL     1      -6.738   8.143  69.899  1.00  0.00    -0.043 NA 
HETATM   20  C   UNL     1      -6.746   9.180  68.863  1.00  0.00    -0.052 C  
HETATM   21  C   UNL     1      -6.159   8.736  67.518  1.00  0.00    -0.051 C  
HETATM   22  C   UNL     1      -6.789   7.442  66.940  1.00  0.00    -0.070 C  
HETATM   23  C   UNL     1      -8.175   7.673  66.202  1.00  0.00    -0.124 C  
HETATM   24  C   UNL     1      -6.792   6.398  68.087  1.00  0.00    -0.071 C  
HETATM   25  C   UNL     1      -8.786   6.329  65.748  1.00  0.00    -0.145 A  
HETATM   26  C   UNL     1      -8.096   8.696  65.032  1.00  0.00    -0.143 A  
HETATM   27  C   UNL     1      -7.379   6.917  69.402  1.00  0.00    -0.091 C  
HETATM   28  O   UNL     1      -9.077   8.235  67.172  1.00  0.00    -0.134 OA 
HETATM   29  C   UNL     1      -9.701   5.642  66.574  1.00  0.00    -0.181 A  
HETATM   30  C   UNL     1      -6.910   8.965  64.324  1.00  0.00    -0.082 A  
HETATM   31  H   UNL     1      -9.907   8.374  66.731  1.00  0.00     0.000 HD 
HETATM   32  C   UNL     1      -6.856   9.964  63.344  1.00  0.00    -0.125 A  
HETATM   33  C   UNL     1     -10.215   4.393  66.220  1.00  0.00    -0.211 A  
HETATM   34  C   UNL     1      -7.995  10.697  63.027  1.00  0.00    -0.051 A  
HETATM   35  C   UNL     1      -9.845   3.807  65.015  1.00  0.00    -0.175 A  
HETATM   36  C   UNL     1      -8.956   4.468  64.173  1.00  0.00    -0.144 A  
HETATM   37  C   UNL     1      -9.195  10.413  63.669  1.00  0.00    -0.310 A  
HETATM   38  C   UNL     1      -8.422   5.711  64.540  1.00  0.00    -0.070 A  
HETATM   39  C   UNL     1      -9.250   9.416  64.649  1.00  0.00    -0.185 A  
ENDBRANCH  18  19
ENDBRANCH  17  18
ENDBRANCH  16  17
ENDBRANCH  13  16
ENDBRANCH  10  13
ENDBRANCH   2   7
TORSDOF 6
ENDMDL
MODEL      147
REMARK 921   NORMALIZED FREE ENERGY PREDICTED BY IDOCK:   -4.10 KCAL/MOL
REMARK 922        TOTAL FREE ENERGY PREDICTED BY IDOCK:   -7.89 KCAL/MOL
REMARK 923 INTER-LIGAND FREE ENERGY PREDICTED BY IDOCK:   -6.76 KCAL/MOL
REMARK 924 INTRA-LIGAND FREE ENERGY PREDICTED BY IDOCK:   -1.13 KCAL/MOL
REMARK 927      BINDING AFFINITY PREDICTED BY RF-SCORE:    0.00 PKD
ROOT
HETATM    1  C   UNL     1      -9.232  17.615  65.978  1.00  0.00    -0.049 C  
HETATM    2  C   UNL     1      -9.363  16.627  67.160  1.00  0.00    -0.236 C  
HETATM    3  C   UNL     1     -10.468  17.156  68.097  1.00  0.00    -0.366 C  
HETATM    4  O   UNL     1     -11.136  18.162  67.892  1.00  0.00    -0.191 OA 
HETATM    5  C   UNL     1      -8.049  16.624  67.965  1.00  0.00    -0.181 C  
HETATM    6  O   UNL     1     -10.667  16.410  69.213  1.00  0.00    -0.282 OA 
ENDROOT
BRANCH   2   7
HETATM    7  C   UNL     1      -9.649  15.235  66.576  1.00  0.00    -0.294 A  
HETATM    8  C   UNL     1     -10.842  15.002  65.866  1.00  0.00    -0.339 A  
HETATM    9  C   UNL     1     -11.204  13.719  65.459  1.00  0.00    -0.303 A  
HETATM   10  C   UNL     1     -10.362  12.633  65.720  1.00  0.00    -0.298 A  
HETATM   11  C   UNL     1      -8.799  14.146  66.798  1.00  0.00    -0.190 A  
HETATM   12  C   UNL     1      -9.133  12.873  66.345  1.00  0.00    -0.083 A  
BRANCH  10  13
HETATM   13  C   UNL     1     -10.803  11.223  65.408  1.00  0.00    -0.188 C  
HETATM   14  O   UNL     1     -10.188  10.849  64.182  1.00  0.00    -0.317 OA 
HETATM   15  H   UNL     1     -10.466   9.962  63.985  1.00  0.00     0.000 HD 
BRANCH  13  16
HETATM   16  C   UNL     1     -10.458  10.285  66.580  1.00  0.00    -0.260 C  
BRANCH  16  17
HETATM   17  C   UNL     1     -11.274  10.517  67.855  1.00  0.00    -0.358 C  
BRANCH  17  18
HETATM   18  C   UNL     1     -10.494  10.330  69.163  1.00  0.00    -0.224 C  
BRANCH  18  19
HETATM   19  N   UNL     1     -10.907   9.138  69.923  1.00  0.00    -0.232 NA 
HETATM   20  C   UNL     1     -10.906   7.908  69.125  1.00  0.00    -0.038 C  
HETATM   21  C   UNL     1      -9.511   7.353  68.818  1.00  0.00    -0.143 C  
HETATM   22  C   UNL     1      -8.616   7.142  70.068  1.00  0.00    -0.141 C  
HETATM   23  C   UNL     1      -8.922   5.800  70.861  1.00  0.00    -0.145 C  
HETATM   24  C   UNL     1      -8.687   8.453  70.893  1.00  0.00    -0.178 C  
HETATM   25  C   UNL     1      -8.066   5.714  72.144  1.00  0.00    -0.108 A  
HETATM   26  C   UNL     1      -8.789   4.518  69.991  1.00  0.00    -0.125 A  
HETATM   27  C   UNL     1     -10.111   8.954  71.147  1.00  0.00    -0.271 C  
HETATM   28  O   UNL     1     -10.297   5.866  71.280  1.00  0.00    -0.205 OA 
HETATM   29  C   UNL     1      -8.571   6.185  73.375  1.00  0.00    -0.122 A  
HETATM   30  C   UNL     1      -7.973   4.445  68.846  1.00  0.00    -0.073 A  
HETATM   31  H   UNL     1     -10.480   5.063  71.754  1.00  0.00     0.000 HD 
HETATM   32  C   UNL     1      -7.956   3.305  68.033  1.00  0.00    -0.071 A  
HETATM   33  C   UNL     1      -7.795   6.182  74.536  1.00  0.00    -0.098 A  
HETATM   34  C   UNL     1      -8.732   2.198  68.363  1.00  0.00    -0.126 A  
HETATM   35  C   UNL     1      -6.496   5.687  74.501  1.00  0.00    -0.072 A  
HETATM   36  C   UNL     1      -5.976   5.203  73.304  1.00  0.00    -0.027 A  
HETATM   37  C   UNL     1      -9.503   2.219  69.520  1.00  0.00    -0.117 A  
HETATM   38  C   UNL     1      -6.749   5.226  72.134  1.00  0.00    -0.061 A  
HETATM   39  C   UNL     1      -9.520   3.358  70.332  1.00  0.00    -0.245 A  
ENDBRANCH  18  19
ENDBRANCH  17  18
ENDBRANCH  16  17
ENDBRANCH  13  16
ENDBRANCH  10  13
ENDBRANCH   2   7
TORSDOF 6
ENDMDL
MODEL      148
REMARK 921   NORMALIZED FREE ENERGY PREDICTED BY IDOCK:   -4.07 KCAL/MOL
REMARK 922        TOTAL FREE ENERGY PREDICTED BY IDOCK:   -7.85 KCAL/MOL
REMARK 923 INTER-LIGAND FREE ENERGY PREDICTED BY IDOCK:   -6.66 KCAL/MOL
REMARK 924 INTRA-LIGAND FREE ENERGY PREDICTED BY IDOCK:   -1.20 KCAL/MOL
REMARK 927      BINDING AFFINITY PREDICTED BY RF-SCORE:    0.00 PKD
ROOT
HETATM    1  C   UNL     1      -7.830   8.423  66.312  1.00  0.00    -0.098 C  
HETATM    2  C   UNL     1      -7.916   9.736  65.499  1.00  0.00    -0.123 C  
HETATM    3  C   UNL     1      -8.448   9.385  64.094  1.00  0.00    -0.190 C  
HETATM    4  O   UNL     1      -8.776   8.263  63.730  1.00  0.00     0.094 OA 
HETATM    5  C   UNL     1      -6.498  10.311  65.316  1.00  0.00    -0.122 C  
HETATM    6  O   UNL     1      -8.534  10.440  63.244  1.00  0.00    -0.166 OA 
ENDROOT
BRANCH   2   7
HETATM    7  C   UNL     1      -8.806  10.712  66.281  1.00  0.00    -0.172 A  
HETATM    8  C   UNL     1      -8.221  11.742  67.042  1.00  0.00    -0.172 A  
HETATM    9  C   UNL     1      -8.988  12.545  67.885  1.00  0.00    -0.188 A  
HETATM   10  C   UNL     1     -10.373  12.364  67.963  1.00  0.00    -0.220 A  
HETATM   11  C   UNL     1     -10.197  10.566  66.342  1.00  0.00    -0.296 A  
HETATM   12  C   UNL     1     -10.970  11.402  67.141  1.00  0.00    -0.340 A  
BRANCH  10  13
HETATM   13  C   UNL     1     -11.195  13.133  68.970  1.00  0.00    -0.258 C  
HETATM   14  O   UNL     1     -11.638  14.324  68.334  1.00  0.00    -0.285 OA 
HETATM   15  H   UNL     1     -12.154  14.808  68.967  1.00  0.00     0.000 HD 
BRANCH  13  16
HETATM   16  C   UNL     1     -12.345  12.254  69.500  1.00  0.00    -0.009 C  
BRANCH  16  17
HETATM   17  C   UNL     1     -11.931  11.201  70.531  1.00  0.00    -0.475 C  
BRANCH  17  18
HETATM   18  C   UNL     1     -12.582   9.824  70.343  1.00  0.00     0.077 C  
BRANCH  18  19
HETATM   19  N   UNL     1     -12.355   8.912  71.478  1.00  0.00    -0.310 NA 
HETATM   20  C   UNL     1     -12.455   7.494  71.116  1.00  0.00    -0.275 C  
HETATM   21  C   UNL     1     -11.261   6.959  70.318  1.00  0.00    -0.363 C  
HETATM   22  C   UNL     1      -9.881   7.214  70.979  1.00  0.00    -0.181 C  
HETATM   23  C   UNL     1      -9.515   6.178  72.126  1.00  0.00    -0.151 C  
HETATM   24  C   UNL     1      -9.848   8.712  71.377  1.00  0.00    -0.327 C  
HETATM   25  C   UNL     1      -8.180   6.559  72.803  1.00  0.00    -0.109 A  
HETATM   26  C   UNL     1      -9.520   4.696  71.653  1.00  0.00    -0.210 A  
HETATM   27  C   UNL     1     -11.079   9.178  72.159  1.00  0.00    -0.081 C  
HETATM   28  O   UNL     1     -10.539   6.287  73.131  1.00  0.00    -0.223 OA 
HETATM   29  C   UNL     1      -8.168   7.365  73.962  1.00  0.00    -0.198 A  
HETATM   30  C   UNL     1      -9.306   4.314  70.315  1.00  0.00    -0.225 A  
HETATM   31  H   UNL     1     -10.320   5.668  73.817  1.00  0.00     0.000 HD 
HETATM   32  C   UNL     1      -9.417   2.978  69.911  1.00  0.00    -0.189 A  
HETATM   33  C   UNL     1      -6.974   7.781  74.554  1.00  0.00    -0.147 A  
HETATM   34  C   UNL     1      -9.715   1.988  70.841  1.00  0.00    -0.135 A  
HETATM   35  C   UNL     1      -5.757   7.382  74.015  1.00  0.00    -0.057 A  
HETATM   36  C   UNL     1      -5.737   6.576  72.881  1.00  0.00    -0.038 A  
HETATM   37  C   UNL     1      -9.875   2.328  72.180  1.00  0.00    -0.221 A  
HETATM   38  C   UNL     1      -6.936   6.177  72.274  1.00  0.00    -0.075 A  
HETATM   39  C   UNL     1      -9.764   3.662  72.584  1.00  0.00    -0.199 A  
ENDBRANCH  18  19
ENDBRANCH  17  18
ENDBRANCH  16  17
ENDBRANCH  13  16
ENDBRANCH  10  13
ENDBRANCH   2   7
TORSDOF 6
ENDMDL
MODEL      149
REMARK 921   NORMALIZED FREE ENERGY PREDICTED BY IDOCK:   -4.06 KCAL/MOL
REMARK 922        TOTAL FREE ENERGY PREDICTED BY IDOCK:   -7.84 KCAL/MOL
REMARK 923 INTER-LIGAND FREE ENERGY PREDICTED BY IDOCK:   -6.95 KCAL/MOL
REMARK 924 INTRA-LIGAND FREE ENERGY PREDICTED BY IDOCK:   -0.89 KCAL/MOL
REMARK 927      BINDING AFFINITY PREDICTED BY RF-SCORE:    0.00 PKD
ROOT
HETATM    1  C   UNL     1      -9.077  19.612  68.615  1.00  0.00    -0.341 C  
HETATM    2  C   UNL     1      -8.602  19.106  67.233  1.00  0.00    -0.306 C  
HETATM    3  C   UNL     1      -7.783  20.235  66.575  1.00  0.00    -0.241 C  
HETATM    4  O   UNL     1      -7.534  21.314  67.097  1.00  0.00    -0.416 OA 
HETATM    5  C   UNL     1      -9.830  18.856  66.337  1.00  0.00    -0.412 C  
HETATM    6  O   UNL     1      -7.334  19.951  65.326  1.00  0.00    -0.362 OA 
ENDROOT
BRANCH   2   7
HETATM    7  C   UNL     1      -7.814  17.807  67.457  1.00  0.00    -0.214 A  
HETATM    8  C   UNL     1      -8.279  16.598  66.905  1.00  0.00    -0.247 A  
HETATM    9  C   UNL     1      -7.677  15.380  67.218  1.00  0.00    -0.245 A  
HETATM   10  C   UNL     1      -6.565  15.341  68.066  1.00  0.00    -0.153 A  
HETATM   11  C   UNL     1      -6.679  17.757  68.275  1.00  0.00    -0.206 A  
HETATM   12  C   UNL     1      -6.045  16.548  68.545  1.00  0.00    -0.129 A  
BRANCH  10  13
HETATM   13  C   UNL     1      -5.989  14.021  68.520  1.00  0.00    -0.092 C  
HETATM   14  O   UNL     1      -6.793  13.557  69.597  1.00  0.00    -0.303 OA 
HETATM   15  H   UNL     1      -6.430  12.726  69.883  1.00  0.00     0.000 HD 
BRANCH  13  16
HETATM   16  C   UNL     1      -5.918  13.036  67.337  1.00  0.00    -0.047 C  
BRANCH  16  17
HETATM   17  C   UNL     1      -7.015  11.968  67.319  1.00  0.00    -0.146 C  
BRANCH  17  18
HETATM   18  C   UNL     1      -6.509  10.522  67.413  1.00  0.00    -0.062 C  
BRANCH  18  19
HETATM   19  N   UNL     1      -7.582   9.520  67.292  1.00  0.00    -0.091 NA 
HETATM   20  C   UNL     1      -7.107   8.138  67.414  1.00  0.00    -0.083 C  
HETATM   21  C   UNL     1      -6.739   7.719  68.841  1.00  0.00    -0.050 C  
HETATM   22  C   UNL     1      -7.857   7.960  69.889  1.00  0.00    -0.103 C  
HETATM   23  C   UNL     1      -8.981   6.839  69.902  1.00  0.00    -0.144 C  
HETATM   24  C   UNL     1      -8.349   9.417  69.688  1.00  0.00    -0.147 C  
HETATM   25  C   UNL     1     -10.107   7.203  70.894  1.00  0.00    -0.200 A  
HETATM   26  C   UNL     1      -8.430   5.406  70.155  1.00  0.00    -0.119 A  
HETATM   27  C   UNL     1      -8.684   9.768  68.236  1.00  0.00    -0.119 C  
HETATM   28  O   UNL     1      -9.570   6.822  68.590  1.00  0.00    -0.133 OA 
HETATM   29  C   UNL     1     -11.253   7.901  70.455  1.00  0.00    -0.240 A  
HETATM   30  C   UNL     1      -7.227   5.153  70.841  1.00  0.00    -0.064 A  
HETATM   31  H   UNL     1     -10.243   6.151  68.597  1.00  0.00     0.000 HD 
HETATM   32  C   UNL     1      -6.714   3.856  70.962  1.00  0.00    -0.031 A  
HETATM   33  C   UNL     1     -12.253   8.303  71.342  1.00  0.00    -0.328 A  
HETATM   34  C   UNL     1      -7.407   2.776  70.425  1.00  0.00    -0.037 A  
HETATM   35  C   UNL     1     -12.145   7.996  72.694  1.00  0.00    -0.283 A  
HETATM   36  C   UNL     1     -11.034   7.297  73.154  1.00  0.00    -0.384 A  
HETATM   37  C   UNL     1      -8.627   2.989  69.792  1.00  0.00    -0.114 A  
HETATM   38  C   UNL     1     -10.019   6.913  72.266  1.00  0.00    -0.176 A  
HETATM   39  C   UNL     1      -9.140   4.284  69.671  1.00  0.00    -0.179 A  
ENDBRANCH  18  19
ENDBRANCH  17  18
ENDBRANCH  16  17
ENDBRANCH  13  16
ENDBRANCH  10  13
ENDBRANCH   2   7
TORSDOF 6
ENDMDL
MODEL      150
REMARK 921   NORMALIZED FREE ENERGY PREDICTED BY IDOCK:   -4.06 KCAL/MOL
REMARK 922        TOTAL FREE ENERGY PREDICTED BY IDOCK:   -7.84 KCAL/MOL
REMARK 923 INTER-LIGAND FREE ENERGY PREDICTED BY IDOCK:   -7.44 KCAL/MOL
REMARK 924 INTRA-LIGAND FREE ENERGY PREDICTED BY IDOCK:   -0.39 KCAL/MOL
REMARK 927      BINDING AFFINITY PREDICTED BY RF-SCORE:    0.00 PKD
ROOT
HETATM    1  C   UNL     1     -12.471  14.556  65.372  1.00  0.00    -0.265 C  
HETATM    2  C   UNL     1     -11.045  14.042  65.679  1.00  0.00    -0.302 C  
HETATM    3  C   UNL     1     -10.174  15.262  66.042  1.00  0.00    -0.317 C  
HETATM    4  O   UNL     1     -10.579  16.416  66.108  1.00  0.00    -0.311 OA 
HETATM    5  C   UNL     1     -10.446  13.421  64.403  1.00  0.00    -0.403 C  
HETATM    6  O   UNL     1      -8.873  14.970  66.294  1.00  0.00    -0.255 OA 
ENDROOT
BRANCH   2   7
HETATM    7  C   UNL     1     -11.156  12.996  66.797  1.00  0.00    -0.316 A  
HETATM    8  C   UNL     1     -10.814  11.654  66.542  1.00  0.00    -0.328 A  
HETATM    9  C   UNL     1     -11.050  10.654  67.484  1.00  0.00    -0.367 A  
HETATM   10  C   UNL     1     -11.605  10.975  68.727  1.00  0.00    -0.386 A  
HETATM   11  C   UNL     1     -11.677  13.307  68.059  1.00  0.00    -0.394 A  
HETATM   12  C   UNL     1     -11.864  12.318  69.020  1.00  0.00    -0.358 A  
BRANCH  10  13
HETATM   13  C   UNL     1     -11.992   9.887  69.702  1.00  0.00     0.193 C  
HETATM   14  O   UNL     1     -11.533   8.655  69.163  1.00  0.00    -0.225 OA 
HETATM   15  H   UNL     1     -11.777   7.970  69.776  1.00  0.00     0.000 HD 
BRANCH  13  16
HETATM   16  C   UNL     1     -11.423  10.198  71.099  1.00  0.00    -0.387 C  
BRANCH  16  17
HETATM   17  C   UNL     1     -10.403   9.183  71.622  1.00  0.00    -0.388 C  
BRANCH  17  18
HETATM   18  C   UNL     1      -9.111   9.084  70.799  1.00  0.00    -0.245 C  
BRANCH  18  19
HETATM   19  N   UNL     1      -8.218   8.002  71.245  1.00  0.00    -0.103 NA 
HETATM   20  C   UNL     1      -8.755   7.225  72.367  1.00  0.00    -0.119 C  
HETATM   21  C   UNL     1      -9.891   6.268  71.987  1.00  0.00    -0.173 C  
HETATM   22  C   UNL     1      -9.551   5.301  70.823  1.00  0.00    -0.234 C  
HETATM   23  C   UNL     1      -8.699   4.036  71.263  1.00  0.00    -0.090 C  
HETATM   24  C   UNL     1      -8.951   6.167  69.686  1.00  0.00    -0.134 C  
HETATM   25  C   UNL     1      -8.314   3.180  70.036  1.00  0.00    -0.079 A  
HETATM   26  C   UNL     1      -9.375   3.183  72.373  1.00  0.00    -0.163 A  
HETATM   27  C   UNL     1      -7.833   7.108  70.142  1.00  0.00    -0.108 C  
HETATM   28  O   UNL     1      -7.472   4.534  71.826  1.00  0.00    -0.069 OA 
HETATM   29  C   UNL     1      -7.084   3.385  69.376  1.00  0.00    -0.042 A  
HETATM   30  C   UNL     1     -10.768   3.154  72.582  1.00  0.00    -0.053 A  
HETATM   31  H   UNL     1      -6.961   3.777  72.089  1.00  0.00     0.000 HD 
HETATM   32  C   UNL     1     -11.331   2.452  73.653  1.00  0.00    -0.311 A  
HETATM   33  C   UNL     1      -6.742   2.673  68.224  1.00  0.00    -0.040 A  
HETATM   34  C   UNL     1     -10.519   1.736  74.526  1.00  0.00    -0.173 A  
HETATM   35  C   UNL     1      -7.614   1.718  67.714  1.00  0.00    -0.054 A  
HETATM   36  C   UNL     1      -8.828   1.483  68.353  1.00  0.00    -0.128 A  
HETATM   37  C   UNL     1      -9.145   1.698  74.312  1.00  0.00    -0.069 A  
HETATM   38  C   UNL     1      -9.180   2.214  69.496  1.00  0.00    -0.179 A  
HETATM   39  C   UNL     1      -8.582   2.400  73.241  1.00  0.00    -0.070 A  
ENDBRANCH  18  19
ENDBRANCH  17  18
ENDBRANCH  16  17
ENDBRANCH  13  16
ENDBRANCH  10  13
ENDBRANCH   2   7
TORSDOF 6
ENDMDL
MODEL      151
REMARK 921   NORMALIZED FREE ENERGY PREDICTED BY IDOCK:   -4.02 KCAL/MOL
REMARK 922        TOTAL FREE ENERGY PREDICTED BY IDOCK:   -7.79 KCAL/MOL
REMARK 923 INTER-LIGAND FREE ENERGY PREDICTED BY IDOCK:   -8.58 KCAL/MOL
REMARK 924 INTRA-LIGAND FREE ENERGY PREDICTED BY IDOCK:    0.79 KCAL/MOL
REMARK 927      BINDING AFFINITY PREDICTED BY RF-SCORE:    0.00 PKD
ROOT
HETATM    1  C   UNL     1     -13.801   7.583  71.497  1.00  0.00    -0.487 C  
HETATM    2  C   UNL     1     -12.327   8.046  71.565  1.00  0.00    -0.335 C  
HETATM    3  C   UNL     1     -11.534   7.247  70.511  1.00  0.00    -0.279 C  
HETATM    4  O   UNL     1     -12.021   6.428  69.742  1.00  0.00    -0.257 OA 
HETATM    5  C   UNL     1     -11.745   7.681  72.944  1.00  0.00    -0.204 C  
HETATM    6  O   UNL     1     -10.204   7.516  70.484  1.00  0.00    -0.199 OA 
ENDROOT
BRANCH   2   7
HETATM    7  C   UNL     1     -12.305   9.567  71.347  1.00  0.00    -0.451 A  
HETATM    8  C   UNL     1     -13.071  10.407  72.178  1.00  0.00    -0.427 A  
HETATM    9  C   UNL     1     -13.196  11.770  71.911  1.00  0.00    -0.468 A  
HETATM   10  C   UNL     1     -12.527  12.339  70.822  1.00  0.00    -0.356 A  
HETATM   11  C   UNL     1     -11.612  10.156  70.283  1.00  0.00    -0.379 A  
HETATM   12  C   UNL     1     -11.693  11.525  70.047  1.00  0.00    -0.414 A  
BRANCH  10  13
HETATM   13  C   UNL     1     -12.762  13.782  70.442  1.00  0.00    -0.178 C  
HETATM   14  O   UNL     1     -12.754  14.542  71.643  1.00  0.00    -0.312 OA 
HETATM   15  H   UNL     1     -12.902  15.449  71.404  1.00  0.00     0.000 HD 
BRANCH  13  16
HETATM   16  C   UNL     1     -11.708  14.241  69.417  1.00  0.00    -0.363 C  
BRANCH  16  17
HETATM   17  C   UNL     1     -11.881  13.664  68.009  1.00  0.00    -0.397 C  
BRANCH  17  18
HETATM   18  C   UNL     1     -11.311  14.534  66.880  1.00  0.00    -0.348 C  
BRANCH  18  19
HETATM   19  N   UNL     1      -9.916  14.206  66.541  1.00  0.00    -0.274 NA 
HETATM   20  C   UNL     1      -9.145  13.687  67.675  1.00  0.00    -0.207 C  
HETATM   21  C   UNL     1      -9.493  12.248  68.071  1.00  0.00    -0.206 C  
HETATM   22  C   UNL     1      -9.420  11.227  66.905  1.00  0.00    -0.193 C  
HETATM   23  C   UNL     1      -7.949  10.729  66.575  1.00  0.00    -0.144 C  
HETATM   24  C   UNL     1     -10.213  11.844  65.724  1.00  0.00    -0.276 C  
HETATM   25  C   UNL     1      -7.949   9.800  65.340  1.00  0.00    -0.125 A  
HETATM   26  C   UNL     1      -7.224  10.078  67.786  1.00  0.00    -0.087 A  
HETATM   27  C   UNL     1      -9.822  13.288  65.396  1.00  0.00    -0.108 C  
HETATM   28  O   UNL     1      -7.182  11.894  66.220  1.00  0.00    -0.357 OA 
HETATM   29  C   UNL     1      -7.722  10.324  64.049  1.00  0.00    -0.100 A  
HETATM   30  C   UNL     1      -7.907   9.475  68.860  1.00  0.00    -0.080 A  
HETATM   31  H   UNL     1      -6.302  11.596  66.023  1.00  0.00     0.000 HD 
HETATM   32  C   UNL     1      -7.222   8.989  69.980  1.00  0.00    -0.058 A  
HETATM   33  C   UNL     1      -7.785   9.519  62.910  1.00  0.00    -0.118 A  
HETATM   34  C   UNL     1      -5.835   9.066  70.041  1.00  0.00    -0.031 A  
HETATM   35  C   UNL     1      -8.054   8.161  63.034  1.00  0.00    -0.135 A  
HETATM   36  C   UNL     1      -8.267   7.614  64.295  1.00  0.00    -0.009 A  
HETATM   37  C   UNL     1      -5.129   9.603  68.970  1.00  0.00    -0.036 A  
HETATM   38  C   UNL     1      -8.226   8.426  65.437  1.00  0.00    -0.144 A  
HETATM   39  C   UNL     1      -5.813  10.090  67.851  1.00  0.00    -0.038 A  
ENDBRANCH  18  19
ENDBRANCH  17  18
ENDBRANCH  16  17
ENDBRANCH  13  16
ENDBRANCH  10  13
ENDBRANCH   2   7
TORSDOF 6
ENDMDL
MODEL      152
REMARK 921   NORMALIZED FREE ENERGY PREDICTED BY IDOCK:   -3.90 KCAL/MOL
REMARK 922        TOTAL FREE ENERGY PREDICTED BY IDOCK:   -7.62 KCAL/MOL
REMARK 923 INTER-LIGAND FREE ENERGY PREDICTED BY IDOCK:   -7.09 KCAL/MOL
REMARK 924 INTRA-LIGAND FREE ENERGY PREDICTED BY IDOCK:   -0.54 KCAL/MOL
REMARK 927      BINDING AFFINITY PREDICTED BY RF-SCORE:    0.00 PKD
ROOT
HETATM    1  C   UNL     1     -13.997   8.620  73.033  1.00  0.00     0.193 C  
HETATM    2  C   UNL     1     -12.763   8.470  72.114  1.00  0.00    -0.423 C  
HETATM    3  C   UNL     1     -13.100   7.414  71.042  1.00  0.00    -0.124 C  
HETATM    4  O   UNL     1     -14.178   6.844  70.936  1.00  0.00     0.124 OA 
HETATM    5  C   UNL     1     -11.583   7.918  72.938  1.00  0.00    -0.303 C  
HETATM    6  O   UNL     1     -12.086   7.140  70.182  1.00  0.00    -0.095 OA 
ENDROOT
BRANCH   2   7
HETATM    7  C   UNL     1     -12.432   9.858  71.547  1.00  0.00    -0.506 A  
HETATM    8  C   UNL     1     -13.249  10.960  71.862  1.00  0.00    -0.508 A  
HETATM    9  C   UNL     1     -13.069  12.196  71.242  1.00  0.00    -0.210 A  
HETATM   10  C   UNL     1     -12.040  12.374  70.311  1.00  0.00    -0.377 A  
HETATM   11  C   UNL     1     -11.383  10.061  70.641  1.00  0.00    -0.425 A  
HETATM   12  C   UNL     1     -11.169  11.308  70.062  1.00  0.00    -0.213 A  
BRANCH  10  13
HETATM   13  C   UNL     1     -11.920  13.663  69.533  1.00  0.00    -0.341 C  
HETATM   14  O   UNL     1     -11.386  14.641  70.416  1.00  0.00    -0.365 OA 
HETATM   15  H   UNL     1     -11.311  15.453  69.927  1.00  0.00     0.000 HD 
BRANCH  13  16
HETATM   16  C   UNL     1     -11.066  13.445  68.269  1.00  0.00    -0.289 C  
BRANCH  16  17
HETATM   17  C   UNL     1     -11.672  12.488  67.239  1.00  0.00    -0.431 C  
BRANCH  17  18
HETATM   18  C   UNL     1     -10.770  12.180  66.035  1.00  0.00    -0.273 C  
BRANCH  18  19
HETATM   19  N   UNL     1      -9.498  11.539  66.409  1.00  0.00    -0.206 NA 
HETATM   20  C   UNL     1      -9.640  10.529  67.463  1.00  0.00    -0.160 C  
HETATM   21  C   UNL     1     -10.281   9.216  66.998  1.00  0.00    -0.333 C  
HETATM   22  C   UNL     1      -9.593   8.568  65.768  1.00  0.00    -0.068 C  
HETATM   23  C   UNL     1      -8.282   7.745  66.123  1.00  0.00    -0.123 C  
HETATM   24  C   UNL     1      -9.430   9.686  64.707  1.00  0.00    -0.256 C  
HETATM   25  C   UNL     1      -7.600   7.220  64.840  1.00  0.00    -0.102 A  
HETATM   26  C   UNL     1      -8.519   6.608  67.157  1.00  0.00    -0.113 A  
HETATM   27  C   UNL     1      -8.797  10.972  65.247  1.00  0.00    -0.129 C  
HETATM   28  O   UNL     1      -7.363   8.666  66.737  1.00  0.00    -0.077 OA 
HETATM   29  C   UNL     1      -6.580   7.968  64.212  1.00  0.00    -0.061 A  
HETATM   30  C   UNL     1      -9.768   5.985  67.344  1.00  0.00    -0.124 A  
HETATM   31  H   UNL     1      -6.578   8.174  66.949  1.00  0.00     0.000 HD 
HETATM   32  C   UNL     1      -9.966   5.035  68.353  1.00  0.00    -0.202 A  
HETATM   33  C   UNL     1      -5.995   7.551  63.015  1.00  0.00    -0.054 A  
HETATM   34  C   UNL     1      -8.912   4.661  69.180  1.00  0.00    -0.139 A  
HETATM   35  C   UNL     1      -6.399   6.360  62.424  1.00  0.00    -0.031 A  
HETATM   36  C   UNL     1      -7.392   5.594  63.027  1.00  0.00    -0.054 A  
HETATM   37  C   UNL     1      -7.652   5.216  68.981  1.00  0.00    -0.077 A  
HETATM   38  C   UNL     1      -7.995   6.024  64.217  1.00  0.00    -0.121 A  
HETATM   39  C   UNL     1      -7.454   6.166  67.973  1.00  0.00    -0.089 A  
ENDBRANCH  18  19
ENDBRANCH  17  18
ENDBRANCH  16  17
ENDBRANCH  13  16
ENDBRANCH  10  13
ENDBRANCH   2   7
TORSDOF 6
ENDMDL
MODEL      153
REMARK 921   NORMALIZED FREE ENERGY PREDICTED BY IDOCK:   -3.89 KCAL/MOL
REMARK 922        TOTAL FREE ENERGY PREDICTED BY IDOCK:   -7.61 KCAL/MOL
REMARK 923 INTER-LIGAND FREE ENERGY PREDICTED BY IDOCK:   -6.61 KCAL/MOL
REMARK 924 INTRA-LIGAND FREE ENERGY PREDICTED BY IDOCK:   -1.00 KCAL/MOL
REMARK 927      BINDING AFFINITY PREDICTED BY RF-SCORE:    0.00 PKD
ROOT
HETATM    1  C   UNL     1     -10.516  18.805  66.305  1.00  0.00    -0.489 C  
HETATM    2  C   UNL     1      -9.199  18.847  67.116  1.00  0.00    -0.313 C  
HETATM    3  C   UNL     1      -9.432  19.748  68.346  1.00  0.00    -0.332 C  
HETATM    4  O   UNL     1     -10.495  20.286  68.627  1.00  0.00    -0.319 OA 
HETATM    5  C   UNL     1      -8.103  19.516  66.265  1.00  0.00    -0.344 C  
HETATM    6  O   UNL     1      -8.341  19.918  69.135  1.00  0.00    -0.123 OA 
ENDROOT
BRANCH   2   7
HETATM    7  C   UNL     1      -8.817  17.400  67.461  1.00  0.00    -0.224 A  
HETATM    8  C   UNL     1      -7.671  16.819  66.887  1.00  0.00    -0.254 A  
HETATM    9  C   UNL     1      -7.383  15.465  67.054  1.00  0.00    -0.127 A  
HETATM   10  C   UNL     1      -8.218  14.659  67.835  1.00  0.00    -0.152 A  
HETATM   11  C   UNL     1      -9.624  16.589  68.269  1.00  0.00    -0.223 A  
HETATM   12  C   UNL     1      -9.309  15.251  68.481  1.00  0.00    -0.200 A  
BRANCH  10  13
HETATM   13  C   UNL     1      -7.995  13.167  67.913  1.00  0.00    -0.158 C  
HETATM   14  O   UNL     1      -8.390  12.614  66.664  1.00  0.00    -0.398 OA 
HETATM   15  H   UNL     1      -8.250  11.676  66.713  1.00  0.00     0.000 HD 
BRANCH  13  16
HETATM   16  C   UNL     1      -6.530  12.867  68.282  1.00  0.00    -0.086 C  
BRANCH  16  17
HETATM   17  C   UNL     1      -6.336  11.720  69.278  1.00  0.00    -0.103 C  
BRANCH  17  18
HETATM   18  C   UNL     1      -6.235  10.326  68.646  1.00  0.00    -0.047 C  
BRANCH  18  19
HETATM   19  N   UNL     1      -7.511   9.590  68.649  1.00  0.00    -0.078 NA 
HETATM   20  C   UNL     1      -7.442   8.298  67.960  1.00  0.00    -0.097 C  
HETATM   21  C   UNL     1      -6.696   7.207  68.735  1.00  0.00    -0.067 C  
HETATM   22  C   UNL     1      -7.212   6.979  70.180  1.00  0.00    -0.075 C  
HETATM   23  C   UNL     1      -8.516   6.078  70.264  1.00  0.00    -0.124 C  
HETATM   24  C   UNL     1      -7.305   8.377  70.845  1.00  0.00    -0.064 C  
HETATM   25  C   UNL     1      -9.026   5.985  71.719  1.00  0.00    -0.138 A  
HETATM   26  C   UNL     1      -8.346   4.672  69.622  1.00  0.00    -0.077 A  
HETATM   27  C   UNL     1      -8.051   9.418  70.007  1.00  0.00    -0.152 C  
HETATM   28  O   UNL     1      -9.539   6.749  69.506  1.00  0.00    -0.148 OA 
HETATM   29  C   UNL     1     -10.002   6.887  72.196  1.00  0.00    -0.176 A  
HETATM   30  C   UNL     1      -7.099   4.030  69.491  1.00  0.00    -0.046 A  
HETATM   31  H   UNL     1     -10.319   6.210  69.556  1.00  0.00     0.000 HD 
HETATM   32  C   UNL     1      -6.973   2.810  68.818  1.00  0.00    -0.044 A  
HETATM   33  C   UNL     1     -10.429   6.870  73.525  1.00  0.00    -0.382 A  
HETATM   34  C   UNL     1      -8.095   2.184  68.285  1.00  0.00    -0.068 A  
HETATM   35  C   UNL     1      -9.908   5.932  74.410  1.00  0.00    -0.249 A  
HETATM   36  C   UNL     1      -8.956   5.020  73.964  1.00  0.00    -0.113 A  
HETATM   37  C   UNL     1      -9.348   2.765  68.449  1.00  0.00    -0.252 A  
HETATM   38  C   UNL     1      -8.511   5.053  72.636  1.00  0.00    -0.116 A  
HETATM   39  C   UNL     1      -9.474   3.985  69.121  1.00  0.00    -0.249 A  
ENDBRANCH  18  19
ENDBRANCH  17  18
ENDBRANCH  16  17
ENDBRANCH  13  16
ENDBRANCH  10  13
ENDBRANCH   2   7
TORSDOF 6
ENDMDL
MODEL      154
REMARK 921   NORMALIZED FREE ENERGY PREDICTED BY IDOCK:   -3.89 KCAL/MOL
REMARK 922        TOTAL FREE ENERGY PREDICTED BY IDOCK:   -7.61 KCAL/MOL
REMARK 923 INTER-LIGAND FREE ENERGY PREDICTED BY IDOCK:   -6.28 KCAL/MOL
REMARK 924 INTRA-LIGAND FREE ENERGY PREDICTED BY IDOCK:   -1.33 KCAL/MOL
REMARK 927      BINDING AFFINITY PREDICTED BY RF-SCORE:    0.00 PKD
ROOT
HETATM    1  C   UNL     1      -6.798   9.780  68.180  1.00  0.00    -0.069 C  
HETATM    2  C   UNL     1      -7.485   8.740  67.265  1.00  0.00    -0.089 C  
HETATM    3  C   UNL     1      -8.197   7.714  68.170  1.00  0.00    -0.124 C  
HETATM    4  O   UNL     1      -8.231   7.765  69.393  1.00  0.00    -0.127 OA 
HETATM    5  C   UNL     1      -6.408   7.975  66.472  1.00  0.00    -0.050 C  
HETATM    6  O   UNL     1      -8.811   6.704  67.503  1.00  0.00    -0.118 OA 
ENDROOT
BRANCH   2   7
HETATM    7  C   UNL     1      -8.425   9.500  66.318  1.00  0.00    -0.122 A  
HETATM    8  C   UNL     1      -9.637  10.026  66.802  1.00  0.00    -0.228 A  
HETATM    9  C   UNL     1     -10.581  10.582  65.940  1.00  0.00    -0.149 A  
HETATM   10  C   UNL     1     -10.322  10.660  64.567  1.00  0.00    -0.352 A  
HETATM   11  C   UNL     1      -8.163   9.618  64.947  1.00  0.00    -0.143 A  
HETATM   12  C   UNL     1      -9.082  10.221  64.093  1.00  0.00    -0.284 A  
BRANCH  10  13
HETATM   13  C   UNL     1     -11.389  11.134  63.608  1.00  0.00     0.170 C  
HETATM   14  O   UNL     1     -12.628  11.097  64.302  1.00  0.00     0.443 OA 
HETATM   15  H   UNL     1     -13.299  11.394  63.699  1.00  0.00     0.000 HD 
BRANCH  13  16
HETATM   16  C   UNL     1     -11.031  12.529  63.061  1.00  0.00     0.294 C  
BRANCH  16  17
HETATM   17  C   UNL     1     -12.134  13.582  63.206  1.00  0.00    -0.223 C  
BRANCH  17  18
HETATM   18  C   UNL     1     -12.072  14.408  64.498  1.00  0.00    -0.481 C  
BRANCH  18  19
HETATM   19  N   UNL     1     -11.332  13.740  65.582  1.00  0.00    -0.303 NA 
HETATM   20  C   UNL     1      -9.984  14.278  65.787  1.00  0.00    -0.323 C  
HETATM   21  C   UNL     1      -9.947  15.649  66.471  1.00  0.00    -0.287 C  
HETATM   22  C   UNL     1     -10.726  15.717  67.811  1.00  0.00    -0.307 C  
HETATM   23  C   UNL     1      -9.926  15.132  69.052  1.00  0.00    -0.239 C  
HETATM   24  C   UNL     1     -12.123  15.099  67.547  1.00  0.00     0.172 C  
HETATM   25  C   UNL     1     -10.803  15.140  70.323  1.00  0.00    -0.258 A  
HETATM   26  C   UNL     1      -8.554  15.824  69.293  1.00  0.00    -0.259 A  
HETATM   27  C   UNL     1     -12.081  13.738  66.848  1.00  0.00    -0.413 C  
HETATM   28  O   UNL     1      -9.638  13.755  68.752  1.00  0.00    -0.369 OA 
HETATM   29  C   UNL     1     -11.562  14.004  70.678  1.00  0.00    -0.126 A  
HETATM   30  C   UNL     1      -8.271  17.140  68.878  1.00  0.00    -0.192 A  
HETATM   31  H   UNL     1      -9.159  13.404  69.494  1.00  0.00     0.000 HD 
HETATM   32  C   UNL     1      -6.994  17.692  69.024  1.00  0.00    -0.233 A  
HETATM   33  C   UNL     1     -12.416  14.007  71.783  1.00  0.00    -0.328 A  
HETATM   34  C   UNL     1      -5.975  16.954  69.618  1.00  0.00    -0.221 A  
HETATM   35  C   UNL     1     -12.517  15.143  72.578  1.00  0.00    -0.442 A  
HETATM   36  C   UNL     1     -11.770  16.273  72.261  1.00  0.00    -0.530 A  
HETATM   37  C   UNL     1      -6.240  15.674  70.090  1.00  0.00    -0.084 A  
HETATM   38  C   UNL     1     -10.930  16.277  71.139  1.00  0.00     0.150 A  
HETATM   39  C   UNL     1      -7.516  15.121  69.944  1.00  0.00    -0.032 A  
ENDBRANCH  18  19
ENDBRANCH  17  18
ENDBRANCH  16  17
ENDBRANCH  13  16
ENDBRANCH  10  13
ENDBRANCH   2   7
TORSDOF 6
ENDMDL
MODEL      155
REMARK 921   NORMALIZED FREE ENERGY PREDICTED BY IDOCK:   -3.87 KCAL/MOL
REMARK 922        TOTAL FREE ENERGY PREDICTED BY IDOCK:   -7.58 KCAL/MOL
REMARK 923 INTER-LIGAND FREE ENERGY PREDICTED BY IDOCK:   -6.58 KCAL/MOL
REMARK 924 INTRA-LIGAND FREE ENERGY PREDICTED BY IDOCK:   -1.01 KCAL/MOL
REMARK 927      BINDING AFFINITY PREDICTED BY RF-SCORE:    0.00 PKD
ROOT
HETATM    1  C   UNL     1      -9.429  16.080  65.491  1.00  0.00    -0.035 C  
HETATM    2  C   UNL     1      -9.876  16.966  66.677  1.00  0.00    -0.295 C  
HETATM    3  C   UNL     1     -10.691  18.144  66.105  1.00  0.00    -0.145 C  
HETATM    4  O   UNL     1     -10.957  18.299  64.921  1.00  0.00    -0.660 OA 
HETATM    5  C   UNL     1      -8.630  17.565  67.358  1.00  0.00    -0.225 C  
HETATM    6  O   UNL     1     -11.115  19.039  67.033  1.00  0.00    -0.316 OA 
ENDROOT
BRANCH   2   7
HETATM    7  C   UNL     1     -10.658  16.077  67.655  1.00  0.00    -0.309 A  
HETATM    8  C   UNL     1     -10.735  16.427  69.017  1.00  0.00    -0.322 A  
HETATM    9  C   UNL     1     -11.302  15.566  69.955  1.00  0.00    -0.323 A  
HETATM   10  C   UNL     1     -11.843  14.340  69.550  1.00  0.00    -0.378 A  
HETATM   11  C   UNL     1     -11.236  14.864  67.259  1.00  0.00    -0.348 A  
HETATM   12  C   UNL     1     -11.850  14.028  68.187  1.00  0.00    -0.402 A  
BRANCH  10  13
HETATM   13  C   UNL     1     -12.335  13.341  70.571  1.00  0.00    -0.316 C  
HETATM   14  O   UNL     1     -13.563  13.835  71.088  1.00  0.00    -0.188 OA 
HETATM   15  H   UNL     1     -13.872  13.207  71.731  1.00  0.00     0.000 HD 
BRANCH  13  16
HETATM   16  C   UNL     1     -12.454  11.944  69.932  1.00  0.00    -0.046 C  
BRANCH  16  17
HETATM   17  C   UNL     1     -11.960  10.789  70.808  1.00  0.00    -0.464 C  
BRANCH  17  18
HETATM   18  C   UNL     1     -11.566   9.520  70.040  1.00  0.00    -0.048 C  
BRANCH  18  19
HETATM   19  N   UNL     1     -10.132   9.460  69.709  1.00  0.00    -0.198 NA 
HETATM   20  C   UNL     1      -9.621   8.092  69.573  1.00  0.00    -0.168 C  
HETATM   21  C   UNL     1     -10.051   7.381  68.285  1.00  0.00    -0.201 C  
HETATM   22  C   UNL     1      -9.739   8.166  66.984  1.00  0.00    -0.275 C  
HETATM   23  C   UNL     1      -8.233   8.033  66.497  1.00  0.00    -0.115 C  
HETATM   24  C   UNL     1     -10.261   9.610  67.199  1.00  0.00    -0.305 C  
HETATM   25  C   UNL     1      -7.977   8.923  65.261  1.00  0.00    -0.116 A  
HETATM   26  C   UNL     1      -7.783   6.565  66.253  1.00  0.00    -0.095 A  
HETATM   27  C   UNL     1      -9.803  10.250  68.513  1.00  0.00    -0.164 C  
HETATM   28  O   UNL     1      -7.404   8.542  67.556  1.00  0.00    -0.086 OA 
HETATM   29  C   UNL     1      -7.480  10.236  65.412  1.00  0.00    -0.145 A  
HETATM   30  C   UNL     1      -8.681   5.526  65.939  1.00  0.00    -0.145 A  
HETATM   31  H   UNL     1      -6.503   8.463  67.265  1.00  0.00     0.000 HD 
HETATM   32  C   UNL     1      -8.250   4.199  65.826  1.00  0.00    -0.109 A  
HETATM   33  C   UNL     1      -7.304  11.085  64.319  1.00  0.00     0.767 A  
HETATM   34  C   UNL     1      -6.906   3.882  65.994  1.00  0.00    -0.061 A  
HETATM   35  C   UNL     1      -7.600  10.636  63.036  1.00  0.00     0.017 A  
HETATM   36  C   UNL     1      -8.077   9.342  62.854  1.00  0.00    -0.154 A  
HETATM   37  C   UNL     1      -5.988   4.894  66.247  1.00  0.00    -0.023 A  
HETATM   38  C   UNL     1      -8.275   8.497  63.955  1.00  0.00    -0.132 A  
HETATM   39  C   UNL     1      -6.418   6.220  66.362  1.00  0.00    -0.047 A  
ENDBRANCH  18  19
ENDBRANCH  17  18
ENDBRANCH  16  17
ENDBRANCH  13  16
ENDBRANCH  10  13
ENDBRANCH   2   7
TORSDOF 6
ENDMDL
MODEL      156
REMARK 921   NORMALIZED FREE ENERGY PREDICTED BY IDOCK:   -3.84 KCAL/MOL
REMARK 922        TOTAL FREE ENERGY PREDICTED BY IDOCK:   -7.54 KCAL/MOL
REMARK 923 INTER-LIGAND FREE ENERGY PREDICTED BY IDOCK:   -5.50 KCAL/MOL
REMARK 924 INTRA-LIGAND FREE ENERGY PREDICTED BY IDOCK:   -2.05 KCAL/MOL
REMARK 927      BINDING AFFINITY PREDICTED BY RF-SCORE:    0.00 PKD
ROOT
HETATM    1  C   UNL     1      -8.714  11.338  63.160  1.00  0.00     0.010 C  
HETATM    2  C   UNL     1      -8.879  10.673  64.546  1.00  0.00    -0.189 C  
HETATM    3  C   UNL     1      -7.475  10.283  65.052  1.00  0.00    -0.120 C  
HETATM    4  O   UNL     1      -6.430  10.511  64.458  1.00  0.00    -0.082 OA 
HETATM    5  C   UNL     1      -9.683   9.367  64.388  1.00  0.00     0.474 C  
HETATM    6  O   UNL     1      -7.465   9.641  66.248  1.00  0.00    -0.096 OA 
ENDROOT
BRANCH   2   7
HETATM    7  C   UNL     1      -9.621  11.664  65.455  1.00  0.00    -0.228 A  
HETATM    8  C   UNL     1      -8.893  12.550  66.271  1.00  0.00     0.059 A  
HETATM    9  C   UNL     1      -9.529  13.352  67.218  1.00  0.00    -0.234 A  
HETATM   10  C   UNL     1     -10.921  13.315  67.351  1.00  0.00    -0.287 A  
HETATM   11  C   UNL     1     -11.016  11.665  65.573  1.00  0.00    -0.327 A  
HETATM   12  C   UNL     1     -11.656  12.503  66.481  1.00  0.00    -0.447 A  
BRANCH  10  13
HETATM   13  C   UNL     1     -11.609  14.073  68.462  1.00  0.00    -0.322 C  
HETATM   14  O   UNL     1     -12.517  14.981  67.854  1.00  0.00    -0.404 OA 
HETATM   15  H   UNL     1     -12.950  15.459  68.553  1.00  0.00     0.000 HD 
BRANCH  13  16
HETATM   16  C   UNL     1     -12.283  13.090  69.439  1.00  0.00    -0.167 C  
BRANCH  16  17
HETATM   17  C   UNL     1     -11.317  12.249  70.278  1.00  0.00     0.299 C  
BRANCH  17  18
HETATM   18  C   UNL     1     -11.400  10.736  70.035  1.00  0.00    -0.319 C  
BRANCH  18  19
HETATM   19  N   UNL     1     -10.081  10.087  69.945  1.00  0.00    -0.247 NA 
HETATM   20  C   UNL     1      -9.871   9.048  70.958  1.00  0.00    -0.282 C  
HETATM   21  C   UNL     1     -10.641   7.748  70.701  1.00  0.00    -0.222 C  
HETATM   22  C   UNL     1     -10.409   7.134  69.295  1.00  0.00    -0.209 C  
HETATM   23  C   UNL     1      -9.061   6.304  69.169  1.00  0.00    -0.130 C  
HETATM   24  C   UNL     1     -10.602   8.281  68.270  1.00  0.00    -0.157 C  
HETATM   25  C   UNL     1      -8.852   5.815  67.718  1.00  0.00    -0.105 A  
HETATM   26  C   UNL     1      -8.948   5.138  70.192  1.00  0.00    -0.151 A  
HETATM   27  C   UNL     1      -9.815   9.552  68.601  1.00  0.00    -0.162 C  
HETATM   28  O   UNL     1      -7.983   7.209  69.463  1.00  0.00    -0.122 OA 
HETATM   29  C   UNL     1      -8.095   6.581  66.805  1.00  0.00    -0.109 A  
HETATM   30  C   UNL     1     -10.067   4.509  70.771  1.00  0.00    -0.233 A  
HETATM   31  H   UNL     1      -7.176   6.713  69.388  1.00  0.00     0.000 HD 
HETATM   32  C   UNL     1      -9.923   3.532  71.762  1.00  0.00    -0.202 A  
HETATM   33  C   UNL     1      -7.948   6.198  65.471  1.00  0.00    -0.117 A  
HETATM   34  C   UNL     1      -8.656   3.137  72.178  1.00  0.00    -0.092 A  
HETATM   35  C   UNL     1      -8.537   5.022  65.018  1.00  0.00    -0.149 A  
HETATM   36  C   UNL     1      -9.276   4.239  65.898  1.00  0.00    -0.145 A  
HETATM   37  C   UNL     1      -7.531   3.698  71.583  1.00  0.00    -0.052 A  
HETATM   38  C   UNL     1      -9.442   4.636  67.232  1.00  0.00    -0.173 A  
HETATM   39  C   UNL     1      -7.674   4.675  70.593  1.00  0.00    -0.054 A  
ENDBRANCH  18  19
ENDBRANCH  17  18
ENDBRANCH  16  17
ENDBRANCH  13  16
ENDBRANCH  10  13
ENDBRANCH   2   7
TORSDOF 6
ENDMDL
MODEL      157
REMARK 921   NORMALIZED FREE ENERGY PREDICTED BY IDOCK:   -3.83 KCAL/MOL
REMARK 922        TOTAL FREE ENERGY PREDICTED BY IDOCK:   -7.53 KCAL/MOL
REMARK 923 INTER-LIGAND FREE ENERGY PREDICTED BY IDOCK:   -7.51 KCAL/MOL
REMARK 924 INTRA-LIGAND FREE ENERGY PREDICTED BY IDOCK:   -0.01 KCAL/MOL
REMARK 927      BINDING AFFINITY PREDICTED BY RF-SCORE:    0.00 PKD
ROOT
HETATM    1  C   UNL     1     -10.046   2.875  65.451  1.00  0.00     0.539 C  
HETATM    2  C   UNL     1      -9.125   3.375  66.588  1.00  0.00    -0.178 C  
HETATM    3  C   UNL     1      -7.686   2.929  66.259  1.00  0.00    -0.077 C  
HETATM    4  O   UNL     1      -7.355   2.324  65.248  1.00  0.00    -0.060 OA 
HETATM    5  C   UNL     1      -9.526   2.681  67.904  1.00  0.00    -0.186 C  
HETATM    6  O   UNL     1      -6.765   3.259  67.200  1.00  0.00    -0.043 OA 
ENDROOT
BRANCH   2   7
HETATM    7  C   UNL     1      -9.301   4.897  66.697  1.00  0.00    -0.140 A  
HETATM    8  C   UNL     1     -10.591   5.460  66.671  1.00  0.00    -0.359 A  
HETATM    9  C   UNL     1     -10.779   6.840  66.610  1.00  0.00    -0.187 A  
HETATM   10  C   UNL     1      -9.676   7.701  66.609  1.00  0.00    -0.283 A  
HETATM   11  C   UNL     1      -8.208   5.772  66.732  1.00  0.00    -0.105 A  
HETATM   12  C   UNL     1      -8.395   7.151  66.725  1.00  0.00    -0.116 A  
BRANCH  10  13
HETATM   13  C   UNL     1      -9.860   9.187  66.406  1.00  0.00    -0.280 C  
HETATM   14  O   UNL     1      -9.973   9.411  65.007  1.00  0.00    -0.392 OA 
HETATM   15  H   UNL     1     -10.087  10.346  64.879  1.00  0.00     0.000 HD 
BRANCH  13  16
HETATM   16  C   UNL     1     -11.075   9.687  67.210  1.00  0.00     0.050 C  
BRANCH  16  17
HETATM   17  C   UNL     1     -11.152  11.206  67.387  1.00  0.00    -0.370 C  
BRANCH  17  18
HETATM   18  C   UNL     1     -11.578  11.982  66.133  1.00  0.00    -0.304 C  
BRANCH  18  19
HETATM   19  N   UNL     1     -10.518  12.853  65.598  1.00  0.00    -0.273 NA 
HETATM   20  C   UNL     1     -10.942  14.246  65.421  1.00  0.00    -0.333 C  
HETATM   21  C   UNL     1     -11.074  15.038  66.727  1.00  0.00    -0.326 C  
HETATM   22  C   UNL     1      -9.810  15.007  67.626  1.00  0.00    -0.220 C  
HETATM   23  C   UNL     1      -8.677  16.026  67.180  1.00  0.00    -0.190 C  
HETATM   24  C   UNL     1      -9.384  13.521  67.743  1.00  0.00    -0.213 C  
HETATM   25  C   UNL     1      -7.416  15.861  68.057  1.00  0.00    -0.135 A  
HETATM   26  C   UNL     1      -9.153  17.505  67.126  1.00  0.00    -0.247 A  
HETATM   27  C   UNL     1      -9.288  12.791  66.401  1.00  0.00    -0.194 C  
HETATM   28  O   UNL     1      -8.300  15.671  65.838  1.00  0.00    -0.177 OA 
HETATM   29  C   UNL     1      -6.367  15.007  67.653  1.00  0.00    -0.156 A  
HETATM   30  C   UNL     1     -10.228  17.997  67.891  1.00  0.00    -0.386 A  
HETATM   31  H   UNL     1      -7.622  16.281  65.570  1.00  0.00     0.000 HD 
HETATM   32  C   UNL     1     -10.691  19.309  67.741  1.00  0.00    -0.478 A  
HETATM   33  C   UNL     1      -5.248  14.787  68.458  1.00  0.00    -0.103 A  
HETATM   34  C   UNL     1     -10.070  20.172  66.845  1.00  0.00    -0.592 A  
HETATM   35  C   UNL     1      -5.136  15.435  69.683  1.00  0.00    -0.095 A  
HETATM   36  C   UNL     1      -6.148  16.294  70.102  1.00  0.00    -0.089 A  
HETATM   37  C   UNL     1      -8.969  19.733  66.118  1.00  0.00    -0.387 A  
HETATM   38  C   UNL     1      -7.282  16.497  69.303  1.00  0.00    -0.213 A  
HETATM   39  C   UNL     1      -8.507  18.422  66.267  1.00  0.00    -0.218 A  
ENDBRANCH  18  19
ENDBRANCH  17  18
ENDBRANCH  16  17
ENDBRANCH  13  16
ENDBRANCH  10  13
ENDBRANCH   2   7
TORSDOF 6
ENDMDL
MODEL      158
REMARK 921   NORMALIZED FREE ENERGY PREDICTED BY IDOCK:   -3.81 KCAL/MOL
REMARK 922        TOTAL FREE ENERGY PREDICTED BY IDOCK:   -7.51 KCAL/MOL
REMARK 923 INTER-LIGAND FREE ENERGY PREDICTED BY IDOCK:   -5.42 KCAL/MOL
REMARK 924 INTRA-LIGAND FREE ENERGY PREDICTED BY IDOCK:   -2.09 KCAL/MOL
REMARK 927      BINDING AFFINITY PREDICTED BY RF-SCORE:    0.00 PKD
ROOT
HETATM    1  C   UNL     1     -12.779   8.327  72.425  1.00  0.00    -0.287 C  
HETATM    2  C   UNL     1     -11.709   7.692  71.507  1.00  0.00    -0.310 C  
HETATM    3  C   UNL     1     -11.326   8.735  70.438  1.00  0.00    -0.192 C  
HETATM    4  O   UNL     1     -11.775   9.872  70.379  1.00  0.00    -0.262 OA 
HETATM    5  C   UNL     1     -12.327   6.490  70.766  1.00  0.00    -0.099 C  
HETATM    6  O   UNL     1     -10.421   8.300  69.525  1.00  0.00    -0.223 OA 
ENDROOT
BRANCH   2   7
HETATM    7  C   UNL     1     -10.539   7.243  72.395  1.00  0.00    -0.273 A  
HETATM    8  C   UNL     1      -9.763   8.202  73.073  1.00  0.00    -0.327 A  
HETATM    9  C   UNL     1      -8.603   7.843  73.759  1.00  0.00    -0.323 A  
HETATM   10  C   UNL     1      -8.206   6.503  73.816  1.00  0.00    -0.113 A  
HETATM   11  C   UNL     1     -10.149   5.902  72.492  1.00  0.00    -0.204 A  
HETATM   12  C   UNL     1      -9.022   5.535  73.220  1.00  0.00    -0.123 A  
BRANCH  10  13
HETATM   13  C   UNL     1      -6.883   6.118  74.437  1.00  0.00    -0.079 C  
HETATM   14  O   UNL     1      -6.822   4.698  74.454  1.00  0.00    -0.064 OA 
HETATM   15  H   UNL     1      -5.991   4.456  74.845  1.00  0.00     0.000 HD 
BRANCH  13  16
HETATM   16  C   UNL     1      -5.722   6.774  73.665  1.00  0.00    -0.054 C  
BRANCH  16  17
HETATM   17  C   UNL     1      -5.725   6.521  72.155  1.00  0.00    -0.037 C  
BRANCH  17  18
HETATM   18  C   UNL     1      -5.625   7.784  71.289  1.00  0.00    -0.034 C  
BRANCH  18  19
HETATM   19  N   UNL     1      -6.864   8.084  70.552  1.00  0.00    -0.037 NA 
HETATM   20  C   UNL     1      -7.213   9.508  70.553  1.00  0.00    -0.135 C  
HETATM   21  C   UNL     1      -6.340  10.375  69.639  1.00  0.00    -0.068 C  
HETATM   22  C   UNL     1      -6.259   9.878  68.172  1.00  0.00    -0.054 C  
HETATM   23  C   UNL     1      -7.509  10.287  67.283  1.00  0.00    -0.094 C  
HETATM   24  C   UNL     1      -5.929   8.365  68.232  1.00  0.00    -0.046 C  
HETATM   25  C   UNL     1      -7.403   9.670  65.871  1.00  0.00    -0.099 A  
HETATM   26  C   UNL     1      -7.759  11.821  67.225  1.00  0.00    -0.158 A  
HETATM   27  C   UNL     1      -6.832   7.566  69.175  1.00  0.00    -0.056 C  
HETATM   28  O   UNL     1      -8.671   9.710  67.904  1.00  0.00    -0.119 OA 
HETATM   29  C   UNL     1      -8.005   8.426  65.584  1.00  0.00    -0.115 A  
HETATM   30  C   UNL     1      -6.744  12.776  67.426  1.00  0.00    -0.138 A  
HETATM   31  H   UNL     1      -9.419   9.954  67.372  1.00  0.00     0.000 HD 
HETATM   32  C   UNL     1      -7.027  14.146  67.465  1.00  0.00    -0.173 A  
HETATM   33  C   UNL     1      -7.867   7.813  64.338  1.00  0.00    -0.138 A  
HETATM   34  C   UNL     1      -8.329  14.597  67.273  1.00  0.00    -0.234 A  
HETATM   35  C   UNL     1      -7.139   8.441  63.333  1.00  0.00    -0.090 A  
HETATM   36  C   UNL     1      -6.546   9.675  63.581  1.00  0.00    -0.111 A  
HETATM   37  C   UNL     1      -9.343  13.682  67.013  1.00  0.00    -0.249 A  
HETATM   38  C   UNL     1      -6.667  10.279  64.840  1.00  0.00    -0.099 A  
HETATM   39  C   UNL     1      -9.060  12.313  66.975  1.00  0.00    -0.201 A  
ENDBRANCH  18  19
ENDBRANCH  17  18
ENDBRANCH  16  17
ENDBRANCH  13  16
ENDBRANCH  10  13
ENDBRANCH   2   7
TORSDOF 6
ENDMDL
MODEL      159
REMARK 921   NORMALIZED FREE ENERGY PREDICTED BY IDOCK:   -3.81 KCAL/MOL
REMARK 922        TOTAL FREE ENERGY PREDICTED BY IDOCK:   -7.50 KCAL/MOL
REMARK 923 INTER-LIGAND FREE ENERGY PREDICTED BY IDOCK:   -6.45 KCAL/MOL
REMARK 924 INTRA-LIGAND FREE ENERGY PREDICTED BY IDOCK:   -1.05 KCAL/MOL
REMARK 927      BINDING AFFINITY PREDICTED BY RF-SCORE:    0.00 PKD
ROOT
HETATM    1  C   UNL     1     -10.508  19.067  68.340  1.00  0.00    -0.281 C  
HETATM    2  C   UNL     1      -9.708  18.608  67.099  1.00  0.00    -0.324 C  
HETATM    3  C   UNL     1      -8.533  19.588  66.907  1.00  0.00    -0.297 C  
HETATM    4  O   UNL     1      -8.279  20.529  67.648  1.00  0.00    -0.283 OA 
HETATM    5  C   UNL     1     -10.603  18.723  65.849  1.00  0.00    -0.405 C  
HETATM    6  O   UNL     1      -7.761  19.337  65.819  1.00  0.00    -0.427 OA 
ENDROOT
BRANCH   2   7
HETATM    7  C   UNL     1      -9.279  17.152  67.332  1.00  0.00    -0.232 A  
HETATM    8  C   UNL     1      -9.408  16.206  66.297  1.00  0.00    -0.351 A  
HETATM    9  C   UNL     1      -9.176  14.850  66.522  1.00  0.00    -0.314 A  
HETATM   10  C   UNL     1      -8.772  14.404  67.785  1.00  0.00    -0.180 A  
HETATM   11  C   UNL     1      -8.838  16.697  68.581  1.00  0.00    -0.249 A  
HETATM   12  C   UNL     1      -8.555  15.351  68.792  1.00  0.00    -0.190 A  
BRANCH  10  13
HETATM   13  C   UNL     1      -8.650  12.928  68.078  1.00  0.00    -0.186 C  
HETATM   14  O   UNL     1      -9.925  12.477  68.517  1.00  0.00    -0.267 OA 
HETATM   15  H   UNL     1      -9.848  11.548  68.702  1.00  0.00     0.000 HD 
BRANCH  13  16
HETATM   16  C   UNL     1      -8.127  12.180  66.837  1.00  0.00    -0.112 C  
BRANCH  16  17
HETATM   17  C   UNL     1      -9.090  11.142  66.254  1.00  0.00    -0.207 C  
BRANCH  17  18
HETATM   18  C   UNL     1      -8.464   9.771  65.965  1.00  0.00    -0.124 C  
BRANCH  18  19
HETATM   19  N   UNL     1      -9.255   8.646  66.493  1.00  0.00    -0.173 NA 
HETATM   20  C   UNL     1      -8.774   7.335  66.047  1.00  0.00    -0.151 C  
HETATM   21  C   UNL     1      -7.478   6.872  66.723  1.00  0.00    -0.082 C  
HETATM   22  C   UNL     1      -7.522   6.891  68.274  1.00  0.00    -0.099 C  
HETATM   23  C   UNL     1      -8.247   5.632  68.914  1.00  0.00    -0.100 C  
HETATM   24  C   UNL     1      -8.075   8.280  68.686  1.00  0.00    -0.120 C  
HETATM   25  C   UNL     1      -8.342   5.775  70.449  1.00  0.00    -0.121 A  
HETATM   26  C   UNL     1      -7.618   4.272  68.499  1.00  0.00    -0.063 A  
HETATM   27  C   UNL     1      -9.361   8.680  67.960  1.00  0.00    -0.136 C  
HETATM   28  O   UNL     1      -9.596   5.626  68.411  1.00  0.00    -0.118 OA 
HETATM   29  C   UNL     1      -9.488   6.343  71.047  1.00  0.00    -0.181 A  
HETATM   30  C   UNL     1      -6.276   4.135  68.096  1.00  0.00    -0.033 A  
HETATM   31  H   UNL     1     -10.030   4.872  68.794  1.00  0.00     0.000 HD 
HETATM   32  C   UNL     1      -5.774   2.912  67.635  1.00  0.00    -0.019 A  
HETATM   33  C   UNL     1      -9.571   6.548  72.425  1.00  0.00    -0.148 A  
HETATM   34  C   UNL     1      -6.592   1.789  67.594  1.00  0.00    -0.028 A  
HETATM   35  C   UNL     1      -8.517   6.168  73.248  1.00  0.00    -0.116 A  
HETATM   36  C   UNL     1      -7.380   5.592  72.689  1.00  0.00    -0.095 A  
HETATM   37  C   UNL     1      -7.906   1.879  68.041  1.00  0.00    -0.058 A  
HETATM   38  C   UNL     1      -7.288   5.408  71.302  1.00  0.00    -0.084 A  
HETATM   39  C   UNL     1      -8.409   3.101  68.501  1.00  0.00    -0.091 A  
ENDBRANCH  18  19
ENDBRANCH  17  18
ENDBRANCH  16  17
ENDBRANCH  13  16
ENDBRANCH  10  13
ENDBRANCH   2   7
TORSDOF 6
ENDMDL
MODEL      160
REMARK 921   NORMALIZED FREE ENERGY PREDICTED BY IDOCK:   -3.79 KCAL/MOL
REMARK 922        TOTAL FREE ENERGY PREDICTED BY IDOCK:   -7.48 KCAL/MOL
REMARK 923 INTER-LIGAND FREE ENERGY PREDICTED BY IDOCK:   -6.27 KCAL/MOL
REMARK 924 INTRA-LIGAND FREE ENERGY PREDICTED BY IDOCK:   -1.21 KCAL/MOL
REMARK 927      BINDING AFFINITY PREDICTED BY RF-SCORE:    0.00 PKD
ROOT
HETATM    1  C   UNL     1     -12.019  13.986  67.441  1.00  0.00    -0.439 C  
HETATM    2  C   UNL     1     -11.470  14.228  66.016  1.00  0.00    -0.347 C  
HETATM    3  C   UNL     1     -11.011  15.698  65.931  1.00  0.00    -0.231 C  
HETATM    4  O   UNL     1     -11.048  16.497  66.858  1.00  0.00    -0.058 OA 
HETATM    5  C   UNL     1     -12.612  14.050  64.997  1.00  0.00    -0.416 C  
HETATM    6  O   UNL     1     -10.543  16.073  64.714  1.00  0.00    -0.600 OA 
ENDROOT
BRANCH   2   7
HETATM    7  C   UNL     1     -10.351  13.206  65.767  1.00  0.00    -0.294 A  
HETATM    8  C   UNL     1     -10.596  12.074  64.967  1.00  0.00    -0.332 A  
HETATM    9  C   UNL     1      -9.656  11.052  64.850  1.00  0.00    -0.289 A  
HETATM   10  C   UNL     1      -8.423  11.151  65.503  1.00  0.00    -0.003 A  
HETATM   11  C   UNL     1      -9.098  13.308  66.386  1.00  0.00    -0.062 A  
HETATM   12  C   UNL     1      -8.138  12.314  66.226  1.00  0.00     0.418 A  
BRANCH  10  13
HETATM   13  C   UNL     1      -7.452   9.993  65.496  1.00  0.00    -0.137 C  
HETATM   14  O   UNL     1      -7.502   9.408  64.201  1.00  0.00    -0.106 OA 
HETATM   15  H   UNL     1      -6.892   8.680  64.197  1.00  0.00     0.000 HD 
BRANCH  13  16
HETATM   16  C   UNL     1      -6.045  10.476  65.899  1.00  0.00    -0.128 C  
BRANCH  16  17
HETATM   17  C   UNL     1      -5.465   9.804  67.146  1.00  0.00    -0.042 C  
BRANCH  17  18
HETATM   18  C   UNL     1      -5.162  10.757  68.310  1.00  0.00    -0.036 C  
BRANCH  18  19
HETATM   19  N   UNL     1      -5.779  10.340  69.581  1.00  0.00    -0.038 NA 
HETATM   20  C   UNL     1      -7.030  11.043  69.882  1.00  0.00    -0.049 C  
HETATM   21  C   UNL     1      -8.227  10.594  69.037  1.00  0.00    -0.151 C  
HETATM   22  C   UNL     1      -8.491   9.065  69.061  1.00  0.00    -0.132 C  
HETATM   23  C   UNL     1      -9.275   8.567  70.348  1.00  0.00    -0.160 C  
HETATM   24  C   UNL     1      -7.132   8.375  68.779  1.00  0.00    -0.068 C  
HETATM   25  C   UNL     1      -9.407   7.028  70.348  1.00  0.00    -0.159 A  
HETATM   26  C   UNL     1     -10.651   9.264  70.550  1.00  0.00    -0.309 A  
HETATM   27  C   UNL     1      -5.980   8.884  69.650  1.00  0.00    -0.035 C  
HETATM   28  O   UNL     1      -8.472   8.917  71.489  1.00  0.00    -0.239 OA 
HETATM   29  C   UNL     1      -8.450   6.226  71.008  1.00  0.00    -0.128 A  
HETATM   30  C   UNL     1     -11.393   9.824  69.492  1.00  0.00    -0.127 A  
HETATM   31  H   UNL     1      -8.941   8.619  72.260  1.00  0.00     0.000 HD 
HETATM   32  C   UNL     1     -12.578  10.530  69.726  1.00  0.00    -0.038 A  
HETATM   33  C   UNL     1      -8.506   4.832  70.966  1.00  0.00    -0.118 A  
HETATM   34  C   UNL     1     -13.068  10.667  71.021  1.00  0.00    -0.376 A  
HETATM   35  C   UNL     1      -9.537   4.200  70.280  1.00  0.00    -0.269 A  
HETATM   36  C   UNL     1     -10.503   4.964  69.632  1.00  0.00    -0.037 A  
HETATM   37  C   UNL     1     -12.388  10.074  72.079  1.00  0.00    -0.222 A  
HETATM   38  C   UNL     1     -10.433   6.364  69.656  1.00  0.00    -0.278 A  
HETATM   39  C   UNL     1     -11.203   9.369  71.846  1.00  0.00    -0.233 A  
ENDBRANCH  18  19
ENDBRANCH  17  18
ENDBRANCH  16  17
ENDBRANCH  13  16
ENDBRANCH  10  13
ENDBRANCH   2   7
TORSDOF 6
ENDMDL
MODEL      161
REMARK 921   NORMALIZED FREE ENERGY PREDICTED BY IDOCK:   -3.79 KCAL/MOL
REMARK 922        TOTAL FREE ENERGY PREDICTED BY IDOCK:   -7.47 KCAL/MOL
REMARK 923 INTER-LIGAND FREE ENERGY PREDICTED BY IDOCK:   -6.43 KCAL/MOL
REMARK 924 INTRA-LIGAND FREE ENERGY PREDICTED BY IDOCK:   -1.04 KCAL/MOL
REMARK 927      BINDING AFFINITY PREDICTED BY RF-SCORE:    0.00 PKD
ROOT
HETATM    1  C   UNL     1      -9.515   9.154  65.746  1.00  0.00    -0.322 C  
HETATM    2  C   UNL     1      -8.914   8.598  67.057  1.00  0.00    -0.152 C  
HETATM    3  C   UNL     1      -7.481   9.150  67.190  1.00  0.00    -0.087 C  
HETATM    4  O   UNL     1      -6.954   9.926  66.403  1.00  0.00    -0.089 OA 
HETATM    5  C   UNL     1      -8.801   7.065  66.950  1.00  0.00    -0.127 C  
HETATM    6  O   UNL     1      -6.805   8.707  68.281  1.00  0.00    -0.064 OA 
ENDROOT
BRANCH   2   7
HETATM    7  C   UNL     1      -9.851   8.998  68.207  1.00  0.00    -0.186 A  
HETATM    8  C   UNL     1      -9.811   8.293  69.425  1.00  0.00    -0.185 A  
HETATM    9  C   UNL     1     -10.749   8.527  70.428  1.00  0.00    -0.246 A  
HETATM   10  C   UNL     1     -11.737   9.502  70.255  1.00  0.00    -0.168 A  
HETATM   11  C   UNL     1     -10.822   9.996  68.062  1.00  0.00    -0.311 A  
HETATM   12  C   UNL     1     -11.727  10.268  69.084  1.00  0.00    -0.108 A  
BRANCH  10  13
HETATM   13  C   UNL     1     -12.840   9.671  71.274  1.00  0.00    -0.350 C  
HETATM   14  O   UNL     1     -12.296   9.339  72.544  1.00  0.00    -0.252 OA 
HETATM   15  H   UNL     1     -12.990   9.444  73.185  1.00  0.00     0.000 HD 
BRANCH  13  16
HETATM   16  C   UNL     1     -13.414  11.099  71.205  1.00  0.00     0.168 C  
BRANCH  16  17
HETATM   17  C   UNL     1     -12.413  12.214  71.520  1.00  0.00    -0.144 C  
BRANCH  17  18
HETATM   18  C   UNL     1     -12.799  13.599  70.985  1.00  0.00    -0.287 C  
BRANCH  18  19
HETATM   19  N   UNL     1     -12.337  13.842  69.608  1.00  0.00    -0.288 NA 
HETATM   20  C   UNL     1     -12.599  15.206  69.136  1.00  0.00     0.203 C  
HETATM   21  C   UNL     1     -11.678  16.271  69.740  1.00  0.00    -0.065 C  
HETATM   22  C   UNL     1     -10.163  15.969  69.591  1.00  0.00    -0.265 C  
HETATM   23  C   UNL     1      -9.570  16.335  68.164  1.00  0.00    -0.219 C  
HETATM   24  C   UNL     1      -9.953  14.507  70.062  1.00  0.00     0.549 C  
HETATM   25  C   UNL     1      -8.089  15.910  68.060  1.00  0.00    -0.144 A  
HETATM   26  C   UNL     1      -9.772  17.826  67.768  1.00  0.00    -0.285 A  
HETATM   27  C   UNL     1     -10.918  13.502  69.428  1.00  0.00    -0.050 C  
HETATM   28  O   UNL     1     -10.297  15.557  67.196  1.00  0.00    -0.261 OA 
HETATM   29  C   UNL     1      -7.740  14.648  67.531  1.00  0.00    -0.216 A  
HETATM   30  C   UNL     1      -9.926  18.859  68.712  1.00  0.00    -0.466 A  
HETATM   31  H   UNL     1      -9.942  15.775  66.342  1.00  0.00     0.000 HD 
HETATM   32  C   UNL     1     -10.204  20.173  68.316  1.00  0.00    -0.464 A  
HETATM   33  C   UNL     1      -6.415  14.211  67.490  1.00  0.00    -0.066 A  
HETATM   34  C   UNL     1     -10.306  20.492  66.966  1.00  0.00    -0.189 A  
HETATM   35  C   UNL     1      -5.397  15.035  67.956  1.00  0.00    -0.131 A  
HETATM   36  C   UNL     1      -5.709  16.290  68.470  1.00  0.00    -0.109 A  
HETATM   37  C   UNL     1     -10.100  19.503  66.010  1.00  0.00    -0.521 A  
HETATM   38  C   UNL     1      -7.042  16.720  68.532  1.00  0.00    -0.183 A  
HETATM   39  C   UNL     1      -9.823  18.191  66.404  1.00  0.00    -0.353 A  
ENDBRANCH  18  19
ENDBRANCH  17  18
ENDBRANCH  16  17
ENDBRANCH  13  16
ENDBRANCH  10  13
ENDBRANCH   2   7
TORSDOF 6
ENDMDL
MODEL      162
REMARK 921   NORMALIZED FREE ENERGY PREDICTED BY IDOCK:   -3.73 KCAL/MOL
REMARK 922        TOTAL FREE ENERGY PREDICTED BY IDOCK:   -7.40 KCAL/MOL
REMARK 923 INTER-LIGAND FREE ENERGY PREDICTED BY IDOCK:   -6.57 KCAL/MOL
REMARK 924 INTRA-LIGAND FREE ENERGY PREDICTED BY IDOCK:   -0.82 KCAL/MOL
REMARK 927      BINDING AFFINITY PREDICTED BY RF-SCORE:    0.00 PKD
ROOT
HETATM    1  C   UNL     1     -11.366  15.580  67.315  1.00  0.00    -0.167 C  
HETATM    2  C   UNL     1      -9.959  15.949  66.791  1.00  0.00    -0.255 C  
HETATM    3  C   UNL     1      -9.881  17.486  66.691  1.00  0.00    -0.306 C  
HETATM    4  O   UNL     1     -10.777  18.254  67.017  1.00  0.00    -0.370 OA 
HETATM    5  C   UNL     1      -9.788  15.393  65.364  1.00  0.00    -0.314 C  
HETATM    6  O   UNL     1      -8.709  17.961  66.198  1.00  0.00    -0.453 OA 
ENDROOT
BRANCH   2   7
HETATM    7  C   UNL     1      -8.928  15.329  67.746  1.00  0.00    -0.177 A  
HETATM    8  C   UNL     1      -9.108  15.431  69.138  1.00  0.00    -0.243 A  
HETATM    9  C   UNL     1      -8.118  15.019  70.029  1.00  0.00     0.343 A  
HETATM   10  C   UNL     1      -6.929  14.458  69.551  1.00  0.00    -0.119 A  
HETATM   11  C   UNL     1      -7.748  14.733  67.283  1.00  0.00    -0.214 A  
HETATM   12  C   UNL     1      -6.783  14.272  68.172  1.00  0.00    -0.129 A  
BRANCH  10  13
HETATM   13  C   UNL     1      -5.796  14.135  70.496  1.00  0.00    -0.176 C  
HETATM   14  O   UNL     1      -6.333  14.122  71.812  1.00  0.00    -0.368 OA 
HETATM   15  H   UNL     1      -5.620  13.920  72.406  1.00  0.00     0.000 HD 
BRANCH  13  16
HETATM   16  C   UNL     1      -5.128  12.807  70.091  1.00  0.00    -0.094 C  
BRANCH  16  17
HETATM   17  C   UNL     1      -5.277  11.673  71.109  1.00  0.00    -0.095 C  
BRANCH  17  18
HETATM   18  C   UNL     1      -5.844  10.365  70.540  1.00  0.00    -0.100 C  
BRANCH  18  19
HETATM   19  N   UNL     1      -7.203  10.509  69.992  1.00  0.00    -0.144 NA 
HETATM   20  C   UNL     1      -7.241  11.187  68.693  1.00  0.00    -0.098 C  
HETATM   21  C   UNL     1      -6.750  10.333  67.519  1.00  0.00    -0.071 C  
HETATM   22  C   UNL     1      -7.455   8.957  67.389  1.00  0.00    -0.085 C  
HETATM   23  C   UNL     1      -8.875   9.024  66.682  1.00  0.00    -0.132 C  
HETATM   24  C   UNL     1      -7.423   8.305  68.795  1.00  0.00    -0.096 C  
HETATM   25  C   UNL     1      -9.555   7.637  66.684  1.00  0.00    -0.271 A  
HETATM   26  C   UNL     1      -8.834   9.644  65.256  1.00  0.00    -0.204 A  
HETATM   27  C   UNL     1      -7.913   9.222  69.919  1.00  0.00    -0.113 C  
HETATM   28  O   UNL     1      -9.698   9.894  67.479  1.00  0.00    -0.153 OA 
HETATM   29  C   UNL     1     -10.440   7.274  67.722  1.00  0.00    -0.292 A  
HETATM   30  C   UNL     1      -7.684   9.631  64.443  1.00  0.00    -0.128 A  
HETATM   31  H   UNL     1     -10.548   9.934  67.056  1.00  0.00     0.000 HD 
HETATM   32  C   UNL     1      -7.657  10.287  63.207  1.00  0.00    -0.124 A  
HETATM   33  C   UNL     1     -11.014   6.003  67.785  1.00  0.00    -0.333 A  
HETATM   34  C   UNL     1      -8.789  10.946  62.738  1.00  0.00    -0.304 A  
HETATM   35  C   UNL     1     -10.736   5.066  66.797  1.00  0.00    -0.117 A  
HETATM   36  C   UNL     1      -9.879   5.400  65.753  1.00  0.00    -0.009 A  
HETATM   37  C   UNL     1      -9.957  10.926  63.493  1.00  0.00    -0.419 A  
HETATM   38  C   UNL     1      -9.285   6.669  65.702  1.00  0.00     0.151 A  
HETATM   39  C   UNL     1      -9.984  10.272  64.728  1.00  0.00    -0.392 A  
ENDBRANCH  18  19
ENDBRANCH  17  18
ENDBRANCH  16  17
ENDBRANCH  13  16
ENDBRANCH  10  13
ENDBRANCH   2   7
TORSDOF 6
ENDMDL
MODEL      163
REMARK 921   NORMALIZED FREE ENERGY PREDICTED BY IDOCK:   -3.72 KCAL/MOL
REMARK 922        TOTAL FREE ENERGY PREDICTED BY IDOCK:   -7.38 KCAL/MOL
REMARK 923 INTER-LIGAND FREE ENERGY PREDICTED BY IDOCK:   -5.79 KCAL/MOL
REMARK 924 INTRA-LIGAND FREE ENERGY PREDICTED BY IDOCK:   -1.59 KCAL/MOL
REMARK 927      BINDING AFFINITY PREDICTED BY RF-SCORE:    0.00 PKD
ROOT
HETATM    1  C   UNL     1     -11.455   6.286  70.486  1.00  0.00    -0.407 C  
HETATM    2  C   UNL     1     -10.030   6.000  69.958  1.00  0.00    -0.227 C  
HETATM    3  C   UNL     1      -9.911   6.636  68.558  1.00  0.00    -0.139 C  
HETATM    4  O   UNL     1     -10.791   7.283  68.007  1.00  0.00    -0.178 OA 
HETATM    5  C   UNL     1      -9.853   4.480  69.782  1.00  0.00    -0.295 C  
HETATM    6  O   UNL     1      -8.719   6.426  67.944  1.00  0.00    -0.116 OA 
ENDROOT
BRANCH   2   7
HETATM    7  C   UNL     1      -9.032   6.552  70.986  1.00  0.00    -0.146 A  
HETATM    8  C   UNL     1      -9.301   7.766  71.647  1.00  0.00    -0.174 A  
HETATM    9  C   UNL     1      -8.349   8.372  72.465  1.00  0.00    -0.213 A  
HETATM   10  C   UNL     1      -7.109   7.760  72.675  1.00  0.00    -0.089 A  
HETATM   11  C   UNL     1      -7.801   5.933  71.235  1.00  0.00    -0.112 A  
HETATM   12  C   UNL     1      -6.870   6.510  72.093  1.00  0.00    -0.068 A  
BRANCH  10  13
HETATM   13  C   UNL     1      -6.021   8.469  73.447  1.00  0.00    -0.099 C  
HETATM   14  O   UNL     1      -5.181   7.470  74.009  1.00  0.00    -0.045 OA 
HETATM   15  H   UNL     1      -4.497   7.916  74.494  1.00  0.00     0.000 HD 
BRANCH  13  16
HETATM   16  C   UNL     1      -5.273   9.455  72.528  1.00  0.00    -0.075 C  
BRANCH  16  17
HETATM   17  C   UNL     1      -5.374   9.147  71.032  1.00  0.00    -0.033 C  
BRANCH  17  18
HETATM   18  C   UNL     1      -6.087  10.220  70.198  1.00  0.00    -0.088 C  
BRANCH  18  19
HETATM   19  N   UNL     1      -7.292   9.721  69.513  1.00  0.00    -0.081 NA 
HETATM   20  C   UNL     1      -8.343  10.733  69.368  1.00  0.00    -0.004 C  
HETATM   21  C   UNL     1      -8.055  11.796  68.302  1.00  0.00    -0.154 C  
HETATM   22  C   UNL     1      -7.711  11.224  66.902  1.00  0.00    -0.152 C  
HETATM   23  C   UNL     1      -8.981  10.789  66.054  1.00  0.00    -0.181 C  
HETATM   24  C   UNL     1      -6.630  10.134  67.120  1.00  0.00    -0.069 C  
HETATM   25  C   UNL     1      -8.553  10.135  64.722  1.00  0.00    -0.191 A  
HETATM   26  C   UNL     1     -10.006  11.937  65.831  1.00  0.00    -0.261 A  
HETATM   27  C   UNL     1      -6.980   9.116  68.209  1.00  0.00    -0.076 C  
HETATM   28  O   UNL     1      -9.665   9.777  66.815  1.00  0.00    -0.174 OA 
HETATM   29  C   UNL     1      -8.402   8.735  64.625  1.00  0.00    -0.175 A  
HETATM   30  C   UNL     1      -9.652  13.300  65.851  1.00  0.00    -0.122 A  
HETATM   31  H   UNL     1     -10.425   9.516  66.308  1.00  0.00     0.000 HD 
HETATM   32  C   UNL     1     -10.619  14.306  65.745  1.00  0.00    -0.315 A  
HETATM   33  C   UNL     1      -7.951   8.124  63.454  1.00  0.00    -0.147 A  
HETATM   34  C   UNL     1     -11.961  13.975  65.586  1.00  0.00    -0.408 A  
HETATM   35  C   UNL     1      -7.659   8.898  62.336  1.00  0.00    -0.105 A  
HETATM   36  C   UNL     1      -7.812  10.280  62.397  1.00  0.00    -0.165 A  
HETATM   37  C   UNL     1     -12.334  12.638  65.504  1.00  0.00    -0.455 A  
HETATM   38  C   UNL     1      -8.244  10.894  63.580  1.00  0.00     0.187 A  
HETATM   39  C   UNL     1     -11.368  11.632  65.610  1.00  0.00    -0.233 A  
ENDBRANCH  18  19
ENDBRANCH  17  18
ENDBRANCH  16  17
ENDBRANCH  13  16
ENDBRANCH  10  13
ENDBRANCH   2   7
TORSDOF 6
ENDMDL
MODEL      164
REMARK 921   NORMALIZED FREE ENERGY PREDICTED BY IDOCK:   -3.69 KCAL/MOL
REMARK 922        TOTAL FREE ENERGY PREDICTED BY IDOCK:   -7.34 KCAL/MOL
REMARK 923 INTER-LIGAND FREE ENERGY PREDICTED BY IDOCK:   -7.66 KCAL/MOL
REMARK 924 INTRA-LIGAND FREE ENERGY PREDICTED BY IDOCK:    0.32 KCAL/MOL
REMARK 927      BINDING AFFINITY PREDICTED BY RF-SCORE:    0.00 PKD
ROOT
HETATM    1  C   UNL     1     -14.294   8.424  70.774  1.00  0.00     0.317 C  
HETATM    2  C   UNL     1     -13.290   8.941  71.830  1.00  0.00    -0.436 C  
HETATM    3  C   UNL     1     -12.169   7.890  71.967  1.00  0.00    -0.317 C  
HETATM    4  O   UNL     1     -12.093   6.859  71.312  1.00  0.00    -0.335 OA 
HETATM    5  C   UNL     1     -13.995   9.033  73.196  1.00  0.00     0.436 C  
HETATM    6  O   UNL     1     -11.229   8.187  72.900  1.00  0.00    -0.381 OA 
ENDROOT
BRANCH   2   7
HETATM    7  C   UNL     1     -12.801  10.323  71.372  1.00  0.00    -0.544 A  
HETATM    8  C   UNL     1     -13.436  11.487  71.846  1.00  0.00    -0.275 A  
HETATM    9  C   UNL     1     -13.122  12.744  71.333  1.00  0.00    -0.318 A  
HETATM   10  C   UNL     1     -12.133  12.878  70.352  1.00  0.00    -0.385 A  
HETATM   11  C   UNL     1     -11.788  10.476  70.417  1.00  0.00    -0.431 A  
HETATM   12  C   UNL     1     -11.436  11.736  69.943  1.00  0.00    -0.285 A  
BRANCH  10  13
HETATM   13  C   UNL     1     -11.879  14.212  69.692  1.00  0.00    -0.324 C  
HETATM   14  O   UNL     1     -12.006  15.211  70.694  1.00  0.00    -0.276 OA 
HETATM   15  H   UNL     1     -11.847  16.051  70.279  1.00  0.00     0.000 HD 
BRANCH  13  16
HETATM   16  C   UNL     1     -10.503  14.209  68.998  1.00  0.00    -0.193 C  
BRANCH  16  17
HETATM   17  C   UNL     1     -10.548  14.353  67.474  1.00  0.00    -0.265 C  
BRANCH  17  18
HETATM   18  C   UNL     1     -11.868  13.916  66.823  1.00  0.00    -0.424 C  
BRANCH  18  19
HETATM   19  N   UNL     1     -11.713  12.782  65.896  1.00  0.00    -0.391 NA 
HETATM   20  C   UNL     1     -10.453  12.808  65.147  1.00  0.00    -0.300 C  
HETATM   21  C   UNL     1      -9.218  12.431  65.973  1.00  0.00    -0.055 C  
HETATM   22  C   UNL     1      -9.334  11.074  66.717  1.00  0.00    -0.199 C  
HETATM   23  C   UNL     1      -9.046   9.810  65.800  1.00  0.00    -0.177 C  
HETATM   24  C   UNL     1     -10.698  11.086  67.454  1.00  0.00    -0.303 C  
HETATM   25  C   UNL     1      -9.282   8.500  66.584  1.00  0.00    -0.223 A  
HETATM   26  C   UNL     1      -7.644   9.834  65.126  1.00  0.00    -0.125 A  
HETATM   27  C   UNL     1     -11.882  11.486  66.570  1.00  0.00     0.377 C  
HETATM   28  O   UNL     1     -10.010   9.838  64.733  1.00  0.00    -0.411 OA 
HETATM   29  C   UNL     1     -10.536   7.853  66.537  1.00  0.00    -0.014 A  
HETATM   30  C   UNL     1      -6.546  10.538  65.657  1.00  0.00    -0.116 A  
HETATM   31  H   UNL     1      -9.838   9.082  64.185  1.00  0.00     0.000 HD 
HETATM   32  C   UNL     1      -5.329  10.618  64.970  1.00  0.00    -0.148 A  
HETATM   33  C   UNL     1     -10.798   6.706  67.289  1.00  0.00    -0.456 A  
HETATM   34  C   UNL     1      -5.171   9.970  63.749  1.00  0.00    -0.096 A  
HETATM   35  C   UNL     1      -9.803   6.161  68.093  1.00  0.00    -0.142 A  
HETATM   36  C   UNL     1      -8.552   6.768  68.147  1.00  0.00    -0.120 A  
HETATM   37  C   UNL     1      -6.219   9.219  63.228  1.00  0.00    -0.090 A  
HETATM   38  C   UNL     1      -8.297   7.933  67.409  1.00  0.00    -0.123 A  
HETATM   39  C   UNL     1      -7.435   9.140  63.914  1.00  0.00    -0.110 A  
ENDBRANCH  18  19
ENDBRANCH  17  18
ENDBRANCH  16  17
ENDBRANCH  13  16
ENDBRANCH  10  13
ENDBRANCH   2   7
TORSDOF 6
ENDMDL
MODEL      165
REMARK 921   NORMALIZED FREE ENERGY PREDICTED BY IDOCK:   -3.69 KCAL/MOL
REMARK 922        TOTAL FREE ENERGY PREDICTED BY IDOCK:   -7.34 KCAL/MOL
REMARK 923 INTER-LIGAND FREE ENERGY PREDICTED BY IDOCK:   -5.52 KCAL/MOL
REMARK 924 INTRA-LIGAND FREE ENERGY PREDICTED BY IDOCK:   -1.81 KCAL/MOL
REMARK 927      BINDING AFFINITY PREDICTED BY RF-SCORE:    0.00 PKD
ROOT
HETATM    1  C   UNL     1     -12.125  12.616  67.859  1.00  0.00    -0.158 C  
HETATM    2  C   UNL     1     -11.117  12.889  66.718  1.00  0.00    -0.315 C  
HETATM    3  C   UNL     1     -11.856  13.674  65.615  1.00  0.00    -0.364 C  
HETATM    4  O   UNL     1     -13.022  14.039  65.678  1.00  0.00    -0.608 OA 
HETATM    5  C   UNL     1     -10.676  11.547  66.102  1.00  0.00    -0.324 C  
HETATM    6  O   UNL     1     -11.104  13.948  64.519  1.00  0.00    -0.377 OA 
ENDROOT
BRANCH   2   7
HETATM    7  C   UNL     1      -9.918  13.633  67.323  1.00  0.00    -0.240 A  
HETATM    8  C   UNL     1      -8.617  13.370  66.854  1.00  0.00    -0.114 A  
HETATM    9  C   UNL     1      -7.497  13.910  67.484  1.00  0.00    -0.184 A  
HETATM   10  C   UNL     1      -7.649  14.761  68.584  1.00  0.00    -0.126 A  
HETATM   11  C   UNL     1     -10.057  14.516  68.401  1.00  0.00    -0.241 A  
HETATM   12  C   UNL     1      -8.942  15.097  68.998  1.00  0.00    -0.219 A  
BRANCH  10  13
HETATM   13  C   UNL     1      -6.444  15.241  69.358  1.00  0.00    -0.141 C  
HETATM   14  O   UNL     1      -6.703  16.582  69.752  1.00  0.00    -0.191 OA 
HETATM   15  H   UNL     1      -5.945  16.885  70.239  1.00  0.00     0.000 HD 
BRANCH  13  16
HETATM   16  C   UNL     1      -6.160  14.296  70.541  1.00  0.00    -0.180 C  
BRANCH  16  17
HETATM   17  C   UNL     1      -5.463  12.985  70.168  1.00  0.00    -0.122 C  
BRANCH  17  18
HETATM   18  C   UNL     1      -6.272  11.716  70.467  1.00  0.00     0.129 C  
BRANCH  18  19
HETATM   19  N   UNL     1      -5.654  10.491  69.931  1.00  0.00    -0.044 NA 
HETATM   20  C   UNL     1      -6.284   9.259  70.416  1.00  0.00    -0.052 C  
HETATM   21  C   UNL     1      -7.652   8.961  69.794  1.00  0.00    -0.069 C  
HETATM   22  C   UNL     1      -7.663   8.955  68.242  1.00  0.00    -0.096 C  
HETATM   23  C   UNL     1      -7.131   7.604  67.600  1.00  0.00    -0.085 C  
HETATM   24  C   UNL     1      -6.950  10.254  67.787  1.00  0.00    -0.083 C  
HETATM   25  C   UNL     1      -7.075   7.714  66.060  1.00  0.00    -0.069 A  
HETATM   26  C   UNL     1      -7.916   6.342  68.059  1.00  0.00    -0.109 A  
HETATM   27  C   UNL     1      -5.597  10.493  68.462  1.00  0.00    -0.040 C  
HETATM   28  O   UNL     1      -5.778   7.428  68.055  1.00  0.00    -0.025 OA 
HETATM   29  C   UNL     1      -5.887   8.120  65.413  1.00  0.00    -0.044 A  
HETATM   30  C   UNL     1      -9.249   6.386  68.511  1.00  0.00    -0.124 A  
HETATM   31  H   UNL     1      -5.459   6.620  67.671  1.00  0.00     0.000 HD 
HETATM   32  C   UNL     1      -9.889   5.246  69.010  1.00  0.00    -0.235 A  
HETATM   33  C   UNL     1      -5.828   8.294  64.029  1.00  0.00    -0.065 A  
HETATM   34  C   UNL     1      -9.222   4.026  69.042  1.00  0.00    -0.215 A  
HETATM   35  C   UNL     1      -6.953   8.044  63.250  1.00  0.00    -0.085 A  
HETATM   36  C   UNL     1      -8.133   7.629  63.858  1.00  0.00    -0.041 A  
HETATM   37  C   UNL     1      -7.924   3.939  68.548  1.00  0.00    -0.067 A  
HETATM   38  C   UNL     1      -8.198   7.476  65.250  1.00  0.00    -0.130 A  
HETATM   39  C   UNL     1      -7.285   5.078  68.050  1.00  0.00    -0.067 A  
ENDBRANCH  18  19
ENDBRANCH  17  18
ENDBRANCH  16  17
ENDBRANCH  13  16
ENDBRANCH  10  13
ENDBRANCH   2   7
TORSDOF 6
ENDMDL
MODEL      166
REMARK 921   NORMALIZED FREE ENERGY PREDICTED BY IDOCK:   -3.65 KCAL/MOL
REMARK 922        TOTAL FREE ENERGY PREDICTED BY IDOCK:   -7.29 KCAL/MOL
REMARK 923 INTER-LIGAND FREE ENERGY PREDICTED BY IDOCK:   -6.28 KCAL/MOL
REMARK 924 INTRA-LIGAND FREE ENERGY PREDICTED BY IDOCK:   -1.01 KCAL/MOL
REMARK 927      BINDING AFFINITY PREDICTED BY RF-SCORE:    0.00 PKD
ROOT
HETATM    1  C   UNL     1     -10.532  14.192  64.817  1.00  0.00    -0.432 C  
HETATM    2  C   UNL     1     -11.361  12.889  64.743  1.00  0.00    -0.349 C  
HETATM    3  C   UNL     1     -12.558  13.145  63.804  1.00  0.00    -0.173 C  
HETATM    4  O   UNL     1     -12.764  14.192  63.204  1.00  0.00    -0.627 OA 
HETATM    5  C   UNL     1     -11.938  12.577  66.138  1.00  0.00    -0.432 C  
HETATM    6  O   UNL     1     -13.409  12.096  63.677  1.00  0.00    -0.678 OA 
ENDROOT
BRANCH   2   7
HETATM    7  C   UNL     1     -10.425  11.765  64.274  1.00  0.00    -0.373 A  
HETATM    8  C   UNL     1     -10.213  10.639  65.092  1.00  0.00    -0.368 A  
HETATM    9  C   UNL     1      -9.254   9.680  64.770  1.00  0.00    -0.298 A  
HETATM   10  C   UNL     1      -8.502   9.802  63.596  1.00  0.00    -0.184 A  
HETATM   11  C   UNL     1      -9.691  11.856  63.085  1.00  0.00    -0.216 A  
HETATM   12  C   UNL     1      -8.772  10.871  62.735  1.00  0.00    -0.276 A  
BRANCH  10  13
HETATM   13  C   UNL     1      -7.369   8.847  63.305  1.00  0.00    -0.098 C  
HETATM   14  O   UNL     1      -6.380   9.571  62.585  1.00  0.00    -0.097 OA 
HETATM   15  H   UNL     1      -5.668   8.970  62.401  1.00  0.00     0.000 HD 
BRANCH  13  16
HETATM   16  C   UNL     1      -6.846   8.227  64.614  1.00  0.00    -0.068 C  
BRANCH  16  17
HETATM   17  C   UNL     1      -6.145   9.207  65.559  1.00  0.00    -0.059 C  
BRANCH  17  18
HETATM   18  C   UNL     1      -5.190   8.558  66.570  1.00  0.00    -0.027 C  
BRANCH  18  19
HETATM   19  N   UNL     1      -5.606   8.748  67.970  1.00  0.00    -0.035 NA 
HETATM   20  C   UNL     1      -6.666   9.748  68.133  1.00  0.00    -0.061 C  
HETATM   21  C   UNL     1      -8.053   9.278  67.679  1.00  0.00    -0.104 C  
HETATM   22  C   UNL     1      -8.518   7.942  68.316  1.00  0.00    -0.124 C  
HETATM   23  C   UNL     1      -9.105   8.098  69.784  1.00  0.00    -0.148 C  
HETATM   24  C   UNL     1      -7.347   6.940  68.153  1.00  0.00    -0.097 C  
HETATM   25  C   UNL     1      -9.447   6.718  70.386  1.00  0.00    -0.168 A  
HETATM   26  C   UNL     1     -10.307   9.081  69.874  1.00  0.00    -0.219 A  
HETATM   27  C   UNL     1      -5.991   7.483  68.613  1.00  0.00    -0.027 C  
HETATM   28  O   UNL     1      -8.059   8.660  70.595  1.00  0.00    -0.097 OA 
HETATM   29  C   UNL     1      -8.504   6.026  71.177  1.00  0.00    -0.125 A  
HETATM   30  C   UNL     1     -11.151   9.369  68.784  1.00  0.00     0.009 A  
HETATM   31  H   UNL     1      -8.409   8.753  71.473  1.00  0.00     0.000 HD 
HETATM   32  C   UNL     1     -12.160  10.334  68.878  1.00  0.00     0.362 A  
HETATM   33  C   UNL     1      -8.760   4.748  71.677  1.00  0.00    -0.134 A  
HETATM   34  C   UNL     1     -12.371  11.013  70.073  1.00  0.00    -0.377 A  
HETATM   35  C   UNL     1      -9.981   4.134  71.418  1.00  0.00    -0.223 A  
HETATM   36  C   UNL     1     -10.936   4.797  70.653  1.00  0.00     0.763 A  
HETATM   37  C   UNL     1     -11.592  10.709  71.184  1.00  0.00    -0.127 A  
HETATM   38  C   UNL     1     -10.669   6.071  70.133  1.00  0.00    -0.379 A  
HETATM   39  C   UNL     1     -10.582   9.745  71.090  1.00  0.00    -0.215 A  
ENDBRANCH  18  19
ENDBRANCH  17  18
ENDBRANCH  16  17
ENDBRANCH  13  16
ENDBRANCH  10  13
ENDBRANCH   2   7
TORSDOF 6
ENDMDL
MODEL      167
REMARK 921   NORMALIZED FREE ENERGY PREDICTED BY IDOCK:   -3.57 KCAL/MOL
REMARK 922        TOTAL FREE ENERGY PREDICTED BY IDOCK:   -7.17 KCAL/MOL
REMARK 923 INTER-LIGAND FREE ENERGY PREDICTED BY IDOCK:   -6.32 KCAL/MOL
REMARK 924 INTRA-LIGAND FREE ENERGY PREDICTED BY IDOCK:   -0.86 KCAL/MOL
REMARK 927      BINDING AFFINITY PREDICTED BY RF-SCORE:    0.00 PKD
ROOT
HETATM    1  C   UNL     1     -11.602  15.418  68.095  1.00  0.00    -0.331 C  
HETATM    2  C   UNL     1     -11.146  14.858  66.727  1.00  0.00    -0.335 C  
HETATM    3  C   UNL     1     -10.866  16.057  65.798  1.00  0.00    -0.230 C  
HETATM    4  O   UNL     1     -10.956  17.233  66.128  1.00  0.00    -0.032 OA 
HETATM    5  C   UNL     1     -12.303  14.058  66.098  1.00  0.00    -0.491 C  
HETATM    6  O   UNL     1     -10.498  15.719  64.537  1.00  0.00    -0.341 OA 
ENDROOT
BRANCH   2   7
HETATM    7  C   UNL     1      -9.927  13.957  66.974  1.00  0.00    -0.258 A  
HETATM    8  C   UNL     1      -8.819  14.451  67.688  1.00  0.00    -0.193 A  
HETATM    9  C   UNL     1      -7.639  13.717  67.794  1.00  0.00    -0.167 A  
HETATM   10  C   UNL     1      -7.547  12.446  67.217  1.00  0.00    -0.141 A  
HETATM   11  C   UNL     1      -9.833  12.669  66.433  1.00  0.00    -0.263 A  
HETATM   12  C   UNL     1      -8.675  11.913  66.584  1.00  0.00    -0.185 A  
BRANCH  10  13
HETATM   13  C   UNL     1      -6.234  11.698  67.206  1.00  0.00    -0.115 C  
HETATM   14  O   UNL     1      -5.221  12.619  67.588  1.00  0.00    -0.099 OA 
HETATM   15  H   UNL     1      -4.395  12.149  67.581  1.00  0.00     0.000 HD 
BRANCH  13  16
HETATM   16  C   UNL     1      -6.319  10.462  68.121  1.00  0.00    -0.052 C  
BRANCH  16  17
HETATM   17  C   UNL     1      -6.830  10.740  69.538  1.00  0.00    -0.116 C  
BRANCH  17  18
HETATM   18  C   UNL     1      -6.978   9.497  70.426  1.00  0.00    -0.112 C  
BRANCH  18  19
HETATM   19  N   UNL     1      -8.147   8.670  70.081  1.00  0.00    -0.107 NA 
HETATM   20  C   UNL     1      -7.864   7.658  69.058  1.00  0.00    -0.119 C  
HETATM   21  C   UNL     1      -7.041   6.465  69.557  1.00  0.00    -0.073 C  
HETATM   22  C   UNL     1      -7.626   5.763  70.811  1.00  0.00    -0.092 C  
HETATM   23  C   UNL     1      -8.807   4.751  70.491  1.00  0.00    -0.107 C  
HETATM   24  C   UNL     1      -7.943   6.880  71.839  1.00  0.00    -0.099 C  
HETATM   25  C   UNL     1      -9.403   4.174  71.794  1.00  0.00    -0.194 A  
HETATM   26  C   UNL     1      -8.413   3.628  69.490  1.00  0.00    -0.097 A  
HETATM   27  C   UNL     1      -8.755   8.044  71.265  1.00  0.00    -0.138 C  
HETATM   28  O   UNL     1      -9.850   5.512  69.857  1.00  0.00    -0.166 OA 
HETATM   29  C   UNL     1     -10.517   4.788  72.407  1.00  0.00    -0.258 A  
HETATM   30  C   UNL     1      -7.088   3.185  69.312  1.00  0.00    -0.045 A  
HETATM   31  H   UNL     1     -10.557   4.907  69.665  1.00  0.00     0.000 HD 
HETATM   32  C   UNL     1      -6.760   2.242  68.331  1.00  0.00    -0.029 A  
HETATM   33  C   UNL     1     -11.032   4.329  73.620  1.00  0.00    -0.364 A  
HETATM   34  C   UNL     1      -7.752   1.696  67.524  1.00  0.00    -0.059 A  
HETATM   35  C   UNL     1     -10.460   3.226  74.245  1.00  0.00    -0.253 A  
HETATM   36  C   UNL     1      -9.370   2.592  73.657  1.00  0.00    -0.100 A  
HETATM   37  C   UNL     1      -9.078   2.071  67.716  1.00  0.00    -0.209 A  
HETATM   38  C   UNL     1      -8.839   3.067  72.450  1.00  0.00    -0.109 A  
HETATM   39  C   UNL     1      -9.406   3.013  68.696  1.00  0.00    -0.237 A  
ENDBRANCH  18  19
ENDBRANCH  17  18
ENDBRANCH  16  17
ENDBRANCH  13  16
ENDBRANCH  10  13
ENDBRANCH   2   7
TORSDOF 6
ENDMDL
MODEL      168
REMARK 921   NORMALIZED FREE ENERGY PREDICTED BY IDOCK:   -3.55 KCAL/MOL
REMARK 922        TOTAL FREE ENERGY PREDICTED BY IDOCK:   -7.16 KCAL/MOL
REMARK 923 INTER-LIGAND FREE ENERGY PREDICTED BY IDOCK:   -6.23 KCAL/MOL
REMARK 924 INTRA-LIGAND FREE ENERGY PREDICTED BY IDOCK:   -0.93 KCAL/MOL
REMARK 927      BINDING AFFINITY PREDICTED BY RF-SCORE:    0.00 PKD
ROOT
HETATM    1  C   UNL     1     -10.693   5.442  72.406  1.00  0.00    -0.286 C  
HETATM    2  C   UNL     1      -9.272   4.994  72.819  1.00  0.00    -0.144 C  
HETATM    3  C   UNL     1      -8.909   3.750  71.983  1.00  0.00    -0.100 C  
HETATM    4  O   UNL     1      -9.623   3.253  71.122  1.00  0.00    -0.146 OA 
HETATM    5  C   UNL     1      -9.288   4.558  74.297  1.00  0.00    -0.127 C  
HETATM    6  O   UNL     1      -7.696   3.212  72.270  1.00  0.00    -0.055 OA 
ENDROOT
BRANCH   2   7
HETATM    7  C   UNL     1      -8.327   6.187  72.611  1.00  0.00    -0.121 A  
HETATM    8  C   UNL     1      -7.278   6.421  73.519  1.00  0.00    -0.082 A  
HETATM    9  C   UNL     1      -6.502   7.577  73.449  1.00  0.00    -0.066 A  
HETATM   10  C   UNL     1      -6.733   8.520  72.442  1.00  0.00    -0.090 A  
HETATM   11  C   UNL     1      -8.523   7.121  71.586  1.00  0.00    -0.114 A  
HETATM   12  C   UNL     1      -7.715   8.250  71.483  1.00  0.00    -0.114 A  
BRANCH  10  13
HETATM   13  C   UNL     1      -5.994   9.838  72.436  1.00  0.00     0.427 C  
HETATM   14  O   UNL     1      -5.216   9.891  73.624  1.00  0.00    -0.281 OA 
HETATM   15  H   UNL     1      -4.751  10.720  73.620  1.00  0.00     0.000 HD 
BRANCH  13  16
HETATM   16  C   UNL     1      -5.161   9.974  71.147  1.00  0.00    -0.066 C  
BRANCH  16  17
HETATM   17  C   UNL     1      -5.331  11.303  70.406  1.00  0.00    -0.109 C  
BRANCH  17  18
HETATM   18  C   UNL     1      -6.702  11.504  69.747  1.00  0.00    -0.047 C  
BRANCH  18  19
HETATM   19  N   UNL     1      -6.657  12.373  68.559  1.00  0.00    -0.067 NA 
HETATM   20  C   UNL     1      -7.749  12.126  67.612  1.00  0.00    -0.148 C  
HETATM   21  C   UNL     1      -9.114  12.651  68.069  1.00  0.00    -0.207 C  
HETATM   22  C   UNL     1      -9.124  14.151  68.467  1.00  0.00    -0.176 C  
HETATM   23  C   UNL     1      -9.210  15.144  67.232  1.00  0.00    -0.198 C  
HETATM   24  C   UNL     1      -7.929  14.363  69.432  1.00  0.00     0.147 C  
HETATM   25  C   UNL     1      -9.109  16.612  67.701  1.00  0.00    -0.207 A  
HETATM   26  C   UNL     1     -10.454  14.912  66.329  1.00  0.00    -0.306 A  
HETATM   27  C   UNL     1      -6.602  13.799  68.915  1.00  0.00    -0.104 C  
HETATM   28  O   UNL     1      -8.058  14.890  66.409  1.00  0.00    -0.278 OA 
HETATM   29  C   UNL     1      -7.860  17.270  67.739  1.00  0.00    -0.194 A  
HETATM   30  C   UNL     1     -11.645  14.322  66.795  1.00  0.00    -0.407 A  
HETATM   31  H   UNL     1      -8.109  15.484  65.669  1.00  0.00     0.000 HD 
HETATM   32  C   UNL     1     -12.707  14.039  65.929  1.00  0.00    -0.436 A  
HETATM   33  C   UNL     1      -7.731  18.572  68.224  1.00  0.00    -0.313 A  
HETATM   34  C   UNL     1     -12.617  14.365  64.579  1.00  0.00    -0.234 A  
HETATM   35  C   UNL     1      -8.854  19.264  68.664  1.00  0.00    -0.415 A  
HETATM   36  C   UNL     1     -10.101  18.647  68.625  1.00  0.00    -0.412 A  
HETATM   37  C   UNL     1     -11.476  15.000  64.101  1.00  0.00     0.000 A  
HETATM   38  C   UNL     1     -10.227  17.331  68.159  1.00  0.00    -0.343 A  
HETATM   39  C   UNL     1     -10.415  15.283  64.966  1.00  0.00    -0.411 A  
ENDBRANCH  18  19
ENDBRANCH  17  18
ENDBRANCH  16  17
ENDBRANCH  13  16
ENDBRANCH  10  13
ENDBRANCH   2   7
TORSDOF 6
ENDMDL
MODEL      169
REMARK 921   NORMALIZED FREE ENERGY PREDICTED BY IDOCK:   -3.54 KCAL/MOL
REMARK 922        TOTAL FREE ENERGY PREDICTED BY IDOCK:   -7.14 KCAL/MOL
REMARK 923 INTER-LIGAND FREE ENERGY PREDICTED BY IDOCK:   -6.57 KCAL/MOL
REMARK 924 INTRA-LIGAND FREE ENERGY PREDICTED BY IDOCK:   -0.57 KCAL/MOL
REMARK 927      BINDING AFFINITY PREDICTED BY RF-SCORE:    0.00 PKD
ROOT
HETATM    1  C   UNL     1      -9.948  18.010  68.877  1.00  0.00    -0.347 C  
HETATM    2  C   UNL     1     -10.180  16.859  67.871  1.00  0.00    -0.308 C  
HETATM    3  C   UNL     1     -10.037  17.440  66.450  1.00  0.00    -0.327 C  
HETATM    4  O   UNL     1      -9.747  18.602  66.195  1.00  0.00    -0.426 OA 
HETATM    5  C   UNL     1     -11.628  16.351  68.009  1.00  0.00     0.068 C  
HETATM    6  O   UNL     1     -10.261  16.549  65.451  1.00  0.00    -0.566 OA 
ENDROOT
BRANCH   2   7
HETATM    7  C   UNL     1      -9.176  15.744  68.198  1.00  0.00    -0.189 A  
HETATM    8  C   UNL     1      -7.853  16.070  68.551  1.00  0.00    -0.160 A  
HETATM    9  C   UNL     1      -6.879  15.084  68.700  1.00  0.00    -0.109 A  
HETATM   10  C   UNL     1      -7.211  13.735  68.535  1.00  0.00    -0.108 A  
HETATM   11  C   UNL     1      -9.503  14.388  68.072  1.00  0.00    -0.209 A  
HETATM   12  C   UNL     1      -8.544  13.400  68.273  1.00  0.00    -0.169 A  
BRANCH  10  13
HETATM   13  C   UNL     1      -6.141  12.669  68.559  1.00  0.00    -0.062 C  
HETATM   14  O   UNL     1      -5.167  13.070  69.514  1.00  0.00    -0.075 OA 
HETATM   15  H   UNL     1      -4.493  12.400  69.529  1.00  0.00     0.000 HD 
BRANCH  13  16
HETATM   16  C   UNL     1      -6.767  11.293  68.859  1.00  0.00    -0.081 C  
BRANCH  16  17
HETATM   17  C   UNL     1      -6.391  10.184  67.874  1.00  0.00    -0.061 C  
BRANCH  17  18
HETATM   18  C   UNL     1      -7.123  10.243  66.526  1.00  0.00    -0.108 C  
BRANCH  18  19
HETATM   19  N   UNL     1      -8.407   9.522  66.528  1.00  0.00    -0.118 NA 
HETATM   20  C   UNL     1      -8.639   8.737  65.312  1.00  0.00    -0.187 C  
HETATM   21  C   UNL     1      -7.805   7.455  65.218  1.00  0.00    -0.121 C  
HETATM   22  C   UNL     1      -7.926   6.520  66.450  1.00  0.00    -0.110 C  
HETATM   23  C   UNL     1      -9.230   5.614  66.446  1.00  0.00    -0.152 C  
HETATM   24  C   UNL     1      -7.715   7.407  67.704  1.00  0.00    -0.112 C  
HETATM   25  C   UNL     1      -9.330   4.792  67.750  1.00  0.00    -0.163 A  
HETATM   26  C   UNL     1      -9.361   4.714  65.185  1.00  0.00    -0.153 A  
HETATM   27  C   UNL     1      -8.569   8.677  67.721  1.00  0.00    -0.136 C  
HETATM   28  O   UNL     1     -10.359   6.506  66.428  1.00  0.00    -0.427 OA 
HETATM   29  C   UNL     1     -10.058   5.285  68.855  1.00  0.00    -0.254 A  
HETATM   30  C   UNL     1      -8.256   4.295  64.419  1.00  0.00    -0.098 A  
HETATM   31  H   UNL     1     -11.139   5.964  66.426  1.00  0.00     0.000 HD 
HETATM   32  C   UNL     1      -8.423   3.569  63.234  1.00  0.00    -0.090 A  
HETATM   33  C   UNL     1     -10.108   4.595  70.068  1.00  0.00    -0.267 A  
HETATM   34  C   UNL     1      -9.697   3.215  62.802  1.00  0.00    -0.094 A  
HETATM   35  C   UNL     1      -9.447   3.379  70.202  1.00  0.00    -0.244 A  
HETATM   36  C   UNL     1      -8.733   2.861  69.126  1.00  0.00    -0.134 A  
HETATM   37  C   UNL     1     -10.803   3.564  63.569  1.00  0.00    -0.205 A  
HETATM   38  C   UNL     1      -8.666   3.565  67.915  1.00  0.00    -0.130 A  
HETATM   39  C   UNL     1     -10.638   4.291  64.752  1.00  0.00    -0.147 A  
ENDBRANCH  18  19
ENDBRANCH  17  18
ENDBRANCH  16  17
ENDBRANCH  13  16
ENDBRANCH  10  13
ENDBRANCH   2   7
TORSDOF 6
ENDMDL
MODEL      170
REMARK 921   NORMALIZED FREE ENERGY PREDICTED BY IDOCK:   -3.51 KCAL/MOL
REMARK 922        TOTAL FREE ENERGY PREDICTED BY IDOCK:   -7.09 KCAL/MOL
REMARK 923 INTER-LIGAND FREE ENERGY PREDICTED BY IDOCK:   -5.59 KCAL/MOL
REMARK 924 INTRA-LIGAND FREE ENERGY PREDICTED BY IDOCK:   -1.51 KCAL/MOL
REMARK 927      BINDING AFFINITY PREDICTED BY RF-SCORE:    0.00 PKD
ROOT
HETATM    1  C   UNL     1      -8.868   6.011  71.900  1.00  0.00    -0.138 C  
HETATM    2  C   UNL     1      -8.537   7.520  71.981  1.00  0.00    -0.126 C  
HETATM    3  C   UNL     1      -7.257   7.675  72.828  1.00  0.00    -0.077 C  
HETATM    4  O   UNL     1      -6.614   6.747  73.302  1.00  0.00    -0.063 OA 
HETATM    5  C   UNL     1      -9.668   8.246  72.734  1.00  0.00    -0.336 C  
HETATM    6  O   UNL     1      -6.865   8.960  73.027  1.00  0.00    -0.323 OA 
ENDROOT
BRANCH   2   7
HETATM    7  C   UNL     1      -8.408   8.048  70.545  1.00  0.00    -0.123 A  
HETATM    8  C   UNL     1      -7.695   7.306  69.584  1.00  0.00    -0.105 A  
HETATM    9  C   UNL     1      -7.427   7.827  68.319  1.00  0.00    -0.104 A  
HETATM   10  C   UNL     1      -7.897   9.097  67.966  1.00  0.00    -0.100 A  
HETATM   11  C   UNL     1      -8.903   9.302  70.166  1.00  0.00    -0.235 A  
HETATM   12  C   UNL     1      -8.682   9.801  68.886  1.00  0.00    -0.136 A  
BRANCH  10  13
HETATM   13  C   UNL     1      -7.499   9.728  66.653  1.00  0.00    -0.095 C  
HETATM   14  O   UNL     1      -8.302  10.888  66.481  1.00  0.00    -0.143 OA 
HETATM   15  H   UNL     1      -8.052  11.285  65.655  1.00  0.00     0.000 HD 
BRANCH  13  16
HETATM   16  C   UNL     1      -5.986  10.020  66.640  1.00  0.00    -0.056 C  
BRANCH  16  17
HETATM   17  C   UNL     1      -5.492  10.924  67.774  1.00  0.00    -0.039 C  
BRANCH  17  18
HETATM   18  C   UNL     1      -5.143  12.357  67.351  1.00  0.00    -0.084 C  
BRANCH  18  19
HETATM   19  N   UNL     1      -5.444  13.360  68.388  1.00  0.00    -0.081 NA 
HETATM   20  C   UNL     1      -5.224  14.740  67.945  1.00  0.00    -0.071 C  
HETATM   21  C   UNL     1      -6.289  15.272  66.979  1.00  0.00     0.525 C  
HETATM   22  C   UNL     1      -7.746  15.134  67.493  1.00  0.00    -0.205 C  
HETATM   23  C   UNL     1      -8.179  16.268  68.517  1.00  0.00    -0.195 C  
HETATM   24  C   UNL     1      -7.909  13.673  67.985  1.00  0.00    -0.150 C  
HETATM   25  C   UNL     1      -9.601  16.003  69.059  1.00  0.00    -0.247 A  
HETATM   26  C   UNL     1      -8.038  17.709  67.949  1.00  0.00    -0.233 A  
HETATM   27  C   UNL     1      -6.801  13.207  68.933  1.00  0.00    -0.103 C  
HETATM   28  O   UNL     1      -7.282  16.184  69.638  1.00  0.00    -0.185 OA 
HETATM   29  C   UNL     1      -9.788  15.287  70.261  1.00  0.00     0.161 A  
HETATM   30  C   UNL     1      -8.080  18.002  66.572  1.00  0.00    -0.298 A  
HETATM   31  H   UNL     1      -7.541  16.862  70.251  1.00  0.00     0.000 HD 
HETATM   32  C   UNL     1      -7.849  19.297  66.094  1.00  0.00    -0.313 A  
HETATM   33  C   UNL     1     -11.062  14.973  70.738  1.00  0.00    -0.227 A  
HETATM   34  C   UNL     1      -7.601  20.338  66.983  1.00  0.00    -0.351 A  
HETATM   35  C   UNL     1     -12.188  15.390  70.036  1.00  0.00    -0.392 A  
HETATM   36  C   UNL     1     -12.035  16.110  68.856  1.00  0.00    -0.029 A  
HETATM   37  C   UNL     1      -7.612  20.090  68.351  1.00  0.00    -0.239 A  
HETATM   38  C   UNL     1     -10.755  16.405  68.365  1.00  0.00    -0.327 A  
HETATM   39  C   UNL     1      -7.841  18.796  68.829  1.00  0.00    -0.344 A  
ENDBRANCH  18  19
ENDBRANCH  17  18
ENDBRANCH  16  17
ENDBRANCH  13  16
ENDBRANCH  10  13
ENDBRANCH   2   7
TORSDOF 6
ENDMDL
MODEL      171
REMARK 921   NORMALIZED FREE ENERGY PREDICTED BY IDOCK:   -3.49 KCAL/MOL
REMARK 922        TOTAL FREE ENERGY PREDICTED BY IDOCK:   -7.07 KCAL/MOL
REMARK 923 INTER-LIGAND FREE ENERGY PREDICTED BY IDOCK:   -8.13 KCAL/MOL
REMARK 924 INTRA-LIGAND FREE ENERGY PREDICTED BY IDOCK:    1.07 KCAL/MOL
REMARK 927      BINDING AFFINITY PREDICTED BY RF-SCORE:    0.00 PKD
ROOT
HETATM    1  C   UNL     1      -7.255   6.574  68.360  1.00  0.00    -0.085 C  
HETATM    2  C   UNL     1      -6.710   7.023  66.984  1.00  0.00    -0.059 C  
HETATM    3  C   UNL     1      -6.532   5.762  66.114  1.00  0.00    -0.040 C  
HETATM    4  O   UNL     1      -6.820   4.625  66.464  1.00  0.00    -0.055 OA 
HETATM    5  C   UNL     1      -5.312   7.645  67.173  1.00  0.00    -0.030 C  
HETATM    6  O   UNL     1      -6.012   5.996  64.882  1.00  0.00    -0.024 OA 
ENDROOT
BRANCH   2   7
HETATM    7  C   UNL     1      -7.692   8.052  66.406  1.00  0.00    -0.092 A  
HETATM    8  C   UNL     1      -8.916   8.299  67.056  1.00  0.00    -0.159 A  
HETATM    9  C   UNL     1      -9.894   9.106  66.477  1.00  0.00    -0.333 A  
HETATM   10  C   UNL     1      -9.660   9.720  65.242  1.00  0.00    -0.368 A  
HETATM   11  C   UNL     1      -7.457   8.702  65.188  1.00  0.00    -0.090 A  
HETATM   12  C   UNL     1      -8.411   9.551  64.635  1.00  0.00    -0.177 A  
BRANCH  10  13
HETATM   13  C   UNL     1     -10.759  10.484  64.541  1.00  0.00     0.263 C  
HETATM   14  O   UNL     1     -11.425  11.265  65.525  1.00  0.00    -0.013 OA 
HETATM   15  H   UNL     1     -12.116  11.745  65.084  1.00  0.00     0.000 HD 
BRANCH  13  16
HETATM   16  C   UNL     1     -10.173  11.319  63.387  1.00  0.00    -0.454 C  
BRANCH  16  17
HETATM   17  C   UNL     1     -10.419  12.827  63.490  1.00  0.00    -0.114 C  
BRANCH  17  18
HETATM   18  C   UNL     1     -11.895  13.235  63.587  1.00  0.00    -0.458 C  
BRANCH  18  19
HETATM   19  N   UNL     1     -12.119  14.418  64.436  1.00  0.00    -0.479 NA 
HETATM   20  C   UNL     1     -12.882  14.126  65.654  1.00  0.00    -0.371 C  
HETATM   21  C   UNL     1     -12.092  13.377  66.732  1.00  0.00    -0.419 C  
HETATM   22  C   UNL     1     -10.751  14.049  67.128  1.00  0.00    -0.283 C  
HETATM   23  C   UNL     1     -10.911  15.252  68.151  1.00  0.00    -0.273 C  
HETATM   24  C   UNL     1     -10.008  14.371  65.806  1.00  0.00    -0.354 C  
HETATM   25  C   UNL     1      -9.549  15.933  68.414  1.00  0.00    -0.208 A  
HETATM   26  C   UNL     1     -11.622  14.855  69.476  1.00  0.00    -0.333 A  
HETATM   27  C   UNL     1     -10.863  15.107  64.772  1.00  0.00    -0.357 C  
HETATM   28  O   UNL     1     -11.752  16.232  67.517  1.00  0.00     0.170 OA 
HETATM   29  C   UNL     1      -9.147  17.050  67.651  1.00  0.00    -0.229 A  
HETATM   30  C   UNL     1     -11.626  13.542  69.985  1.00  0.00    -0.234 A  
HETATM   31  H   UNL     1     -11.848  16.952  68.129  1.00  0.00     0.000 HD 
HETATM   32  C   UNL     1     -12.361  13.204  71.127  1.00  0.00    -0.295 A  
HETATM   33  C   UNL     1      -7.894  17.642  67.820  1.00  0.00    -0.211 A  
HETATM   34  C   UNL     1     -13.085  14.177  71.807  1.00  0.00    -0.434 A  
HETATM   35  C   UNL     1      -7.015  17.145  68.776  1.00  0.00    -0.217 A  
HETATM   36  C   UNL     1      -7.390  16.053  69.554  1.00  0.00    -0.146 A  
HETATM   37  C   UNL     1     -13.053  15.494  71.362  1.00  0.00    -0.580 A  
HETATM   38  C   UNL     1      -8.640  15.446  69.368  1.00  0.00    -0.249 A  
HETATM   39  C   UNL     1     -12.320  15.832  70.221  1.00  0.00    -0.341 A  
ENDBRANCH  18  19
ENDBRANCH  17  18
ENDBRANCH  16  17
ENDBRANCH  13  16
ENDBRANCH  10  13
ENDBRANCH   2   7
TORSDOF 6
ENDMDL
MODEL      172
REMARK 921   NORMALIZED FREE ENERGY PREDICTED BY IDOCK:   -3.48 KCAL/MOL
REMARK 922        TOTAL FREE ENERGY PREDICTED BY IDOCK:   -7.05 KCAL/MOL
REMARK 923 INTER-LIGAND FREE ENERGY PREDICTED BY IDOCK:   -5.69 KCAL/MOL
REMARK 924 INTRA-LIGAND FREE ENERGY PREDICTED BY IDOCK:   -1.37 KCAL/MOL
REMARK 927      BINDING AFFINITY PREDICTED BY RF-SCORE:    0.00 PKD
ROOT
HETATM    1  C   UNL     1      -8.812  13.234  67.513  1.00  0.00    -0.206 C  
HETATM    2  C   UNL     1     -10.026  12.353  67.890  1.00  0.00    -0.204 C  
HETATM    3  C   UNL     1     -10.684  11.873  66.580  1.00  0.00    -0.258 C  
HETATM    4  O   UNL     1     -10.270  12.125  65.456  1.00  0.00    -0.252 OA 
HETATM    5  C   UNL     1     -11.067  13.217  68.629  1.00  0.00    -0.301 C  
HETATM    6  O   UNL     1     -11.801  11.121  66.753  1.00  0.00    -0.271 OA 
ENDROOT
BRANCH   2   7
HETATM    7  C   UNL     1      -9.519  11.218  68.791  1.00  0.00    -0.147 A  
HETATM    8  C   UNL     1     -10.414  10.537  69.637  1.00  0.00    -0.257 A  
HETATM    9  C   UNL     1      -9.962   9.613  70.577  1.00  0.00    -0.318 A  
HETATM   10  C   UNL     1      -8.598   9.315  70.672  1.00  0.00    -0.270 A  
HETATM   11  C   UNL     1      -8.161  10.883  68.872  1.00  0.00    -0.141 A  
HETATM   12  C   UNL     1      -7.715   9.921  69.773  1.00  0.00    -0.159 A  
BRANCH  10  13
HETATM   13  C   UNL     1      -8.080   8.420  71.774  1.00  0.00    -0.148 C  
HETATM   14  O   UNL     1      -9.000   8.504  72.854  1.00  0.00    -0.300 OA 
HETATM   15  H   UNL     1      -8.674   7.941  73.547  1.00  0.00     0.000 HD 
BRANCH  13  16
HETATM   16  C   UNL     1      -7.880   6.987  71.245  1.00  0.00    -0.099 C  
BRANCH  16  17
HETATM   17  C   UNL     1      -9.172   6.203  70.999  1.00  0.00    -0.166 C  
BRANCH  17  18
HETATM   18  C   UNL     1      -9.101   5.186  69.852  1.00  0.00    -0.123 C  
BRANCH  18  19
HETATM   19  N   UNL     1      -9.664   5.691  68.588  1.00  0.00    -0.130 NA 
HETATM   20  C   UNL     1      -8.761   6.593  67.866  1.00  0.00    -0.116 C  
HETATM   21  C   UNL     1      -7.585   5.893  67.177  1.00  0.00    -0.096 C  
HETATM   22  C   UNL     1      -7.993   4.729  66.236  1.00  0.00    -0.103 C  
HETATM   23  C   UNL     1      -8.486   5.203  64.803  1.00  0.00    -0.150 C  
HETATM   24  C   UNL     1      -8.976   3.835  67.034  1.00  0.00    -0.157 C  
HETATM   25  C   UNL     1      -8.971   3.999  63.965  1.00  0.00    -0.131 A  
HETATM   26  C   UNL     1      -7.439   6.057  64.033  1.00  0.00    -0.080 A  
HETATM   27  C   UNL     1     -10.116   4.605  67.706  1.00  0.00    -0.035 C  
HETATM   28  O   UNL     1      -9.628   6.053  65.012  1.00  0.00    -0.038 OA 
HETATM   29  C   UNL     1     -10.333   3.629  63.963  1.00  0.00    -0.259 A  
HETATM   30  C   UNL     1      -6.052   5.971  64.267  1.00  0.00    -0.026 A  
HETATM   31  H   UNL     1      -9.923   6.336  64.155  1.00  0.00     0.000 HD 
HETATM   32  C   UNL     1      -5.150   6.827  63.626  1.00  0.00    -0.027 A  
HETATM   33  C   UNL     1     -10.788   2.506  63.270  1.00  0.00    -0.235 A  
HETATM   34  C   UNL     1      -5.607   7.769  62.711  1.00  0.00    -0.059 A  
HETATM   35  C   UNL     1      -9.893   1.732  62.539  1.00  0.00    -0.088 A  
HETATM   36  C   UNL     1      -8.546   2.081  62.511  1.00  0.00    -0.073 A  
HETATM   37  C   UNL     1      -6.964   7.838  62.415  1.00  0.00    -0.081 A  
HETATM   38  C   UNL     1      -8.087   3.196  63.225  1.00  0.00    -0.080 A  
HETATM   39  C   UNL     1      -7.867   6.984  63.057  1.00  0.00    -0.107 A  
ENDBRANCH  18  19
ENDBRANCH  17  18
ENDBRANCH  16  17
ENDBRANCH  13  16
ENDBRANCH  10  13
ENDBRANCH   2   7
TORSDOF 6
ENDMDL
MODEL      173
REMARK 921   NORMALIZED FREE ENERGY PREDICTED BY IDOCK:   -3.44 KCAL/MOL
REMARK 922        TOTAL FREE ENERGY PREDICTED BY IDOCK:   -7.00 KCAL/MOL
REMARK 923 INTER-LIGAND FREE ENERGY PREDICTED BY IDOCK:   -6.00 KCAL/MOL
REMARK 924 INTRA-LIGAND FREE ENERGY PREDICTED BY IDOCK:   -1.00 KCAL/MOL
REMARK 927      BINDING AFFINITY PREDICTED BY RF-SCORE:    0.00 PKD
ROOT
HETATM    1  C   UNL     1     -11.945   6.580  70.194  1.00  0.00    -0.200 C  
HETATM    2  C   UNL     1     -11.596   7.598  71.305  1.00  0.00    -0.302 C  
HETATM    3  C   UNL     1     -10.984   6.815  72.485  1.00  0.00    -0.247 C  
HETATM    4  O   UNL     1     -10.783   5.608  72.494  1.00  0.00    -0.214 OA 
HETATM    5  C   UNL     1     -12.894   8.250  71.819  1.00  0.00    -0.362 C  
HETATM    6  O   UNL     1     -10.668   7.577  73.563  1.00  0.00    -0.378 OA 
ENDROOT
BRANCH   2   7
HETATM    7  C   UNL     1     -10.658   8.651  70.696  1.00  0.00    -0.249 A  
HETATM    8  C   UNL     1     -11.149   9.563  69.743  1.00  0.00    -0.216 A  
HETATM    9  C   UNL     1     -10.294  10.425  69.058  1.00  0.00    -0.232 A  
HETATM   10  C   UNL     1      -8.923  10.425  69.335  1.00  0.00    -0.168 A  
HETATM   11  C   UNL     1      -9.290   8.687  70.990  1.00  0.00    -0.254 A  
HETATM   12  C   UNL     1      -8.443   9.585  70.346  1.00  0.00    -0.238 A  
BRANCH  10  13
HETATM   13  C   UNL     1      -7.969  11.254  68.508  1.00  0.00    -0.145 C  
HETATM   14  O   UNL     1      -7.897  12.540  69.108  1.00  0.00    -0.327 OA 
HETATM   15  H   UNL     1      -7.298  13.062  68.587  1.00  0.00     0.000 HD 
BRANCH  13  16
HETATM   16  C   UNL     1      -6.604  10.547  68.401  1.00  0.00    -0.055 C  
BRANCH  16  17
HETATM   17  C   UNL     1      -6.527   9.447  67.340  1.00  0.00    -0.063 C  
BRANCH  17  18
HETATM   18  C   UNL     1      -7.410   9.677  66.106  1.00  0.00    -0.098 C  
BRANCH  18  19
HETATM   19  N   UNL     1      -8.574   8.777  66.046  1.00  0.00    -0.139 NA 
HETATM   20  C   UNL     1      -8.620   7.962  64.827  1.00  0.00     0.102 C  
HETATM   21  C   UNL     1      -7.604   6.814  64.796  1.00  0.00    -0.104 C  
HETATM   22  C   UNL     1      -7.657   5.877  66.031  1.00  0.00    -0.086 C  
HETATM   23  C   UNL     1      -8.813   4.790  65.966  1.00  0.00    -0.123 C  
HETATM   24  C   UNL     1      -7.649   6.790  67.283  1.00  0.00    -0.104 C  
HETATM   25  C   UNL     1      -8.866   3.968  67.272  1.00  0.00    -0.130 A  
HETATM   26  C   UNL     1      -8.740   3.875  64.710  1.00  0.00    -0.116 A  
HETATM   27  C   UNL     1      -8.679   7.922  67.238  1.00  0.00    -0.131 C  
HETATM   28  O   UNL     1     -10.057   5.507  65.873  1.00  0.00    -0.372 OA 
HETATM   29  C   UNL     1      -9.720   4.353  68.328  1.00  0.00    -0.171 A  
HETATM   30  C   UNL     1      -7.544   3.620  64.012  1.00  0.00    -0.075 A  
HETATM   31  H   UNL     1     -10.749   4.857  65.834  1.00  0.00     0.000 HD 
HETATM   32  C   UNL     1      -7.535   2.872  62.829  1.00  0.00    -0.053 A  
HETATM   33  C   UNL     1      -9.738   3.669  69.545  1.00  0.00    -0.114 A  
HETATM   34  C   UNL     1      -8.718   2.335  62.331  1.00  0.00    -0.074 A  
HETATM   35  C   UNL     1      -8.916   2.562  69.730  1.00  0.00    -0.159 A  
HETATM   36  C   UNL     1      -8.074   2.150  68.702  1.00  0.00    -0.065 A  
HETATM   37  C   UNL     1      -9.905   2.521  63.030  1.00  0.00    -0.096 A  
HETATM   38  C   UNL     1      -8.041   2.852  67.489  1.00  0.00    -0.077 A  
HETATM   39  C   UNL     1      -9.914   3.269  64.212  1.00  0.00    -0.166 A  
ENDBRANCH  18  19
ENDBRANCH  17  18
ENDBRANCH  16  17
ENDBRANCH  13  16
ENDBRANCH  10  13
ENDBRANCH   2   7
TORSDOF 6
ENDMDL
MODEL      174
REMARK 921   NORMALIZED FREE ENERGY PREDICTED BY IDOCK:   -3.42 KCAL/MOL
REMARK 922        TOTAL FREE ENERGY PREDICTED BY IDOCK:   -6.97 KCAL/MOL
REMARK 923 INTER-LIGAND FREE ENERGY PREDICTED BY IDOCK:   -7.36 KCAL/MOL
REMARK 924 INTRA-LIGAND FREE ENERGY PREDICTED BY IDOCK:    0.39 KCAL/MOL
REMARK 927      BINDING AFFINITY PREDICTED BY RF-SCORE:    0.00 PKD
ROOT
HETATM    1  C   UNL     1      -9.405   8.763  66.710  1.00  0.00    -0.229 C  
HETATM    2  C   UNL     1      -9.715   7.868  67.932  1.00  0.00    -0.184 C  
HETATM    3  C   UNL     1      -8.371   7.384  68.514  1.00  0.00    -0.126 C  
HETATM    4  O   UNL     1      -7.269   7.705  68.089  1.00  0.00    -0.087 OA 
HETATM    5  C   UNL     1     -10.481   6.616  67.461  1.00  0.00    -0.299 C  
HETATM    6  O   UNL     1      -8.486   6.544  69.575  1.00  0.00    -0.128 OA 
ENDROOT
BRANCH   2   7
HETATM    7  C   UNL     1     -10.564   8.692  68.911  1.00  0.00    -0.166 A  
HETATM    8  C   UNL     1     -10.682   8.286  70.254  1.00  0.00    -0.237 A  
HETATM    9  C   UNL     1     -11.565   8.919  71.127  1.00  0.00    -0.360 A  
HETATM   10  C   UNL     1     -12.332  10.004  70.689  1.00  0.00    -0.342 A  
HETATM   11  C   UNL     1     -11.310   9.802  68.497  1.00  0.00     0.025 A  
HETATM   12  C   UNL     1     -12.152  10.469  69.382  1.00  0.00    -0.175 A  
BRANCH  10  13
HETATM   13  C   UNL     1     -13.389  10.611  71.582  1.00  0.00    -0.307 C  
HETATM   14  O   UNL     1     -13.028  10.317  72.925  1.00  0.00    -0.037 OA 
HETATM   15  H   UNL     1     -13.693  10.698  73.487  1.00  0.00     0.000 HD 
BRANCH  13  16
HETATM   16  C   UNL     1     -13.524  12.119  71.298  1.00  0.00     0.345 C  
BRANCH  16  17
HETATM   17  C   UNL     1     -13.018  13.035  72.415  1.00  0.00    -0.257 C  
BRANCH  17  18
HETATM   18  C   UNL     1     -12.438  14.374  71.939  1.00  0.00    -0.309 C  
BRANCH  18  19
HETATM   19  N   UNL     1     -11.273  14.222  71.050  1.00  0.00     0.253 NA 
HETATM   20  C   UNL     1     -11.539  13.382  69.878  1.00  0.00    -0.200 C  
HETATM   21  C   UNL     1     -12.399  14.053  68.801  1.00  0.00    -0.074 C  
HETATM   22  C   UNL     1     -11.869  15.431  68.324  1.00  0.00    -0.225 C  
HETATM   23  C   UNL     1     -10.696  15.336  67.258  1.00  0.00    -0.311 C  
HETATM   24  C   UNL     1     -11.566  16.258  69.600  1.00  0.00    -0.152 C  
HETATM   25  C   UNL     1     -10.154  16.740  66.912  1.00  0.00    -0.286 A  
HETATM   26  C   UNL     1     -11.076  14.534  65.981  1.00  0.00    -0.329 A  
HETATM   27  C   UNL     1     -10.716  15.518  70.636  1.00  0.00    -0.233 C  
HETATM   28  O   UNL     1      -9.619  14.616  67.884  1.00  0.00    -0.206 OA 
HETATM   29  C   UNL     1      -9.051  17.275  67.611  1.00  0.00    -0.228 A  
HETATM   30  C   UNL     1     -12.402  14.389  65.528  1.00  0.00    -0.352 A  
HETATM   31  H   UNL     1      -8.917  14.559  67.246  1.00  0.00     0.000 HD 
HETATM   32  C   UNL     1     -12.714  13.577  64.432  1.00  0.00    -0.126 A  
HETATM   33  C   UNL     1      -8.584  18.568  67.367  1.00  0.00    -0.266 A  
HETATM   34  C   UNL     1     -11.705  12.914  63.741  1.00  0.00    -0.557 A  
HETATM   35  C   UNL     1      -9.196  19.355  66.398  1.00  0.00    -0.403 A  
HETATM   36  C   UNL     1     -10.277  18.850  65.683  1.00  0.00     0.001 A  
HETATM   37  C   UNL     1     -10.380  13.085  64.129  1.00  0.00    -0.345 A  
HETATM   38  C   UNL     1     -10.759  17.559  65.944  1.00  0.00    -0.119 A  
HETATM   39  C   UNL     1     -10.068  13.895  65.225  1.00  0.00    -0.328 A  
ENDBRANCH  18  19
ENDBRANCH  17  18
ENDBRANCH  16  17
ENDBRANCH  13  16
ENDBRANCH  10  13
ENDBRANCH   2   7
TORSDOF 6
ENDMDL
MODEL      175
REMARK 921   NORMALIZED FREE ENERGY PREDICTED BY IDOCK:   -3.35 KCAL/MOL
REMARK 922        TOTAL FREE ENERGY PREDICTED BY IDOCK:   -6.88 KCAL/MOL
REMARK 923 INTER-LIGAND FREE ENERGY PREDICTED BY IDOCK:   -5.60 KCAL/MOL
REMARK 924 INTRA-LIGAND FREE ENERGY PREDICTED BY IDOCK:   -1.28 KCAL/MOL
REMARK 927      BINDING AFFINITY PREDICTED BY RF-SCORE:    0.00 PKD
ROOT
HETATM    1  C   UNL     1     -10.139   9.968  62.487  1.00  0.00     0.800 C  
HETATM    2  C   UNL     1      -9.316  10.721  63.559  1.00  0.00    -0.304 C  
HETATM    3  C   UNL     1     -10.162  11.914  64.049  1.00  0.00    -0.361 C  
HETATM    4  O   UNL     1     -11.297  12.169  63.669  1.00  0.00    -0.397 OA 
HETATM    5  C   UNL     1      -8.048  11.302  62.905  1.00  0.00     0.252 C  
HETATM    6  O   UNL     1      -9.546  12.702  64.967  1.00  0.00    -0.032 OA 
ENDROOT
BRANCH   2   7
HETATM    7  C   UNL     1      -8.952   9.715  64.660  1.00  0.00    -0.274 A  
HETATM    8  C   UNL     1      -9.815   9.530  65.757  1.00  0.00    -0.363 A  
HETATM    9  C   UNL     1      -9.443   8.744  66.847  1.00  0.00    -0.231 A  
HETATM   10  C   UNL     1      -8.206   8.090  66.854  1.00  0.00    -0.115 A  
HETATM   11  C   UNL     1      -7.734   9.024  64.664  1.00  0.00    -0.115 A  
HETATM   12  C   UNL     1      -7.384   8.197  65.728  1.00  0.00    -0.076 A  
BRANCH  10  13
HETATM   13  C   UNL     1      -7.734   7.349  68.083  1.00  0.00    -0.120 C  
HETATM   14  O   UNL     1      -6.492   6.740  67.758  1.00  0.00    -0.045 OA 
HETATM   15  H   UNL     1      -6.195   6.273  68.531  1.00  0.00     0.000 HD 
BRANCH  13  16
HETATM   16  C   UNL     1      -7.652   8.310  69.285  1.00  0.00    -0.094 C  
BRANCH  16  17
HETATM   17  C   UNL     1      -6.289   8.979  69.485  1.00  0.00    -0.043 C  
BRANCH  17  18
HETATM   18  C   UNL     1      -6.117  10.322  68.763  1.00  0.00    -0.047 C  
BRANCH  18  19
HETATM   19  N   UNL     1      -6.897  11.414  69.370  1.00  0.00    -0.118 NA 
HETATM   20  C   UNL     1      -6.166  12.684  69.442  1.00  0.00    -0.113 C  
HETATM   21  C   UNL     1      -6.016  13.404  68.097  1.00  0.00    -0.112 C  
HETATM   22  C   UNL     1      -7.351  13.633  67.340  1.00  0.00    -0.127 C  
HETATM   23  C   UNL     1      -8.180  14.883  67.861  1.00  0.00    -0.144 C  
HETATM   24  C   UNL     1      -8.097  12.274  67.332  1.00  0.00    -0.175 C  
HETATM   25  C   UNL     1      -9.538  14.982  67.131  1.00  0.00    -0.222 A  
HETATM   26  C   UNL     1      -7.394  16.223  67.800  1.00  0.00    -0.149 A  
HETATM   27  C   UNL     1      -8.195  11.608  68.706  1.00  0.00    -0.055 C  
HETATM   28  O   UNL     1      -8.469  14.644  69.249  1.00  0.00    -0.336 OA 
HETATM   29  C   UNL     1     -10.693  14.386  67.681  1.00  0.00    -0.263 A  
HETATM   30  C   UNL     1      -6.331  16.454  66.905  1.00  0.00    -0.109 A  
HETATM   31  H   UNL     1      -8.966  15.392  69.561  1.00  0.00     0.000 HD 
HETATM   32  C   UNL     1      -5.583  17.636  66.949  1.00  0.00    -0.183 A  
HETATM   33  C   UNL     1     -11.917  14.401  67.010  1.00  0.00    -0.424 A  
HETATM   34  C   UNL     1      -5.898  18.630  67.869  1.00  0.00    -0.189 A  
HETATM   35  C   UNL     1     -12.025  15.035  65.777  1.00  0.00     0.051 A  
HETATM   36  C   UNL     1     -10.907  15.644  65.217  1.00  0.00    -0.420 A  
HETATM   37  C   UNL     1      -6.978  18.456  68.727  1.00  0.00    -0.291 A  
HETATM   38  C   UNL     1      -9.673  15.609  65.881  1.00  0.00    -0.388 A  
HETATM   39  C   UNL     1      -7.725  17.274  68.684  1.00  0.00    -0.265 A  
ENDBRANCH  18  19
ENDBRANCH  17  18
ENDBRANCH  16  17
ENDBRANCH  13  16
ENDBRANCH  10  13
ENDBRANCH   2   7
TORSDOF 6
ENDMDL
MODEL      176
REMARK 921   NORMALIZED FREE ENERGY PREDICTED BY IDOCK:   -3.27 KCAL/MOL
REMARK 922        TOTAL FREE ENERGY PREDICTED BY IDOCK:   -6.77 KCAL/MOL
REMARK 923 INTER-LIGAND FREE ENERGY PREDICTED BY IDOCK:   -5.91 KCAL/MOL
REMARK 924 INTRA-LIGAND FREE ENERGY PREDICTED BY IDOCK:   -0.86 KCAL/MOL
REMARK 927      BINDING AFFINITY PREDICTED BY RF-SCORE:    0.00 PKD
ROOT
HETATM    1  C   UNL     1     -11.910  12.092  65.884  1.00  0.00    -0.342 C  
HETATM    2  C   UNL     1     -10.724  12.937  65.364  1.00  0.00    -0.307 C  
HETATM    3  C   UNL     1     -11.195  14.403  65.272  1.00  0.00    -0.345 C  
HETATM    4  O   UNL     1     -12.304  14.803  65.600  1.00  0.00    -0.186 OA 
HETATM    5  C   UNL     1     -10.369  12.484  63.935  1.00  0.00    -0.436 C  
HETATM    6  O   UNL     1     -10.267  15.264  64.782  1.00  0.00    -0.272 OA 
ENDROOT
BRANCH   2   7
HETATM    7  C   UNL     1      -9.540  12.717  66.318  1.00  0.00    -0.242 A  
HETATM    8  C   UNL     1      -8.754  11.555  66.207  1.00  0.00    -0.159 A  
HETATM    9  C   UNL     1      -7.774  11.250  67.150  1.00  0.00    -0.147 A  
HETATM   10  C   UNL     1      -7.528  12.121  68.217  1.00  0.00    -0.107 A  
HETATM   11  C   UNL     1      -9.258  13.598  67.369  1.00  0.00    -0.222 A  
HETATM   12  C   UNL     1      -8.244  13.321  68.281  1.00  0.00    -0.156 A  
BRANCH  10  13
HETATM   13  C   UNL     1      -6.568  11.739  69.318  1.00  0.00    -0.112 C  
HETATM   14  O   UNL     1      -6.667  12.732  70.330  1.00  0.00    -0.350 OA 
HETATM   15  H   UNL     1      -6.062  12.492  71.022  1.00  0.00     0.000 HD 
BRANCH  13  16
HETATM   16  C   UNL     1      -6.875  10.315  69.822  1.00  0.00    -0.120 C  
BRANCH  16  17
HETATM   17  C   UNL     1      -5.878   9.761  70.842  1.00  0.00    -0.084 C  
BRANCH  17  18
HETATM   18  C   UNL     1      -6.513   9.035  72.036  1.00  0.00     0.029 C  
BRANCH  18  19
HETATM   19  N   UNL     1      -6.132   7.615  72.125  1.00  0.00    -0.039 NA 
HETATM   20  C   UNL     1      -6.922   6.858  73.101  1.00  0.00    -0.074 C  
HETATM   21  C   UNL     1      -8.355   6.550  72.653  1.00  0.00    -0.117 C  
HETATM   22  C   UNL     1      -8.458   5.851  71.271  1.00  0.00    -0.128 C  
HETATM   23  C   UNL     1      -8.189   4.287  71.319  1.00  0.00    -0.082 C  
HETATM   24  C   UNL     1      -7.574   6.666  70.293  1.00  0.00    -0.096 C  
HETATM   25  C   UNL     1      -8.207   3.684  69.897  1.00  0.00    -0.070 A  
HETATM   26  C   UNL     1      -9.138   3.519  72.283  1.00  0.00    -0.143 A  
HETATM   27  C   UNL     1      -6.163   6.948  70.814  1.00  0.00    -0.036 C  
HETATM   28  O   UNL     1      -6.857   4.107  71.832  1.00  0.00    -0.031 OA 
HETATM   29  C   UNL     1      -7.011   3.549  69.160  1.00  0.00    -0.045 A  
HETATM   30  C   UNL     1     -10.418   3.988  72.639  1.00  0.00    -0.222 A  
HETATM   31  H   UNL     1      -6.696   3.171  71.861  1.00  0.00     0.000 HD 
HETATM   32  C   UNL     1     -11.202   3.319  73.586  1.00  0.00    -0.280 A  
HETATM   33  C   UNL     1      -7.006   3.072  67.848  1.00  0.00    -0.049 A  
HETATM   34  C   UNL     1     -10.739   2.149  74.179  1.00  0.00    -0.224 A  
HETATM   35  C   UNL     1      -8.200   2.694  67.243  1.00  0.00    -0.082 A  
HETATM   36  C   UNL     1      -9.394   2.803  67.950  1.00  0.00    -0.251 A  
HETATM   37  C   UNL     1      -9.504   1.631  73.804  1.00  0.00    -0.083 A  
HETATM   38  C   UNL     1      -9.400   3.303  69.259  1.00  0.00    -0.233 A  
HETATM   39  C   UNL     1      -8.720   2.299  72.858  1.00  0.00    -0.069 A  
ENDBRANCH  18  19
ENDBRANCH  17  18
ENDBRANCH  16  17
ENDBRANCH  13  16
ENDBRANCH  10  13
ENDBRANCH   2   7
TORSDOF 6
ENDMDL
MODEL      177
REMARK 921   NORMALIZED FREE ENERGY PREDICTED BY IDOCK:   -3.21 KCAL/MOL
REMARK 922        TOTAL FREE ENERGY PREDICTED BY IDOCK:   -6.70 KCAL/MOL
REMARK 923 INTER-LIGAND FREE ENERGY PREDICTED BY IDOCK:   -6.37 KCAL/MOL
REMARK 924 INTRA-LIGAND FREE ENERGY PREDICTED BY IDOCK:   -0.32 KCAL/MOL
REMARK 927      BINDING AFFINITY PREDICTED BY RF-SCORE:    0.00 PKD
ROOT
HETATM    1  C   UNL     1     -12.553  14.176  65.374  1.00  0.00    -0.485 C  
HETATM    2  C   UNL     1     -11.093  13.759  65.670  1.00  0.00    -0.297 C  
HETATM    3  C   UNL     1     -10.298  15.037  66.008  1.00  0.00    -0.312 C  
HETATM    4  O   UNL     1     -10.776  16.163  66.066  1.00  0.00    -0.308 OA 
HETATM    5  C   UNL     1     -10.469  13.162  64.394  1.00  0.00    -0.427 C  
HETATM    6  O   UNL     1      -8.978  14.833  66.248  1.00  0.00    -0.238 OA 
ENDROOT
BRANCH   2   7
HETATM    7  C   UNL     1     -11.124  12.721  66.801  1.00  0.00    -0.314 A  
HETATM    8  C   UNL     1     -10.734  11.393  66.548  1.00  0.00    -0.325 A  
HETATM    9  C   UNL     1     -10.898  10.394  67.507  1.00  0.00    -0.358 A  
HETATM   10  C   UNL     1     -11.425  10.705  68.765  1.00  0.00    -0.330 A  
HETATM   11  C   UNL     1     -11.616  13.025  68.077  1.00  0.00    -0.383 A  
HETATM   12  C   UNL     1     -11.730  12.040  69.053  1.00  0.00    -0.382 A  
BRANCH  10  13
HETATM   13  C   UNL     1     -11.734   9.613  69.762  1.00  0.00     0.108 C  
HETATM   14  O   UNL     1     -11.507   8.370  69.111  1.00  0.00    -0.190 OA 
HETATM   15  H   UNL     1     -11.702   7.683  69.738  1.00  0.00     0.000 HD 
BRANCH  13  16
HETATM   16  C   UNL     1     -10.891   9.803  71.037  1.00  0.00    -0.378 C  
BRANCH  16  17
HETATM   17  C   UNL     1      -9.565   9.038  71.056  1.00  0.00    -0.348 C  
BRANCH  17  18
HETATM   18  C   UNL     1      -8.424   9.705  70.277  1.00  0.00    -0.188 C  
BRANCH  18  19
HETATM   19  N   UNL     1      -7.285   8.806  70.027  1.00  0.00    -0.050 NA 
HETATM   20  C   UNL     1      -7.035   7.863  71.121  1.00  0.00    -0.049 C  
HETATM   21  C   UNL     1      -8.048   6.717  71.213  1.00  0.00    -0.112 C  
HETATM   22  C   UNL     1      -8.236   5.920  69.895  1.00  0.00    -0.117 C  
HETATM   23  C   UNL     1      -7.108   4.835  69.632  1.00  0.00    -0.054 C  
HETATM   24  C   UNL     1      -8.454   6.965  68.771  1.00  0.00    -0.121 C  
HETATM   25  C   UNL     1      -7.307   4.160  68.256  1.00  0.00    -0.060 A  
HETATM   26  C   UNL     1      -6.970   3.788  70.773  1.00  0.00    -0.033 A  
HETATM   27  C   UNL     1      -7.413   8.087  68.750  1.00  0.00    -0.091 C  
HETATM   28  O   UNL     1      -5.855   5.540  69.573  1.00  0.00    -0.015 OA 
HETATM   29  C   UNL     1      -6.651   4.660  67.110  1.00  0.00    -0.050 A  
HETATM   30  C   UNL     1      -8.024   3.456  71.646  1.00  0.00    -0.058 A  
HETATM   31  H   UNL     1      -5.179   4.891  69.415  1.00  0.00     0.000 HD 
HETATM   32  C   UNL     1      -7.832   2.583  72.723  1.00  0.00    -0.054 A  
HETATM   33  C   UNL     1      -6.867   4.113  65.844  1.00  0.00    -0.057 A  
HETATM   34  C   UNL     1      -6.589   1.996  72.936  1.00  0.00    -0.018 A  
HETATM   35  C   UNL     1      -7.729   3.033  65.693  1.00  0.00    -0.081 A  
HETATM   36  C   UNL     1      -8.378   2.509  66.807  1.00  0.00    -0.090 A  
HETATM   37  C   UNL     1      -5.544   2.260  72.057  1.00  0.00    -0.008 A  
HETATM   38  C   UNL     1      -8.178   3.073  68.074  1.00  0.00    -0.088 A  
HETATM   39  C   UNL     1      -5.735   3.133  70.981  1.00  0.00    -0.013 A  
ENDBRANCH  18  19
ENDBRANCH  17  18
ENDBRANCH  16  17
ENDBRANCH  13  16
ENDBRANCH  10  13
ENDBRANCH   2   7
TORSDOF 6
ENDMDL
MODEL      178
REMARK 921   NORMALIZED FREE ENERGY PREDICTED BY IDOCK:   -3.19 KCAL/MOL
REMARK 922        TOTAL FREE ENERGY PREDICTED BY IDOCK:   -6.67 KCAL/MOL
REMARK 923 INTER-LIGAND FREE ENERGY PREDICTED BY IDOCK:   -6.21 KCAL/MOL
REMARK 924 INTRA-LIGAND FREE ENERGY PREDICTED BY IDOCK:   -0.46 KCAL/MOL
REMARK 927      BINDING AFFINITY PREDICTED BY RF-SCORE:    0.00 PKD
ROOT
HETATM    1  C   UNL     1     -11.267  10.549  67.285  1.00  0.00    -0.202 C  
HETATM    2  C   UNL     1     -10.173   9.830  66.461  1.00  0.00    -0.289 C  
HETATM    3  C   UNL     1     -10.383  10.200  64.978  1.00  0.00     0.011 C  
HETATM    4  O   UNL     1     -11.244  10.964  64.563  1.00  0.00    -0.025 OA 
HETATM    5  C   UNL     1     -10.370   8.307  66.581  1.00  0.00    -0.293 C  
HETATM    6  O   UNL     1      -9.518   9.601  64.121  1.00  0.00    -0.192 OA 
ENDROOT
BRANCH   2   7
HETATM    7  C   UNL     1      -8.809  10.252  67.026  1.00  0.00    -0.143 A  
HETATM    8  C   UNL     1      -8.479   9.955  68.362  1.00  0.00    -0.111 A  
HETATM    9  C   UNL     1      -7.320  10.458  68.951  1.00  0.00    -0.094 A  
HETATM   10  C   UNL     1      -6.436  11.245  68.205  1.00  0.00    -0.056 A  
HETATM   11  C   UNL     1      -7.897  11.011  66.282  1.00  0.00    -0.141 A  
HETATM   12  C   UNL     1      -6.714  11.468  66.852  1.00  0.00    -0.139 A  
BRANCH  10  13
HETATM   13  C   UNL     1      -5.249  11.907  68.866  1.00  0.00    -0.050 C  
HETATM   14  O   UNL     1      -5.136  13.215  68.320  1.00  0.00    -0.072 OA 
HETATM   15  H   UNL     1      -4.390  13.631  68.735  1.00  0.00     0.000 HD 
BRANCH  13  16
HETATM   16  C   UNL     1      -5.416  11.893  70.397  1.00  0.00    -0.142 C  
BRANCH  16  17
HETATM   17  C   UNL     1      -5.441  13.274  71.058  1.00  0.00    -0.196 C  
BRANCH  17  18
HETATM   18  C   UNL     1      -5.728  14.441  70.103  1.00  0.00    -0.129 C  
BRANCH  18  19
HETATM   19  N   UNL     1      -7.080  15.003  70.261  1.00  0.00     0.026 NA 
HETATM   20  C   UNL     1      -7.157  16.434  69.948  1.00  0.00     0.329 C  
HETATM   21  C   UNL     1      -7.088  16.758  68.451  1.00  0.00    -0.173 C  
HETATM   22  C   UNL     1      -8.122  15.996  67.581  1.00  0.00    -0.164 C  
HETATM   23  C   UNL     1      -9.576  16.633  67.602  1.00  0.00    -0.239 C  
HETATM   24  C   UNL     1      -8.026  14.502  67.983  1.00  0.00    -0.136 C  
HETATM   25  C   UNL     1     -10.568  15.762  66.800  1.00  0.00    -0.309 A  
HETATM   26  C   UNL     1      -9.613  18.119  67.144  1.00  0.00    -0.277 A  
HETATM   27  C   UNL     1      -8.087  14.256  69.493  1.00  0.00     0.372 C  
HETATM   28  O   UNL     1     -10.020  16.619  68.970  1.00  0.00    -0.258 OA 
HETATM   29  C   UNL     1     -11.336  14.770  67.446  1.00  0.00    -0.361 A  
HETATM   30  C   UNL     1      -8.648  18.686  66.290  1.00  0.00    -0.232 A  
HETATM   31  H   UNL     1     -10.890  17.000  68.983  1.00  0.00     0.000 HD 
HETATM   32  C   UNL     1      -8.659  20.051  65.981  1.00  0.00    -0.243 A  
HETATM   33  C   UNL     1     -12.189  13.923  66.736  1.00  0.00    -0.438 A  
HETATM   34  C   UNL     1      -9.653  20.878  66.494  1.00  0.00     0.196 A  
HETATM   35  C   UNL     1     -12.313  14.061  65.358  1.00  0.00    -0.495 A  
HETATM   36  C   UNL     1     -11.579  15.039  64.695  1.00  0.00    -0.386 A  
HETATM   37  C   UNL     1     -10.653  20.335  67.293  1.00  0.00    -0.213 A  
HETATM   38  C   UNL     1     -10.706  15.875  65.406  1.00  0.00    -0.415 A  
HETATM   39  C   UNL     1     -10.642  18.971  67.603  1.00  0.00    -0.526 A  
ENDBRANCH  18  19
ENDBRANCH  17  18
ENDBRANCH  16  17
ENDBRANCH  13  16
ENDBRANCH  10  13
ENDBRANCH   2   7
TORSDOF 6
ENDMDL
MODEL      179
REMARK 921   NORMALIZED FREE ENERGY PREDICTED BY IDOCK:   -3.12 KCAL/MOL
REMARK 922        TOTAL FREE ENERGY PREDICTED BY IDOCK:   -6.56 KCAL/MOL
REMARK 923 INTER-LIGAND FREE ENERGY PREDICTED BY IDOCK:   -5.53 KCAL/MOL
REMARK 924 INTRA-LIGAND FREE ENERGY PREDICTED BY IDOCK:   -1.04 KCAL/MOL
REMARK 927      BINDING AFFINITY PREDICTED BY RF-SCORE:    0.00 PKD
ROOT
HETATM    1  C   UNL     1     -11.110   6.164  67.506  1.00  0.00    -0.318 C  
HETATM    2  C   UNL     1      -9.703   5.533  67.397  1.00  0.00    -0.147 C  
HETATM    3  C   UNL     1      -9.683   4.641  66.138  1.00  0.00    -0.203 C  
HETATM    4  O   UNL     1     -10.618   4.510  65.359  1.00  0.00    -0.264 OA 
HETATM    5  C   UNL     1      -9.466   4.611  68.609  1.00  0.00    -0.213 C  
HETATM    6  O   UNL     1      -8.516   3.979  65.935  1.00  0.00    -0.108 OA 
ENDROOT
BRANCH   2   7
HETATM    7  C   UNL     1      -8.679   6.677  67.372  1.00  0.00    -0.118 A  
HETATM    8  C   UNL     1      -8.491   7.428  66.196  1.00  0.00    -0.147 A  
HETATM    9  C   UNL     1      -7.465   8.365  66.091  1.00  0.00    -0.088 A  
HETATM   10  C   UNL     1      -6.616   8.606  67.177  1.00  0.00    -0.058 A  
HETATM   11  C   UNL     1      -7.845   6.954  68.463  1.00  0.00    -0.118 A  
HETATM   12  C   UNL     1      -6.855   7.927  68.377  1.00  0.00    -0.071 A  
BRANCH  10  13
HETATM   13  C   UNL     1      -5.420   9.516  67.033  1.00  0.00    -0.046 C  
HETATM   14  O   UNL     1      -5.461  10.063  65.722  1.00  0.00    -0.044 OA 
HETATM   15  H   UNL     1      -4.708  10.636  65.631  1.00  0.00     0.000 HD 
BRANCH  13  16
HETATM   16  C   UNL     1      -5.426  10.583  68.145  1.00  0.00    -0.036 C  
BRANCH  16  17
HETATM   17  C   UNL     1      -5.184  12.017  67.667  1.00  0.00    -0.078 C  
BRANCH  17  18
HETATM   18  C   UNL     1      -5.345  13.094  68.748  1.00  0.00    -0.073 C  
BRANCH  18  19
HETATM   19  N   UNL     1      -6.227  14.201  68.342  1.00  0.00    -0.093 NA 
HETATM   20  C   UNL     1      -6.947  13.944  67.091  1.00  0.00     0.377 C  
HETATM   21  C   UNL     1      -8.098  12.940  67.217  1.00  0.00    -0.164 C  
HETATM   22  C   UNL     1      -9.126  13.279  68.328  1.00  0.00    -0.184 C  
HETATM   23  C   UNL     1     -10.194  14.375  67.905  1.00  0.00    -0.232 C  
HETATM   24  C   UNL     1      -8.310  13.581  69.612  1.00  0.00     1.368 C  
HETATM   25  C   UNL     1     -11.113  14.733  69.094  1.00  0.00    -0.278 A  
HETATM   26  C   UNL     1     -11.012  13.994  66.639  1.00  0.00    -0.300 A  
HETATM   27  C   UNL     1      -7.169  14.581  69.406  1.00  0.00    -0.120 C  
HETATM   28  O   UNL     1      -9.461  15.567  67.572  1.00  0.00    -0.206 OA 
HETATM   29  C   UNL     1     -10.801  15.819  69.941  1.00  0.00    -0.330 A  
HETATM   30  C   UNL     1     -11.224  12.663  66.231  1.00  0.00    -0.354 A  
HETATM   31  H   UNL     1     -10.100  16.223  67.318  1.00  0.00     0.000 HD 
HETATM   32  C   UNL     1     -11.880  12.363  65.031  1.00  0.00    -0.440 A  
HETATM   33  C   UNL     1     -11.576  16.121  71.062  1.00  0.00    -0.434 A  
HETATM   34  C   UNL     1     -12.368  13.386  64.225  1.00  0.00    -0.396 A  
HETATM   35  C   UNL     1     -12.700  15.358  71.355  1.00  0.00    -0.488 A  
HETATM   36  C   UNL     1     -13.041  14.290  70.531  1.00  0.00    -0.168 A  
HETATM   37  C   UNL     1     -12.224  14.708  64.630  1.00  0.00    -0.447 A  
HETATM   38  C   UNL     1     -12.250  13.973  69.418  1.00  0.00    -0.336 A  
HETATM   39  C   UNL     1     -11.568  15.008  65.828  1.00  0.00    -0.171 A  
ENDBRANCH  18  19
ENDBRANCH  17  18
ENDBRANCH  16  17
ENDBRANCH  13  16
ENDBRANCH  10  13
ENDBRANCH   2   7
TORSDOF 6
ENDMDL
MODEL      180
REMARK 921   NORMALIZED FREE ENERGY PREDICTED BY IDOCK:   -3.08 KCAL/MOL
REMARK 922        TOTAL FREE ENERGY PREDICTED BY IDOCK:   -6.51 KCAL/MOL
REMARK 923 INTER-LIGAND FREE ENERGY PREDICTED BY IDOCK:   -5.95 KCAL/MOL
REMARK 924 INTRA-LIGAND FREE ENERGY PREDICTED BY IDOCK:   -0.56 KCAL/MOL
REMARK 927      BINDING AFFINITY PREDICTED BY RF-SCORE:    0.00 PKD
ROOT
HETATM    1  C   UNL     1     -10.511   4.239  65.151  1.00  0.00    -0.195 C  
HETATM    2  C   UNL     1      -8.979   4.416  65.042  1.00  0.00    -0.145 C  
HETATM    3  C   UNL     1      -8.621   4.506  63.544  1.00  0.00    -0.125 C  
HETATM    4  O   UNL     1      -9.433   4.481  62.628  1.00  0.00    -0.142 OA 
HETATM    5  C   UNL     1      -8.283   3.160  65.600  1.00  0.00    -0.091 C  
HETATM    6  O   UNL     1      -7.293   4.618  63.288  1.00  0.00    -0.051 OA 
ENDROOT
BRANCH   2   7
HETATM    7  C   UNL     1      -8.594   5.661  65.854  1.00  0.00    -0.144 A  
HETATM    8  C   UNL     1      -7.307   5.766  66.414  1.00  0.00    -0.078 A  
HETATM    9  C   UNL     1      -6.977   6.804  67.284  1.00  0.00    -0.074 A  
HETATM   10  C   UNL     1      -7.919   7.792  67.591  1.00  0.00    -0.124 A  
HETATM   11  C   UNL     1      -9.515   6.677  66.142  1.00  0.00    -0.057 A  
HETATM   12  C   UNL     1      -9.170   7.742  66.967  1.00  0.00    -0.176 A  
BRANCH  10  13
HETATM   13  C   UNL     1      -7.621   8.843  68.634  1.00  0.00    -0.096 C  
HETATM   14  O   UNL     1      -6.970   8.191  69.717  1.00  0.00    -0.050 OA 
HETATM   15  H   UNL     1      -6.783   8.852  70.374  1.00  0.00     0.000 HD 
BRANCH  13  16
HETATM   16  C   UNL     1      -6.792   9.986  68.017  1.00  0.00    -0.068 C  
BRANCH  16  17
HETATM   17  C   UNL     1      -7.602  11.016  67.225  1.00  0.00    -0.111 C  
BRANCH  17  18
HETATM   18  C   UNL     1      -6.846  12.308  66.886  1.00  0.00     0.063 C  
BRANCH  18  19
HETATM   19  N   UNL     1      -6.953  13.338  67.933  1.00  0.00    -0.118 NA 
HETATM   20  C   UNL     1      -7.030  14.703  67.403  1.00  0.00    -0.093 C  
HETATM   21  C   UNL     1      -8.380  15.062  66.772  1.00  0.00    -0.189 C  
HETATM   22  C   UNL     1      -9.604  14.809  67.691  1.00  0.00    -0.208 C  
HETATM   23  C   UNL     1      -9.855  15.955  68.760  1.00  0.00    -0.216 C  
HETATM   24  C   UNL     1      -9.449  13.372  68.254  1.00  0.00    -0.209 C  
HETATM   25  C   UNL     1     -11.022  15.581  69.701  1.00  0.00    -0.288 A  
HETATM   26  C   UNL     1     -10.050  17.364  68.131  1.00  0.00    -0.328 A  
HETATM   27  C   UNL     1      -8.070  13.083  68.854  1.00  0.00     0.206 C  
HETATM   28  O   UNL     1      -8.672  16.034  69.575  1.00  0.00    -0.216 OA 
HETATM   29  C   UNL     1     -10.774  14.927  70.927  1.00  0.00     0.135 A  
HETATM   30  C   UNL     1     -10.516  17.564  66.817  1.00  0.00    -0.270 A  
HETATM   31  H   UNL     1      -8.822  16.720  70.215  1.00  0.00     0.000 HD 
HETATM   32  C   UNL     1     -10.583  18.843  66.253  1.00  0.00    -0.463 A  
HETATM   33  C   UNL     1     -11.814  14.517  71.763  1.00  0.00    -0.210 A  
HETATM   34  C   UNL     1     -10.214  19.957  66.999  1.00  0.00    -0.588 A  
HETATM   35  C   UNL     1     -13.133  14.771  71.406  1.00  0.00    -0.424 A  
HETATM   36  C   UNL     1     -13.408  15.427  70.210  1.00  0.00     0.106 A  
HETATM   37  C   UNL     1      -9.805  19.797  68.318  1.00  0.00    -0.537 A  
HETATM   38  C   UNL     1     -12.364  15.819  69.360  1.00  0.00    -0.034 A  
HETATM   39  C   UNL     1      -9.737  18.519  68.882  1.00  0.00    -0.342 A  
ENDBRANCH  18  19
ENDBRANCH  17  18
ENDBRANCH  16  17
ENDBRANCH  13  16
ENDBRANCH  10  13
ENDBRANCH   2   7
TORSDOF 6
ENDMDL
MODEL      181
REMARK 921   NORMALIZED FREE ENERGY PREDICTED BY IDOCK:   -3.04 KCAL/MOL
REMARK 922        TOTAL FREE ENERGY PREDICTED BY IDOCK:   -6.46 KCAL/MOL
REMARK 923 INTER-LIGAND FREE ENERGY PREDICTED BY IDOCK:   -5.27 KCAL/MOL
REMARK 924 INTRA-LIGAND FREE ENERGY PREDICTED BY IDOCK:   -1.20 KCAL/MOL
REMARK 927      BINDING AFFINITY PREDICTED BY RF-SCORE:    0.00 PKD
ROOT
HETATM    1  C   UNL     1     -13.459   9.104  73.036  1.00  0.00     0.221 C  
HETATM    2  C   UNL     1     -12.800   8.423  71.814  1.00  0.00    -0.371 C  
HETATM    3  C   UNL     1     -12.133   9.525  70.964  1.00  0.00    -0.318 C  
HETATM    4  O   UNL     1     -12.110  10.714  71.255  1.00  0.00    -0.345 OA 
HETATM    5  C   UNL     1     -13.895   7.779  70.942  1.00  0.00     0.103 C  
HETATM    6  O   UNL     1     -11.548   9.079  69.823  1.00  0.00     0.052 OA 
ENDROOT
BRANCH   2   7
HETATM    7  C   UNL     1     -11.825   7.360  72.341  1.00  0.00    -0.273 A  
HETATM    8  C   UNL     1     -12.127   5.993  72.192  1.00  0.00    -0.201 A  
HETATM    9  C   UNL     1     -11.344   5.009  72.793  1.00  0.00    -0.271 A  
HETATM   10  C   UNL     1     -10.212   5.364  73.535  1.00  0.00    -0.229 A  
HETATM   11  C   UNL     1     -10.669   7.699  73.054  1.00  0.00    -0.449 A  
HETATM   12  C   UNL     1      -9.857   6.715  73.611  1.00  0.00    -0.248 A  
BRANCH  10  13
HETATM   13  C   UNL     1      -9.436   4.321  74.303  1.00  0.00    -0.107 C  
HETATM   14  O   UNL     1     -10.316   3.231  74.543  1.00  0.00    -0.166 OA 
HETATM   15  H   UNL     1      -9.828   2.574  75.027  1.00  0.00     0.000 HD 
BRANCH  13  16
HETATM   16  C   UNL     1      -8.164   3.926  73.529  1.00  0.00    -0.088 C  
BRANCH  16  17
HETATM   17  C   UNL     1      -7.669   4.970  72.524  1.00  0.00    -0.097 C  
BRANCH  17  18
HETATM   18  C   UNL     1      -7.631   4.494  71.065  1.00  0.00    -0.064 C  
BRANCH  18  19
HETATM   19  N   UNL     1      -8.642   5.144  70.214  1.00  0.00    -0.110 NA 
HETATM   20  C   UNL     1      -8.250   6.483  69.760  1.00  0.00    -0.126 C  
HETATM   21  C   UNL     1      -7.177   6.491  68.666  1.00  0.00    -0.085 C  
HETATM   22  C   UNL     1      -7.517   5.620  67.428  1.00  0.00    -0.084 C  
HETATM   23  C   UNL     1      -8.503   6.320  66.399  1.00  0.00    -0.125 C  
HETATM   24  C   UNL     1      -7.963   4.236  67.967  1.00  0.00    -0.086 C  
HETATM   25  C   UNL     1      -8.874   5.354  65.252  1.00  0.00    -0.132 A  
HETATM   26  C   UNL     1      -7.978   7.681  65.859  1.00  0.00    -0.116 A  
HETATM   27  C   UNL     1      -9.026   4.307  69.067  1.00  0.00    -0.108 C  
HETATM   28  O   UNL     1      -9.718   6.607  67.112  1.00  0.00    -0.130 OA 
HETATM   29  C   UNL     1     -10.035   4.555  65.335  1.00  0.00    -0.207 A  
HETATM   30  C   UNL     1      -6.611   8.013  65.805  1.00  0.00    -0.045 A  
HETATM   31  H   UNL     1     -10.308   7.026  66.497  1.00  0.00     0.000 HD 
HETATM   32  C   UNL     1      -6.184   9.285  65.406  1.00  0.00    -0.064 A  
HETATM   33  C   UNL     1     -10.357   3.624  64.345  1.00  0.00    -0.198 A  
HETATM   34  C   UNL     1      -7.112  10.247  65.023  1.00  0.00    -0.111 A  
HETATM   35  C   UNL     1      -9.537   3.483  63.231  1.00  0.00    -0.115 A  
HETATM   36  C   UNL     1      -8.394   4.268  63.115  1.00  0.00    -0.094 A  
HETATM   37  C   UNL     1      -8.466   9.930  65.011  1.00  0.00    -0.161 A  
HETATM   38  C   UNL     1      -8.059   5.186  64.120  1.00  0.00    -0.119 A  
HETATM   39  C   UNL     1      -8.893   8.659  65.410  1.00  0.00    -0.198 A  
ENDBRANCH  18  19
ENDBRANCH  17  18
ENDBRANCH  16  17
ENDBRANCH  13  16
ENDBRANCH  10  13
ENDBRANCH   2   7
TORSDOF 6
ENDMDL
MODEL      182
REMARK 921   NORMALIZED FREE ENERGY PREDICTED BY IDOCK:   -3.02 KCAL/MOL
REMARK 922        TOTAL FREE ENERGY PREDICTED BY IDOCK:   -6.44 KCAL/MOL
REMARK 923 INTER-LIGAND FREE ENERGY PREDICTED BY IDOCK:   -6.12 KCAL/MOL
REMARK 924 INTRA-LIGAND FREE ENERGY PREDICTED BY IDOCK:   -0.32 KCAL/MOL
REMARK 927      BINDING AFFINITY PREDICTED BY RF-SCORE:    0.00 PKD
ROOT
HETATM    1  C   UNL     1     -13.729   9.658  70.235  1.00  0.00     0.840 C  
HETATM    2  C   UNL     1     -12.431  10.132  70.929  1.00  0.00    -0.455 C  
HETATM    3  C   UNL     1     -11.800   8.912  71.631  1.00  0.00    -0.345 C  
HETATM    4  O   UNL     1     -12.248   7.774  71.591  1.00  0.00    -0.291 OA 
HETATM    5  C   UNL     1     -12.788  11.152  72.027  1.00  0.00    -0.285 C  
HETATM    6  O   UNL     1     -10.668   9.186  72.327  1.00  0.00    -0.195 OA 
ENDROOT
BRANCH   2   7
HETATM    7  C   UNL     1     -11.536  10.772  69.858  1.00  0.00    -0.410 A  
HETATM    8  C   UNL     1     -12.093  11.649  68.907  1.00  0.00    -0.253 A  
HETATM    9  C   UNL     1     -11.344  12.122  67.831  1.00  0.00    -0.361 A  
HETATM   10  C   UNL     1      -9.999  11.760  67.696  1.00  0.00    -0.204 A  
HETATM   11  C   UNL     1     -10.180  10.448  69.730  1.00  0.00    -0.228 A  
HETATM   12  C   UNL     1      -9.416  10.963  68.686  1.00  0.00    -0.192 A  
BRANCH  10  13
HETATM   13  C   UNL     1      -9.216  12.154  66.466  1.00  0.00    -0.216 C  
HETATM   14  O   UNL     1      -9.519  13.515  66.190  1.00  0.00    -0.419 OA 
HETATM   15  H   UNL     1      -9.027  13.763  65.415  1.00  0.00     0.000 HD 
BRANCH  13  16
HETATM   16  C   UNL     1      -7.714  11.891  66.685  1.00  0.00     0.018 C  
BRANCH  16  17
HETATM   17  C   UNL     1      -7.215  10.533  66.182  1.00  0.00    -0.136 C  
BRANCH  17  18
HETATM   18  C   UNL     1      -7.646  10.177  64.753  1.00  0.00    -0.139 C  
BRANCH  18  19
HETATM   19  N   UNL     1      -8.615   9.069  64.695  1.00  0.00    -0.178 NA 
HETATM   20  C   UNL     1      -8.079   7.857  64.068  1.00  0.00    -0.078 C  
HETATM   21  C   UNL     1      -7.089   7.078  64.941  1.00  0.00    -0.064 C  
HETATM   22  C   UNL     1      -7.623   6.720  66.353  1.00  0.00    -0.089 C  
HETATM   23  C   UNL     1      -8.572   5.448  66.380  1.00  0.00    -0.119 C  
HETATM   24  C   UNL     1      -8.213   8.024  66.949  1.00  0.00    -0.115 C  
HETATM   25  C   UNL     1      -9.143   5.220  67.797  1.00  0.00    -0.115 A  
HETATM   26  C   UNL     1      -7.908   4.161  65.812  1.00  0.00    -0.090 A  
HETATM   27  C   UNL     1      -9.181   8.755  66.016  1.00  0.00    -0.222 C  
HETATM   28  O   UNL     1      -9.689   5.740  65.522  1.00  0.00    -0.369 OA 
HETATM   29  C   UNL     1     -10.392   5.767  68.163  1.00  0.00    -0.264 A  
HETATM   30  C   UNL     1      -6.515   3.955  65.800  1.00  0.00    -0.033 A  
HETATM   31  H   UNL     1     -10.257   4.979  65.538  1.00  0.00     0.000 HD 
HETATM   32  C   UNL     1      -5.950   2.829  65.190  1.00  0.00    -0.019 A  
HETATM   33  C   UNL     1     -10.900   5.635  69.457  1.00  0.00    -0.345 A  
HETATM   34  C   UNL     1      -6.765   1.866  64.604  1.00  0.00    -0.027 A  
HETATM   35  C   UNL     1     -10.181   4.931  70.416  1.00  0.00    -0.292 A  
HETATM   36  C   UNL     1      -8.954   4.368  70.080  1.00  0.00    -0.143 A  
HETATM   37  C   UNL     1      -8.147   2.014  64.652  1.00  0.00    -0.074 A  
HETATM   38  C   UNL     1      -8.434   4.520  68.787  1.00  0.00    -0.093 A  
HETATM   39  C   UNL     1      -8.712   3.139  65.260  1.00  0.00    -0.117 A  
ENDBRANCH  18  19
ENDBRANCH  17  18
ENDBRANCH  16  17
ENDBRANCH  13  16
ENDBRANCH  10  13
ENDBRANCH   2   7
TORSDOF 6
ENDMDL
MODEL      183
REMARK 921   NORMALIZED FREE ENERGY PREDICTED BY IDOCK:   -3.00 KCAL/MOL
REMARK 922        TOTAL FREE ENERGY PREDICTED BY IDOCK:   -6.41 KCAL/MOL
REMARK 923 INTER-LIGAND FREE ENERGY PREDICTED BY IDOCK:   -4.50 KCAL/MOL
REMARK 924 INTRA-LIGAND FREE ENERGY PREDICTED BY IDOCK:   -1.90 KCAL/MOL
REMARK 927      BINDING AFFINITY PREDICTED BY RF-SCORE:    0.00 PKD
ROOT
HETATM    1  C   UNL     1      -7.996   5.552  67.293  1.00  0.00    -0.101 C  
HETATM    2  C   UNL     1      -9.088   5.740  66.214  1.00  0.00    -0.154 C  
HETATM    3  C   UNL     1     -10.311   4.897  66.629  1.00  0.00    -0.242 C  
HETATM    4  O   UNL     1     -10.390   4.240  67.659  1.00  0.00     0.085 OA 
HETATM    5  C   UNL     1      -8.580   5.171  64.875  1.00  0.00    -0.151 C  
HETATM    6  O   UNL     1     -11.342   4.927  65.747  1.00  0.00     0.039 OA 
ENDROOT
BRANCH   2   7
HETATM    7  C   UNL     1      -9.373   7.245  66.096  1.00  0.00    -0.101 A  
HETATM    8  C   UNL     1     -10.511   7.796  66.715  1.00  0.00    -0.318 A  
HETATM    9  C   UNL     1     -10.882   9.122  66.499  1.00  0.00     0.231 A  
HETATM   10  C   UNL     1     -10.103   9.948  65.682  1.00  0.00    -0.307 A  
HETATM   11  C   UNL     1      -8.582   8.093  65.310  1.00  0.00    -0.132 A  
HETATM   12  C   UNL     1      -8.923   9.431  65.137  1.00  0.00    -0.258 A  
BRANCH  10  13
HETATM   13  C   UNL     1     -10.566  11.342  65.330  1.00  0.00    -0.275 C  
HETATM   14  O   UNL     1     -11.730  11.607  66.100  1.00  0.00    -0.415 OA 
HETATM   15  H   UNL     1     -12.022  12.484  65.879  1.00  0.00     0.000 HD 
BRANCH  13  16
HETATM   16  C   UNL     1      -9.429  12.355  65.565  1.00  0.00     0.008 C  
BRANCH  16  17
HETATM   17  C   UNL     1      -9.251  12.801  67.019  1.00  0.00    -0.221 C  
BRANCH  17  18
HETATM   18  C   UNL     1      -7.870  12.509  67.620  1.00  0.00    -0.162 C  
BRANCH  18  19
HETATM   19  N   UNL     1      -7.925  12.076  69.027  1.00  0.00     0.088 NA 
HETATM   20  C   UNL     1      -9.246  11.587  69.435  1.00  0.00     0.634 C  
HETATM   21  C   UNL     1      -9.603  10.200  68.890  1.00  0.00    -0.186 C  
HETATM   22  C   UNL     1      -8.547   9.103  69.186  1.00  0.00    -0.133 C  
HETATM   23  C   UNL     1      -8.640   8.497  70.651  1.00  0.00    -0.148 C  
HETATM   24  C   UNL     1      -7.171   9.688  68.776  1.00  0.00    -0.072 C  
HETATM   25  C   UNL     1      -7.494   7.492  70.902  1.00  0.00    -0.073 A  
HETATM   26  C   UNL     1     -10.029   7.884  70.986  1.00  0.00    -0.200 A  
HETATM   27  C   UNL     1      -6.890  11.081  69.345  1.00  0.00    -0.119 C  
HETATM   28  O   UNL     1      -8.446   9.589  71.568  1.00  0.00    -0.232 OA 
HETATM   29  C   UNL     1      -6.285   7.916  71.495  1.00  0.00    -0.035 A  
HETATM   30  C   UNL     1     -10.912   7.395  70.004  1.00  0.00    -0.264 A  
HETATM   31  H   UNL     1      -8.501   9.226  72.445  1.00  0.00     0.000 HD 
HETATM   32  C   UNL     1     -12.194   6.942  70.336  1.00  0.00    -0.175 A  
HETATM   33  C   UNL     1      -5.209   7.044  71.670  1.00  0.00    -0.028 A  
HETATM   34  C   UNL     1     -12.615   6.939  71.662  1.00  0.00    -0.410 A  
HETATM   35  C   UNL     1      -5.321   5.715  71.277  1.00  0.00    -0.009 A  
HETATM   36  C   UNL     1      -6.506   5.265  70.704  1.00  0.00    -0.027 A  
HETATM   37  C   UNL     1     -11.744   7.362  72.660  1.00  0.00    -0.239 A  
HETATM   38  C   UNL     1      -7.578   6.146  70.507  1.00  0.00    -0.096 A  
HETATM   39  C   UNL     1     -10.463   7.815  72.329  1.00  0.00    -0.303 A  
ENDBRANCH  18  19
ENDBRANCH  17  18
ENDBRANCH  16  17
ENDBRANCH  13  16
ENDBRANCH  10  13
ENDBRANCH   2   7
TORSDOF 6
ENDMDL
MODEL      184
REMARK 921   NORMALIZED FREE ENERGY PREDICTED BY IDOCK:   -2.96 KCAL/MOL
REMARK 922        TOTAL FREE ENERGY PREDICTED BY IDOCK:   -6.35 KCAL/MOL
REMARK 923 INTER-LIGAND FREE ENERGY PREDICTED BY IDOCK:   -5.70 KCAL/MOL
REMARK 924 INTRA-LIGAND FREE ENERGY PREDICTED BY IDOCK:   -0.64 KCAL/MOL
REMARK 927      BINDING AFFINITY PREDICTED BY RF-SCORE:    0.00 PKD
ROOT
HETATM    1  C   UNL     1     -11.205  16.563  67.900  1.00  0.00    -0.155 C  
HETATM    2  C   UNL     1     -10.720  15.312  67.132  1.00  0.00    -0.316 C  
HETATM    3  C   UNL     1     -10.614  15.687  65.640  1.00  0.00    -0.378 C  
HETATM    4  O   UNL     1     -10.839  16.799  65.181  1.00  0.00    -0.584 OA 
HETATM    5  C   UNL     1     -11.786  14.204  67.246  1.00  0.00    -0.452 C  
HETATM    6  O   UNL     1     -10.240  14.666  64.827  1.00  0.00    -0.367 OA 
ENDROOT
BRANCH   2   7
HETATM    7  C   UNL     1      -9.394  14.861  67.763  1.00  0.00    -0.194 A  
HETATM    8  C   UNL     1      -8.858  15.569  68.855  1.00  0.00    -0.217 A  
HETATM    9  C   UNL     1      -7.586  15.284  69.349  1.00  0.00    -0.219 A  
HETATM   10  C   UNL     1      -6.825  14.255  68.784  1.00  0.00    -0.099 A  
HETATM   11  C   UNL     1      -8.637  13.809  67.232  1.00  0.00    -0.221 A  
HETATM   12  C   UNL     1      -7.390  13.489  67.758  1.00  0.00    -0.166 A  
BRANCH  10  13
HETATM   13  C   UNL     1      -5.397  14.026  69.218  1.00  0.00    -0.081 C  
HETATM   14  O   UNL     1      -5.189  14.780  70.405  1.00  0.00    -0.104 OA 
HETATM   15  H   UNL     1      -4.290  14.637  70.677  1.00  0.00     0.000 HD 
BRANCH  13  16
HETATM   16  C   UNL     1      -5.128  12.519  69.392  1.00  0.00    -0.070 C  
BRANCH  16  17
HETATM   17  C   UNL     1      -5.628  11.922  70.711  1.00  0.00    -0.118 C  
BRANCH  17  18
HETATM   18  C   UNL     1      -5.853  10.404  70.688  1.00  0.00    -0.106 C  
BRANCH  18  19
HETATM   19  N   UNL     1      -6.990   9.997  69.844  1.00  0.00    -0.100 NA 
HETATM   20  C   UNL     1      -6.636   9.820  68.433  1.00  0.00    -0.056 C  
HETATM   21  C   UNL     1      -5.831   8.550  68.136  1.00  0.00    -0.042 C  
HETATM   22  C   UNL     1      -6.482   7.242  68.659  1.00  0.00    -0.040 C  
HETATM   23  C   UNL     1      -7.630   6.674  67.721  1.00  0.00    -0.106 C  
HETATM   24  C   UNL     1      -6.873   7.499  70.137  1.00  0.00    -0.051 C  
HETATM   25  C   UNL     1      -8.297   5.435  68.360  1.00  0.00    -0.094 A  
HETATM   26  C   UNL     1      -7.165   6.392  66.265  1.00  0.00    -0.072 A  
HETATM   27  C   UNL     1      -7.661   8.793  70.358  1.00  0.00    -0.091 C  
HETATM   28  O   UNL     1      -8.642   7.693  67.634  1.00  0.00    -0.116 OA 
HETATM   29  C   UNL     1      -9.452   5.574  69.158  1.00  0.00    -0.169 A  
HETATM   30  C   UNL     1      -5.827   6.115  65.923  1.00  0.00    -0.024 A  
HETATM   31  H   UNL     1      -9.329   7.354  67.073  1.00  0.00     0.000 HD 
HETATM   32  C   UNL     1      -5.430   5.966  64.590  1.00  0.00    -0.017 A  
HETATM   33  C   UNL     1     -10.034   4.481  69.803  1.00  0.00    -0.268 A  
HETATM   34  C   UNL     1      -6.366   6.059  63.565  1.00  0.00    -0.029 A  
HETATM   35  C   UNL     1      -9.488   3.212  69.647  1.00  0.00    -0.191 A  
HETATM   36  C   UNL     1      -8.358   3.042  68.854  1.00  0.00    -0.083 A  
HETATM   37  C   UNL     1      -7.705   6.274  63.875  1.00  0.00    -0.107 A  
HETATM   38  C   UNL     1      -7.761   4.143  68.225  1.00  0.00    -0.070 A  
HETATM   39  C   UNL     1      -8.102   6.424  65.208  1.00  0.00    -0.133 A  
ENDBRANCH  18  19
ENDBRANCH  17  18
ENDBRANCH  16  17
ENDBRANCH  13  16
ENDBRANCH  10  13
ENDBRANCH   2   7
TORSDOF 6
ENDMDL
MODEL      185
REMARK 921   NORMALIZED FREE ENERGY PREDICTED BY IDOCK:   -2.92 KCAL/MOL
REMARK 922        TOTAL FREE ENERGY PREDICTED BY IDOCK:   -6.30 KCAL/MOL
REMARK 923 INTER-LIGAND FREE ENERGY PREDICTED BY IDOCK:   -4.89 KCAL/MOL
REMARK 924 INTRA-LIGAND FREE ENERGY PREDICTED BY IDOCK:   -1.41 KCAL/MOL
REMARK 927      BINDING AFFINITY PREDICTED BY RF-SCORE:    0.00 PKD
ROOT
HETATM    1  C   UNL     1      -7.351   4.513  67.917  1.00  0.00    -0.066 C  
HETATM    2  C   UNL     1      -7.096   5.972  68.362  1.00  0.00    -0.082 C  
HETATM    3  C   UNL     1      -7.363   6.888  67.150  1.00  0.00    -0.090 C  
HETATM    4  O   UNL     1      -7.750   6.502  66.055  1.00  0.00    -0.088 OA 
HETATM    5  C   UNL     1      -5.609   6.134  68.733  1.00  0.00    -0.012 C  
HETATM    6  O   UNL     1      -7.134   8.206  67.379  1.00  0.00    -0.079 OA 
ENDROOT
BRANCH   2   7
HETATM    7  C   UNL     1      -7.996   6.254  69.574  1.00  0.00    -0.108 A  
HETATM    8  C   UNL     1      -9.321   5.780  69.592  1.00  0.00    -0.166 A  
HETATM    9  C   UNL     1     -10.210   6.149  70.601  1.00  0.00    -0.250 A  
HETATM   10  C   UNL     1      -9.785   6.979  71.644  1.00  0.00    -0.164 A  
HETATM   11  C   UNL     1      -7.575   7.054  70.644  1.00  0.00    -0.093 A  
HETATM   12  C   UNL     1      -8.445   7.380  71.679  1.00  0.00    -0.120 A  
BRANCH  10  13
HETATM   13  C   UNL     1     -10.770   7.497  72.666  1.00  0.00    -0.303 C  
HETATM   14  O   UNL     1     -10.126   7.455  73.932  1.00  0.00    -0.358 OA 
HETATM   15  H   UNL     1     -10.746   7.780  74.575  1.00  0.00     0.000 HD 
BRANCH  13  16
HETATM   16  C   UNL     1     -11.258   8.903  72.270  1.00  0.00    -0.269 C  
BRANCH  16  17
HETATM   17  C   UNL     1     -12.104   8.959  70.994  1.00  0.00    -0.278 C  
BRANCH  17  18
HETATM   18  C   UNL     1     -12.157  10.333  70.314  1.00  0.00    -0.249 C  
BRANCH  18  19
HETATM   19  N   UNL     1     -10.852  10.777  69.794  1.00  0.00    -0.250 NA 
HETATM   20  C   UNL     1     -10.447  10.086  68.566  1.00  0.00    -0.202 C  
HETATM   21  C   UNL     1     -11.210  10.527  67.312  1.00  0.00    -0.202 C  
HETATM   22  C   UNL     1     -11.194  12.058  67.057  1.00  0.00    -0.377 C  
HETATM   23  C   UNL     1      -9.862  12.584  66.372  1.00  0.00    -0.253 C  
HETATM   24  C   UNL     1     -11.587  12.736  68.395  1.00  0.00    -0.365 C  
HETATM   25  C   UNL     1      -9.880  14.123  66.248  1.00  0.00    -0.321 A  
HETATM   26  C   UNL     1      -9.547  11.899  65.012  1.00  0.00    -0.110 A  
HETATM   27  C   UNL     1     -10.795  12.235  69.605  1.00  0.00     0.272 C  
HETATM   28  O   UNL     1      -8.777  12.249  67.256  1.00  0.00    -0.172 OA 
HETATM   29  C   UNL     1      -9.307  14.931  67.254  1.00  0.00    -0.210 A  
HETATM   30  C   UNL     1     -10.537  11.324  64.191  1.00  0.00    -0.437 A  
HETATM   31  H   UNL     1      -7.979  12.563  66.846  1.00  0.00     0.000 HD 
HETATM   32  C   UNL     1     -10.203  10.629  63.023  1.00  0.00    -0.003 A  
HETATM   33  C   UNL     1      -9.370  16.324  67.201  1.00  0.00    -0.232 A  
HETATM   34  C   UNL     1      -8.874  10.518  62.629  1.00  0.00    -0.276 A  
HETATM   35  C   UNL     1      -9.990  16.950  66.125  1.00  0.00    -0.332 A  
HETATM   36  C   UNL     1     -10.551  16.181  65.111  1.00  0.00    -0.366 A  
HETATM   37  C   UNL     1      -7.879  11.126  63.388  1.00  0.00     0.583 A  
HETATM   38  C   UNL     1     -10.507  14.781  65.176  1.00  0.00    -0.443 A  
HETATM   39  C   UNL     1      -8.212  11.819  64.556  1.00  0.00     1.581 A  
ENDBRANCH  18  19
ENDBRANCH  17  18
ENDBRANCH  16  17
ENDBRANCH  13  16
ENDBRANCH  10  13
ENDBRANCH   2   7
TORSDOF 6
ENDMDL
MODEL      186
REMARK 921   NORMALIZED FREE ENERGY PREDICTED BY IDOCK:   -2.88 KCAL/MOL
REMARK 922        TOTAL FREE ENERGY PREDICTED BY IDOCK:   -6.25 KCAL/MOL
REMARK 923 INTER-LIGAND FREE ENERGY PREDICTED BY IDOCK:   -4.83 KCAL/MOL
REMARK 924 INTRA-LIGAND FREE ENERGY PREDICTED BY IDOCK:   -1.41 KCAL/MOL
REMARK 927      BINDING AFFINITY PREDICTED BY RF-SCORE:    0.00 PKD
ROOT
HETATM    1  C   UNL     1      -7.779   2.607  67.479  1.00  0.00    -0.061 C  
HETATM    2  C   UNL     1      -7.209   3.544  68.569  1.00  0.00    -0.050 C  
HETATM    3  C   UNL     1      -6.644   4.795  67.867  1.00  0.00    -0.046 C  
HETATM    4  O   UNL     1      -6.692   5.002  66.661  1.00  0.00    -0.054 OA 
HETATM    5  C   UNL     1      -6.027   2.845  69.269  1.00  0.00    -0.024 C  
HETATM    6  O   UNL     1      -6.064   5.696  68.700  1.00  0.00    -0.022 OA 
ENDROOT
BRANCH   2   7
HETATM    7  C   UNL     1      -8.338   3.839  69.567  1.00  0.00    -0.079 A  
HETATM    8  C   UNL     1      -9.502   4.503  69.136  1.00  0.00    -0.233 A  
HETATM    9  C   UNL     1     -10.474   4.924  70.043  1.00  0.00    -0.119 A  
HETATM   10  C   UNL     1     -10.325   4.660  71.409  1.00  0.00    -0.160 A  
HETATM   11  C   UNL     1      -8.220   3.550  70.932  1.00  0.00    -0.080 A  
HETATM   12  C   UNL     1      -9.214   3.922  71.831  1.00  0.00    -0.178 A  
BRANCH  10  13
HETATM   13  C   UNL     1     -11.298   5.229  72.414  1.00  0.00    -0.124 C  
HETATM   14  O   UNL     1     -11.471   4.254  73.433  1.00  0.00    -0.280 OA 
HETATM   15  H   UNL     1     -12.084   4.611  74.065  1.00  0.00     0.000 HD 
BRANCH  13  16
HETATM   16  C   UNL     1     -10.790   6.585  72.940  1.00  0.00    -0.288 C  
BRANCH  16  17
HETATM   17  C   UNL     1     -11.600   7.800  72.482  1.00  0.00    -0.422 C  
BRANCH  17  18
HETATM   18  C   UNL     1     -10.775   8.918  71.829  1.00  0.00    -0.362 C  
BRANCH  18  19
HETATM   19  N   UNL     1     -10.820   8.892  70.357  1.00  0.00    -0.230 NA 
HETATM   20  C   UNL     1     -11.579  10.004  69.777  1.00  0.00    -0.134 C  
HETATM   21  C   UNL     1     -10.860  11.357  69.831  1.00  0.00     0.090 C  
HETATM   22  C   UNL     1      -9.434  11.349  69.222  1.00  0.00     0.258 C  
HETATM   23  C   UNL     1      -9.408  11.455  67.638  1.00  0.00    -0.159 C  
HETATM   24  C   UNL     1      -8.694  10.134  69.837  1.00  0.00    -0.091 C  
HETATM   25  C   UNL     1      -7.964  11.336  67.103  1.00  0.00    -0.151 A  
HETATM   26  C   UNL     1     -10.126  12.719  67.085  1.00  0.00    -0.234 A  
HETATM   27  C   UNL     1      -9.478   8.821  69.759  1.00  0.00    -0.167 C  
HETATM   28  O   UNL     1     -10.135  10.321  67.131  1.00  0.00    -0.191 OA 
HETATM   29  C   UNL     1      -7.444  10.083  66.713  1.00  0.00    -0.096 A  
HETATM   30  C   UNL     1     -10.283  13.904  67.830  1.00  0.00    -0.237 A  
HETATM   31  H   UNL     1     -10.120  10.384  66.183  1.00  0.00     0.000 HD 
HETATM   32  C   UNL     1     -11.022  14.984  67.335  1.00  0.00    -0.315 A  
HETATM   33  C   UNL     1      -6.121   9.936  66.292  1.00  0.00    -0.066 A  
HETATM   34  C   UNL     1     -11.596  14.920  66.069  1.00  0.00    -0.226 A  
HETATM   35  C   UNL     1      -5.286  11.046  66.228  1.00  0.00    -0.126 A  
HETATM   36  C   UNL     1      -5.775  12.297  66.592  1.00  0.00     0.441 A  
HETATM   37  C   UNL     1     -11.409  13.786  65.287  1.00  0.00    -0.310 A  
HETATM   38  C   UNL     1      -7.097  12.440  67.036  1.00  0.00    -0.012 A  
HETATM   39  C   UNL     1     -10.671  12.705  65.781  1.00  0.00    -0.295 A  
ENDBRANCH  18  19
ENDBRANCH  17  18
ENDBRANCH  16  17
ENDBRANCH  13  16
ENDBRANCH  10  13
ENDBRANCH   2   7
TORSDOF 6
ENDMDL
MODEL      187
REMARK 921   NORMALIZED FREE ENERGY PREDICTED BY IDOCK:   -2.79 KCAL/MOL
REMARK 922        TOTAL FREE ENERGY PREDICTED BY IDOCK:   -6.13 KCAL/MOL
REMARK 923 INTER-LIGAND FREE ENERGY PREDICTED BY IDOCK:   -6.44 KCAL/MOL
REMARK 924 INTRA-LIGAND FREE ENERGY PREDICTED BY IDOCK:    0.31 KCAL/MOL
REMARK 927      BINDING AFFINITY PREDICTED BY RF-SCORE:    0.00 PKD
ROOT
HETATM    1  C   UNL     1     -10.276  17.509  68.849  1.00  0.00    -0.353 C  
HETATM    2  C   UNL     1     -10.298  16.452  67.721  1.00  0.00    -0.287 C  
HETATM    3  C   UNL     1     -10.002  17.176  66.392  1.00  0.00    -0.306 C  
HETATM    4  O   UNL     1      -9.755  18.371  66.286  1.00  0.00    -0.366 OA 
HETATM    5  C   UNL     1     -11.717  15.861  67.609  1.00  0.00     0.153 C  
HETATM    6  O   UNL     1     -10.034  16.377  65.295  1.00  0.00    -0.519 OA 
ENDROOT
BRANCH   2   7
HETATM    7  C   UNL     1      -9.278  15.362  68.082  1.00  0.00    -0.186 A  
HETATM    8  C   UNL     1      -7.979  15.720  68.488  1.00  0.00    -0.141 A  
HETATM    9  C   UNL     1      -6.986  14.759  68.671  1.00  0.00    -0.110 A  
HETATM   10  C   UNL     1      -7.276  13.403  68.488  1.00  0.00    -0.110 A  
HETATM   11  C   UNL     1      -9.564  13.998  67.937  1.00  0.00    -0.221 A  
HETATM   12  C   UNL     1      -8.588  13.034  68.172  1.00  0.00    -0.188 A  
BRANCH  10  13
HETATM   13  C   UNL     1      -6.180  12.365  68.549  1.00  0.00    -0.062 C  
HETATM   14  O   UNL     1      -5.175  12.864  69.423  1.00  0.00    -0.073 OA 
HETATM   15  H   UNL     1      -4.485  12.211  69.461  1.00  0.00     0.000 HD 
BRANCH  13  16
HETATM   16  C   UNL     1      -6.757  11.006  68.988  1.00  0.00    -0.074 C  
BRANCH  16  17
HETATM   17  C   UNL     1      -6.529   9.858  68.001  1.00  0.00    -0.056 C  
BRANCH  17  18
HETATM   18  C   UNL     1      -7.329   9.961  66.695  1.00  0.00    -0.099 C  
BRANCH  18  19
HETATM   19  N   UNL     1      -8.351   8.910  66.553  1.00  0.00    -0.113 NA 
HETATM   20  C   UNL     1      -7.788   7.572  66.349  1.00  0.00    -0.098 C  
HETATM   21  C   UNL     1      -7.174   6.945  67.606  1.00  0.00    -0.091 C  
HETATM   22  C   UNL     1      -8.122   6.911  68.833  1.00  0.00    -0.120 C  
HETATM   23  C   UNL     1      -9.167   5.715  68.807  1.00  0.00    -0.118 C  
HETATM   24  C   UNL     1      -8.719   8.335  68.975  1.00  0.00    -0.143 C  
HETATM   25  C   UNL     1     -10.138   5.810  70.004  1.00  0.00    -0.279 A  
HETATM   26  C   UNL     1      -8.506   4.311  68.710  1.00  0.00    -0.096 A  
HETATM   27  C   UNL     1      -9.299   8.901  67.677  1.00  0.00    -0.136 C  
HETATM   28  O   UNL     1      -9.956   5.875  67.615  1.00  0.00    -0.121 OA 
HETATM   29  C   UNL     1     -11.376   6.476  69.872  1.00  0.00    -0.469 A  
HETATM   30  C   UNL     1      -7.196   4.043  69.155  1.00  0.00    -0.054 A  
HETATM   31  H   UNL     1     -10.581   5.160  67.599  1.00  0.00     0.000 HD 
HETATM   32  C   UNL     1      -6.601   2.791  68.960  1.00  0.00    -0.033 A  
HETATM   33  C   UNL     1     -12.242   6.636  70.955  1.00  0.00    -0.324 A  
HETATM   34  C   UNL     1      -7.311   1.766  68.343  1.00  0.00    -0.043 A  
HETATM   35  C   UNL     1     -11.904   6.112  72.198  1.00  0.00    -0.339 A  
HETATM   36  C   UNL     1     -10.697   5.438  72.354  1.00  0.00    -0.286 A  
HETATM   37  C   UNL     1      -8.625   1.983  67.946  1.00  0.00    -0.106 A  
HETATM   38  C   UNL     1      -9.817   5.297  71.272  1.00  0.00    -0.232 A  
HETATM   39  C   UNL     1      -9.221   3.234  68.140  1.00  0.00    -0.243 A  
ENDBRANCH  18  19
ENDBRANCH  17  18
ENDBRANCH  16  17
ENDBRANCH  13  16
ENDBRANCH  10  13
ENDBRANCH   2   7
TORSDOF 6
ENDMDL
MODEL      188
REMARK 921   NORMALIZED FREE ENERGY PREDICTED BY IDOCK:   -2.79 KCAL/MOL
REMARK 922        TOTAL FREE ENERGY PREDICTED BY IDOCK:   -6.12 KCAL/MOL
REMARK 923 INTER-LIGAND FREE ENERGY PREDICTED BY IDOCK:   -5.40 KCAL/MOL
REMARK 924 INTRA-LIGAND FREE ENERGY PREDICTED BY IDOCK:   -0.73 KCAL/MOL
REMARK 927      BINDING AFFINITY PREDICTED BY RF-SCORE:    0.00 PKD
ROOT
HETATM    1  C   UNL     1      -6.848   4.086  65.864  1.00  0.00    -0.054 C  
HETATM    2  C   UNL     1      -8.179   3.959  66.640  1.00  0.00    -0.100 C  
HETATM    3  C   UNL     1      -7.893   3.180  67.940  1.00  0.00    -0.067 C  
HETATM    4  O   UNL     1      -6.788   2.783  68.289  1.00  0.00    -0.046 OA 
HETATM    5  C   UNL     1      -9.167   3.113  65.814  1.00  0.00    -0.138 C  
HETATM    6  O   UNL     1      -8.986   2.948  68.711  1.00  0.00    -0.103 OA 
ENDROOT
BRANCH   2   7
HETATM    7  C   UNL     1      -8.726   5.376  66.865  1.00  0.00    -0.112 A  
HETATM    8  C   UNL     1     -10.111   5.617  66.782  1.00  0.00    -0.235 A  
HETATM    9  C   UNL     1     -10.624   6.912  66.825  1.00  0.00    -0.304 A  
HETATM   10  C   UNL     1      -9.767   8.005  66.990  1.00  0.00    -0.275 A  
HETATM   11  C   UNL     1      -7.883   6.476  67.066  1.00  0.00    -0.108 A  
HETATM   12  C   UNL     1      -8.400   7.764  67.163  1.00  0.00    -0.118 A  
BRANCH  10  13
HETATM   13  C   UNL     1     -10.294   9.418  66.902  1.00  0.00    -0.238 C  
HETATM   14  O   UNL     1     -11.638   9.397  67.362  1.00  0.00     0.109 OA 
HETATM   15  H   UNL     1     -11.970  10.286  67.306  1.00  0.00     0.000 HD 
BRANCH  13  16
HETATM   16  C   UNL     1      -9.386  10.375  67.698  1.00  0.00    -0.161 C  
BRANCH  16  17
HETATM   17  C   UNL     1      -9.741  10.519  69.180  1.00  0.00    -0.226 C  
BRANCH  17  18
HETATM   18  C   UNL     1     -11.057   9.848  69.597  1.00  0.00    -0.241 C  
BRANCH  18  19
HETATM   19  N   UNL     1     -11.061   9.390  70.996  1.00  0.00    -0.313 NA 
HETATM   20  C   UNL     1     -11.651   8.060  71.174  1.00  0.00    -0.282 C  
HETATM   21  C   UNL     1     -10.765   6.905  70.693  1.00  0.00    -0.267 C  
HETATM   22  C   UNL     1      -9.334   6.904  71.290  1.00  0.00    -0.164 C  
HETATM   23  C   UNL     1      -9.247   6.296  72.755  1.00  0.00    -0.137 C  
HETATM   24  C   UNL     1      -8.777   8.340  71.114  1.00  0.00    -0.176 C  
HETATM   25  C   UNL     1      -7.814   6.426  73.318  1.00  0.00    -0.097 A  
HETATM   26  C   UNL     1      -9.777   4.838  72.858  1.00  0.00    -0.167 A  
HETATM   27  C   UNL     1      -9.722   9.441  71.602  1.00  0.00     0.189 C  
HETATM   28  O   UNL     1     -10.099   7.098  73.592  1.00  0.00    -0.282 OA 
HETATM   29  C   UNL     1      -7.450   7.542  74.101  1.00  0.00    -0.151 A  
HETATM   30  C   UNL     1      -9.802   3.948  71.766  1.00  0.00    -0.249 A  
HETATM   31  H   UNL     1     -10.047   6.734  74.468  1.00  0.00     0.000 HD 
HETATM   32  C   UNL     1     -10.379   2.677  71.874  1.00  0.00     0.069 A  
HETATM   33  C   UNL     1      -6.145   7.719  74.565  1.00  0.00    -0.090 A  
HETATM   34  C   UNL     1     -10.918   2.252  73.083  1.00  0.00    -0.243 A  
HETATM   35  C   UNL     1      -5.172   6.769  74.276  1.00  0.00    -0.046 A  
HETATM   36  C   UNL     1      -5.505   5.650  73.519  1.00  0.00    -0.024 A  
HETATM   37  C   UNL     1     -10.856   3.087  74.194  1.00  0.00    -0.216 A  
HETATM   38  C   UNL     1      -6.810   5.485  73.035  1.00  0.00    -0.079 A  
HETATM   39  C   UNL     1     -10.280   4.357  74.087  1.00  0.00    -0.257 A  
ENDBRANCH  18  19
ENDBRANCH  17  18
ENDBRANCH  16  17
ENDBRANCH  13  16
ENDBRANCH  10  13
ENDBRANCH   2   7
TORSDOF 6
ENDMDL
MODEL      189
REMARK 921   NORMALIZED FREE ENERGY PREDICTED BY IDOCK:   -2.71 KCAL/MOL
REMARK 922        TOTAL FREE ENERGY PREDICTED BY IDOCK:   -6.02 KCAL/MOL
REMARK 923 INTER-LIGAND FREE ENERGY PREDICTED BY IDOCK:   -6.08 KCAL/MOL
REMARK 924 INTRA-LIGAND FREE ENERGY PREDICTED BY IDOCK:    0.07 KCAL/MOL
REMARK 927      BINDING AFFINITY PREDICTED BY RF-SCORE:    0.00 PKD
ROOT
HETATM    1  C   UNL     1      -6.473   5.832  73.388  1.00  0.00    -0.072 C  
HETATM    2  C   UNL     1      -7.424   5.063  72.440  1.00  0.00    -0.094 C  
HETATM    3  C   UNL     1      -8.845   5.141  73.035  1.00  0.00    -0.120 C  
HETATM    4  O   UNL     1      -9.144   5.747  74.056  1.00  0.00    -0.125 OA 
HETATM    5  C   UNL     1      -7.022   3.576  72.418  1.00  0.00    -0.042 C  
HETATM    6  O   UNL     1      -9.788   4.467  72.330  1.00  0.00    -0.157 OA 
ENDROOT
BRANCH   2   7
HETATM    7  C   UNL     1      -7.294   5.686  71.042  1.00  0.00    -0.085 A  
HETATM    8  C   UNL     1      -8.034   5.161  69.966  1.00  0.00    -0.082 A  
HETATM    9  C   UNL     1      -7.823   5.598  68.660  1.00  0.00    -0.096 A  
HETATM   10  C   UNL     1      -6.887   6.604  68.396  1.00  0.00    -0.074 A  
HETATM   11  C   UNL     1      -6.387   6.718  70.769  1.00  0.00    -0.043 A  
HETATM   12  C   UNL     1      -6.214   7.193  69.472  1.00  0.00    -0.035 A  
BRANCH  10  13
HETATM   13  C   UNL     1      -6.551   6.991  66.975  1.00  0.00    -0.055 C  
HETATM   14  O   UNL     1      -5.687   5.988  66.457  1.00  0.00    -0.012 OA 
HETATM   15  H   UNL     1      -5.475   6.232  65.563  1.00  0.00     0.000 HD 
BRANCH  13  16
HETATM   16  C   UNL     1      -7.842   7.174  66.154  1.00  0.00    -0.105 C  
BRANCH  16  17
HETATM   17  C   UNL     1      -9.078   7.558  66.972  1.00  0.00    -0.156 C  
BRANCH  17  18
HETATM   18  C   UNL     1      -9.023   8.954  67.608  1.00  0.00    -0.134 C  
BRANCH  18  19
HETATM   19  N   UNL     1     -10.327   9.637  67.629  1.00  0.00    -0.221 NA 
HETATM   20  C   UNL     1     -10.594  10.349  68.883  1.00  0.00    -0.216 C  
HETATM   21  C   UNL     1      -9.798  11.647  69.055  1.00  0.00     0.032 C  
HETATM   22  C   UNL     1      -9.932  12.643  67.873  1.00  0.00    -0.228 C  
HETATM   23  C   UNL     1     -11.261  13.511  67.910  1.00  0.00    -0.274 C  
HETATM   24  C   UNL     1      -9.683  11.831  66.576  1.00  0.00    -0.224 C  
HETATM   25  C   UNL     1     -11.371  14.399  66.650  1.00  0.00    -0.359 A  
HETATM   26  C   UNL     1     -11.431  14.339  69.215  1.00  0.00    -0.330 A  
HETATM   27  C   UNL     1     -10.501  10.541  66.481  1.00  0.00    -0.212 C  
HETATM   28  O   UNL     1     -12.365  12.589  67.867  1.00  0.00    -0.245 OA 
HETATM   29  C   UNL     1     -12.073  13.946  65.513  1.00  0.00    -0.425 A  
HETATM   30  C   UNL     1     -10.346  14.746  70.016  1.00  0.00     0.080 A  
HETATM   31  H   UNL     1     -13.160  13.108  67.889  1.00  0.00     0.000 HD 
HETATM   32  C   UNL     1     -10.546  15.403  71.236  1.00  0.00     0.258 A  
HETATM   33  C   UNL     1     -12.130  14.698  64.338  1.00  0.00    -0.481 A  
HETATM   34  C   UNL     1     -11.834  15.697  71.671  1.00  0.00    -0.504 A  
HETATM   35  C   UNL     1     -11.503  15.938  64.276  1.00  0.00    -0.197 A  
HETATM   36  C   UNL     1     -10.815  16.417  65.387  1.00  0.00    -0.249 A  
HETATM   37  C   UNL     1     -12.922  15.359  70.874  1.00  0.00    -0.539 A  
HETATM   38  C   UNL     1     -10.740  15.651  66.559  1.00  0.00    -0.293 A  
HETATM   39  C   UNL     1     -12.724  14.702  69.655  1.00  0.00     0.033 A  
ENDBRANCH  18  19
ENDBRANCH  17  18
ENDBRANCH  16  17
ENDBRANCH  13  16
ENDBRANCH  10  13
ENDBRANCH   2   7
TORSDOF 6
ENDMDL
MODEL      190
REMARK 921   NORMALIZED FREE ENERGY PREDICTED BY IDOCK:   -2.71 KCAL/MOL
REMARK 922        TOTAL FREE ENERGY PREDICTED BY IDOCK:   -6.01 KCAL/MOL
REMARK 923 INTER-LIGAND FREE ENERGY PREDICTED BY IDOCK:   -4.80 KCAL/MOL
REMARK 924 INTRA-LIGAND FREE ENERGY PREDICTED BY IDOCK:   -1.21 KCAL/MOL
REMARK 927      BINDING AFFINITY PREDICTED BY RF-SCORE:    0.00 PKD
ROOT
HETATM    1  C   UNL     1      -8.126   5.610  71.536  1.00  0.00    -0.118 C  
HETATM    2  C   UNL     1      -8.388   4.208  70.937  1.00  0.00    -0.092 C  
HETATM    3  C   UNL     1      -9.886   3.891  71.119  1.00  0.00    -0.153 C  
HETATM    4  O   UNL     1     -10.707   4.651  71.615  1.00  0.00    -0.048 OA 
HETATM    5  C   UNL     1      -7.600   3.158  71.745  1.00  0.00    -0.052 C  
HETATM    6  O   UNL     1     -10.259   2.662  70.678  1.00  0.00     0.366 OA 
ENDROOT
BRANCH   2   7
HETATM    7  C   UNL     1      -7.924   4.232  69.473  1.00  0.00    -0.056 A  
HETATM    8  C   UNL     1      -6.637   4.702  69.150  1.00  0.00    -0.044 A  
HETATM    9  C   UNL     1      -6.243   4.883  67.825  1.00  0.00    -0.035 A  
HETATM   10  C   UNL     1      -7.118   4.565  66.780  1.00  0.00    -0.074 A  
HETATM   11  C   UNL     1      -8.775   3.883  68.417  1.00  0.00    -0.129 A  
HETATM   12  C   UNL     1      -8.364   4.013  67.094  1.00  0.00    -0.099 A  
BRANCH  10  13
HETATM   13  C   UNL     1      -6.756   4.884  65.349  1.00  0.00    -0.052 C  
HETATM   14  O   UNL     1      -7.859   4.501  64.539  1.00  0.00    -0.085 OA 
HETATM   15  H   UNL     1      -7.632   4.701  63.638  1.00  0.00     0.000 HD 
BRANCH  13  16
HETATM   16  C   UNL     1      -6.381   6.372  65.214  1.00  0.00    -0.038 C  
BRANCH  16  17
HETATM   17  C   UNL     1      -7.555   7.310  64.923  1.00  0.00    -0.102 C  
BRANCH  17  18
HETATM   18  C   UNL     1      -7.881   8.303  66.047  1.00  0.00    -0.095 C  
BRANCH  18  19
HETATM   19  N   UNL     1      -9.314   8.632  66.137  1.00  0.00    -0.216 NA 
HETATM   20  C   UNL     1      -9.968   8.073  67.325  1.00  0.00    -0.217 C  
HETATM   21  C   UNL     1      -9.619   8.789  68.634  1.00  0.00    -0.159 C  
HETATM   22  C   UNL     1      -9.850  10.323  68.607  1.00  0.00    -0.180 C  
HETATM   23  C   UNL     1     -11.362  10.752  68.833  1.00  0.00    -0.284 C  
HETATM   24  C   UNL     1      -9.176  10.852  67.315  1.00  0.00    -0.160 C  
HETATM   25  C   UNL     1     -11.525  12.281  68.689  1.00  0.00    -0.355 A  
HETATM   26  C   UNL     1     -11.966  10.230  70.168  1.00  0.00    -0.313 A  
HETATM   27  C   UNL     1      -9.560  10.079  66.050  1.00  0.00    -0.222 C  
HETATM   28  O   UNL     1     -12.130  10.149  67.777  1.00  0.00     0.084 OA 
HETATM   29  C   UNL     1     -11.880  12.851  67.447  1.00  0.00    -0.418 A  
HETATM   30  C   UNL     1     -11.184   9.920  71.298  1.00  0.00    -0.356 A  
HETATM   31  H   UNL     1     -13.035  10.405  67.912  1.00  0.00     0.000 HD 
HETATM   32  C   UNL     1     -11.753   9.359  72.447  1.00  0.00     0.283 A  
HETATM   33  C   UNL     1     -11.967  14.233  67.272  1.00  0.00    -0.439 A  
HETATM   34  C   UNL     1     -13.123   9.123  72.507  1.00  0.00    -0.445 A  
HETATM   35  C   UNL     1     -11.724  15.085  68.343  1.00  0.00    -0.341 A  
HETATM   36  C   UNL     1     -11.387  14.552  69.583  1.00  0.00    -0.314 A  
HETATM   37  C   UNL     1     -13.928   9.473  71.429  1.00  0.00    -0.129 A  
HETATM   38  C   UNL     1     -11.278  13.165  69.753  1.00  0.00    -0.017 A  
HETATM   39  C   UNL     1     -13.360  10.033  70.280  1.00  0.00     0.306 A  
ENDBRANCH  18  19
ENDBRANCH  17  18
ENDBRANCH  16  17
ENDBRANCH  13  16
ENDBRANCH  10  13
ENDBRANCH   2   7
TORSDOF 6
ENDMDL
MODEL      191
REMARK 921   NORMALIZED FREE ENERGY PREDICTED BY IDOCK:   -2.70 KCAL/MOL
REMARK 922        TOTAL FREE ENERGY PREDICTED BY IDOCK:   -6.00 KCAL/MOL
REMARK 923 INTER-LIGAND FREE ENERGY PREDICTED BY IDOCK:   -5.64 KCAL/MOL
REMARK 924 INTRA-LIGAND FREE ENERGY PREDICTED BY IDOCK:   -0.37 KCAL/MOL
REMARK 927      BINDING AFFINITY PREDICTED BY RF-SCORE:    0.00 PKD
ROOT
HETATM    1  C   UNL     1     -13.260  15.997  71.299  1.00  0.00     0.304 C  
HETATM    2  C   UNL     1     -12.388  14.721  71.354  1.00  0.00    -0.398 C  
HETATM    3  C   UNL     1     -13.232  13.601  71.997  1.00  0.00    -0.434 C  
HETATM    4  O   UNL     1     -14.398  13.720  72.351  1.00  0.00    -0.664 OA 
HETATM    5  C   UNL     1     -11.185  14.971  72.283  1.00  0.00    -0.001 C  
HETATM    6  O   UNL     1     -12.578  12.423  72.156  1.00  0.00     0.016 OA 
ENDROOT
BRANCH   2   7
HETATM    7  C   UNL     1     -11.921  14.412  69.924  1.00  0.00    -0.391 A  
HETATM    8  C   UNL     1     -12.276  15.271  68.867  1.00  0.00    -0.132 A  
HETATM    9  C   UNL     1     -12.002  14.940  67.541  1.00  0.00    -0.158 A  
HETATM   10  C   UNL     1     -11.330  13.751  67.237  1.00  0.00    -0.343 A  
HETATM   11  C   UNL     1     -11.216  13.244  69.608  1.00  0.00    -0.100 A  
HETATM   12  C   UNL     1     -10.896  12.938  68.289  1.00  0.00    -0.263 A  
BRANCH  10  13
HETATM   13  C   UNL     1     -11.149  13.314  65.802  1.00  0.00    -0.279 C  
HETATM   14  O   UNL     1     -10.107  14.105  65.248  1.00  0.00    -0.414 OA 
HETATM   15  H   UNL     1      -9.993  13.831  64.345  1.00  0.00     0.000 HD 
BRANCH  13  16
HETATM   16  C   UNL     1     -10.873  11.800  65.737  1.00  0.00    -0.341 C  
BRANCH  16  17
HETATM   17  C   UNL     1      -9.396  11.408  65.829  1.00  0.00    -0.247 C  
BRANCH  17  18
HETATM   18  C   UNL     1      -8.986  10.222  64.946  1.00  0.00    -0.201 C  
BRANCH  18  19
HETATM   19  N   UNL     1      -7.829   9.477  65.470  1.00  0.00    -0.106 NA 
HETATM   20  C   UNL     1      -8.108   8.774  66.727  1.00  0.00    -0.104 C  
HETATM   21  C   UNL     1      -8.974   7.519  66.572  1.00  0.00    -0.189 C  
HETATM   22  C   UNL     1      -8.441   6.498  65.532  1.00  0.00    -0.139 C  
HETATM   23  C   UNL     1      -7.277   5.568  66.080  1.00  0.00    -0.077 C  
HETATM   24  C   UNL     1      -8.125   7.299  64.243  1.00  0.00    -0.049 C  
HETATM   25  C   UNL     1      -6.732   4.654  64.960  1.00  0.00    -0.045 A  
HETATM   26  C   UNL     1      -7.671   4.755  67.347  1.00  0.00    -0.090 A  
HETATM   27  C   UNL     1      -7.269   8.547  64.478  1.00  0.00    -0.086 C  
HETATM   28  O   UNL     1      -6.199   6.435  66.474  1.00  0.00    -0.034 OA 
HETATM   29  C   UNL     1      -5.620   5.053  64.187  1.00  0.00    -0.017 A  
HETATM   30  C   UNL     1      -9.001   4.415  67.661  1.00  0.00    -0.134 A  
HETATM   31  H   UNL     1      -5.502   5.878  66.802  1.00  0.00     0.000 HD 
HETATM   32  C   UNL     1      -9.326   3.769  68.859  1.00  0.00    -0.234 A  
HETATM   33  C   UNL     1      -5.150   4.279  63.124  1.00  0.00    -0.005 A  
HETATM   34  C   UNL     1      -8.325   3.421  69.761  1.00  0.00    -0.081 A  
HETATM   35  C   UNL     1      -5.766   3.071  62.820  1.00  0.00    -0.009 A  
HETATM   36  C   UNL     1      -6.855   2.644  63.574  1.00  0.00    -0.032 A  
HETATM   37  C   UNL     1      -6.997   3.692  69.451  1.00  0.00    -0.042 A  
HETATM   38  C   UNL     1      -7.341   3.433  64.627  1.00  0.00    -0.071 A  
HETATM   39  C   UNL     1      -6.672   4.337  68.254  1.00  0.00    -0.047 A  
ENDBRANCH  18  19
ENDBRANCH  17  18
ENDBRANCH  16  17
ENDBRANCH  13  16
ENDBRANCH  10  13
ENDBRANCH   2   7
TORSDOF 6
ENDMDL
MODEL      192
REMARK 921   NORMALIZED FREE ENERGY PREDICTED BY IDOCK:   -2.68 KCAL/MOL
REMARK 922        TOTAL FREE ENERGY PREDICTED BY IDOCK:   -5.97 KCAL/MOL
REMARK 923 INTER-LIGAND FREE ENERGY PREDICTED BY IDOCK:   -5.06 KCAL/MOL
REMARK 924 INTRA-LIGAND FREE ENERGY PREDICTED BY IDOCK:   -0.91 KCAL/MOL
REMARK 927      BINDING AFFINITY PREDICTED BY RF-SCORE:    0.00 PKD
ROOT
HETATM    1  C   UNL     1     -12.160  12.750  67.792  1.00  0.00    -0.191 C  
HETATM    2  C   UNL     1     -11.349  13.274  66.585  1.00  0.00    -0.353 C  
HETATM    3  C   UNL     1     -12.320  14.034  65.659  1.00  0.00    -0.479 C  
HETATM    4  O   UNL     1     -13.509  14.212  65.888  1.00  0.00    -0.252 OA 
HETATM    5  C   UNL     1     -10.804  12.075  65.784  1.00  0.00    -0.329 C  
HETATM    6  O   UNL     1     -11.754  14.517  64.523  1.00  0.00    -0.411 OA 
ENDROOT
BRANCH   2   7
HETATM    7  C   UNL     1     -10.200  14.134  67.132  1.00  0.00    -0.258 A  
HETATM    8  C   UNL     1      -9.137  14.508  66.288  1.00  0.00    -0.164 A  
HETATM    9  C   UNL     1      -8.007  15.153  66.788  1.00  0.00    -0.047 A  
HETATM   10  C   UNL     1      -7.923  15.475  68.147  1.00  0.00    -0.132 A  
HETATM   11  C   UNL     1     -10.118  14.495  68.482  1.00  0.00    -0.242 A  
HETATM   12  C   UNL     1      -9.015  15.185  68.973  1.00  0.00    -0.219 A  
BRANCH  10  13
HETATM   13  C   UNL     1      -6.651  16.048  68.726  1.00  0.00    -0.126 C  
HETATM   14  O   UNL     1      -7.027  17.004  69.708  1.00  0.00    -0.039 OA 
HETATM   15  H   UNL     1      -6.227  17.365  70.072  1.00  0.00     0.000 HD 
BRANCH  13  16
HETATM   16  C   UNL     1      -5.761  14.918  69.276  1.00  0.00    -0.097 C  
BRANCH  16  17
HETATM   17  C   UNL     1      -6.285  13.501  69.025  1.00  0.00    -0.095 C  
BRANCH  17  18
HETATM   18  C   UNL     1      -6.169  12.548  70.222  1.00  0.00     0.021 C  
BRANCH  18  19
HETATM   19  N   UNL     1      -5.892  11.155  69.834  1.00  0.00    -0.084 NA 
HETATM   20  C   UNL     1      -5.793  10.239  70.975  1.00  0.00    -0.044 C  
HETATM   21  C   UNL     1      -7.136   9.896  71.629  1.00  0.00     1.051 C  
HETATM   22  C   UNL     1      -8.209   9.360  70.645  1.00  0.00    -0.207 C  
HETATM   23  C   UNL     1      -8.046   7.821  70.289  1.00  0.00    -0.113 C  
HETATM   24  C   UNL     1      -8.241  10.339  69.444  1.00  0.00    -0.171 C  
HETATM   25  C   UNL     1      -9.084   7.391  69.229  1.00  0.00    -0.135 A  
HETATM   26  C   UNL     1      -8.068   6.886  71.531  1.00  0.00    -0.109 A  
HETATM   27  C   UNL     1      -6.863  10.647  68.853  1.00  0.00    -0.066 C  
HETATM   28  O   UNL     1      -6.747   7.667  69.688  1.00  0.00    -0.038 OA 
HETATM   29  C   UNL     1      -8.760   7.419  67.855  1.00  0.00    -0.123 A  
HETATM   30  C   UNL     1      -8.705   7.226  72.740  1.00  0.00    -0.148 A  
HETATM   31  H   UNL     1      -6.649   6.746  69.474  1.00  0.00     0.000 HD 
HETATM   32  C   UNL     1      -8.619   6.402  73.868  1.00  0.00    -0.131 A  
HETATM   33  C   UNL     1      -9.700   7.102  66.873  1.00  0.00    -0.242 A  
HETATM   34  C   UNL     1      -7.918   5.202  73.807  1.00  0.00    -0.105 A  
HETATM   35  C   UNL     1     -10.987   6.723  67.241  1.00  0.00    -0.433 A  
HETATM   36  C   UNL     1     -11.330   6.672  68.588  1.00  0.00    -0.148 A  
HETATM   37  C   UNL     1      -7.327   4.812  72.610  1.00  0.00    -0.084 A  
HETATM   38  C   UNL     1     -10.392   7.012  69.573  1.00  0.00    -0.225 A  
HETATM   39  C   UNL     1      -7.413   5.635  71.483  1.00  0.00    -0.096 A  
ENDBRANCH  18  19
ENDBRANCH  17  18
ENDBRANCH  16  17
ENDBRANCH  13  16
ENDBRANCH  10  13
ENDBRANCH   2   7
TORSDOF 6
ENDMDL
MODEL      193
REMARK 921   NORMALIZED FREE ENERGY PREDICTED BY IDOCK:   -2.61 KCAL/MOL
REMARK 922        TOTAL FREE ENERGY PREDICTED BY IDOCK:   -5.88 KCAL/MOL
REMARK 923 INTER-LIGAND FREE ENERGY PREDICTED BY IDOCK:   -4.36 KCAL/MOL
REMARK 924 INTRA-LIGAND FREE ENERGY PREDICTED BY IDOCK:   -1.52 KCAL/MOL
REMARK 927      BINDING AFFINITY PREDICTED BY RF-SCORE:    0.00 PKD
ROOT
HETATM    1  C   UNL     1     -11.500  14.433  70.018  1.00  0.00    -0.295 C  
HETATM    2  C   UNL     1     -11.401  14.137  68.504  1.00  0.00    -0.312 C  
HETATM    3  C   UNL     1     -11.739  15.439  67.748  1.00  0.00    -0.146 C  
HETATM    4  O   UNL     1     -11.994  16.511  68.280  1.00  0.00     0.145 OA 
HETATM    5  C   UNL     1     -12.473  13.099  68.120  1.00  0.00     0.401 C  
HETATM    6  O   UNL     1     -11.738  15.321  66.395  1.00  0.00    -0.108 OA 
ENDROOT
BRANCH   2   7
HETATM    7  C   UNL     1      -9.991  13.597  68.224  1.00  0.00    -0.236 A  
HETATM    8  C   UNL     1      -8.864  14.390  68.511  1.00  0.00    -0.182 A  
HETATM    9  C   UNL     1      -7.584  13.994  68.127  1.00  0.00    -0.141 A  
HETATM   10  C   UNL     1      -7.390  12.772  67.474  1.00  0.00    -0.153 A  
HETATM   11  C   UNL     1      -9.778  12.360  67.603  1.00  0.00    -0.195 A  
HETATM   12  C   UNL     1      -8.495  11.940  67.267  1.00  0.00    -0.172 A  
BRANCH  10  13
HETATM   13  C   UNL     1      -6.031  12.395  66.932  1.00  0.00     0.194 C  
HETATM   14  O   UNL     1      -5.129  13.433  67.293  1.00  0.00    -0.330 OA 
HETATM   15  H   UNL     1      -4.275  13.196  66.952  1.00  0.00     0.000 HD 
BRANCH  13  16
HETATM   16  C   UNL     1      -5.615  11.008  67.457  1.00  0.00    -0.045 C  
BRANCH  16  17
HETATM   17  C   UNL     1      -5.518  10.896  68.981  1.00  0.00    -0.040 C  
BRANCH  17  18
HETATM   18  C   UNL     1      -5.457   9.461  69.521  1.00  0.00    -0.034 C  
BRANCH  18  19
HETATM   19  N   UNL     1      -6.613   8.639  69.123  1.00  0.00    -0.046 NA 
HETATM   20  C   UNL     1      -6.744   7.402  69.899  1.00  0.00    -0.047 C  
HETATM   21  C   UNL     1      -7.253   7.604  71.331  1.00  0.00    -0.066 C  
HETATM   22  C   UNL     1      -8.577   8.405  71.433  1.00  0.00    -0.207 C  
HETATM   23  C   UNL     1      -9.877   7.540  71.146  1.00  0.00    -0.173 C  
HETATM   24  C   UNL     1      -8.397   9.676  70.564  1.00  0.00    -0.134 C  
HETATM   25  C   UNL     1     -11.141   8.428  71.164  1.00  0.00    -0.301 A  
HETATM   26  C   UNL     1     -10.026   6.306  72.080  1.00  0.00    -0.184 A  
HETATM   27  C   UNL     1      -7.872   9.398  69.153  1.00  0.00    -0.080 C  
HETATM   28  O   UNL     1      -9.750   7.024  69.809  1.00  0.00    -0.168 OA 
HETATM   29  C   UNL     1     -11.638   8.994  69.970  1.00  0.00     0.081 A  
HETATM   30  C   UNL     1      -9.449   6.238  73.363  1.00  0.00    -0.146 A  
HETATM   31  H   UNL     1     -10.527   6.506  69.637  1.00  0.00     0.000 HD 
HETATM   32  C   UNL     1      -9.521   5.072  74.134  1.00  0.00    -0.129 A  
HETATM   33  C   UNL     1     -12.737   9.855  69.967  1.00  0.00     0.305 A  
HETATM   34  C   UNL     1     -10.197   3.955  73.655  1.00  0.00    -0.213 A  
HETATM   35  C   UNL     1     -13.385  10.156  71.160  1.00  0.00    -0.372 A  
HETATM   36  C   UNL     1     -12.928   9.601  72.351  1.00  0.00    -0.358 A  
HETATM   37  C   UNL     1     -10.826   4.012  72.416  1.00  0.00     0.066 A  
HETATM   38  C   UNL     1     -11.810   8.754  72.356  1.00  0.00    -0.356 A  
HETATM   39  C   UNL     1     -10.754   5.177  71.645  1.00  0.00    -0.181 A  
ENDBRANCH  18  19
ENDBRANCH  17  18
ENDBRANCH  16  17
ENDBRANCH  13  16
ENDBRANCH  10  13
ENDBRANCH   2   7
TORSDOF 6
ENDMDL
MODEL      194
REMARK 921   NORMALIZED FREE ENERGY PREDICTED BY IDOCK:   -2.57 KCAL/MOL
REMARK 922        TOTAL FREE ENERGY PREDICTED BY IDOCK:   -5.83 KCAL/MOL
REMARK 923 INTER-LIGAND FREE ENERGY PREDICTED BY IDOCK:   -4.35 KCAL/MOL
REMARK 924 INTRA-LIGAND FREE ENERGY PREDICTED BY IDOCK:   -1.48 KCAL/MOL
REMARK 927      BINDING AFFINITY PREDICTED BY RF-SCORE:    0.00 PKD
ROOT
HETATM    1  C   UNL     1      -7.468   5.182  66.108  1.00  0.00    -0.086 C  
HETATM    2  C   UNL     1      -8.506   6.253  66.516  1.00  0.00    -0.121 C  
HETATM    3  C   UNL     1      -9.903   5.724  66.135  1.00  0.00    -0.046 C  
HETATM    4  O   UNL     1     -10.124   4.627  65.638  1.00  0.00    -0.207 OA 
HETATM    5  C   UNL     1      -8.264   7.531  65.690  1.00  0.00    -0.133 C  
HETATM    6  O   UNL     1     -10.921   6.584  66.394  1.00  0.00    -0.049 OA 
ENDROOT
BRANCH   2   7
HETATM    7  C   UNL     1      -8.326   6.529  68.016  1.00  0.00    -0.116 A  
HETATM    8  C   UNL     1      -8.853   5.632  68.965  1.00  0.00    -0.106 A  
HETATM    9  C   UNL     1      -8.845   5.930  70.327  1.00  0.00    -0.145 A  
HETATM   10  C   UNL     1      -8.275   7.123  70.783  1.00  0.00    -0.120 A  
HETATM   11  C   UNL     1      -7.726   7.702  68.491  1.00  0.00    -0.119 A  
HETATM   12  C   UNL     1      -7.670   7.976  69.854  1.00  0.00    -0.099 A  
BRANCH  10  13
HETATM   13  C   UNL     1      -8.381   7.521  72.237  1.00  0.00    -0.103 C  
HETATM   14  O   UNL     1      -7.448   8.570  72.457  1.00  0.00    -0.238 OA 
HETATM   15  H   UNL     1      -7.515   8.820  73.372  1.00  0.00     0.000 HD 
BRANCH  13  16
HETATM   16  C   UNL     1      -9.833   7.907  72.578  1.00  0.00    -0.299 C  
BRANCH  16  17
HETATM   17  C   UNL     1     -10.347   9.169  71.880  1.00  0.00    -0.243 C  
BRANCH  17  18
HETATM   18  C   UNL     1     -10.941   8.939  70.484  1.00  0.00    -0.241 C  
BRANCH  18  19
HETATM   19  N   UNL     1     -11.777  10.057  70.014  1.00  0.00    -0.213 NA 
HETATM   20  C   UNL     1     -11.237  11.375  70.363  1.00  0.00     0.293 C  
HETATM   21  C   UNL     1     -10.023  11.802  69.531  1.00  0.00     0.671 C  
HETATM   22  C   UNL     1     -10.242  11.737  67.997  1.00  0.00    -0.202 C  
HETATM   23  C   UNL     1     -11.024  12.986  67.404  1.00  0.00    -0.260 C  
HETATM   24  C   UNL     1     -10.849  10.344  67.692  1.00  0.00    -0.361 C  
HETATM   25  C   UNL     1     -11.293  12.798  65.895  1.00  0.00    -0.363 A  
HETATM   26  C   UNL     1     -10.340  14.350  67.703  1.00  0.00    -0.237 A  
HETATM   27  C   UNL     1     -12.049   9.980  68.571  1.00  0.00     1.252 C  
HETATM   28  O   UNL     1     -12.307  13.023  68.055  1.00  0.00    -0.116 OA 
HETATM   29  C   UNL     1     -12.504  12.227  65.447  1.00  0.00    -0.010 A  
HETATM   30  C   UNL     1      -8.960  14.483  67.948  1.00  0.00    -0.187 A  
HETATM   31  H   UNL     1     -12.775  13.770  67.700  1.00  0.00     0.000 HD 
HETATM   32  C   UNL     1      -8.398  15.712  68.312  1.00  0.00    -0.154 A  
HETATM   33  C   UNL     1     -12.744  11.982  64.094  1.00  0.00    -0.361 A  
HETATM   34  C   UNL     1      -9.198  16.846  68.409  1.00  0.00    -0.253 A  
HETATM   35  C   UNL     1     -11.786  12.325  63.146  1.00  0.00    -0.328 A  
HETATM   36  C   UNL     1     -10.589  12.903  63.556  1.00  0.00    -0.028 A  
HETATM   37  C   UNL     1     -10.554  16.758  68.116  1.00  0.00    -0.350 A  
HETATM   38  C   UNL     1     -10.339  13.128  64.917  1.00  0.00    -0.352 A  
HETATM   39  C   UNL     1     -11.116  15.530  67.754  1.00  0.00    -0.315 A  
ENDBRANCH  18  19
ENDBRANCH  17  18
ENDBRANCH  16  17
ENDBRANCH  13  16
ENDBRANCH  10  13
ENDBRANCH   2   7
TORSDOF 6
ENDMDL
MODEL      195
REMARK 921   NORMALIZED FREE ENERGY PREDICTED BY IDOCK:   -2.47 KCAL/MOL
REMARK 922        TOTAL FREE ENERGY PREDICTED BY IDOCK:   -5.70 KCAL/MOL
REMARK 923 INTER-LIGAND FREE ENERGY PREDICTED BY IDOCK:   -5.56 KCAL/MOL
REMARK 924 INTRA-LIGAND FREE ENERGY PREDICTED BY IDOCK:   -0.14 KCAL/MOL
REMARK 927      BINDING AFFINITY PREDICTED BY RF-SCORE:    0.00 PKD
ROOT
HETATM    1  C   UNL     1      -7.444   3.089  68.884  1.00  0.00    -0.048 C  
HETATM    2  C   UNL     1      -8.020   4.499  68.617  1.00  0.00    -0.078 C  
HETATM    3  C   UNL     1      -7.134   5.519  69.361  1.00  0.00    -0.064 C  
HETATM    4  O   UNL     1      -6.133   5.235  70.007  1.00  0.00    -0.017 OA 
HETATM    5  C   UNL     1      -9.431   4.594  69.228  1.00  0.00    -0.231 C  
HETATM    6  O   UNL     1      -7.546   6.808  69.256  1.00  0.00    -0.092 OA 
ENDROOT
BRANCH   2   7
HETATM    7  C   UNL     1      -8.068   4.703  67.095  1.00  0.00    -0.102 A  
HETATM    8  C   UNL     1      -7.011   4.241  66.290  1.00  0.00    -0.066 A  
HETATM    9  C   UNL     1      -6.948   4.546  64.931  1.00  0.00    -0.061 A  
HETATM   10  C   UNL     1      -7.966   5.294  64.329  1.00  0.00    -0.111 A  
HETATM   11  C   UNL     1      -9.098   5.420  66.473  1.00  0.00    -0.135 A  
HETATM   12  C   UNL     1      -9.064   5.679  65.106  1.00  0.00     0.073 A  
BRANCH  10  13
HETATM   13  C   UNL     1      -7.843   5.747  62.893  1.00  0.00    -0.096 C  
HETATM   14  O   UNL     1      -9.161   5.927  62.393  1.00  0.00    -0.328 OA 
HETATM   15  H   UNL     1      -9.085   6.211  61.490  1.00  0.00     0.000 HD 
BRANCH  13  16
HETATM   16  C   UNL     1      -6.974   7.016  62.808  1.00  0.00    -0.057 C  
BRANCH  16  17
HETATM   17  C   UNL     1      -6.512   7.575  64.156  1.00  0.00    -0.048 C  
BRANCH  17  18
HETATM   18  C   UNL     1      -7.014   8.990  64.474  1.00  0.00    -0.089 C  
BRANCH  18  19
HETATM   19  N   UNL     1      -8.438   9.034  64.845  1.00  0.00    -0.169 NA 
HETATM   20  C   UNL     1      -8.734   8.350  66.108  1.00  0.00    -0.151 C  
HETATM   21  C   UNL     1      -8.282   9.109  67.360  1.00  0.00    -0.107 C  
HETATM   22  C   UNL     1      -8.798  10.570  67.445  1.00  0.00    -0.132 C  
HETATM   23  C   UNL     1     -10.292  10.695  67.969  1.00  0.00    -0.178 C  
HETATM   24  C   UNL     1      -8.498  11.229  66.074  1.00  0.00    -0.102 C  
HETATM   25  C   UNL     1     -10.766  12.164  67.927  1.00  0.00    -0.237 A  
HETATM   26  C   UNL     1     -10.519  10.056  69.369  1.00  0.00    -0.252 A  
HETATM   27  C   UNL     1      -8.965  10.407  64.871  1.00  0.00    -0.199 C  
HETATM   28  O   UNL     1     -11.121   9.962  67.049  1.00  0.00    -0.136 OA 
HETATM   29  C   UNL     1     -11.454  12.664  66.800  1.00  0.00    -0.410 A  
HETATM   30  C   UNL     1      -9.490   9.894  70.317  1.00  0.00    -0.162 A  
HETATM   31  H   UNL     1     -12.015  10.037  67.362  1.00  0.00     0.000 HD 
HETATM   32  C   UNL     1      -9.712   9.224  71.526  1.00  0.00    -0.210 A  
HETATM   33  C   UNL     1     -11.833  14.004  66.706  1.00  0.00    -0.450 A  
HETATM   34  C   UNL     1     -10.974   8.726  71.830  1.00  0.00    -0.435 A  
HETATM   35  C   UNL     1     -11.554  14.879  67.750  1.00  0.00    -0.358 A  
HETATM   36  C   UNL     1     -10.890  14.412  68.880  1.00  0.00    -0.266 A  
HETATM   37  C   UNL     1     -12.023   8.922  70.939  1.00  0.00    -0.254 A  
HETATM   38  C   UNL     1     -10.490  13.071  68.964  1.00  0.00    -0.023 A  
HETATM   39  C   UNL     1     -11.803   9.591  69.730  1.00  0.00     0.225 A  
ENDBRANCH  18  19
ENDBRANCH  17  18
ENDBRANCH  16  17
ENDBRANCH  13  16
ENDBRANCH  10  13
ENDBRANCH   2   7
TORSDOF 6
ENDMDL
MODEL      196
REMARK 921   NORMALIZED FREE ENERGY PREDICTED BY IDOCK:   -2.47 KCAL/MOL
REMARK 922        TOTAL FREE ENERGY PREDICTED BY IDOCK:   -5.69 KCAL/MOL
REMARK 923 INTER-LIGAND FREE ENERGY PREDICTED BY IDOCK:   -3.00 KCAL/MOL
REMARK 924 INTRA-LIGAND FREE ENERGY PREDICTED BY IDOCK:   -2.69 KCAL/MOL
REMARK 927      BINDING AFFINITY PREDICTED BY RF-SCORE:    0.00 PKD
ROOT
HETATM    1  C   UNL     1      -8.966   7.948  65.573  1.00  0.00    -0.016 C  
HETATM    2  C   UNL     1      -7.613   7.737  66.292  1.00  0.00    -0.087 C  
HETATM    3  C   UNL     1      -6.696   8.922  65.926  1.00  0.00    -0.068 C  
HETATM    4  O   UNL     1      -7.024   9.868  65.222  1.00  0.00    -0.108 OA 
HETATM    5  C   UNL     1      -6.944   6.460  65.747  1.00  0.00    -0.061 C  
HETATM    6  O   UNL     1      -5.446   8.851  66.451  1.00  0.00    -0.034 OA 
ENDROOT
BRANCH   2   7
HETATM    7  C   UNL     1      -7.899   7.606  67.795  1.00  0.00    -0.120 A  
HETATM    8  C   UNL     1      -9.184   7.243  68.238  1.00  0.00    -0.133 A  
HETATM    9  C   UNL     1      -9.518   7.266  69.592  1.00  0.00    -0.155 A  
HETATM   10  C   UNL     1      -8.560   7.621  70.547  1.00  0.00    -0.137 A  
HETATM   11  C   UNL     1      -6.940   7.923  68.765  1.00  0.00    -0.066 A  
HETATM   12  C   UNL     1      -7.256   7.895  70.120  1.00  0.00    -0.058 A  
BRANCH  10  13
HETATM   13  C   UNL     1      -8.944   7.783  71.999  1.00  0.00    -0.134 C  
HETATM   14  O   UNL     1      -8.433   9.037  72.434  1.00  0.00    -0.344 OA 
HETATM   15  H   UNL     1      -8.674   9.138  73.348  1.00  0.00     0.000 HD 
BRANCH  13  16
HETATM   16  C   UNL     1     -10.470   7.650  72.164  1.00  0.00    -0.270 C  
BRANCH  16  17
HETATM   17  C   UNL     1     -11.234   8.976  72.197  1.00  0.00    -0.286 C  
BRANCH  17  18
HETATM   18  C   UNL     1     -12.301   9.133  71.105  1.00  0.00    -0.267 C  
BRANCH  18  19
HETATM   19  N   UNL     1     -12.354  10.489  70.532  1.00  0.00    -0.322 NA 
HETATM   20  C   UNL     1     -11.083  11.214  70.629  1.00  0.00     0.648 C  
HETATM   21  C   UNL     1     -10.005  10.734  69.650  1.00  0.00    -0.005 C  
HETATM   22  C   UNL     1     -10.455  10.703  68.166  1.00  0.00    -0.215 C  
HETATM   23  C   UNL     1     -10.407  12.119  67.448  1.00  0.00    -0.205 C  
HETATM   24  C   UNL     1     -11.818   9.965  68.129  1.00  0.00     1.139 C  
HETATM   25  C   UNL     1     -10.966  12.024  66.011  1.00  0.00    -0.346 A  
HETATM   26  C   UNL     1      -9.003  12.786  67.478  1.00  0.00    -0.192 A  
HETATM   27  C   UNL     1     -12.839  10.489  69.143  1.00  0.00     1.301 C  
HETATM   28  O   UNL     1     -11.286  12.990  68.182  1.00  0.00    -0.258 OA 
HETATM   29  C   UNL     1     -12.328  12.292  65.752  1.00  0.00     0.048 A  
HETATM   30  C   UNL     1      -7.804  12.056  67.593  1.00  0.00    -0.149 A  
HETATM   31  H   UNL     1     -11.258  13.837  67.752  1.00  0.00     0.000 HD 
HETATM   32  C   UNL     1      -6.567  12.698  67.717  1.00  0.00    -0.130 A  
HETATM   33  C   UNL     1     -12.874  12.147  64.476  1.00  0.00    -0.130 A  
HETATM   34  C   UNL     1      -6.494  14.087  67.698  1.00  0.00    -0.156 A  
HETATM   35  C   UNL     1     -12.066  11.751  63.416  1.00  0.00    -0.449 A  
HETATM   36  C   UNL     1     -10.717  11.495  63.638  1.00  0.00    -0.491 A  
HETATM   37  C   UNL     1      -7.654  14.834  67.527  1.00  0.00    -0.215 A  
HETATM   38  C   UNL     1     -10.173  11.619  64.924  1.00  0.00    -0.315 A  
HETATM   39  C   UNL     1      -8.890  14.193  67.404  1.00  0.00    -0.211 A  
ENDBRANCH  18  19
ENDBRANCH  17  18
ENDBRANCH  16  17
ENDBRANCH  13  16
ENDBRANCH  10  13
ENDBRANCH   2   7
TORSDOF 6
ENDMDL
MODEL      197
REMARK 921   NORMALIZED FREE ENERGY PREDICTED BY IDOCK:   -2.44 KCAL/MOL
REMARK 922        TOTAL FREE ENERGY PREDICTED BY IDOCK:   -5.65 KCAL/MOL
REMARK 923 INTER-LIGAND FREE ENERGY PREDICTED BY IDOCK:   -5.66 KCAL/MOL
REMARK 924 INTRA-LIGAND FREE ENERGY PREDICTED BY IDOCK:    0.01 KCAL/MOL
REMARK 927      BINDING AFFINITY PREDICTED BY RF-SCORE:    0.00 PKD
ROOT
HETATM    1  C   UNL     1      -9.796  20.069  68.508  1.00  0.00    -0.412 C  
HETATM    2  C   UNL     1     -10.368  18.864  67.726  1.00  0.00    -0.490 C  
HETATM    3  C   UNL     1     -10.552  19.300  66.258  1.00  0.00    -0.454 C  
HETATM    4  O   UNL     1     -10.249  20.398  65.811  1.00  0.00    -0.310 OA 
HETATM    5  C   UNL     1     -11.766  18.523  68.276  1.00  0.00     2.287 C  
HETATM    6  O   UNL     1     -11.094  18.351  65.452  1.00  0.00    -0.328 OA 
ENDROOT
BRANCH   2   7
HETATM    7  C   UNL     1      -9.403  17.685  67.915  1.00  0.00    -0.268 A  
HETATM    8  C   UNL     1      -8.139  17.896  68.497  1.00  0.00    -0.305 A  
HETATM    9  C   UNL     1      -7.182  16.883  68.540  1.00  0.00    -0.199 A  
HETATM   10  C   UNL     1      -7.478  15.613  68.032  1.00  0.00    -0.134 A  
HETATM   11  C   UNL     1      -9.698  16.399  67.444  1.00  0.00    -0.238 A  
HETATM   12  C   UNL     1      -8.763  15.372  67.535  1.00  0.00    -0.186 A  
BRANCH  10  13
HETATM   13  C   UNL     1      -6.409  14.549  67.948  1.00  0.00    -0.161 C  
HETATM   14  O   UNL     1      -5.153  15.214  67.904  1.00  0.00    -0.124 OA 
HETATM   15  H   UNL     1      -4.481  14.544  67.851  1.00  0.00     0.000 HD 
BRANCH  13  16
HETATM   16  C   UNL     1      -6.543  13.566  69.127  1.00  0.00    -0.109 C  
BRANCH  16  17
HETATM   17  C   UNL     1      -5.344  12.636  69.333  1.00  0.00    -0.076 C  
BRANCH  17  18
HETATM   18  C   UNL     1      -5.513  11.226  68.751  1.00  0.00    -0.043 C  
BRANCH  18  19
HETATM   19  N   UNL     1      -6.847  10.990  68.175  1.00  0.00    -0.066 NA 
HETATM   20  C   UNL     1      -6.966   9.699  67.488  1.00  0.00    -0.084 C  
HETATM   21  C   UNL     1      -7.046   8.489  68.426  1.00  0.00    -0.084 C  
HETATM   22  C   UNL     1      -8.154   8.588  69.507  1.00  0.00    -0.111 C  
HETATM   23  C   UNL     1      -9.604   8.214  68.980  1.00  0.00    -0.156 C  
HETATM   24  C   UNL     1      -8.007   9.983  70.168  1.00  0.00    -0.123 C  
HETATM   25  C   UNL     1     -10.663   8.437  70.083  1.00  0.00    -0.238 A  
HETATM   26  C   UNL     1      -9.698   6.786  68.371  1.00  0.00    -0.128 A  
HETATM   27  C   UNL     1      -7.919  11.141  69.171  1.00  0.00    -0.042 C  
HETATM   28  O   UNL     1      -9.912   9.131  67.915  1.00  0.00    -0.168 OA 
HETATM   29  C   UNL     1     -11.357   9.663  70.174  1.00  0.00    -0.275 A  
HETATM   30  C   UNL     1      -8.826   5.739  68.725  1.00  0.00    -0.110 A  
HETATM   31  H   UNL     1     -10.780   8.907  67.600  1.00  0.00     0.000 HD 
HETATM   32  C   UNL     1      -8.878   4.496  68.082  1.00  0.00    -0.123 A  
HETATM   33  C   UNL     1     -12.268   9.916  71.201  1.00  0.00    -0.468 A  
HETATM   34  C   UNL     1      -9.824   4.260  67.090  1.00  0.00    -0.205 A  
HETATM   35  C   UNL     1     -12.527   8.938  72.155  1.00  0.00    -0.459 A  
HETATM   36  C   UNL     1     -11.869   7.714  72.083  1.00  0.00    -0.352 A  
HETATM   37  C   UNL     1     -10.737   5.256  66.760  1.00  0.00    -0.241 A  
HETATM   38  C   UNL     1     -10.938   7.469  71.064  1.00  0.00    -0.266 A  
HETATM   39  C   UNL     1     -10.684   6.498  67.402  1.00  0.00    -0.412 A  
ENDBRANCH  18  19
ENDBRANCH  17  18
ENDBRANCH  16  17
ENDBRANCH  13  16
ENDBRANCH  10  13
ENDBRANCH   2   7
TORSDOF 6
ENDMDL
MODEL      198
REMARK 921   NORMALIZED FREE ENERGY PREDICTED BY IDOCK:   -2.36 KCAL/MOL
REMARK 922        TOTAL FREE ENERGY PREDICTED BY IDOCK:   -5.54 KCAL/MOL
REMARK 923 INTER-LIGAND FREE ENERGY PREDICTED BY IDOCK:   -5.44 KCAL/MOL
REMARK 924 INTRA-LIGAND FREE ENERGY PREDICTED BY IDOCK:   -0.10 KCAL/MOL
REMARK 927      BINDING AFFINITY PREDICTED BY RF-SCORE:    0.00 PKD
ROOT
HETATM    1  C   UNL     1      -9.124   4.951  66.934  1.00  0.00    -0.118 C  
HETATM    2  C   UNL     1      -7.901   4.887  67.878  1.00  0.00    -0.086 C  
HETATM    3  C   UNL     1      -6.780   4.121  67.144  1.00  0.00    -0.047 C  
HETATM    4  O   UNL     1      -6.860   3.691  66.001  1.00  0.00    -0.057 OA 
HETATM    5  C   UNL     1      -8.269   4.064  69.127  1.00  0.00    -0.078 C  
HETATM    6  O   UNL     1      -5.649   3.944  67.873  1.00  0.00    -0.019 OA 
ENDROOT
BRANCH   2   7
HETATM    7  C   UNL     1      -7.531   6.327  68.261  1.00  0.00    -0.090 A  
HETATM    8  C   UNL     1      -6.211   6.637  68.642  1.00  0.00    -0.027 A  
HETATM    9  C   UNL     1      -5.878   7.894  69.143  1.00  0.00    -0.031 A  
HETATM   10  C   UNL     1      -6.853   8.893  69.244  1.00  0.00    -0.050 A  
HETATM   11  C   UNL     1      -8.487   7.347  68.333  1.00  0.00    -0.125 A  
HETATM   12  C   UNL     1      -8.145   8.619  68.783  1.00  0.00    -0.116 A  
BRANCH  10  13
HETATM   13  C   UNL     1      -6.538  10.211  69.911  1.00  0.00    -0.100 C  
HETATM   14  O   UNL     1      -5.865   9.920  71.128  1.00  0.00    -0.076 OA 
HETATM   15  H   UNL     1      -5.667  10.749  71.548  1.00  0.00     0.000 HD 
BRANCH  13  16
HETATM   16  C   UNL     1      -5.725  11.109  68.958  1.00  0.00    -0.040 C  
BRANCH  16  17
HETATM   17  C   UNL     1      -6.509  11.662  67.766  1.00  0.00    -0.067 C  
BRANCH  17  18
HETATM   18  C   UNL     1      -6.038  13.034  67.264  1.00  0.00     0.080 C  
BRANCH  18  19
HETATM   19  N   UNL     1      -6.353  14.134  68.193  1.00  0.00    -0.117 NA 
HETATM   20  C   UNL     1      -6.634  15.405  67.518  1.00  0.00    -0.161 C  
HETATM   21  C   UNL     1      -8.000  15.465  66.825  1.00  0.00    -0.165 C  
HETATM   22  C   UNL     1      -9.200  15.105  67.740  1.00  0.00    -0.180 C  
HETATM   23  C   UNL     1      -9.677  16.296  68.675  1.00  0.00    -0.235 C  
HETATM   24  C   UNL     1      -8.831  13.780  68.456  1.00  0.00    -0.116 C  
HETATM   25  C   UNL     1     -10.802  15.829  69.625  1.00  0.00    -0.300 A  
HETATM   26  C   UNL     1     -10.077  17.580  67.895  1.00  0.00    -0.330 A  
HETATM   27  C   UNL     1      -7.448  13.789  69.112  1.00  0.00     0.062 C  
HETATM   28  O   UNL     1      -8.555  16.655  69.501  1.00  0.00     0.025 OA 
HETATM   29  C   UNL     1     -10.497  15.355  70.919  1.00  0.00     0.139 A  
HETATM   30  C   UNL     1     -10.519  17.564  66.558  1.00  0.00    -0.270 A  
HETATM   31  H   UNL     1      -8.841  17.368  70.060  1.00  0.00     0.000 HD 
HETATM   32  C   UNL     1     -10.775  18.749  65.859  1.00  0.00    -0.323 A  
HETATM   33  C   UNL     1     -11.486  14.863  71.773  1.00  0.00    -0.275 A  
HETATM   34  C   UNL     1     -10.624  19.980  66.488  1.00  0.00    -0.461 A  
HETATM   35  C   UNL     1     -12.814  14.854  71.363  1.00  0.00    -0.416 A  
HETATM   36  C   UNL     1     -13.148  15.329  70.099  1.00  0.00    -0.030 A  
HETATM   37  C   UNL     1     -10.245  20.026  67.825  1.00  0.00    -0.549 A  
HETATM   38  C   UNL     1     -12.151  15.802  69.233  1.00  0.00    -0.226 A  
HETATM   39  C   UNL     1      -9.989  18.842  68.524  1.00  0.00    -0.463 A  
ENDBRANCH  18  19
ENDBRANCH  17  18
ENDBRANCH  16  17
ENDBRANCH  13  16
ENDBRANCH  10  13
ENDBRANCH   2   7
TORSDOF 6
ENDMDL
MODEL      199
REMARK 921   NORMALIZED FREE ENERGY PREDICTED BY IDOCK:   -2.27 KCAL/MOL
REMARK 922        TOTAL FREE ENERGY PREDICTED BY IDOCK:   -5.43 KCAL/MOL
REMARK 923 INTER-LIGAND FREE ENERGY PREDICTED BY IDOCK:   -4.66 KCAL/MOL
REMARK 924 INTRA-LIGAND FREE ENERGY PREDICTED BY IDOCK:   -0.77 KCAL/MOL
REMARK 927      BINDING AFFINITY PREDICTED BY RF-SCORE:    0.00 PKD
ROOT
HETATM    1  C   UNL     1     -11.663  12.442  65.665  1.00  0.00    -0.468 C  
HETATM    2  C   UNL     1     -10.370  13.215  65.315  1.00  0.00    -0.319 C  
HETATM    3  C   UNL     1     -10.717  14.717  65.270  1.00  0.00    -0.381 C  
HETATM    4  O   UNL     1     -11.819  15.188  65.516  1.00  0.00    -0.160 OA 
HETATM    5  C   UNL     1      -9.909  12.814  63.901  1.00  0.00     0.156 C  
HETATM    6  O   UNL     1      -9.681  15.524  64.927  1.00  0.00    -0.176 OA 
ENDROOT
BRANCH   2   7
HETATM    7  C   UNL     1      -9.308  12.846  66.362  1.00  0.00    -0.192 A  
HETATM    8  C   UNL     1      -8.274  11.951  66.029  1.00  0.00     0.335 A  
HETATM    9  C   UNL     1      -7.388  11.476  66.995  1.00  0.00    -0.145 A  
HETATM   10  C   UNL     1      -7.491  11.913  68.321  1.00  0.00    -0.104 A  
HETATM   11  C   UNL     1      -9.376  13.303  67.684  1.00  0.00    -0.212 A  
HETATM   12  C   UNL     1      -8.460  12.871  68.638  1.00  0.00     0.046 A  
BRANCH  10  13
HETATM   13  C   UNL     1      -6.628  11.305  69.401  1.00  0.00    -0.116 C  
HETATM   14  O   UNL     1      -6.890  12.017  70.602  1.00  0.00    -0.022 OA 
HETATM   15  H   UNL     1      -6.347  11.635  71.282  1.00  0.00     0.000 HD 
BRANCH  13  16
HETATM   16  C   UNL     1      -6.901   9.792  69.511  1.00  0.00    -0.060 C  
BRANCH  16  17
HETATM   17  C   UNL     1      -8.307   9.423  69.991  1.00  0.00    -0.190 C  
BRANCH  17  18
HETATM   18  C   UNL     1      -9.392   9.471  68.906  1.00  0.00    -0.149 C  
BRANCH  18  19
HETATM   19  N   UNL     1     -10.092   8.188  68.725  1.00  0.00    -0.194 NA 
HETATM   20  C   UNL     1     -10.446   7.908  67.330  1.00  0.00    -0.320 C  
HETATM   21  C   UNL     1      -9.262   7.502  66.446  1.00  0.00    -0.212 C  
HETATM   22  C   UNL     1      -8.425   6.319  66.999  1.00  0.00    -0.108 C  
HETATM   23  C   UNL     1      -9.061   4.891  66.717  1.00  0.00    -0.118 C  
HETATM   24  C   UNL     1      -8.116   6.647  68.483  1.00  0.00    -0.119 C  
HETATM   25  C   UNL     1      -8.226   3.777  67.387  1.00  0.00    -0.090 A  
HETATM   26  C   UNL     1      -9.303   4.603  65.209  1.00  0.00    -0.159 A  
HETATM   27  C   UNL     1      -9.344   7.059  69.299  1.00  0.00    -0.145 C  
HETATM   28  O   UNL     1     -10.355   4.879  67.346  1.00  0.00    -0.151 OA 
HETATM   29  C   UNL     1      -8.552   3.317  68.682  1.00  0.00    -0.122 A  
HETATM   30  C   UNL     1      -8.568   5.221  64.178  1.00  0.00    -0.069 A  
HETATM   31  H   UNL     1     -10.736   4.025  67.178  1.00  0.00     0.000 HD 
HETATM   32  C   UNL     1      -8.882   5.011  62.831  1.00  0.00    -0.063 A  
HETATM   33  C   UNL     1      -7.775   2.361  69.338  1.00  0.00    -0.046 A  
HETATM   34  C   UNL     1      -9.919   4.153  62.479  1.00  0.00    -0.144 A  
HETATM   35  C   UNL     1      -6.660   1.821  68.706  1.00  0.00    -0.029 A  
HETATM   36  C   UNL     1      -6.323   2.244  67.424  1.00  0.00    -0.028 A  
HETATM   37  C   UNL     1     -10.625   3.483  63.472  1.00  0.00    -0.263 A  
HETATM   38  C   UNL     1      -7.091   3.221  66.775  1.00  0.00    -0.055 A  
HETATM   39  C   UNL     1     -10.312   3.694  64.819  1.00  0.00    -0.065 A  
ENDBRANCH  18  19
ENDBRANCH  17  18
ENDBRANCH  16  17
ENDBRANCH  13  16
ENDBRANCH  10  13
ENDBRANCH   2   7
TORSDOF 6
ENDMDL
MODEL      200
REMARK 921   NORMALIZED FREE ENERGY PREDICTED BY IDOCK:   -2.05 KCAL/MOL
REMARK 922        TOTAL FREE ENERGY PREDICTED BY IDOCK:   -5.12 KCAL/MOL
REMARK 923 INTER-LIGAND FREE ENERGY PREDICTED BY IDOCK:   -4.76 KCAL/MOL
REMARK 924 INTRA-LIGAND FREE ENERGY PREDICTED BY IDOCK:   -0.37 KCAL/MOL
REMARK 927      BINDING AFFINITY PREDICTED BY RF-SCORE:    0.00 PKD
ROOT
HETATM    1  C   UNL     1      -9.785   2.447  71.624  1.00  0.00    -0.222 C  
HETATM    2  C   UNL     1      -9.546   3.971  71.518  1.00  0.00    -0.237 C  
HETATM    3  C   UNL     1      -8.460   4.350  72.546  1.00  0.00    -0.109 C  
HETATM    4  O   UNL     1      -7.878   3.556  73.272  1.00  0.00    -0.068 OA 
HETATM    5  C   UNL     1     -10.834   4.714  71.924  1.00  0.00     0.067 C  
HETATM    6  O   UNL     1      -8.175   5.676  72.601  1.00  0.00    -0.112 OA 
ENDROOT
BRANCH   2   7
HETATM    7  C   UNL     1      -9.170   4.285  70.062  1.00  0.00    -0.207 A  
HETATM    8  C   UNL     1      -9.801   5.346  69.386  1.00  0.00    -0.252 A  
HETATM    9  C   UNL     1      -9.599   5.559  68.023  1.00  0.00    -0.147 A  
HETATM   10  C   UNL     1      -8.727   4.734  67.303  1.00  0.00    -0.103 A  
HETATM   11  C   UNL     1      -8.273   3.491  69.338  1.00  0.00    -0.069 A  
HETATM   12  C   UNL     1      -8.029   3.735  67.990  1.00  0.00    -0.076 A  
BRANCH  10  13
HETATM   13  C   UNL     1      -8.603   4.867  65.804  1.00  0.00    -0.128 C  
HETATM   14  O   UNL     1      -9.651   5.723  65.367  1.00  0.00    -0.363 OA 
HETATM   15  H   UNL     1      -9.573   5.806  64.424  1.00  0.00     0.000 HD 
BRANCH  13  16
HETATM   16  C   UNL     1      -7.198   5.375  65.429  1.00  0.00    -0.068 C  
BRANCH  16  17
HETATM   17  C   UNL     1      -7.045   5.844  63.979  1.00  0.00    -0.053 C  
BRANCH  17  18
HETATM   18  C   UNL     1      -8.129   6.819  63.499  1.00  0.00     0.001 C  
BRANCH  18  19
HETATM   19  N   UNL     1      -7.725   8.232  63.597  1.00  0.00    -0.138 NA 
HETATM   20  C   UNL     1      -8.858   9.163  63.611  1.00  0.00    -0.056 C  
HETATM   21  C   UNL     1      -9.638   9.191  64.930  1.00  0.00     0.199 C  
HETATM   22  C   UNL     1      -8.764   9.443  66.187  1.00  0.00    -0.165 C  
HETATM   23  C   UNL     1      -8.403  10.971  66.425  1.00  0.00    -0.165 C  
HETATM   24  C   UNL     1      -7.564   8.465  66.098  1.00  0.00    -0.089 C  
HETATM   25  C   UNL     1      -7.449  11.127  67.629  1.00  0.00    -0.100 A  
HETATM   26  C   UNL     1      -9.649  11.893  66.552  1.00  0.00    -0.226 A  
HETATM   27  C   UNL     1      -6.843   8.482  64.747  1.00  0.00    -0.072 C  
HETATM   28  O   UNL     1      -7.684  11.418  65.262  1.00  0.00    -0.150 OA 
HETATM   29  C   UNL     1      -6.050  11.154  67.438  1.00  0.00    -0.061 A  
HETATM   30  C   UNL     1     -10.910  11.431  66.976  1.00  0.00    -0.331 A  
HETATM   31  H   UNL     1      -7.468  12.332  65.404  1.00  0.00     0.000 HD 
HETATM   32  C   UNL     1     -12.030  12.270  66.982  1.00  0.00    -0.213 A  
HETATM   33  C   UNL     1      -5.163  11.226  68.513  1.00  0.00    -0.043 A  
HETATM   34  C   UNL     1     -11.911  13.601  66.594  1.00  0.00    -0.458 A  
HETATM   35  C   UNL     1      -5.653  11.295  69.813  1.00  0.00    -0.064 A  
HETATM   36  C   UNL     1      -7.027  11.286  70.032  1.00  0.00     0.182 A  
HETATM   37  C   UNL     1     -10.667  14.101  66.226  1.00  0.00    -0.293 A  
HETATM   38  C   UNL     1      -7.916  11.191  68.953  1.00  0.00    -0.126 A  
HETATM   39  C   UNL     1      -9.547  13.263  66.219  1.00  0.00    -0.244 A  
ENDBRANCH  18  19
ENDBRANCH  17  18
ENDBRANCH  16  17
ENDBRANCH  13  16
ENDBRANCH  10  13
ENDBRANCH   2   7
TORSDOF 6
ENDMDL
MODEL      201
REMARK 921   NORMALIZED FREE ENERGY PREDICTED BY IDOCK:   -1.95 KCAL/MOL
REMARK 922        TOTAL FREE ENERGY PREDICTED BY IDOCK:   -4.99 KCAL/MOL
REMARK 923 INTER-LIGAND FREE ENERGY PREDICTED BY IDOCK:   -4.67 KCAL/MOL
REMARK 924 INTRA-LIGAND FREE ENERGY PREDICTED BY IDOCK:   -0.32 KCAL/MOL
REMARK 927      BINDING AFFINITY PREDICTED BY RF-SCORE:    0.00 PKD
ROOT
HETATM    1  C   UNL     1     -10.204   5.538  71.304  1.00  0.00    -0.283 C  
HETATM    2  C   UNL     1      -8.881   6.160  71.809  1.00  0.00    -0.138 C  
HETATM    3  C   UNL     1      -7.930   5.005  72.183  1.00  0.00    -0.111 C  
HETATM    4  O   UNL     1      -8.189   3.816  72.052  1.00  0.00    -0.074 OA 
HETATM    5  C   UNL     1      -9.156   6.956  73.099  1.00  0.00    -0.154 C  
HETATM    6  O   UNL     1      -6.734   5.400  72.689  1.00  0.00    -0.069 OA 
ENDROOT
BRANCH   2   7
HETATM    7  C   UNL     1      -8.346   7.080  70.702  1.00  0.00    -0.127 A  
HETATM    8  C   UNL     1      -8.448   8.478  70.837  1.00  0.00    -0.176 A  
HETATM    9  C   UNL     1      -8.117   9.334  69.788  1.00  0.00    -0.120 A  
HETATM   10  C   UNL     1      -7.637   8.815  68.581  1.00  0.00    -0.097 A  
HETATM   11  C   UNL     1      -7.829   6.577  69.501  1.00  0.00    -0.105 A  
HETATM   12  C   UNL     1      -7.448   7.433  68.472  1.00  0.00    -0.105 A  
BRANCH  10  13
HETATM   13  C   UNL     1      -7.405   9.719  67.393  1.00  0.00    -0.090 C  
HETATM   14  O   UNL     1      -7.493   8.913  66.225  1.00  0.00    -0.089 OA 
HETATM   15  H   UNL     1      -7.346   9.482  65.478  1.00  0.00     0.000 HD 
BRANCH  13  16
HETATM   16  C   UNL     1      -8.407  10.889  67.410  1.00  0.00    -0.117 C  
BRANCH  16  17
HETATM   17  C   UNL     1      -9.086  11.178  66.068  1.00  0.00    -0.217 C  
BRANCH  17  18
HETATM   18  C   UNL     1      -9.898  12.479  66.023  1.00  0.00    -0.257 C  
BRANCH  18  19
HETATM   19  N   UNL     1     -11.252  12.341  66.585  1.00  0.00    -0.298 NA 
HETATM   20  C   UNL     1     -11.472  11.064  67.271  1.00  0.00    -0.081 C  
HETATM   21  C   UNL     1     -10.785  10.953  68.637  1.00  0.00    -0.238 C  
HETATM   22  C   UNL     1     -11.111  12.113  69.614  1.00  0.00    -0.046 C  
HETATM   23  C   UNL     1     -12.505  11.955  70.358  1.00  0.00    -0.170 C  
HETATM   24  C   UNL     1     -10.903  13.431  68.826  1.00  0.00    -0.275 C  
HETATM   25  C   UNL     1     -12.804  13.194  71.230  1.00  0.00    -0.384 A  
HETATM   26  C   UNL     1     -12.635  10.634  71.169  1.00  0.00    -0.526 A  
HETATM   27  C   UNL     1     -11.606  13.464  67.467  1.00  0.00    -0.344 C  
HETATM   28  O   UNL     1     -13.520  11.907  69.339  1.00  0.00     1.973 OA 
HETATM   29  C   UNL     1     -13.559  14.270  70.714  1.00  0.00     0.017 A  
HETATM   30  C   UNL     1     -11.525   9.928  71.674  1.00  0.00    -0.181 A  
HETATM   31  H   UNL     1     -14.354  11.813  69.784  1.00  0.00     0.000 HD 
HETATM   32  C   UNL     1     -11.676   8.692  72.312  1.00  0.00    -0.428 A  
HETATM   33  C   UNL     1     -13.786  15.430  71.456  1.00  0.00    -0.601 A  
HETATM   34  C   UNL     1     -12.943   8.145  72.489  1.00  0.00    -0.072 A  
HETATM   35  C   UNL     1     -13.281  15.538  72.747  1.00  0.00    -0.605 A  
HETATM   36  C   UNL     1     -12.546  14.488  73.289  1.00  0.00    -0.433 A  
HETATM   37  C   UNL     1     -14.062   8.846  72.052  1.00  0.00    -0.477 A  
HETATM   38  C   UNL     1     -12.299  13.332  72.535  1.00  0.00     0.680 A  
HETATM   39  C   UNL     1     -13.911  10.081  71.414  1.00  0.00     0.142 A  
ENDBRANCH  18  19
ENDBRANCH  17  18
ENDBRANCH  16  17
ENDBRANCH  13  16
ENDBRANCH  10  13
ENDBRANCH   2   7
TORSDOF 6
ENDMDL
MODEL      202
REMARK 921   NORMALIZED FREE ENERGY PREDICTED BY IDOCK:   -1.95 KCAL/MOL
REMARK 922        TOTAL FREE ENERGY PREDICTED BY IDOCK:   -4.99 KCAL/MOL
REMARK 923 INTER-LIGAND FREE ENERGY PREDICTED BY IDOCK:   -5.87 KCAL/MOL
REMARK 924 INTRA-LIGAND FREE ENERGY PREDICTED BY IDOCK:    0.87 KCAL/MOL
REMARK 927      BINDING AFFINITY PREDICTED BY RF-SCORE:    0.00 PKD
ROOT
HETATM    1  C   UNL     1      -8.008  15.047  70.248  1.00  0.00     0.688 C  
HETATM    2  C   UNL     1      -7.130  14.539  69.081  1.00  0.00    -0.130 C  
HETATM    3  C   UNL     1      -6.100  13.549  69.662  1.00  0.00    -0.121 C  
HETATM    4  O   UNL     1      -6.040  13.213  70.838  1.00  0.00    -0.182 OA 
HETATM    5  C   UNL     1      -6.339  15.722  68.491  1.00  0.00    -0.108 C  
HETATM    6  O   UNL     1      -5.222  13.051  68.755  1.00  0.00    -0.066 OA 
ENDROOT
BRANCH   2   7
HETATM    7  C   UNL     1      -8.064  13.926  68.026  1.00  0.00    -0.154 A  
HETATM    8  C   UNL     1      -8.298  12.538  68.016  1.00  0.00    -0.171 A  
HETATM    9  C   UNL     1      -9.011  11.931  66.984  1.00  0.00    -0.190 A  
HETATM   10  C   UNL     1      -9.544  12.704  65.946  1.00  0.00    -0.158 A  
HETATM   11  C   UNL     1      -8.634  14.691  67.002  1.00  0.00    -0.249 A  
HETATM   12  C   UNL     1      -9.391  14.094  65.999  1.00  0.00    -0.108 A  
BRANCH  10  13
HETATM   13  C   UNL     1     -10.199  12.047  64.754  1.00  0.00    -0.279 C  
HETATM   14  O   UNL     1      -9.394  12.333  63.619  1.00  0.00    -0.591 OA 
HETATM   15  H   UNL     1      -9.806  11.920  62.869  1.00  0.00     0.000 HD 
BRANCH  13  16
HETATM   16  C   UNL     1     -10.385  10.540  65.013  1.00  0.00    -0.310 C  
BRANCH  16  17
HETATM   17  C   UNL     1      -9.231   9.865  65.760  1.00  0.00    -0.228 C  
BRANCH  17  18
HETATM   18  C   UNL     1      -8.900   8.443  65.287  1.00  0.00    -0.069 C  
BRANCH  18  19
HETATM   19  N   UNL     1      -9.724   7.407  65.934  1.00  0.00     0.224 NA 
HETATM   20  C   UNL     1      -8.958   6.228  66.349  1.00  0.00    -0.152 C  
HETATM   21  C   UNL     1      -8.082   6.446  67.588  1.00  0.00    -0.114 C  
HETATM   22  C   UNL     1      -8.840   7.013  68.817  1.00  0.00    -0.129 C  
HETATM   23  C   UNL     1      -9.644   5.918  69.640  1.00  0.00    -0.148 C  
HETATM   24  C   UNL     1      -9.662   8.227  68.313  1.00  0.00    -0.173 C  
HETATM   25  C   UNL     1     -10.452   6.574  70.781  1.00  0.00    -0.262 A  
HETATM   26  C   UNL     1      -8.756   4.751  70.158  1.00  0.00    -0.121 A  
HETATM   27  C   UNL     1     -10.500   7.938  67.065  1.00  0.00    -0.349 C  
HETATM   28  O   UNL     1     -10.598   5.333  68.736  1.00  0.00    -0.160 OA 
HETATM   29  C   UNL     1     -11.796   6.955  70.581  1.00  0.00    -0.418 A  
HETATM   30  C   UNL     1      -7.374   4.880  70.393  1.00  0.00    -0.054 A  
HETATM   31  H   UNL     1     -11.079   4.678  69.228  1.00  0.00     0.000 HD 
HETATM   32  C   UNL     1      -6.591   3.780  70.764  1.00  0.00    -0.031 A  
HETATM   33  C   UNL     1     -12.529   7.611  71.571  1.00  0.00    -0.361 A  
HETATM   34  C   UNL     1      -7.177   2.531  70.939  1.00  0.00    -0.033 A  
HETATM   35  C   UNL     1     -11.942   7.885  72.802  1.00  0.00    -0.223 A  
HETATM   36  C   UNL     1     -10.622   7.509  73.034  1.00  0.00    -0.422 A  
HETATM   37  C   UNL     1      -8.550   2.385  70.772  1.00  0.00    -0.101 A  
HETATM   38  C   UNL     1      -9.881   6.870  72.030  1.00  0.00    -0.172 A  
HETATM   39  C   UNL     1      -9.332   3.484  70.400  1.00  0.00    -0.239 A  
ENDBRANCH  18  19
ENDBRANCH  17  18
ENDBRANCH  16  17
ENDBRANCH  13  16
ENDBRANCH  10  13
ENDBRANCH   2   7
TORSDOF 6
ENDMDL
MODEL      203
REMARK 921   NORMALIZED FREE ENERGY PREDICTED BY IDOCK:   -1.88 KCAL/MOL
REMARK 922        TOTAL FREE ENERGY PREDICTED BY IDOCK:   -4.89 KCAL/MOL
REMARK 923 INTER-LIGAND FREE ENERGY PREDICTED BY IDOCK:   -3.92 KCAL/MOL
REMARK 924 INTRA-LIGAND FREE ENERGY PREDICTED BY IDOCK:   -0.97 KCAL/MOL
REMARK 927      BINDING AFFINITY PREDICTED BY RF-SCORE:    0.00 PKD
ROOT
HETATM    1  C   UNL     1     -10.512  17.924  65.827  1.00  0.00    -0.196 C  
HETATM    2  C   UNL     1      -9.492  18.528  66.819  1.00  0.00    -0.304 C  
HETATM    3  C   UNL     1     -10.284  19.186  67.968  1.00  0.00    -0.401 C  
HETATM    4  O   UNL     1     -11.504  19.177  68.070  1.00  0.00     0.405 OA 
HETATM    5  C   UNL     1      -8.703  19.648  66.114  1.00  0.00    -0.361 C  
HETATM    6  O   UNL     1      -9.516  19.804  68.901  1.00  0.00    -0.329 OA 
ENDROOT
BRANCH   2   7
HETATM    7  C   UNL     1      -8.554  17.399  67.270  1.00  0.00    -0.223 A  
HETATM    8  C   UNL     1      -7.345  17.172  66.584  1.00  0.00    -0.285 A  
HETATM    9  C   UNL     1      -6.549  16.063  66.866  1.00  0.00     0.026 A  
HETATM   10  C   UNL     1      -6.923  15.165  67.871  1.00  0.00    -0.167 A  
HETATM   11  C   UNL     1      -8.896  16.513  68.298  1.00  0.00    -0.210 A  
HETATM   12  C   UNL     1      -8.076  15.435  68.617  1.00  0.00    -0.156 A  
BRANCH  10  13
HETATM   13  C   UNL     1      -6.144  13.890  68.094  1.00  0.00    -0.128 C  
HETATM   14  O   UNL     1      -5.144  13.825  67.087  1.00  0.00    -0.190 OA 
HETATM   15  H   UNL     1      -4.654  13.022  67.226  1.00  0.00     0.000 HD 
BRANCH  13  16
HETATM   16  C   UNL     1      -5.578  13.856  69.527  1.00  0.00    -0.089 C  
BRANCH  16  17
HETATM   17  C   UNL     1      -6.403  13.043  70.528  1.00  0.00     0.302 C  
BRANCH  17  18
HETATM   18  C   UNL     1      -5.743  11.740  71.000  1.00  0.00     0.065 C  
BRANCH  18  19
HETATM   19  N   UNL     1      -5.724  10.689  69.968  1.00  0.00    -0.058 NA 
HETATM   20  C   UNL     1      -5.135   9.428  70.429  1.00  0.00    -0.027 C  
HETATM   21  C   UNL     1      -6.029   8.621  71.377  1.00  0.00    -0.047 C  
HETATM   22  C   UNL     1      -7.453   8.341  70.830  1.00  0.00    -0.065 C  
HETATM   23  C   UNL     1      -7.524   7.127  69.809  1.00  0.00    -0.097 C  
HETATM   24  C   UNL     1      -8.009   9.695  70.320  1.00  0.00    -0.198 C  
HETATM   25  C   UNL     1      -8.949   6.978  69.232  1.00  0.00    -0.138 A  
HETATM   26  C   UNL     1      -6.996   5.786  70.394  1.00  0.00    -0.065 A  
HETATM   27  C   UNL     1      -7.056  10.451  69.391  1.00  0.00    -0.102 C  
HETATM   28  O   UNL     1      -6.661   7.457  68.706  1.00  0.00    -0.045 OA 
HETATM   29  C   UNL     1      -9.302   7.608  68.019  1.00  0.00    -0.144 A  
HETATM   30  C   UNL     1      -6.986   5.499  71.773  1.00  0.00    -0.075 A  
HETATM   31  H   UNL     1      -6.703   6.731  68.095  1.00  0.00     0.000 HD 
HETATM   32  C   UNL     1      -6.411   4.323  72.268  1.00  0.00    -0.021 A  
HETATM   33  C   UNL     1     -10.601   7.547  67.511  1.00  0.00    -0.331 A  
HETATM   34  C   UNL     1      -5.858   3.391  71.396  1.00  0.00    -0.013 A  
HETATM   35  C   UNL     1     -11.580   6.833  68.192  1.00  0.00     0.476 A  
HETATM   36  C   UNL     1     -11.258   6.189  69.383  1.00  0.00    -0.466 A  
HETATM   37  C   UNL     1      -5.906   3.621  70.025  1.00  0.00    -0.018 A  
HETATM   38  C   UNL     1      -9.959   6.269  69.905  1.00  0.00    -0.206 A  
HETATM   39  C   UNL     1      -6.480   4.796  69.529  1.00  0.00    -0.035 A  
ENDBRANCH  18  19
ENDBRANCH  17  18
ENDBRANCH  16  17
ENDBRANCH  13  16
ENDBRANCH  10  13
ENDBRANCH   2   7
TORSDOF 6
ENDMDL
MODEL      204
REMARK 921   NORMALIZED FREE ENERGY PREDICTED BY IDOCK:   -1.82 KCAL/MOL
REMARK 922        TOTAL FREE ENERGY PREDICTED BY IDOCK:   -4.81 KCAL/MOL
REMARK 923 INTER-LIGAND FREE ENERGY PREDICTED BY IDOCK:   -4.64 KCAL/MOL
REMARK 924 INTRA-LIGAND FREE ENERGY PREDICTED BY IDOCK:   -0.17 KCAL/MOL
REMARK 927      BINDING AFFINITY PREDICTED BY RF-SCORE:    0.00 PKD
ROOT
HETATM    1  C   UNL     1      -6.367  15.808  69.911  1.00  0.00    -0.146 C  
HETATM    2  C   UNL     1      -6.223  14.439  69.207  1.00  0.00    -0.110 C  
HETATM    3  C   UNL     1      -5.665  13.436  70.238  1.00  0.00    -0.154 C  
HETATM    4  O   UNL     1      -5.429  13.696  71.410  1.00  0.00    -0.186 OA 
HETATM    5  C   UNL     1      -5.179  14.557  68.080  1.00  0.00    -0.105 C  
HETATM    6  O   UNL     1      -5.440  12.190  69.747  1.00  0.00    -0.075 OA 
ENDROOT
BRANCH   2   7
HETATM    7  C   UNL     1      -7.599  14.058  68.641  1.00  0.00    -0.130 A  
HETATM    8  C   UNL     1      -8.769  14.577  69.226  1.00  0.00     0.112 A  
HETATM    9  C   UNL     1     -10.032  14.132  68.839  1.00  0.00    -0.132 A  
HETATM   10  C   UNL     1     -10.162  13.176  67.826  1.00  0.00    -0.231 A  
HETATM   11  C   UNL     1      -7.745  13.129  67.603  1.00  0.00    -0.168 A  
HETATM   12  C   UNL     1      -9.007  12.723  67.180  1.00  0.00    -0.214 A  
BRANCH  10  13
HETATM   13  C   UNL     1     -11.512  12.586  67.493  1.00  0.00    -0.336 C  
HETATM   14  O   UNL     1     -12.477  13.268  68.281  1.00  0.00    -0.041 OA 
HETATM   15  H   UNL     1     -13.327  12.897  68.072  1.00  0.00     0.000 HD 
BRANCH  13  16
HETATM   16  C   UNL     1     -11.775  12.683  65.978  1.00  0.00    -0.470 C  
BRANCH  16  17
HETATM   17  C   UNL     1     -11.518  11.393  65.193  1.00  0.00     0.006 C  
BRANCH  17  18
HETATM   18  C   UNL     1     -10.286  10.597  65.646  1.00  0.00    -0.253 C  
BRANCH  18  19
HETATM   19  N   UNL     1     -10.623   9.398  66.430  1.00  0.00    -0.082 NA 
HETATM   20  C   UNL     1      -9.731   8.263  66.175  1.00  0.00    -0.119 C  
HETATM   21  C   UNL     1      -8.337   8.401  66.798  1.00  0.00    -0.109 C  
HETATM   22  C   UNL     1      -8.342   8.704  68.319  1.00  0.00    -0.127 C  
HETATM   23  C   UNL     1      -8.569   7.424  69.230  1.00  0.00    -0.137 C  
HETATM   24  C   UNL     1      -9.330   9.879  68.536  1.00  0.00    -0.143 C  
HETATM   25  C   UNL     1      -8.665   7.821  70.720  1.00  0.00    -0.134 A  
HETATM   26  C   UNL     1      -7.519   6.300  69.000  1.00  0.00    -0.091 A  
HETATM   27  C   UNL     1     -10.695   9.677  67.873  1.00  0.00    -0.247 C  
HETATM   28  O   UNL     1      -9.844   6.869  68.863  1.00  0.00    -0.145 OA 
HETATM   29  C   UNL     1      -9.920   8.076  71.314  1.00  0.00    -0.211 A  
HETATM   30  C   UNL     1      -6.224   6.545  68.504  1.00  0.00    -0.030 A  
HETATM   31  H   UNL     1      -9.980   6.103  69.408  1.00  0.00     0.000 HD 
HETATM   32  C   UNL     1      -5.342   5.497  68.217  1.00  0.00    -0.004 A  
HETATM   33  C   UNL     1     -10.031   8.504  72.639  1.00  0.00    -0.265 A  
HETATM   34  C   UNL     1      -5.722   4.179  68.446  1.00  0.00    -0.025 A  
HETATM   35  C   UNL     1      -8.888   8.666  73.414  1.00  0.00     0.172 A  
HETATM   36  C   UNL     1      -7.639   8.407  72.860  1.00  0.00    -0.120 A  
HETATM   37  C   UNL     1      -6.973   3.909  68.990  1.00  0.00    -0.046 A  
HETATM   38  C   UNL     1      -7.526   8.000  71.523  1.00  0.00    -0.076 A  
HETATM   39  C   UNL     1      -7.855   4.956  69.277  1.00  0.00    -0.075 A  
ENDBRANCH  18  19
ENDBRANCH  17  18
ENDBRANCH  16  17
ENDBRANCH  13  16
ENDBRANCH  10  13
ENDBRANCH   2   7
TORSDOF 6
ENDMDL
MODEL      205
REMARK 921   NORMALIZED FREE ENERGY PREDICTED BY IDOCK:   -1.69 KCAL/MOL
REMARK 922        TOTAL FREE ENERGY PREDICTED BY IDOCK:   -4.63 KCAL/MOL
REMARK 923 INTER-LIGAND FREE ENERGY PREDICTED BY IDOCK:   -3.96 KCAL/MOL
REMARK 924 INTRA-LIGAND FREE ENERGY PREDICTED BY IDOCK:   -0.68 KCAL/MOL
REMARK 927      BINDING AFFINITY PREDICTED BY RF-SCORE:    0.00 PKD
ROOT
HETATM    1  C   UNL     1      -9.384  18.229  69.556  1.00  0.00     0.494 C  
HETATM    2  C   UNL     1      -8.875  18.297  68.097  1.00  0.00    -0.307 C  
HETATM    3  C   UNL     1      -7.339  18.434  68.141  1.00  0.00    -0.261 C  
HETATM    4  O   UNL     1      -6.666  18.441  69.164  1.00  0.00    -0.267 OA 
HETATM    5  C   UNL     1      -9.424  19.572  67.429  1.00  0.00    -0.415 C  
HETATM    6  O   UNL     1      -6.749  18.552  66.924  1.00  0.00    -0.183 OA 
ENDROOT
BRANCH   2   7
HETATM    7  C   UNL     1      -9.373  17.040  67.369  1.00  0.00    -0.239 A  
HETATM    8  C   UNL     1      -8.457  16.046  66.975  1.00  0.00    -0.245 A  
HETATM    9  C   UNL     1      -8.852  14.972  66.179  1.00  0.00    -0.047 A  
HETATM   10  C   UNL     1     -10.188  14.842  65.783  1.00  0.00    -0.358 A  
HETATM   11  C   UNL     1     -10.713  16.877  66.997  1.00  0.00    -0.153 A  
HETATM   12  C   UNL     1     -11.119  15.778  66.247  1.00  0.00    -0.073 A  
BRANCH  10  13
HETATM   13  C   UNL     1     -10.602  13.763  64.811  1.00  0.00    -0.428 C  
HETATM   14  O   UNL     1      -9.855  13.959  63.618  1.00  0.00     0.508 OA 
HETATM   15  H   UNL     1     -10.115  13.280  63.006  1.00  0.00     0.000 HD 
BRANCH  13  16
HETATM   16  C   UNL     1     -10.398  12.372  65.442  1.00  0.00    -0.303 C  
BRANCH  16  17
HETATM   17  C   UNL     1     -11.310  12.062  66.632  1.00  0.00    -0.399 C  
BRANCH  17  18
HETATM   18  C   UNL     1     -10.594  11.964  67.986  1.00  0.00    -0.207 C  
BRANCH  18  19
HETATM   19  N   UNL     1     -10.752  10.652  68.635  1.00  0.00    -0.192 NA 
HETATM   20  C   UNL     1     -11.219   9.602  67.724  1.00  0.00     0.137 C  
HETATM   21  C   UNL     1     -10.156   9.100  66.741  1.00  0.00    -0.341 C  
HETATM   22  C   UNL     1      -8.834   8.636  67.408  1.00  0.00    -0.140 C  
HETATM   23  C   UNL     1      -8.897   7.170  68.013  1.00  0.00    -0.129 C  
HETATM   24  C   UNL     1      -8.412   9.761  68.387  1.00  0.00    -0.114 C  
HETATM   25  C   UNL     1      -7.583   6.823  68.748  1.00  0.00    -0.105 A  
HETATM   26  C   UNL     1      -9.280   6.080  66.971  1.00  0.00    -0.124 A  
HETATM   27  C   UNL     1      -9.528  10.222  69.328  1.00  0.00    -0.215 C  
HETATM   28  O   UNL     1      -9.941   7.170  69.003  1.00  0.00    -0.166 OA 
HETATM   29  C   UNL     1      -7.456   7.050  70.135  1.00  0.00    -0.086 A  
HETATM   30  C   UNL     1      -9.052   6.222  65.589  1.00  0.00     0.019 A  
HETATM   31  H   UNL     1      -9.979   6.292  69.365  1.00  0.00     0.000 HD 
HETATM   32  C   UNL     1      -9.501   5.264  64.673  1.00  0.00     0.354 A  
HETATM   33  C   UNL     1      -6.258   6.810  70.811  1.00  0.00    -0.035 A  
HETATM   34  C   UNL     1     -10.162   4.124  65.119  1.00  0.00    -0.218 A  
HETATM   35  C   UNL     1      -5.158   6.314  70.120  1.00  0.00    -0.013 A  
HETATM   36  C   UNL     1      -5.258   6.067  68.754  1.00  0.00    -0.004 A  
HETATM   37  C   UNL     1     -10.350   3.928  66.483  1.00  0.00     0.564 A  
HETATM   38  C   UNL     1      -6.455   6.329  68.072  1.00  0.00    -0.052 A  
HETATM   39  C   UNL     1      -9.902   4.886  67.398  1.00  0.00    -0.213 A  
ENDBRANCH  18  19
ENDBRANCH  17  18
ENDBRANCH  16  17
ENDBRANCH  13  16
ENDBRANCH  10  13
ENDBRANCH   2   7
TORSDOF 6
ENDMDL
MODEL      206
REMARK 921   NORMALIZED FREE ENERGY PREDICTED BY IDOCK:   -1.65 KCAL/MOL
REMARK 922        TOTAL FREE ENERGY PREDICTED BY IDOCK:   -4.58 KCAL/MOL
REMARK 923 INTER-LIGAND FREE ENERGY PREDICTED BY IDOCK:   -4.76 KCAL/MOL
REMARK 924 INTRA-LIGAND FREE ENERGY PREDICTED BY IDOCK:    0.18 KCAL/MOL
REMARK 927      BINDING AFFINITY PREDICTED BY RF-SCORE:    0.00 PKD
ROOT
HETATM    1  C   UNL     1     -11.414  17.514  67.747  1.00  0.00     0.661 C  
HETATM    2  C   UNL     1     -10.184  17.242  66.850  1.00  0.00    -0.322 C  
HETATM    3  C   UNL     1      -9.258  18.472  66.936  1.00  0.00    -0.290 C  
HETATM    4  O   UNL     1      -9.465  19.456  67.633  1.00  0.00    -0.299 OA 
HETATM    5  C   UNL     1     -10.644  17.122  65.385  1.00  0.00    -0.116 C  
HETATM    6  O   UNL     1      -8.148  18.397  66.158  1.00  0.00    -0.408 OA 
ENDROOT
BRANCH   2   7
HETATM    7  C   UNL     1      -9.537  15.934  67.329  1.00  0.00    -0.220 A  
HETATM    8  C   UNL     1      -8.255  15.954  67.910  1.00  0.00    -0.151 A  
HETATM    9  C   UNL     1      -7.577  14.774  68.211  1.00  0.00    -0.115 A  
HETATM   10  C   UNL     1      -8.180  13.535  67.971  1.00  0.00    -0.163 A  
HETATM   11  C   UNL     1     -10.143  14.687  67.128  1.00  0.00    -0.244 A  
HETATM   12  C   UNL     1      -9.488  13.510  67.477  1.00  0.00    -0.222 A  
BRANCH  10  13
HETATM   13  C   UNL     1      -7.406  12.252  68.164  1.00  0.00    -0.105 C  
HETATM   14  O   UNL     1      -7.229  12.071  69.562  1.00  0.00    -0.333 OA 
HETATM   15  H   UNL     1      -6.741  11.264  69.684  1.00  0.00     0.000 HD 
BRANCH  13  16
HETATM   16  C   UNL     1      -8.137  11.081  67.480  1.00  0.00    -0.117 C  
BRANCH  16  17
HETATM   17  C   UNL     1      -9.384  10.581  68.214  1.00  0.00    -0.156 C  
BRANCH  17  18
HETATM   18  C   UNL     1      -9.105   9.847  69.533  1.00  0.00    -0.223 C  
BRANCH  18  19
HETATM   19  N   UNL     1      -8.002   8.876  69.438  1.00  0.00    -0.097 NA 
HETATM   20  C   UNL     1      -7.733   8.173  70.697  1.00  0.00    -0.085 C  
HETATM   21  C   UNL     1      -8.773   7.108  71.061  1.00  0.00    -0.141 C  
HETATM   22  C   UNL     1      -9.036   6.061  69.946  1.00  0.00    -0.147 C  
HETATM   23  C   UNL     1      -7.949   4.906  69.877  1.00  0.00    -0.069 C  
HETATM   24  C   UNL     1      -9.272   6.856  68.636  1.00  0.00    -0.130 C  
HETATM   25  C   UNL     1      -8.223   3.967  68.681  1.00  0.00    -0.082 A  
HETATM   26  C   UNL     1      -7.793   4.116  71.207  1.00  0.00    -0.071 A  
HETATM   27  C   UNL     1      -8.202   7.912  68.346  1.00  0.00    -0.124 C  
HETATM   28  O   UNL     1      -6.681   5.539  69.629  1.00  0.00    -0.053 OA 
HETATM   29  C   UNL     1      -7.601   4.194  67.434  1.00  0.00    -0.076 A  
HETATM   30  C   UNL     1      -8.819   4.009  72.166  1.00  0.00    -0.129 A  
HETATM   31  H   UNL     1      -6.030   4.848  69.588  1.00  0.00     0.000 HD 
HETATM   32  C   UNL     1      -8.607   3.374  73.394  1.00  0.00    -0.078 A  
HETATM   33  C   UNL     1      -7.883   3.404  66.319  1.00  0.00    -0.084 A  
HETATM   34  C   UNL     1      -7.373   2.801  73.683  1.00  0.00    -0.042 A  
HETATM   35  C   UNL     1      -8.779   2.346  66.427  1.00  0.00    -0.125 A  
HETATM   36  C   UNL     1      -9.396   2.088  67.647  1.00  0.00    -0.155 A  
HETATM   37  C   UNL     1      -6.358   2.839  72.733  1.00  0.00    -0.010 A  
HETATM   38  C   UNL     1      -9.130   2.897  68.761  1.00  0.00    -0.212 A  
HETATM   39  C   UNL     1      -6.569   3.475  71.506  1.00  0.00    -0.022 A  
ENDBRANCH  18  19
ENDBRANCH  17  18
ENDBRANCH  16  17
ENDBRANCH  13  16
ENDBRANCH  10  13
ENDBRANCH   2   7
TORSDOF 6
ENDMDL
MODEL      207
REMARK 921   NORMALIZED FREE ENERGY PREDICTED BY IDOCK:   -1.63 KCAL/MOL
REMARK 922        TOTAL FREE ENERGY PREDICTED BY IDOCK:   -4.56 KCAL/MOL
REMARK 923 INTER-LIGAND FREE ENERGY PREDICTED BY IDOCK:   -5.90 KCAL/MOL
REMARK 924 INTRA-LIGAND FREE ENERGY PREDICTED BY IDOCK:    1.34 KCAL/MOL
REMARK 927      BINDING AFFINITY PREDICTED BY RF-SCORE:    0.00 PKD
ROOT
HETATM    1  C   UNL     1      -9.506  17.562  68.706  1.00  0.00    -0.249 C  
HETATM    2  C   UNL     1     -10.340  16.826  67.632  1.00  0.00    -0.309 C  
HETATM    3  C   UNL     1      -9.647  17.037  66.270  1.00  0.00    -0.267 C  
HETATM    4  O   UNL     1      -8.598  17.648  66.107  1.00  0.00    -0.445 OA 
HETATM    5  C   UNL     1     -11.732  17.480  67.537  1.00  0.00     1.417 C  
HETATM    6  O   UNL     1     -10.295  16.482  65.215  1.00  0.00    -0.596 OA 
ENDROOT
BRANCH   2   7
HETATM    7  C   UNL     1     -10.455  15.355  68.056  1.00  0.00    -0.257 A  
HETATM    8  C   UNL     1      -9.293  14.581  68.234  1.00  0.00    -0.203 A  
HETATM    9  C   UNL     1      -9.364  13.208  68.465  1.00  0.00    -0.085 A  
HETATM   10  C   UNL     1     -10.608  12.574  68.562  1.00  0.00    -0.262 A  
HETATM   11  C   UNL     1     -11.693  14.713  68.192  1.00  0.00    -0.360 A  
HETATM   12  C   UNL     1     -11.766  13.353  68.476  1.00  0.00    -0.392 A  
BRANCH  10  13
HETATM   13  C   UNL     1     -10.699  11.070  68.675  1.00  0.00    -0.198 C  
HETATM   14  O   UNL     1     -11.984  10.688  68.203  1.00  0.00    -0.791 OA 
HETATM   15  H   UNL     1     -12.042   9.742  68.275  1.00  0.00     0.000 HD 
BRANCH  13  16
HETATM   16  C   UNL     1      -9.539  10.407  67.907  1.00  0.00    -0.157 C  
BRANCH  16  17
HETATM   17  C   UNL     1      -9.896   9.906  66.505  1.00  0.00    -0.274 C  
BRANCH  17  18
HETATM   18  C   UNL     1      -8.692   9.586  65.608  1.00  0.00    -0.149 C  
BRANCH  18  19
HETATM   19  N   UNL     1      -7.708   8.698  66.250  1.00  0.00    -0.096 NA 
HETATM   20  C   UNL     1      -7.983   8.449  67.668  1.00  0.00    -0.110 C  
HETATM   21  C   UNL     1      -9.158   7.500  67.928  1.00  0.00    -0.130 C  
HETATM   22  C   UNL     1      -9.058   6.140  67.188  1.00  0.00    -0.114 C  
HETATM   23  C   UNL     1      -8.111   5.085  67.904  1.00  0.00    -0.098 C  
HETATM   24  C   UNL     1      -8.726   6.461  65.708  1.00  0.00    -0.135 C  
HETATM   25  C   UNL     1      -7.983   3.800  67.056  1.00  0.00    -0.091 A  
HETATM   26  C   UNL     1      -8.524   4.770  69.370  1.00  0.00    -0.091 A  
HETATM   27  C   UNL     1      -7.551   7.426  65.528  1.00  0.00    -0.094 C  
HETATM   28  O   UNL     1      -6.801   5.675  67.969  1.00  0.00    -0.060 OA 
HETATM   29  C   UNL     1      -6.924   3.652  66.135  1.00  0.00    -0.062 A  
HETATM   30  C   UNL     1      -9.840   4.918  69.849  1.00  0.00    -0.295 A  
HETATM   31  H   UNL     1      -6.234   5.044  68.397  1.00  0.00     0.000 HD 
HETATM   32  C   UNL     1     -10.152   4.720  71.199  1.00  0.00    -0.261 A  
HETATM   33  C   UNL     1      -6.822   2.532  65.307  1.00  0.00    -0.044 A  
HETATM   34  C   UNL     1      -9.161   4.339  72.098  1.00  0.00    -0.163 A  
HETATM   35  C   UNL     1      -7.767   1.516  65.395  1.00  0.00    -0.067 A  
HETATM   36  C   UNL     1      -8.814   1.627  66.305  1.00  0.00    -0.118 A  
HETATM   37  C   UNL     1      -7.864   4.128  71.643  1.00  0.00    -0.071 A  
HETATM   38  C   UNL     1      -8.928   2.763  67.120  1.00  0.00    -0.182 A  
HETATM   39  C   UNL     1      -7.552   4.327  70.295  1.00  0.00    -0.046 A  
ENDBRANCH  18  19
ENDBRANCH  17  18
ENDBRANCH  16  17
ENDBRANCH  13  16
ENDBRANCH  10  13
ENDBRANCH   2   7
TORSDOF 6
ENDMDL
MODEL      208
REMARK 921   NORMALIZED FREE ENERGY PREDICTED BY IDOCK:   -1.40 KCAL/MOL
REMARK 922        TOTAL FREE ENERGY PREDICTED BY IDOCK:   -4.25 KCAL/MOL
REMARK 923 INTER-LIGAND FREE ENERGY PREDICTED BY IDOCK:   -4.44 KCAL/MOL
REMARK 924 INTRA-LIGAND FREE ENERGY PREDICTED BY IDOCK:    0.19 KCAL/MOL
REMARK 927      BINDING AFFINITY PREDICTED BY RF-SCORE:    0.00 PKD
ROOT
HETATM    1  C   UNL     1      -9.036   5.195  71.425  1.00  0.00    -0.171 C  
HETATM    2  C   UNL     1      -7.795   5.566  72.269  1.00  0.00    -0.103 C  
HETATM    3  C   UNL     1      -6.965   4.283  72.475  1.00  0.00    -0.056 C  
HETATM    4  O   UNL     1      -7.242   3.188  72.004  1.00  0.00    -0.040 OA 
HETATM    5  C   UNL     1      -8.255   6.037  73.663  1.00  0.00    -0.112 C  
HETATM    6  O   UNL     1      -5.858   4.445  73.244  1.00  0.00    -0.008 OA 
ENDROOT
BRANCH   2   7
HETATM    7  C   UNL     1      -7.047   6.687  71.532  1.00  0.00    -0.080 A  
HETATM    8  C   UNL     1      -7.171   8.020  71.968  1.00  0.00    -0.089 A  
HETATM    9  C   UNL     1      -6.634   9.075  71.232  1.00  0.00    -0.086 A  
HETATM   10  C   UNL     1      -5.924   8.823  70.053  1.00  0.00    -0.030 A  
HETATM   11  C   UNL     1      -6.304   6.446  70.371  1.00  0.00    -0.036 A  
HETATM   12  C   UNL     1      -5.722   7.494  69.664  1.00  0.00    -0.023 A  
BRANCH  10  13
HETATM   13  C   UNL     1      -5.457   9.961  69.177  1.00  0.00    -0.035 C  
HETATM   14  O   UNL     1      -5.141   9.413  67.904  1.00  0.00    -0.033 OA 
HETATM   15  H   UNL     1      -4.847  10.128  67.353  1.00  0.00     0.000 HD 
BRANCH  13  16
HETATM   16  C   UNL     1      -6.530  11.066  69.122  1.00  0.00    -0.066 C  
BRANCH  16  17
HETATM   17  C   UNL     1      -6.525  11.907  67.843  1.00  0.00    -0.068 C  
BRANCH  17  18
HETATM   18  C   UNL     1      -7.707  12.876  67.704  1.00  0.00    -0.162 C  
BRANCH  18  19
HETATM   19  N   UNL     1      -8.973  12.206  67.361  1.00  0.00    -0.173 NA 
HETATM   20  C   UNL     1      -8.787  10.926  66.671  1.00  0.00    -0.159 C  
HETATM   21  C   UNL     1      -8.311   9.783  67.575  1.00  0.00    -0.114 C  
HETATM   22  C   UNL     1      -9.187   9.554  68.834  1.00  0.00    -0.145 C  
HETATM   23  C   UNL     1     -10.508   8.717  68.556  1.00  0.00    -0.175 C  
HETATM   24  C   UNL     1      -9.385  10.941  69.497  1.00  0.00     0.193 C  
HETATM   25  C   UNL     1     -11.375   8.621  69.831  1.00  0.00     0.043 A  
HETATM   26  C   UNL     1     -10.241   7.317  67.933  1.00  0.00    -0.237 A  
HETATM   27  C   UNL     1      -9.847  12.035  68.532  1.00  0.00    -0.172 C  
HETATM   28  O   UNL     1     -11.274   9.454  67.586  1.00  0.00    -0.464 OA 
HETATM   29  C   UNL     1     -12.399   9.561  70.074  1.00  0.00     0.412 A  
HETATM   30  C   UNL     1      -9.031   6.617  68.102  1.00  0.00    -0.121 A  
HETATM   31  H   UNL     1     -12.064   8.954  67.419  1.00  0.00     0.000 HD 
HETATM   32  C   UNL     1      -8.791   5.405  67.444  1.00  0.00    -0.105 A  
HETATM   33  C   UNL     1     -13.152   9.539  71.250  1.00  0.00    -0.402 A  
HETATM   34  C   UNL     1      -9.767   4.848  66.625  1.00  0.00    -0.197 A  
HETATM   35  C   UNL     1     -12.914   8.559  72.207  1.00  0.00    -0.384 A  
HETATM   36  C   UNL     1     -11.920   7.610  71.989  1.00  0.00    -0.341 A  
HETATM   37  C   UNL     1     -10.994   5.487  66.485  1.00  0.00    -0.120 A  
HETATM   38  C   UNL     1     -11.150   7.646  70.818  1.00  0.00    -0.276 A  
HETATM   39  C   UNL     1     -11.234   6.698  67.141  1.00  0.00    -0.306 A  
ENDBRANCH  18  19
ENDBRANCH  17  18
ENDBRANCH  16  17
ENDBRANCH  13  16
ENDBRANCH  10  13
ENDBRANCH   2   7
TORSDOF 6
ENDMDL
MODEL      209
REMARK 921   NORMALIZED FREE ENERGY PREDICTED BY IDOCK:   -1.30 KCAL/MOL
REMARK 922        TOTAL FREE ENERGY PREDICTED BY IDOCK:   -4.11 KCAL/MOL
REMARK 923 INTER-LIGAND FREE ENERGY PREDICTED BY IDOCK:   -3.56 KCAL/MOL
REMARK 924 INTRA-LIGAND FREE ENERGY PREDICTED BY IDOCK:   -0.55 KCAL/MOL
REMARK 927      BINDING AFFINITY PREDICTED BY RF-SCORE:    0.00 PKD
ROOT
HETATM    1  C   UNL     1     -11.137  16.428  70.924  1.00  0.00    -0.073 C  
HETATM    2  C   UNL     1     -10.875  16.465  69.400  1.00  0.00    -0.327 C  
HETATM    3  C   UNL     1     -10.633  17.935  69.000  1.00  0.00     0.065 C  
HETATM    4  O   UNL     1     -10.615  18.878  69.780  1.00  0.00     0.632 OA 
HETATM    5  C   UNL     1     -12.142  15.996  68.659  1.00  0.00     0.152 C  
HETATM    6  O   UNL     1     -10.433  18.132  67.672  1.00  0.00    -0.385 OA 
ENDROOT
BRANCH   2   7
HETATM    7  C   UNL     1      -9.692  15.531  69.107  1.00  0.00    -0.252 A  
HETATM    8  C   UNL     1      -8.381  16.044  69.077  1.00  0.00    -0.243 A  
HETATM    9  C   UNL     1      -7.306  15.261  68.661  1.00  0.00    -0.120 A  
HETATM   10  C   UNL     1      -7.507  13.925  68.297  1.00  0.00    -0.118 A  
HETATM   11  C   UNL     1      -9.873  14.183  68.775  1.00  0.00    -0.168 A  
HETATM   12  C   UNL     1      -8.792  13.385  68.411  1.00  0.00    -0.133 A  
BRANCH  10  13
HETATM   13  C   UNL     1      -6.378  13.106  67.717  1.00  0.00    -0.156 C  
HETATM   14  O   UNL     1      -5.171  13.576  68.303  1.00  0.00    -0.083 OA 
HETATM   15  H   UNL     1      -4.460  13.061  67.937  1.00  0.00     0.000 HD 
BRANCH  13  16
HETATM   16  C   UNL     1      -6.633  11.605  67.952  1.00  0.00    -0.065 C  
BRANCH  16  17
HETATM   17  C   UNL     1      -6.298  10.699  66.765  1.00  0.00    -0.084 C  
BRANCH  17  18
HETATM   18  C   UNL     1      -6.742   9.238  66.922  1.00  0.00    -0.076 C  
BRANCH  18  19
HETATM   19  N   UNL     1      -6.393   8.661  68.232  1.00  0.00    -0.054 NA 
HETATM   20  C   UNL     1      -7.483   8.733  69.211  1.00  0.00    -0.078 C  
HETATM   21  C   UNL     1      -8.623   7.739  68.963  1.00  0.00    -0.135 C  
HETATM   22  C   UNL     1      -8.167   6.262  68.826  1.00  0.00    -0.120 C  
HETATM   23  C   UNL     1      -7.902   5.538  70.214  1.00  0.00    -0.093 C  
HETATM   24  C   UNL     1      -6.991   6.252  67.815  1.00  0.00    -0.075 C  
HETATM   25  C   UNL     1      -7.354   4.111  69.991  1.00  0.00    -0.046 A  
HETATM   26  C   UNL     1      -9.133   5.541  71.165  1.00  0.00    -0.159 A  
HETATM   27  C   UNL     1      -5.899   7.280  68.118  1.00  0.00    -0.023 C  
HETATM   28  O   UNL     1      -6.869   6.282  70.884  1.00  0.00    -0.059 OA 
HETATM   29  C   UNL     1      -5.963   3.874  69.962  1.00  0.00    -0.018 A  
HETATM   30  C   UNL     1     -10.461   5.639  70.706  1.00  0.00    -0.335 A  
HETATM   31  H   UNL     1      -6.710   5.849  71.714  1.00  0.00     0.000 HD 
HETATM   32  C   UNL     1     -11.535   5.740  71.597  1.00  0.00    -0.164 A  
HETATM   33  C   UNL     1      -5.440   2.607  69.694  1.00  0.00    -0.016 A  
HETATM   34  C   UNL     1     -11.311   5.714  72.970  1.00  0.00    -0.288 A  
HETATM   35  C   UNL     1      -6.297   1.536  69.471  1.00  0.00    -0.025 A  
HETATM   36  C   UNL     1      -7.673   1.736  69.509  1.00  0.00    -0.045 A  
HETATM   37  C   UNL     1     -10.016   5.559  73.453  1.00  0.00    -0.189 A  
HETATM   38  C   UNL     1      -8.198   3.013  69.755  1.00  0.00    -0.067 A  
HETATM   39  C   UNL     1      -8.942   5.460  72.562  1.00  0.00    -0.136 A  
ENDBRANCH  18  19
ENDBRANCH  17  18
ENDBRANCH  16  17
ENDBRANCH  13  16
ENDBRANCH  10  13
ENDBRANCH   2   7
TORSDOF 6
ENDMDL
MODEL      210
REMARK 921   NORMALIZED FREE ENERGY PREDICTED BY IDOCK:   -1.28 KCAL/MOL
REMARK 922        TOTAL FREE ENERGY PREDICTED BY IDOCK:   -4.09 KCAL/MOL
REMARK 923 INTER-LIGAND FREE ENERGY PREDICTED BY IDOCK:   -3.25 KCAL/MOL
REMARK 924 INTRA-LIGAND FREE ENERGY PREDICTED BY IDOCK:   -0.84 KCAL/MOL
REMARK 927      BINDING AFFINITY PREDICTED BY RF-SCORE:    0.00 PKD
ROOT
HETATM    1  C   UNL     1     -12.420   8.966  71.246  1.00  0.00    -0.321 C  
HETATM    2  C   UNL     1     -11.388   8.187  70.399  1.00  0.00    -0.181 C  
HETATM    3  C   UNL     1     -10.652   9.203  69.501  1.00  0.00    -0.223 C  
HETATM    4  O   UNL     1     -10.843  10.412  69.511  1.00  0.00    -0.221 OA 
HETATM    5  C   UNL     1     -12.133   7.213  69.465  1.00  0.00     0.669 C  
HETATM    6  O   UNL     1      -9.739   8.654  68.659  1.00  0.00    -0.157 OA 
ENDROOT
BRANCH   2   7
HETATM    7  C   UNL     1     -10.470   7.423  71.365  1.00  0.00    -0.218 A  
HETATM    8  C   UNL     1     -10.392   6.019  71.300  1.00  0.00    -0.266 A  
HETATM    9  C   UNL     1      -9.693   5.287  72.259  1.00  0.00    -0.192 A  
HETATM   10  C   UNL     1      -9.021   5.944  73.294  1.00  0.00    -0.130 A  
HETATM   11  C   UNL     1      -9.762   8.070  72.386  1.00  0.00    -0.305 A  
HETATM   12  C   UNL     1      -9.020   7.343  73.312  1.00  0.00    -0.210 A  
BRANCH  10  13
HETATM   13  C   UNL     1      -8.377   5.161  74.414  1.00  0.00    -0.104 C  
HETATM   14  O   UNL     1      -9.088   3.937  74.536  1.00  0.00    -0.095 OA 
HETATM   15  H   UNL     1      -8.683   3.444  75.241  1.00  0.00     0.000 HD 
BRANCH  13  16
HETATM   16  C   UNL     1      -6.873   4.973  74.135  1.00  0.00    -0.076 C  
BRANCH  16  17
HETATM   17  C   UNL     1      -6.381   5.569  72.813  1.00  0.00    -0.056 C  
BRANCH  17  18
HETATM   18  C   UNL     1      -6.172   4.550  71.684  1.00  0.00    -0.018 C  
BRANCH  18  19
HETATM   19  N   UNL     1      -7.219   4.603  70.650  1.00  0.00    -0.047 NA 
HETATM   20  C   UNL     1      -7.269   5.882  69.935  1.00  0.00    -0.073 C  
HETATM   21  C   UNL     1      -6.128   6.092  68.933  1.00  0.00    -0.031 C  
HETATM   22  C   UNL     1      -5.961   4.944  67.902  1.00  0.00    -0.023 C  
HETATM   23  C   UNL     1      -6.978   5.020  66.684  1.00  0.00    -0.067 C  
HETATM   24  C   UNL     1      -5.957   3.619  68.707  1.00  0.00    -0.024 C  
HETATM   25  C   UNL     1      -6.819   3.792  65.761  1.00  0.00    -0.057 A  
HETATM   26  C   UNL     1      -6.901   6.354  65.888  1.00  0.00    -0.056 A  
HETATM   27  C   UNL     1      -7.117   3.487  69.697  1.00  0.00    -0.042 C  
HETATM   28  O   UNL     1      -8.303   4.955  67.241  1.00  0.00    -0.106 OA 
HETATM   29  C   UNL     1      -7.620   2.645  65.949  1.00  0.00    -0.073 A  
HETATM   30  C   UNL     1      -5.747   7.159  65.845  1.00  0.00    -0.032 A  
HETATM   31  H   UNL     1      -8.911   5.000  66.513  1.00  0.00     0.000 HD 
HETATM   32  C   UNL     1      -5.748   8.402  65.200  1.00  0.00    -0.044 A  
HETATM   33  C   UNL     1      -7.450   1.496  65.174  1.00  0.00    -0.057 A  
HETATM   34  C   UNL     1      -6.895   8.856  64.556  1.00  0.00    -0.081 A  
HETATM   35  C   UNL     1      -6.487   1.472  64.171  1.00  0.00    -0.018 A  
HETATM   36  C   UNL     1      -5.692   2.593  63.953  1.00  0.00    -0.010 A  
HETATM   37  C   UNL     1      -8.032   8.056  64.533  1.00  0.00    -0.151 A  
HETATM   38  C   UNL     1      -5.848   3.738  64.746  1.00  0.00    -0.022 A  
HETATM   39  C   UNL     1      -8.031   6.815  65.178  1.00  0.00    -0.128 A  
ENDBRANCH  18  19
ENDBRANCH  17  18
ENDBRANCH  16  17
ENDBRANCH  13  16
ENDBRANCH  10  13
ENDBRANCH   2   7
TORSDOF 6
ENDMDL
MODEL      211
REMARK 921   NORMALIZED FREE ENERGY PREDICTED BY IDOCK:   -1.24 KCAL/MOL
REMARK 922        TOTAL FREE ENERGY PREDICTED BY IDOCK:   -4.03 KCAL/MOL
REMARK 923 INTER-LIGAND FREE ENERGY PREDICTED BY IDOCK:   -3.24 KCAL/MOL
REMARK 924 INTRA-LIGAND FREE ENERGY PREDICTED BY IDOCK:   -0.79 KCAL/MOL
REMARK 927      BINDING AFFINITY PREDICTED BY RF-SCORE:    0.00 PKD
ROOT
HETATM    1  C   UNL     1      -7.319   4.483  66.561  1.00  0.00    -0.081 C  
HETATM    2  C   UNL     1      -8.696   4.344  67.251  1.00  0.00    -0.108 C  
HETATM    3  C   UNL     1      -8.530   3.385  68.447  1.00  0.00    -0.084 C  
HETATM    4  O   UNL     1      -7.472   2.873  68.790  1.00  0.00    -0.048 OA 
HETATM    5  C   UNL     1      -9.687   3.683  66.274  1.00  0.00    -0.093 C  
HETATM    6  O   UNL     1      -9.676   3.128  69.128  1.00  0.00    -0.086 OA 
ENDROOT
BRANCH   2   7
HETATM    7  C   UNL     1      -9.169   5.754  67.638  1.00  0.00    -0.105 A  
HETATM    8  C   UNL     1     -10.373   6.261  67.114  1.00  0.00    -0.286 A  
HETATM    9  C   UNL     1     -10.750   7.587  67.319  1.00  0.00    -0.365 A  
HETATM   10  C   UNL     1      -9.948   8.437  68.088  1.00  0.00    -0.224 A  
HETATM   11  C   UNL     1      -8.394   6.605  68.436  1.00  0.00    -0.122 A  
HETATM   12  C   UNL     1      -8.797   7.913  68.686  1.00  0.00    -0.134 A  
BRANCH  10  13
HETATM   13  C   UNL     1     -10.274   9.907  68.205  1.00  0.00    -0.179 C  
HETATM   14  O   UNL     1     -11.686  10.019  68.321  1.00  0.00    -0.649 OA 
HETATM   15  H   UNL     1     -11.892  10.944  68.393  1.00  0.00     0.000 HD 
BRANCH  13  16
HETATM   16  C   UNL     1      -9.509  10.530  69.388  1.00  0.00    -0.158 C  
BRANCH  16  17
HETATM   17  C   UNL     1      -9.057  11.978  69.175  1.00  0.00     0.514 C  
BRANCH  17  18
HETATM   18  C   UNL     1      -9.391  12.562  67.796  1.00  0.00    -0.198 C  
BRANCH  18  19
HETATM   19  N   UNL     1      -8.357  13.477  67.284  1.00  0.00    -0.191 NA 
HETATM   20  C   UNL     1      -8.881  14.502  66.376  1.00  0.00    -0.033 C  
HETATM   21  C   UNL     1      -9.668  15.619  67.071  1.00  0.00    -0.234 C  
HETATM   22  C   UNL     1      -8.906  16.315  68.230  1.00  0.00    -0.188 C  
HETATM   23  C   UNL     1      -7.865  17.414  67.749  1.00  0.00    -0.200 C  
HETATM   24  C   UNL     1      -8.339  15.187  69.130  1.00  0.00    -0.221 C  
HETATM   25  C   UNL     1      -7.076  17.983  68.948  1.00  0.00    -0.268 A  
HETATM   26  C   UNL     1      -8.502  18.542  66.889  1.00  0.00    -0.277 A  
HETATM   27  C   UNL     1      -7.579  14.100  68.366  1.00  0.00    -0.130 C  
HETATM   28  O   UNL     1      -6.913  16.746  66.902  1.00  0.00    -0.179 OA 
HETATM   29  C   UNL     1      -5.834  17.424  69.320  1.00  0.00    -0.210 A  
HETATM   30  C   UNL     1      -9.861  18.902  66.974  1.00  0.00    -0.368 A  
HETATM   31  H   UNL     1      -6.290  17.403  66.614  1.00  0.00     0.000 HD 
HETATM   32  C   UNL     1     -10.419  19.854  66.113  1.00  0.00    -0.581 A  
HETATM   33  C   UNL     1      -5.133  17.874  70.440  1.00  0.00    -0.248 A  
HETATM   34  C   UNL     1      -9.625  20.493  65.166  1.00  0.00     0.956 A  
HETATM   35  C   UNL     1      -5.645  18.914  71.208  1.00  0.00    -0.110 A  
HETATM   36  C   UNL     1      -6.860  19.494  70.858  1.00  0.00     0.668 A  
HETATM   37  C   UNL     1      -8.267  20.201  65.097  1.00  0.00     0.879 A  
HETATM   38  C   UNL     1      -7.574  19.027  69.745  1.00  0.00     0.391 A  
HETATM   39  C   UNL     1      -7.710  19.249  65.957  1.00  0.00    -0.293 A  
ENDBRANCH  18  19
ENDBRANCH  17  18
ENDBRANCH  16  17
ENDBRANCH  13  16
ENDBRANCH  10  13
ENDBRANCH   2   7
TORSDOF 6
ENDMDL
MODEL      212
REMARK 921   NORMALIZED FREE ENERGY PREDICTED BY IDOCK:   -1.21 KCAL/MOL
REMARK 922        TOTAL FREE ENERGY PREDICTED BY IDOCK:   -3.99 KCAL/MOL
REMARK 923 INTER-LIGAND FREE ENERGY PREDICTED BY IDOCK:   -4.24 KCAL/MOL
REMARK 924 INTRA-LIGAND FREE ENERGY PREDICTED BY IDOCK:    0.25 KCAL/MOL
REMARK 927      BINDING AFFINITY PREDICTED BY RF-SCORE:    0.00 PKD
ROOT
HETATM    1  C   UNL     1      -7.172   7.669  71.129  1.00  0.00    -0.062 C  
HETATM    2  C   UNL     1      -6.967   7.639  69.597  1.00  0.00    -0.052 C  
HETATM    3  C   UNL     1      -7.059   6.169  69.138  1.00  0.00    -0.070 C  
HETATM    4  O   UNL     1      -7.296   5.221  69.875  1.00  0.00    -0.061 OA 
HETATM    5  C   UNL     1      -5.544   8.129  69.267  1.00  0.00    -0.031 C  
HETATM    6  O   UNL     1      -6.851   5.979  67.811  1.00  0.00    -0.056 OA 
ENDROOT
BRANCH   2   7
HETATM    7  C   UNL     1      -8.022   8.560  68.967  1.00  0.00    -0.113 A  
HETATM    8  C   UNL     1      -8.576   9.613  69.719  1.00  0.00    -0.211 A  
HETATM    9  C   UNL     1      -9.644  10.367  69.233  1.00  0.00    -0.226 A  
HETATM   10  C   UNL     1     -10.165  10.112  67.960  1.00  0.00    -0.205 A  
HETATM   11  C   UNL     1      -8.529   8.340  67.680  1.00  0.00    -0.130 A  
HETATM   12  C   UNL     1      -9.559   9.127  67.173  1.00  0.00    -0.215 A  
BRANCH  10  13
HETATM   13  C   UNL     1     -11.405  10.827  67.478  1.00  0.00    -0.205 C  
HETATM   14  O   UNL     1     -12.223  11.067  68.615  1.00  0.00    -0.734 OA 
HETATM   15  H   UNL     1     -13.003  11.517  68.311  1.00  0.00     0.000 HD 
BRANCH  13  16
HETATM   16  C   UNL     1     -11.017  12.109  66.717  1.00  0.00    -0.325 C  
BRANCH  16  17
HETATM   17  C   UNL     1     -10.937  13.373  67.579  1.00  0.00    -0.284 C  
BRANCH  17  18
HETATM   18  C   UNL     1      -9.848  13.348  68.660  1.00  0.00    -0.112 C  
BRANCH  18  19
HETATM   19  N   UNL     1      -8.592  13.991  68.238  1.00  0.00    -0.175 NA 
HETATM   20  C   UNL     1      -8.764  14.937  67.130  1.00  0.00    -0.219 C  
HETATM   21  C   UNL     1      -9.426  16.261  67.526  1.00  0.00    -0.227 C  
HETATM   22  C   UNL     1      -8.740  16.992  68.710  1.00  0.00    -0.244 C  
HETATM   23  C   UNL     1      -7.449  17.818  68.296  1.00  0.00    -0.247 C  
HETATM   24  C   UNL     1      -8.546  15.939  69.831  1.00  0.00     0.424 C  
HETATM   25  C   UNL     1      -6.766  18.428  69.540  1.00  0.00    -0.125 A  
HETATM   26  C   UNL     1      -7.717  18.890  67.201  1.00  0.00    -0.246 A  
HETATM   27  C   UNL     1      -7.892  14.637  69.358  1.00  0.00    -0.028 C  
HETATM   28  O   UNL     1      -6.517  16.881  67.726  1.00  0.00    -0.133 OA 
HETATM   29  C   UNL     1      -5.726  17.737  70.198  1.00  0.00    -0.230 A  
HETATM   30  C   UNL     1      -8.981  19.476  66.991  1.00  0.00    -0.365 A  
HETATM   31  H   UNL     1      -5.744  17.375  67.478  1.00  0.00     0.000 HD 
HETATM   32  C   UNL     1      -9.206  20.363  65.932  1.00  0.00     0.008 A  
HETATM   33  C   UNL     1      -5.139  18.233  71.364  1.00  0.00    -0.175 A  
HETATM   34  C   UNL     1      -8.167  20.710  65.075  1.00  0.00     1.189 A  
HETATM   35  C   UNL     1      -5.561  19.448  71.891  1.00  0.00    -0.233 A  
HETATM   36  C   UNL     1      -6.574  20.159  71.255  1.00  0.00     0.153 A  
HETATM   37  C   UNL     1      -6.895  20.192  65.292  1.00  0.00    -0.334 A  
HETATM   38  C   UNL     1      -7.179  19.650  70.097  1.00  0.00     0.273 A  
HETATM   39  C   UNL     1      -6.669  19.305  66.350  1.00  0.00    -0.213 A  
ENDBRANCH  18  19
ENDBRANCH  17  18
ENDBRANCH  16  17
ENDBRANCH  13  16
ENDBRANCH  10  13
ENDBRANCH   2   7
TORSDOF 6
ENDMDL
MODEL      213
REMARK 921   NORMALIZED FREE ENERGY PREDICTED BY IDOCK:   -1.11 KCAL/MOL
REMARK 922        TOTAL FREE ENERGY PREDICTED BY IDOCK:   -3.85 KCAL/MOL
REMARK 923 INTER-LIGAND FREE ENERGY PREDICTED BY IDOCK:   -3.12 KCAL/MOL
REMARK 924 INTRA-LIGAND FREE ENERGY PREDICTED BY IDOCK:   -0.73 KCAL/MOL
REMARK 927      BINDING AFFINITY PREDICTED BY RF-SCORE:    0.00 PKD
ROOT
HETATM    1  C   UNL     1     -12.695   5.882  72.553  1.00  0.00     0.352 C  
HETATM    2  C   UNL     1     -11.331   6.548  72.260  1.00  0.00    -0.318 C  
HETATM    3  C   UNL     1     -10.384   6.217  73.431  1.00  0.00    -0.242 C  
HETATM    4  O   UNL     1     -10.676   5.514  74.389  1.00  0.00    -0.252 OA 
HETATM    5  C   UNL     1     -11.509   8.078  72.239  1.00  0.00    -0.419 C  
HETATM    6  O   UNL     1      -9.151   6.778  73.335  1.00  0.00    -0.126 OA 
ENDROOT
BRANCH   2   7
HETATM    7  C   UNL     1     -10.845   6.036  70.896  1.00  0.00    -0.349 A  
HETATM    8  C   UNL     1     -11.264   6.676  69.714  1.00  0.00    -0.413 A  
HETATM    9  C   UNL     1     -10.970   6.144  68.459  1.00  0.00    -0.404 A  
HETATM   10  C   UNL     1     -10.214   4.972  68.350  1.00  0.00    -0.143 A  
HETATM   11  C   UNL     1     -10.059   4.883  70.770  1.00  0.00    -0.303 A  
HETATM   12  C   UNL     1      -9.720   4.382  69.518  1.00  0.00    -0.280 A  
BRANCH  10  13
HETATM   13  C   UNL     1     -10.005   4.313  67.007  1.00  0.00    -0.123 C  
HETATM   14  O   UNL     1     -10.769   5.041  66.055  1.00  0.00    -0.482 OA 
HETATM   15  H   UNL     1     -10.638   4.626  65.210  1.00  0.00     0.000 HD 
BRANCH  13  16
HETATM   16  C   UNL     1      -8.502   4.252  66.673  1.00  0.00    -0.108 C  
BRANCH  16  17
HETATM   17  C   UNL     1      -8.104   4.934  65.361  1.00  0.00    -0.114 C  
BRANCH  17  18
HETATM   18  C   UNL     1      -6.604   5.229  65.217  1.00  0.00    -0.040 C  
BRANCH  18  19
HETATM   19  N   UNL     1      -6.324   6.546  64.621  1.00  0.00    -0.037 NA 
HETATM   20  C   UNL     1      -7.450   7.092  63.856  1.00  0.00    -0.103 C  
HETATM   21  C   UNL     1      -8.605   7.615  64.717  1.00  0.00     0.135 C  
HETATM   22  C   UNL     1      -8.184   8.646  65.798  1.00  0.00    -0.126 C  
HETATM   23  C   UNL     1      -7.995  10.121  65.242  1.00  0.00    -0.145 C  
HETATM   24  C   UNL     1      -6.969   8.036  66.544  1.00  0.00    -0.071 C  
HETATM   25  C   UNL     1      -7.477  11.062  66.352  1.00  0.00    -0.131 A  
HETATM   26  C   UNL     1      -9.263  10.693  64.546  1.00  0.00    -0.264 A  
HETATM   27  C   UNL     1      -5.863   7.522  65.620  1.00  0.00    -0.037 C  
HETATM   28  O   UNL     1      -6.971  10.061  64.234  1.00  0.00    -0.126 OA 
HETATM   29  C   UNL     1      -6.092  11.285  66.515  1.00  0.00    -0.139 A  
HETATM   30  C   UNL     1     -10.568  10.253  64.839  1.00  0.00     0.190 A  
HETATM   31  H   UNL     1      -6.857  10.943  63.902  1.00  0.00     0.000 HD 
HETATM   32  C   UNL     1     -11.674  10.721  64.121  1.00  0.00     1.676 A  
HETATM   33  C   UNL     1      -5.593  12.075  67.552  1.00  0.00    -0.105 A  
HETATM   34  C   UNL     1     -11.507  11.663  63.112  1.00  0.00    -0.125 A  
HETATM   35  C   UNL     1      -6.469  12.685  68.443  1.00  0.00    -0.078 A  
HETATM   36  C   UNL     1      -7.840  12.496  68.298  1.00  0.00    -0.144 A  
HETATM   37  C   UNL     1     -10.237  12.160  62.839  1.00  0.00     0.317 A  
HETATM   38  C   UNL     1      -8.339  11.684  67.270  1.00  0.00    -0.158 A  
HETATM   39  C   UNL     1      -9.131  11.693  63.556  1.00  0.00     0.114 A  
ENDBRANCH  18  19
ENDBRANCH  17  18
ENDBRANCH  16  17
ENDBRANCH  13  16
ENDBRANCH  10  13
ENDBRANCH   2   7
TORSDOF 6
ENDMDL
MODEL      214
REMARK 921   NORMALIZED FREE ENERGY PREDICTED BY IDOCK:   -0.98 KCAL/MOL
REMARK 922        TOTAL FREE ENERGY PREDICTED BY IDOCK:   -3.68 KCAL/MOL
REMARK 923 INTER-LIGAND FREE ENERGY PREDICTED BY IDOCK:   -3.69 KCAL/MOL
REMARK 924 INTRA-LIGAND FREE ENERGY PREDICTED BY IDOCK:    0.01 KCAL/MOL
REMARK 927      BINDING AFFINITY PREDICTED BY RF-SCORE:    0.00 PKD
ROOT
HETATM    1  C   UNL     1      -7.687  20.243  70.698  1.00  0.00     1.346 C  
HETATM    2  C   UNL     1      -7.929  19.373  69.443  1.00  0.00    -0.013 C  
HETATM    3  C   UNL     1      -7.414  20.158  68.220  1.00  0.00    -0.194 C  
HETATM    4  O   UNL     1      -6.873  21.255  68.270  1.00  0.00     0.016 OA 
HETATM    5  C   UNL     1      -9.445  19.177  69.249  1.00  0.00    -0.162 C  
HETATM    6  O   UNL     1      -7.603  19.534  67.029  1.00  0.00    -0.234 OA 
ENDROOT
BRANCH   2   7
HETATM    7  C   UNL     1      -7.227  18.026  69.666  1.00  0.00     0.316 A  
HETATM    8  C   UNL     1      -7.816  16.839  69.192  1.00  0.00    -0.145 A  
HETATM    9  C   UNL     1      -7.287  15.589  69.512  1.00  0.00    -0.203 A  
HETATM   10  C   UNL     1      -6.128  15.493  70.289  1.00  0.00    -0.085 A  
HETATM   11  C   UNL     1      -6.047  17.916  70.412  1.00  0.00     0.195 A  
HETATM   12  C   UNL     1      -5.488  16.672  70.687  1.00  0.00    -0.126 A  
BRANCH  10  13
HETATM   13  C   UNL     1      -5.623  14.148  70.756  1.00  0.00    -0.173 C  
HETATM   14  O   UNL     1      -6.402  13.773  71.884  1.00  0.00    -0.423 OA 
HETATM   15  H   UNL     1      -6.084  12.927  72.178  1.00  0.00     0.000 HD 
BRANCH  13  16
HETATM   16  C   UNL     1      -5.679  13.129  69.602  1.00  0.00    -0.105 C  
BRANCH  16  17
HETATM   17  C   UNL     1      -7.089  12.781  69.115  1.00  0.00     0.032 C  
BRANCH  17  18
HETATM   18  C   UNL     1      -7.146  12.084  67.749  1.00  0.00    -0.108 C  
BRANCH  18  19
HETATM   19  N   UNL     1      -8.432  11.414  67.490  1.00  0.00    -0.133 NA 
HETATM   20  C   UNL     1      -8.289  10.111  66.833  1.00  0.00    -0.122 C  
HETATM   21  C   UNL     1      -7.776   8.993  67.748  1.00  0.00    -0.097 C  
HETATM   22  C   UNL     1      -8.591   8.811  69.056  1.00  0.00    -0.132 C  
HETATM   23  C   UNL     1      -9.930   7.977  68.870  1.00  0.00    -0.195 C  
HETATM   24  C   UNL     1      -8.747  10.220  69.684  1.00  0.00    -0.125 C  
HETATM   25  C   UNL     1     -10.733   7.929  70.188  1.00  0.00    -0.244 A  
HETATM   26  C   UNL     1      -9.703   6.556  68.280  1.00  0.00    -0.131 A  
HETATM   27  C   UNL     1      -9.248  11.287  68.707  1.00  0.00    -0.126 C  
HETATM   28  O   UNL     1     -10.737   8.689  67.915  1.00  0.00    -0.418 OA 
HETATM   29  C   UNL     1     -11.738   8.885  70.451  1.00  0.00    -0.055 A  
HETATM   30  C   UNL     1      -8.491   5.851  68.411  1.00  0.00    -0.111 A  
HETATM   31  H   UNL     1     -11.538   8.191  67.804  1.00  0.00     0.000 HD 
HETATM   32  C   UNL     1      -8.292   4.618  67.782  1.00  0.00    -0.103 A  
HETATM   33  C   UNL     1     -12.431   8.906  71.663  1.00  0.00    -0.403 A  
HETATM   34  C   UNL     1      -9.311   4.043  67.029  1.00  0.00    -0.204 A  
HETATM   35  C   UNL     1     -12.154   7.955  72.638  1.00  0.00    -0.240 A  
HETATM   36  C   UNL     1     -11.178   6.991  72.401  1.00  0.00    -0.305 A  
HETATM   37  C   UNL     1     -10.539   4.687  66.929  1.00  0.00     0.110 A  
HETATM   38  C   UNL     1     -10.467   6.984  71.193  1.00  0.00    -0.229 A  
HETATM   39  C   UNL     1     -10.738   5.921  67.558  1.00  0.00    -0.359 A  
ENDBRANCH  18  19
ENDBRANCH  17  18
ENDBRANCH  16  17
ENDBRANCH  13  16
ENDBRANCH  10  13
ENDBRANCH   2   7
TORSDOF 6
ENDMDL
MODEL      215
REMARK 921   NORMALIZED FREE ENERGY PREDICTED BY IDOCK:   -0.98 KCAL/MOL
REMARK 922        TOTAL FREE ENERGY PREDICTED BY IDOCK:   -3.68 KCAL/MOL
REMARK 923 INTER-LIGAND FREE ENERGY PREDICTED BY IDOCK:   -5.92 KCAL/MOL
REMARK 924 INTRA-LIGAND FREE ENERGY PREDICTED BY IDOCK:    2.24 KCAL/MOL
REMARK 927      BINDING AFFINITY PREDICTED BY RF-SCORE:    0.00 PKD
ROOT
HETATM    1  C   UNL     1     -10.594   2.115  72.921  1.00  0.00    -0.240 C  
HETATM    2  C   UNL     1      -9.310   2.961  72.758  1.00  0.00    -0.135 C  
HETATM    3  C   UNL     1      -8.530   2.406  71.549  1.00  0.00    -0.062 C  
HETATM    4  O   UNL     1      -8.907   1.485  70.837  1.00  0.00    -0.051 OA 
HETATM    5  C   UNL     1      -8.418   2.770  74.000  1.00  0.00    -0.072 C  
HETATM    6  O   UNL     1      -7.346   3.025  71.310  1.00  0.00    -0.032 OA 
ENDROOT
BRANCH   2   7
HETATM    7  C   UNL     1      -9.734   4.430  72.611  1.00  0.00    -0.197 A  
HETATM    8  C   UNL     1      -8.887   5.456  73.069  1.00  0.00    -0.120 A  
HETATM    9  C   UNL     1      -9.306   6.786  73.094  1.00  0.00    -0.153 A  
HETATM   10  C   UNL     1     -10.578   7.131  72.624  1.00  0.00    -0.290 A  
HETATM   11  C   UNL     1     -10.990   4.795  72.110  1.00  0.00    -0.008 A  
HETATM   12  C   UNL     1     -11.390   6.128  72.084  1.00  0.00    -0.347 A  
BRANCH  10  13
HETATM   13  C   UNL     1     -11.096   8.543  72.771  1.00  0.00     0.014 C  
HETATM   14  O   UNL     1     -10.169   9.402  72.121  1.00  0.00     0.091 OA 
HETATM   15  H   UNL     1     -10.495  10.291  72.213  1.00  0.00     0.000 HD 
BRANCH  13  16
HETATM   16  C   UNL     1     -12.528   8.645  72.211  1.00  0.00    -0.460 C  
BRANCH  16  17
HETATM   17  C   UNL     1     -13.217   9.993  72.442  1.00  0.00    -0.263 C  
BRANCH  17  18
HETATM   18  C   UNL     1     -13.292  10.900  71.206  1.00  0.00    -0.041 C  
BRANCH  18  19
HETATM   19  N   UNL     1     -11.987  11.453  70.808  1.00  0.00    -0.320 NA 
HETATM   20  C   UNL     1     -10.963  10.428  70.580  1.00  0.00    -0.195 C  
HETATM   21  C   UNL     1     -11.138   9.638  69.278  1.00  0.00    -0.149 C  
HETATM   22  C   UNL     1     -11.261  10.519  68.006  1.00  0.00    -0.361 C  
HETATM   23  C   UNL     1      -9.870  11.040  67.446  1.00  0.00    -0.173 C  
HETATM   24  C   UNL     1     -12.322  11.606  68.318  1.00  0.00     0.495 C  
HETATM   25  C   UNL     1     -10.083  11.990  66.246  1.00  0.00    -0.247 A  
HETATM   26  C   UNL     1      -8.867   9.900  67.108  1.00  0.00    -0.146 A  
HETATM   27  C   UNL     1     -12.091  12.342  69.641  1.00  0.00    -0.212 C  
HETATM   28  O   UNL     1      -9.263  11.818  68.492  1.00  0.00    -0.233 OA 
HETATM   29  C   UNL     1     -10.168  13.385  66.443  1.00  0.00    -0.293 A  
HETATM   30  C   UNL     1      -9.269   8.591  66.781  1.00  0.00    -0.215 A  
HETATM   31  H   UNL     1      -8.430  12.130  68.157  1.00  0.00     0.000 HD 
HETATM   32  C   UNL     1      -8.335   7.569  66.581  1.00  0.00    -0.127 A  
HETATM   33  C   UNL     1     -10.429  14.260  65.387  1.00  0.00    -0.382 A  
HETATM   34  C   UNL     1      -6.973   7.837  66.672  1.00  0.00    -0.071 A  
HETATM   35  C   UNL     1     -10.590  13.764  64.098  1.00  0.00     0.032 A  
HETATM   36  C   UNL     1     -10.497  12.395  63.871  1.00  0.00    -0.469 A  
HETATM   37  C   UNL     1      -6.544   9.133  66.936  1.00  0.00    -0.068 A  
HETATM   38  C   UNL     1     -10.257  11.514  64.936  1.00  0.00    -0.324 A  
HETATM   39  C   UNL     1      -7.477  10.155  67.137  1.00  0.00    -0.091 A  
ENDBRANCH  18  19
ENDBRANCH  17  18
ENDBRANCH  16  17
ENDBRANCH  13  16
ENDBRANCH  10  13
ENDBRANCH   2   7
TORSDOF 6
ENDMDL
MODEL      216
REMARK 921   NORMALIZED FREE ENERGY PREDICTED BY IDOCK:   -0.95 KCAL/MOL
REMARK 922        TOTAL FREE ENERGY PREDICTED BY IDOCK:   -3.64 KCAL/MOL
REMARK 923 INTER-LIGAND FREE ENERGY PREDICTED BY IDOCK:   -4.11 KCAL/MOL
REMARK 924 INTRA-LIGAND FREE ENERGY PREDICTED BY IDOCK:    0.46 KCAL/MOL
REMARK 927      BINDING AFFINITY PREDICTED BY RF-SCORE:    0.00 PKD
ROOT
HETATM    1  C   UNL     1     -13.401  15.008  70.648  1.00  0.00    -0.279 C  
HETATM    2  C   UNL     1     -12.193  14.176  70.159  1.00  0.00    -0.415 C  
HETATM    3  C   UNL     1     -10.911  14.963  70.499  1.00  0.00    -0.100 C  
HETATM    4  O   UNL     1     -10.885  16.035  71.090  1.00  0.00    -0.085 OA 
HETATM    5  C   UNL     1     -12.254  14.049  68.625  1.00  0.00    -0.218 C  
HETATM    6  O   UNL     1      -9.761  14.372  70.086  1.00  0.00     0.691 OA 
ENDROOT
BRANCH   2   7
HETATM    7  C   UNL     1     -12.277  12.795  70.826  1.00  0.00    -0.338 A  
HETATM    8  C   UNL     1     -11.654  11.685  70.226  1.00  0.00    -0.254 A  
HETATM    9  C   UNL     1     -11.841  10.394  70.719  1.00  0.00    -0.466 A  
HETATM   10  C   UNL     1     -12.632  10.181  71.853  1.00  0.00    -0.437 A  
HETATM   11  C   UNL     1     -13.036  12.571  71.982  1.00  0.00    -0.472 A  
HETATM   12  C   UNL     1     -13.180  11.290  72.506  1.00  0.00     0.624 A  
BRANCH  10  13
HETATM   13  C   UNL     1     -12.953   8.780  72.316  1.00  0.00    -0.408 C  
HETATM   14  O   UNL     1     -14.199   8.835  72.998  1.00  0.00    -1.075 OA 
HETATM   15  H   UNL     1     -14.401   7.954  73.289  1.00  0.00     0.000 HD 
BRANCH  13  16
HETATM   16  C   UNL     1     -12.950   7.810  71.118  1.00  0.00    -0.172 C  
BRANCH  16  17
HETATM   17  C   UNL     1     -11.597   7.651  70.419  1.00  0.00    -0.138 C  
BRANCH  17  18
HETATM   18  C   UNL     1     -11.648   7.735  68.888  1.00  0.00     1.074 C  
BRANCH  18  19
HETATM   19  N   UNL     1     -11.336   6.458  68.223  1.00  0.00    -0.178 NA 
HETATM   20  C   UNL     1     -10.480   6.609  67.043  1.00  0.00    -0.298 C  
HETATM   21  C   UNL     1      -9.012   6.917  67.361  1.00  0.00    -0.116 C  
HETATM   22  C   UNL     1      -8.345   5.918  68.343  1.00  0.00    -0.112 C  
HETATM   23  C   UNL     1      -7.862   4.569  67.659  1.00  0.00    -0.085 C  
HETATM   24  C   UNL     1      -9.310   5.766  69.547  1.00  0.00    -0.157 C  
HETATM   25  C   UNL     1      -7.306   3.588  68.716  1.00  0.00    -0.050 A  
HETATM   26  C   UNL     1      -6.860   4.785  66.490  1.00  0.00    -0.058 A  
HETATM   27  C   UNL     1     -10.760   5.474  69.152  1.00  0.00    -0.190 C  
HETATM   28  O   UNL     1      -9.027   3.949  67.087  1.00  0.00    -0.119 OA 
HETATM   29  C   UNL     1      -8.145   2.619  69.306  1.00  0.00    -0.063 A  
HETATM   30  C   UNL     1      -6.033   5.920  66.383  1.00  0.00    -0.022 A  
HETATM   31  H   UNL     1      -8.738   3.142  66.678  1.00  0.00     0.000 HD 
HETATM   32  C   UNL     1      -5.218   6.127  65.265  1.00  0.00    -0.013 A  
HETATM   33  C   UNL     1      -7.687   1.766  70.312  1.00  0.00    -0.039 A  
HETATM   34  C   UNL     1      -5.185   5.188  64.239  1.00  0.00    -0.009 A  
HETATM   35  C   UNL     1      -6.366   1.845  70.740  1.00  0.00    -0.023 A  
HETATM   36  C   UNL     1      -5.512   2.781  70.166  1.00  0.00    -0.016 A  
HETATM   37  C   UNL     1      -5.947   4.029  64.343  1.00  0.00    -0.018 A  
HETATM   38  C   UNL     1      -5.979   3.652  69.172  1.00  0.00    -0.023 A  
HETATM   39  C   UNL     1      -6.763   3.823  65.460  1.00  0.00    -0.048 A  
ENDBRANCH  18  19
ENDBRANCH  17  18
ENDBRANCH  16  17
ENDBRANCH  13  16
ENDBRANCH  10  13
ENDBRANCH   2   7
TORSDOF 6
ENDMDL
MODEL      217
REMARK 921   NORMALIZED FREE ENERGY PREDICTED BY IDOCK:   -0.88 KCAL/MOL
REMARK 922        TOTAL FREE ENERGY PREDICTED BY IDOCK:   -3.55 KCAL/MOL
REMARK 923 INTER-LIGAND FREE ENERGY PREDICTED BY IDOCK:   -4.22 KCAL/MOL
REMARK 924 INTRA-LIGAND FREE ENERGY PREDICTED BY IDOCK:    0.67 KCAL/MOL
REMARK 927      BINDING AFFINITY PREDICTED BY RF-SCORE:    0.00 PKD
ROOT
HETATM    1  C   UNL     1      -7.883  14.587  69.202  1.00  0.00    -0.071 C  
HETATM    2  C   UNL     1      -8.458  15.996  68.928  1.00  0.00    -0.232 C  
HETATM    3  C   UNL     1      -7.270  16.962  68.745  1.00  0.00    -0.220 C  
HETATM    4  O   UNL     1      -6.091  16.633  68.775  1.00  0.00    -0.136 OA 
HETATM    5  C   UNL     1      -9.243  16.472  70.166  1.00  0.00     1.418 C  
HETATM    6  O   UNL     1      -7.622  18.257  68.540  1.00  0.00    -0.283 OA 
ENDROOT
BRANCH   2   7
HETATM    7  C   UNL     1      -9.379  15.894  67.703  1.00  0.00    -0.217 A  
HETATM    8  C   UNL     1     -10.776  15.952  67.866  1.00  0.00    -0.312 A  
HETATM    9  C   UNL     1     -11.640  15.707  66.800  1.00  0.00     0.233 A  
HETATM   10  C   UNL     1     -11.129  15.432  65.527  1.00  0.00    -0.301 A  
HETATM   11  C   UNL     1      -8.881  15.654  66.416  1.00  0.00    -0.365 A  
HETATM   12  C   UNL     1      -9.743  15.462  65.340  1.00  0.00    -0.250 A  
BRANCH  10  13
HETATM   13  C   UNL     1     -12.049  15.031  64.398  1.00  0.00    -0.359 C  
HETATM   14  O   UNL     1     -11.643  15.756  63.245  1.00  0.00    -0.026 OA 
HETATM   15  H   UNL     1     -12.222  15.505  62.534  1.00  0.00     0.000 HD 
BRANCH  13  16
HETATM   16  C   UNL     1     -12.020  13.503  64.205  1.00  0.00    -0.498 C  
BRANCH  16  17
HETATM   17  C   UNL     1     -10.633  12.863  64.314  1.00  0.00    -0.430 C  
BRANCH  17  18
HETATM   18  C   UNL     1     -10.361  12.135  65.637  1.00  0.00    -0.257 C  
BRANCH  18  19
HETATM   19  N   UNL     1     -11.587  11.793  66.377  1.00  0.00    -0.485 NA 
HETATM   20  C   UNL     1     -11.486  10.536  67.126  1.00  0.00     0.339 C  
HETATM   21  C   UNL     1     -10.625  10.621  68.391  1.00  0.00    -0.231 C  
HETATM   22  C   UNL     1     -11.030  11.756  69.367  1.00  0.00    -0.185 C  
HETATM   23  C   UNL     1     -12.270  11.398  70.294  1.00  0.00    -0.349 C  
HETATM   24  C   UNL     1     -11.163  13.047  68.518  1.00  0.00    -0.309 C  
HETATM   25  C   UNL     1     -12.675  12.612  71.159  1.00  0.00    -0.347 A  
HETATM   26  C   UNL     1     -12.057  10.121  71.155  1.00  0.00    -0.485 A  
HETATM   27  C   UNL     1     -12.025  12.882  67.264  1.00  0.00    -0.309 C  
HETATM   28  O   UNL     1     -13.378  11.120  69.420  1.00  0.00     0.421 OA 
HETATM   29  C   UNL     1     -13.670  13.509  70.714  1.00  0.00     0.596 A  
HETATM   30  C   UNL     1     -10.785   9.648  71.530  1.00  0.00    -0.137 A  
HETATM   31  H   UNL     1     -14.120  10.905  69.974  1.00  0.00     0.000 HD 
HETATM   32  C   UNL     1     -10.630   8.440  72.220  1.00  0.00    -0.412 A  
HETATM   33  C   UNL     1     -14.008  14.651  71.444  1.00  0.00    -0.470 A  
HETATM   34  C   UNL     1     -11.745   7.690  72.580  1.00  0.00    -0.352 A  
HETATM   35  C   UNL     1     -13.374  14.914  72.653  1.00  0.00    -0.553 A  
HETATM   36  C   UNL     1     -12.399  14.040  73.124  1.00  0.00     0.233 A  
HETATM   37  C   UNL     1     -13.017   8.161  72.274  1.00  0.00    -0.232 A  
HETATM   38  C   UNL     1     -12.045  12.905  72.380  1.00  0.00     1.828 A  
HETATM   39  C   UNL     1     -13.173   9.368  71.583  1.00  0.00    -0.470 A  
ENDBRANCH  18  19
ENDBRANCH  17  18
ENDBRANCH  16  17
ENDBRANCH  13  16
ENDBRANCH  10  13
ENDBRANCH   2   7
TORSDOF 6
ENDMDL
MODEL      218
REMARK 921   NORMALIZED FREE ENERGY PREDICTED BY IDOCK:   -0.08 KCAL/MOL
REMARK 922        TOTAL FREE ENERGY PREDICTED BY IDOCK:   -2.46 KCAL/MOL
REMARK 923 INTER-LIGAND FREE ENERGY PREDICTED BY IDOCK:   -1.32 KCAL/MOL
REMARK 924 INTRA-LIGAND FREE ENERGY PREDICTED BY IDOCK:   -1.14 KCAL/MOL
REMARK 927      BINDING AFFINITY PREDICTED BY RF-SCORE:    0.00 PKD
ROOT
HETATM    1  C   UNL     1     -10.299  11.120  71.119  1.00  0.00     3.966 C  
HETATM    2  C   UNL     1     -11.295  10.312  70.255  1.00  0.00    -0.398 C  
HETATM    3  C   UNL     1     -12.702  10.501  70.858  1.00  0.00    -0.402 C  
HETATM    4  O   UNL     1     -12.960  11.207  71.824  1.00  0.00    -0.451 OA 
HETATM    5  C   UNL     1     -10.954   8.813  70.360  1.00  0.00    -0.262 C  
HETATM    6  O   UNL     1     -13.683   9.807  70.226  1.00  0.00     0.251 OA 
ENDROOT
BRANCH   2   7
HETATM    7  C   UNL     1     -11.161  10.803  68.806  1.00  0.00    -0.331 A  
HETATM    8  C   UNL     1     -12.159  11.622  68.246  1.00  0.00    -0.067 A  
HETATM    9  C   UNL     1     -12.148  11.956  66.892  1.00  0.00     0.248 A  
HETATM   10  C   UNL     1     -11.114  11.506  66.065  1.00  0.00    -0.289 A  
HETATM   11  C   UNL     1     -10.113  10.390  67.974  1.00  0.00    -0.189 A  
HETATM   12  C   UNL     1     -10.072  10.766  66.635  1.00  0.00    -0.265 A  
BRANCH  10  13
HETATM   13  C   UNL     1     -11.161  11.744  64.574  1.00  0.00    -0.305 C  
HETATM   14  O   UNL     1     -12.511  11.573  64.161  1.00  0.00    -0.087 OA 
HETATM   15  H   UNL     1     -12.541  11.722  63.223  1.00  0.00     0.000 HD 
BRANCH  13  16
HETATM   16  C   UNL     1     -10.587  13.134  64.238  1.00  0.00    -0.432 C  
BRANCH  16  17
HETATM   17  C   UNL     1     -11.536  14.306  64.501  1.00  0.00    -0.397 C  
BRANCH  17  18
HETATM   18  C   UNL     1     -11.065  15.288  65.582  1.00  0.00    -0.308 C  
BRANCH  18  19
HETATM   19  N   UNL     1      -9.606  15.488  65.592  1.00  0.00    -0.325 NA 
HETATM   20  C   UNL     1      -9.204  16.835  66.008  1.00  0.00    -0.201 C  
HETATM   21  C   UNL     1      -9.353  17.104  67.510  1.00  0.00    -0.238 C  
HETATM   22  C   UNL     1      -8.647  16.064  68.420  1.00  0.00    -0.185 C  
HETATM   23  C   UNL     1      -7.086  16.304  68.582  1.00  0.00    -0.155 C  
HETATM   24  C   UNL     1      -9.073  14.664  67.910  1.00  0.00    -0.189 C  
HETATM   25  C   UNL     1      -6.441  15.173  69.413  1.00  0.00    -0.136 A  
HETATM   26  C   UNL     1      -6.724  17.709  69.141  1.00  0.00    -0.243 A  
HETATM   27  C   UNL     1      -8.911  14.474  66.399  1.00  0.00    -0.118 C  
HETATM   28  O   UNL     1      -6.513  16.232  67.264  1.00  0.00    -0.162 OA 
HETATM   29  C   UNL     1      -5.882  14.044  68.776  1.00  0.00    -0.085 A  
HETATM   30  C   UNL     1      -7.602  18.471  69.937  1.00  0.00     0.886 A  
HETATM   31  H   UNL     1      -5.579  16.375  67.360  1.00  0.00     0.000 HD 
HETATM   32  C   UNL     1      -7.280  19.772  70.338  1.00  0.00     0.455 A  
HETATM   33  C   UNL     1      -5.355  12.976  69.505  1.00  0.00    -0.079 A  
HETATM   34  C   UNL     1      -6.059  20.334  69.980  1.00  0.00    -0.381 A  
HETATM   35  C   UNL     1      -5.352  13.019  70.895  1.00  0.00    -0.174 A  
HETATM   36  C   UNL     1      -5.882  14.126  71.550  1.00  0.00    -0.169 A  
HETATM   37  C   UNL     1      -5.147  19.585  69.244  1.00  0.00    -0.193 A  
HETATM   38  C   UNL     1      -6.432  15.187  70.818  1.00  0.00     0.285 A  
HETATM   39  C   UNL     1      -5.469  18.284  68.842  1.00  0.00    -0.197 A  
ENDBRANCH  18  19
ENDBRANCH  17  18
ENDBRANCH  16  17
ENDBRANCH  13  16
ENDBRANCH  10  13
ENDBRANCH   2   7
TORSDOF 6
ENDMDL
MODEL      219
REMARK 921   NORMALIZED FREE ENERGY PREDICTED BY IDOCK:   -0.02 KCAL/MOL
REMARK 922        TOTAL FREE ENERGY PREDICTED BY IDOCK:   -2.38 KCAL/MOL
REMARK 923 INTER-LIGAND FREE ENERGY PREDICTED BY IDOCK:   -3.78 KCAL/MOL
REMARK 924 INTRA-LIGAND FREE ENERGY PREDICTED BY IDOCK:    1.40 KCAL/MOL
REMARK 927      BINDING AFFINITY PREDICTED BY RF-SCORE:    0.00 PKD
ROOT
HETATM    1  C   UNL     1     -10.666  17.950  65.883  1.00  0.00    -0.116 C  
HETATM    2  C   UNL     1      -9.689  18.561  66.914  1.00  0.00    -0.334 C  
HETATM    3  C   UNL     1     -10.524  19.089  68.099  1.00  0.00    -0.323 C  
HETATM    4  O   UNL     1     -11.740  18.988  68.197  1.00  0.00     1.186 OA 
HETATM    5  C   UNL     1      -8.982  19.776  66.282  1.00  0.00    -0.431 C  
HETATM    6  O   UNL     1      -9.800  19.699  69.071  1.00  0.00    -0.431 OA 
ENDROOT
BRANCH   2   7
HETATM    7  C   UNL     1      -8.673  17.474  67.296  1.00  0.00    -0.236 A  
HETATM    8  C   UNL     1      -7.515  17.289  66.518  1.00  0.00    -0.315 A  
HETATM    9  C   UNL     1      -6.655  16.215  66.743  1.00  0.00     0.085 A  
HETATM   10  C   UNL     1      -6.912  15.313  67.782  1.00  0.00    -0.185 A  
HETATM   11  C   UNL     1      -8.897  16.585  68.355  1.00  0.00    -0.218 A  
HETATM   12  C   UNL     1      -8.011  15.544  68.615  1.00  0.00    -0.146 A  
BRANCH  10  13
HETATM   13  C   UNL     1      -6.067  14.072  67.950  1.00  0.00    -0.148 C  
HETATM   14  O   UNL     1      -5.136  14.045  66.877  1.00  0.00     0.394 OA 
HETATM   15  H   UNL     1      -4.605  13.265  66.982  1.00  0.00     0.000 HD 
BRANCH  13  16
HETATM   16  C   UNL     1      -5.403  14.065  69.340  1.00  0.00    -0.082 C  
BRANCH  16  17
HETATM   17  C   UNL     1      -6.250  13.452  70.458  1.00  0.00     0.032 C  
BRANCH  17  18
HETATM   18  C   UNL     1      -5.732  12.113  71.000  1.00  0.00     0.064 C  
BRANCH  18  19
HETATM   19  N   UNL     1      -5.762  11.029  70.003  1.00  0.00    -0.076 NA 
HETATM   20  C   UNL     1      -6.432   9.815  70.480  1.00  0.00    -0.108 C  
HETATM   21  C   UNL     1      -7.959   9.923  70.557  1.00  0.00     0.067 C  
HETATM   22  C   UNL     1      -8.636  10.386  69.241  1.00  0.00    -0.159 C  
HETATM   23  C   UNL     1      -8.821   9.229  68.169  1.00  0.00    -0.129 C  
HETATM   24  C   UNL     1      -7.864  11.643  68.762  1.00  0.00    -0.096 C  
HETATM   25  C   UNL     1      -9.403   9.789  66.853  1.00  0.00    -0.184 A  
HETATM   26  C   UNL     1      -9.642   8.017  68.695  1.00  0.00    -0.150 A  
HETATM   27  C   UNL     1      -6.344  11.465  68.724  1.00  0.00    -0.053 C  
HETATM   28  O   UNL     1      -7.508   8.727  67.864  1.00  0.00    -0.091 OA 
HETATM   29  C   UNL     1      -8.549  10.192  65.804  1.00  0.00    -0.159 A  
HETATM   30  C   UNL     1     -10.584   8.119  69.736  1.00  0.00    -0.231 A  
HETATM   31  H   UNL     1      -7.618   8.035  67.223  1.00  0.00     0.000 HD 
HETATM   32  C   UNL     1     -11.231   6.988  70.248  1.00  0.00    -0.339 A  
HETATM   33  C   UNL     1      -9.045  10.765  64.632  1.00  0.00    -0.223 A  
HETATM   34  C   UNL     1     -10.975   5.731  69.711  1.00  0.00    -0.397 A  
HETATM   35  C   UNL     1     -10.416  10.930  64.466  1.00  0.00    -0.393 A  
HETATM   36  C   UNL     1     -11.284  10.529  65.477  1.00  0.00     0.630 A  
HETATM   37  C   UNL     1     -10.093   5.607  68.643  1.00  0.00    -0.240 A  
HETATM   38  C   UNL     1     -10.783   9.974  66.663  1.00  0.00    -0.128 A  
HETATM   39  C   UNL     1      -9.446   6.737  68.131  1.00  0.00    -0.120 A  
ENDBRANCH  18  19
ENDBRANCH  17  18
ENDBRANCH  16  17
ENDBRANCH  13  16
ENDBRANCH  10  13
ENDBRANCH   2   7
TORSDOF 6
ENDMDL
MODEL      220
REMARK 921   NORMALIZED FREE ENERGY PREDICTED BY IDOCK:    0.04 KCAL/MOL
REMARK 922        TOTAL FREE ENERGY PREDICTED BY IDOCK:   -2.30 KCAL/MOL
REMARK 923 INTER-LIGAND FREE ENERGY PREDICTED BY IDOCK:   -1.60 KCAL/MOL
REMARK 924 INTRA-LIGAND FREE ENERGY PREDICTED BY IDOCK:   -0.70 KCAL/MOL
REMARK 927      BINDING AFFINITY PREDICTED BY RF-SCORE:    0.00 PKD
ROOT
HETATM    1  C   UNL     1      -7.743   9.534  70.295  1.00  0.00    -0.170 C  
HETATM    2  C   UNL     1      -7.988   8.097  69.780  1.00  0.00    -0.111 C  
HETATM    3  C   UNL     1      -9.437   7.709  70.137  1.00  0.00    -0.161 C  
HETATM    4  O   UNL     1     -10.242   8.446  70.692  1.00  0.00    -0.190 OA 
HETATM    5  C   UNL     1      -7.060   7.124  70.533  1.00  0.00    -0.063 C  
HETATM    6  O   UNL     1      -9.786   6.445  69.785  1.00  0.00    -0.153 OA 
ENDROOT
BRANCH   2   7
HETATM    7  C   UNL     1      -7.687   8.083  68.274  1.00  0.00    -0.117 A  
HETATM    8  C   UNL     1      -6.445   8.547  67.800  1.00  0.00    -0.061 A  
HETATM    9  C   UNL     1      -6.200   8.694  66.436  1.00  0.00    -0.060 A  
HETATM   10  C   UNL     1      -7.181   8.346  65.502  1.00  0.00    -0.079 A  
HETATM   11  C   UNL     1      -8.647   7.704  67.327  1.00  0.00    -0.121 A  
HETATM   12  C   UNL     1      -8.383   7.800  65.964  1.00  0.00    -0.134 A  
BRANCH  10  13
HETATM   13  C   UNL     1      -6.980   8.628  64.031  1.00  0.00    -0.082 C  
HETATM   14  O   UNL     1      -7.364   7.459  63.320  1.00  0.00    -0.074 OA 
HETATM   15  H   UNL     1      -7.236   7.635  62.395  1.00  0.00     0.000 HD 
BRANCH  13  16
HETATM   16  C   UNL     1      -7.767   9.886  63.618  1.00  0.00    -0.141 C  
BRANCH  16  17
HETATM   17  C   UNL     1      -9.282   9.691  63.503  1.00  0.00    -0.143 C  
BRANCH  17  18
HETATM   18  C   UNL     1     -10.118  10.568  64.445  1.00  0.00    -0.325 C  
BRANCH  18  19
HETATM   19  N   UNL     1      -9.387  10.989  65.652  1.00  0.00    -0.207 NA 
HETATM   20  C   UNL     1      -9.116  12.430  65.697  1.00  0.00     0.264 C  
HETATM   21  C   UNL     1     -10.341  13.295  66.015  1.00  0.00    -0.290 C  
HETATM   22  C   UNL     1     -11.097  12.884  67.306  1.00  0.00    -0.309 C  
HETATM   23  C   UNL     1     -10.430  13.424  68.642  1.00  0.00    -0.225 C  
HETATM   24  C   UNL     1     -11.318  11.352  67.224  1.00  0.00    -0.347 C  
HETATM   25  C   UNL     1     -11.179  12.888  69.883  1.00  0.00     0.093 A  
HETATM   26  C   UNL     1     -10.278  14.971  68.683  1.00  0.00    -0.231 A  
HETATM   27  C   UNL     1     -10.055  10.556  66.888  1.00  0.00    -0.216 C  
HETATM   28  O   UNL     1      -9.098  12.883  68.693  1.00  0.00    -0.376 OA 
HETATM   29  C   UNL     1     -10.753  11.704  70.522  1.00  0.00     1.795 A  
HETATM   30  C   UNL     1     -11.100  15.846  67.948  1.00  0.00    -0.317 A  
HETATM   31  H   UNL     1      -8.699  13.206  69.493  1.00  0.00     0.000 HD 
HETATM   32  C   UNL     1     -10.869  17.226  67.933  1.00  0.00    -0.283 A  
HETATM   33  C   UNL     1     -11.451  11.161  71.602  1.00  0.00     1.930 A  
HETATM   34  C   UNL     1      -9.827  17.769  68.678  1.00  0.00    -0.359 A  
HETATM   35  C   UNL     1     -12.585  11.802  72.088  1.00  0.00     0.326 A  
HETATM   36  C   UNL     1     -13.020  12.979  71.488  1.00  0.00    -0.398 A  
HETATM   37  C   UNL     1      -9.035  16.937  69.461  1.00  0.00     0.398 A  
HETATM   38  C   UNL     1     -12.332  13.512  70.389  1.00  0.00    -0.397 A  
HETATM   39  C   UNL     1      -9.266  15.557  69.475  1.00  0.00    -0.265 A  
ENDBRANCH  18  19
ENDBRANCH  17  18
ENDBRANCH  16  17
ENDBRANCH  13  16
ENDBRANCH  10  13
ENDBRANCH   2   7
TORSDOF 6
ENDMDL
MODEL      221
REMARK 921   NORMALIZED FREE ENERGY PREDICTED BY IDOCK:    0.34 KCAL/MOL
REMARK 922        TOTAL FREE ENERGY PREDICTED BY IDOCK:   -1.90 KCAL/MOL
REMARK 923 INTER-LIGAND FREE ENERGY PREDICTED BY IDOCK:   -3.33 KCAL/MOL
REMARK 924 INTRA-LIGAND FREE ENERGY PREDICTED BY IDOCK:    1.43 KCAL/MOL
REMARK 927      BINDING AFFINITY PREDICTED BY RF-SCORE:    0.00 PKD
ROOT
HETATM    1  C   UNL     1      -9.203  18.063  69.975  1.00  0.00     1.803 C  
HETATM    2  C   UNL     1      -8.826  18.279  68.491  1.00  0.00    -0.322 C  
HETATM    3  C   UNL     1      -7.287  18.290  68.394  1.00  0.00    -0.275 C  
HETATM    4  O   UNL     1      -6.525  18.113  69.335  1.00  0.00    -0.260 OA 
HETATM    5  C   UNL     1      -9.318  19.667  68.040  1.00  0.00    -0.425 C  
HETATM    6  O   UNL     1      -6.803  18.517  67.146  1.00  0.00    -0.198 OA 
ENDROOT
BRANCH   2   7
HETATM    7  C   UNL     1      -9.499  17.167  67.672  1.00  0.00    -0.241 A  
HETATM    8  C   UNL     1      -8.717  16.155  67.085  1.00  0.00    -0.216 A  
HETATM    9  C   UNL     1      -9.276  15.224  66.210  1.00  0.00    -0.350 A  
HETATM   10  C   UNL     1     -10.645  15.259  65.925  1.00  0.00    -0.345 A  
HETATM   11  C   UNL     1     -10.874  17.167  67.407  1.00  0.00    -0.164 A  
HETATM   12  C   UNL     1     -11.442  16.206  66.576  1.00  0.00     0.523 A  
BRANCH  10  13
HETATM   13  C   UNL     1     -11.237  14.346  64.877  1.00  0.00    -0.389 C  
HETATM   14  O   UNL     1     -10.246  14.152  63.876  1.00  0.00    -0.173 OA 
HETATM   15  H   UNL     1     -10.619  13.578  63.217  1.00  0.00     0.000 HD 
BRANCH  13  16
HETATM   16  C   UNL     1     -11.720  13.034  65.525  1.00  0.00    -0.408 C  
BRANCH  16  17
HETATM   17  C   UNL     1     -12.623  13.213  66.749  1.00  0.00     0.263 C  
BRANCH  17  18
HETATM   18  C   UNL     1     -11.944  13.858  67.964  1.00  0.00    -0.355 C  
BRANCH  18  19
HETATM   19  N   UNL     1     -11.663  12.904  69.050  1.00  0.00    -0.311 NA 
HETATM   20  C   UNL     1     -12.263  11.583  68.836  1.00  0.00    -0.064 C  
HETATM   21  C   UNL     1     -11.559  10.734  67.772  1.00  0.00    -0.155 C  
HETATM   22  C   UNL     1     -10.033  10.564  67.995  1.00  0.00    -0.177 C  
HETATM   23  C   UNL     1      -9.657   9.450  69.062  1.00  0.00    -0.164 C  
HETATM   24  C   UNL     1      -9.460  11.980  68.257  1.00  0.00    -0.199 C  
HETATM   25  C   UNL     1      -8.132   9.413  69.303  1.00  0.00    -0.105 A  
HETATM   26  C   UNL     1     -10.221   8.041  68.719  1.00  0.00    -0.220 A  
HETATM   27  C   UNL     1     -10.223  12.775  69.320  1.00  0.00     0.415 C  
HETATM   28  O   UNL     1     -10.267   9.839  70.306  1.00  0.00    -0.261 OA 
HETATM   29  C   UNL     1      -7.553  10.163  70.350  1.00  0.00     0.079 A  
HETATM   30  C   UNL     1     -10.525   7.632  67.407  1.00  0.00    -0.367 A  
HETATM   31  H   UNL     1     -10.042   9.173  70.945  1.00  0.00     0.000 HD 
HETATM   32  C   UNL     1     -11.124   6.393  67.149  1.00  0.00    -0.422 A  
HETATM   33  C   UNL     1      -6.171  10.203  70.547  1.00  0.00    -0.115 A  
HETATM   34  C   UNL     1     -11.405   5.520  68.195  1.00  0.00     1.063 A  
HETATM   35  C   UNL     1      -5.330   9.474  69.714  1.00  0.00    -0.033 A  
HETATM   36  C   UNL     1      -5.873   8.713  68.683  1.00  0.00    -0.044 A  
HETATM   37  C   UNL     1     -11.062   5.872  69.495  1.00  0.00    -0.403 A  
HETATM   38  C   UNL     1      -7.259   8.691  68.472  1.00  0.00    -0.081 A  
HETATM   39  C   UNL     1     -10.465   7.110  69.753  1.00  0.00    -0.238 A  
ENDBRANCH  18  19
ENDBRANCH  17  18
ENDBRANCH  16  17
ENDBRANCH  13  16
ENDBRANCH  10  13
ENDBRANCH   2   7
TORSDOF 6
ENDMDL
MODEL      222
REMARK 921   NORMALIZED FREE ENERGY PREDICTED BY IDOCK:    0.73 KCAL/MOL
REMARK 922        TOTAL FREE ENERGY PREDICTED BY IDOCK:   -1.37 KCAL/MOL
REMARK 923 INTER-LIGAND FREE ENERGY PREDICTED BY IDOCK:   -3.69 KCAL/MOL
REMARK 924 INTRA-LIGAND FREE ENERGY PREDICTED BY IDOCK:    2.33 KCAL/MOL
REMARK 927      BINDING AFFINITY PREDICTED BY RF-SCORE:    0.00 PKD
ROOT
HETATM    1  C   UNL     1     -10.553  18.965  68.299  1.00  0.00    -0.224 C  
HETATM    2  C   UNL     1     -10.084  18.715  66.847  1.00  0.00    -0.399 C  
HETATM    3  C   UNL     1      -8.567  18.988  66.789  1.00  0.00    -0.304 C  
HETATM    4  O   UNL     1      -7.877  19.304  67.749  1.00  0.00    -0.264 OA 
HETATM    5  C   UNL     1     -10.765  19.735  65.913  1.00  0.00    -0.488 C  
HETATM    6  O   UNL     1      -8.017  18.853  65.555  1.00  0.00    -0.367 OA 
ENDROOT
BRANCH   2   7
HETATM    7  C   UNL     1     -10.478  17.279  66.469  1.00  0.00    -0.260 A  
HETATM    8  C   UNL     1     -10.298  16.824  65.149  1.00  0.00     0.045 A  
HETATM    9  C   UNL     1     -10.787  15.586  64.737  1.00  0.00    -0.385 A  
HETATM   10  C   UNL     1     -11.441  14.748  65.646  1.00  0.00    -0.327 A  
HETATM   11  C   UNL     1     -11.103  16.416  67.378  1.00  0.00    -0.062 A  
HETATM   12  C   UNL     1     -11.544  15.157  66.980  1.00  0.00    -0.179 A  
BRANCH  10  13
HETATM   13  C   UNL     1     -12.094  13.468  65.182  1.00  0.00    -0.404 C  
HETATM   14  O   UNL     1     -13.491  13.713  65.093  1.00  0.00    -0.484 OA 
HETATM   15  H   UNL     1     -13.902  12.908  64.802  1.00  0.00     0.000 HD 
BRANCH  13  16
HETATM   16  C   UNL     1     -11.466  13.001  63.855  1.00  0.00    -0.490 C  
BRANCH  16  17
HETATM   17  C   UNL     1     -10.217  12.129  64.002  1.00  0.00    -0.396 C  
BRANCH  17  18
HETATM   18  C   UNL     1     -10.479  10.706  64.514  1.00  0.00    -0.195 C  
BRANCH  18  19
HETATM   19  N   UNL     1      -9.922  10.456  65.854  1.00  0.00    -0.242 NA 
HETATM   20  C   UNL     1      -8.750  11.283  66.162  1.00  0.00    -0.179 C  
HETATM   21  C   UNL     1      -9.073  12.751  66.460  1.00  0.00    -0.150 C  
HETATM   22  C   UNL     1     -10.141  12.961  67.565  1.00  0.00    -0.214 C  
HETATM   23  C   UNL     1      -9.574  12.838  69.042  1.00  0.00     0.399 C  
HETATM   24  C   UNL     1     -11.334  12.036  67.212  1.00  0.00    -0.394 C  
HETATM   25  C   UNL     1     -10.713  12.955  70.079  1.00  0.00     1.054 A  
HETATM   26  C   UNL     1      -8.411  13.823  69.349  1.00  0.00     0.682 A  
HETATM   27  C   UNL     1     -10.934  10.589  66.912  1.00  0.00    -0.131 C  
HETATM   28  O   UNL     1      -9.028  11.513  69.171  1.00  0.00    -0.380 OA 
HETATM   29  C   UNL     1     -11.360  11.799  70.568  1.00  0.00     0.472 A  
HETATM   30  C   UNL     1      -8.234  15.042  68.667  1.00  0.00    -0.156 A  
HETATM   31  H   UNL     1      -8.688  11.438  70.055  1.00  0.00     0.000 HD 
HETATM   32  C   UNL     1      -7.119  15.855  68.902  1.00  0.00    -0.148 A  
HETATM   33  C   UNL     1     -12.437  11.880  71.452  1.00  0.00    -0.261 A  
HETATM   34  C   UNL     1      -6.169  15.485  69.848  1.00  0.00    -0.157 A  
HETATM   35  C   UNL     1     -12.884  13.122  71.890  1.00  0.00    -0.328 A  
HETATM   36  C   UNL     1     -12.257  14.278  71.437  1.00  0.00    -0.408 A  
HETATM   37  C   UNL     1      -6.347  14.315  70.580  1.00  0.00    -0.108 A  
HETATM   38  C   UNL     1     -11.189  14.197  70.531  1.00  0.00     0.132 A  
HETATM   39  C   UNL     1      -7.460  13.502  70.344  1.00  0.00     2.006 A  
ENDBRANCH  18  19
ENDBRANCH  17  18
ENDBRANCH  16  17
ENDBRANCH  13  16
ENDBRANCH  10  13
ENDBRANCH   2   7
TORSDOF 6
ENDMDL
MODEL      223
REMARK 921   NORMALIZED FREE ENERGY PREDICTED BY IDOCK:    0.73 KCAL/MOL
REMARK 922        TOTAL FREE ENERGY PREDICTED BY IDOCK:   -1.36 KCAL/MOL
REMARK 923 INTER-LIGAND FREE ENERGY PREDICTED BY IDOCK:   -0.85 KCAL/MOL
REMARK 924 INTRA-LIGAND FREE ENERGY PREDICTED BY IDOCK:   -0.51 KCAL/MOL
REMARK 927      BINDING AFFINITY PREDICTED BY RF-SCORE:    0.00 PKD
ROOT
HETATM    1  C   UNL     1     -10.797  19.504  65.459  1.00  0.00    -0.247 C  
HETATM    2  C   UNL     1     -10.217  19.476  66.893  1.00  0.00    -0.537 C  
HETATM    3  C   UNL     1     -11.402  19.471  67.880  1.00  0.00     0.674 C  
HETATM    4  O   UNL     1     -12.583  19.450  67.555  1.00  0.00     3.030 OA 
HETATM    5  C   UNL     1      -9.424  20.773  67.143  1.00  0.00    -0.444 C  
HETATM    6  O   UNL     1     -11.045  19.493  69.189  1.00  0.00     1.173 OA 
ENDROOT
BRANCH   2   7
HETATM    7  C   UNL     1      -9.303  18.246  67.003  1.00  0.00    -0.274 A  
HETATM    8  C   UNL     1      -8.303  18.200  67.992  1.00  0.00    -0.268 A  
HETATM    9  C   UNL     1      -7.359  17.174  68.020  1.00  0.00    -0.191 A  
HETATM   10  C   UNL     1      -7.413  16.141  67.078  1.00  0.00    -0.264 A  
HETATM   11  C   UNL     1      -9.367  17.187  66.089  1.00  0.00    -0.222 A  
HETATM   12  C   UNL     1      -8.459  16.135  66.149  1.00  0.00    -0.288 A  
BRANCH  10  13
HETATM   13  C   UNL     1      -6.320  15.101  67.013  1.00  0.00     0.655 C  
HETATM   14  O   UNL     1      -5.140  15.693  67.539  1.00  0.00    -0.265 OA 
HETATM   15  H   UNL     1      -4.452  15.039  67.497  1.00  0.00     0.000 HD 
BRANCH  13  16
HETATM   16  C   UNL     1      -6.754  13.826  67.761  1.00  0.00    -0.180 C  
BRANCH  16  17
HETATM   17  C   UNL     1      -8.222  13.435  67.573  1.00  0.00    -0.186 C  
BRANCH  17  18
HETATM   18  C   UNL     1      -8.801  12.546  68.682  1.00  0.00     0.047 C  
BRANCH  18  19
HETATM   19  N   UNL     1      -9.847  11.625  68.206  1.00  0.00    -0.194 NA 
HETATM   20  C   UNL     1      -9.329  10.527  67.385  1.00  0.00    -0.142 C  
HETATM   21  C   UNL     1      -8.591   9.440  68.175  1.00  0.00    -0.120 C  
HETATM   22  C   UNL     1      -9.401   8.846  69.357  1.00  0.00    -0.153 C  
HETATM   23  C   UNL     1     -10.460   7.744  68.924  1.00  0.00    -0.194 C  
HETATM   24  C   UNL     1      -9.959  10.047  70.163  1.00  0.00    -0.239 C  
HETATM   25  C   UNL     1     -11.295   7.279  70.137  1.00  0.00    -0.236 A  
HETATM   26  C   UNL     1      -9.833   6.543  68.160  1.00  0.00    -0.131 A  
HETATM   27  C   UNL     1     -10.668  11.098  69.307  1.00  0.00    -0.199 C  
HETATM   28  O   UNL     1     -11.371   8.376  68.008  1.00  0.00    -0.118 OA 
HETATM   29  C   UNL     1     -12.529   7.894  70.436  1.00  0.00     0.495 A  
HETATM   30  C   UNL     1      -8.487   6.154  68.306  1.00  0.00    -0.113 A  
HETATM   31  H   UNL     1     -12.004   7.717  67.748  1.00  0.00     0.000 HD 
HETATM   32  C   UNL     1      -7.934   5.131  67.528  1.00  0.00    -0.100 A  
HETATM   33  C   UNL     1     -13.271   7.540  71.565  1.00  0.00    -0.404 A  
HETATM   34  C   UNL     1      -8.721   4.450  66.605  1.00  0.00    -0.112 A  
HETATM   35  C   UNL     1     -12.807   6.543  72.416  1.00  0.00     0.174 A  
HETATM   36  C   UNL     1     -11.600   5.908  72.138  1.00  0.00    -0.314 A  
HETATM   37  C   UNL     1     -10.068   4.772  66.480  1.00  0.00    -0.286 A  
HETATM   38  C   UNL     1     -10.845   6.279  71.017  1.00  0.00    -0.326 A  
HETATM   39  C   UNL     1     -10.621   5.795  67.257  1.00  0.00    -0.353 A  
ENDBRANCH  18  19
ENDBRANCH  17  18
ENDBRANCH  16  17
ENDBRANCH  13  16
ENDBRANCH  10  13
ENDBRANCH   2   7
TORSDOF 6
ENDMDL
MODEL      224
REMARK 921   NORMALIZED FREE ENERGY PREDICTED BY IDOCK:    0.96 KCAL/MOL
REMARK 922        TOTAL FREE ENERGY PREDICTED BY IDOCK:   -1.06 KCAL/MOL
REMARK 923 INTER-LIGAND FREE ENERGY PREDICTED BY IDOCK:   -1.17 KCAL/MOL
REMARK 924 INTRA-LIGAND FREE ENERGY PREDICTED BY IDOCK:    0.11 KCAL/MOL
REMARK 927      BINDING AFFINITY PREDICTED BY RF-SCORE:    0.00 PKD
ROOT
HETATM    1  C   UNL     1     -10.940   6.923  72.216  1.00  0.00    -0.275 C  
HETATM    2  C   UNL     1     -10.530   6.718  70.739  1.00  0.00    -0.242 C  
HETATM    3  C   UNL     1     -11.734   6.100  69.998  1.00  0.00    -0.019 C  
HETATM    4  O   UNL     1     -12.822   5.864  70.507  1.00  0.00     1.805 OA 
HETATM    5  C   UNL     1      -9.381   5.694  70.670  1.00  0.00    -0.191 C  
HETATM    6  O   UNL     1     -11.506   5.819  68.690  1.00  0.00     0.165 OA 
ENDROOT
BRANCH   2   7
HETATM    7  C   UNL     1     -10.084   8.080  70.185  1.00  0.00    -0.194 A  
HETATM    8  C   UNL     1     -10.386   8.432  68.856  1.00  0.00    -0.231 A  
HETATM    9  C   UNL     1      -9.864   9.587  68.276  1.00  0.00    -0.174 A  
HETATM   10  C   UNL     1      -9.051  10.445  69.024  1.00  0.00    -0.193 A  
HETATM   11  C   UNL     1      -9.300   8.966  70.933  1.00  0.00    -0.295 A  
HETATM   12  C   UNL     1      -8.822  10.146  70.372  1.00  0.00     0.407 A  
BRANCH  10  13
HETATM   13  C   UNL     1      -8.369  11.624  68.371  1.00  0.00    -0.157 C  
HETATM   14  O   UNL     1      -9.055  12.795  68.792  1.00  0.00    -0.392 OA 
HETATM   15  H   UNL     1      -8.627  13.537  68.381  1.00  0.00     0.000 HD 
BRANCH  13  16
HETATM   16  C   UNL     1      -6.868  11.632  68.720  1.00  0.00    -0.090 C  
BRANCH  16  17
HETATM   17  C   UNL     1      -6.465  12.620  69.818  1.00  0.00    -0.010 C  
BRANCH  17  18
HETATM   18  C   UNL     1      -5.994  13.990  69.311  1.00  0.00    -0.095 C  
BRANCH  18  19
HETATM   19  N   UNL     1      -6.876  14.566  68.282  1.00  0.00    -0.102 NA 
HETATM   20  C   UNL     1      -7.992  15.339  68.836  1.00  0.00    -0.176 C  
HETATM   21  C   UNL     1      -7.594  16.707  69.403  1.00  0.00    -0.028 C  
HETATM   22  C   UNL     1      -6.801  17.603  68.417  1.00  0.00    -0.214 C  
HETATM   23  C   UNL     1      -7.711  18.362  67.360  1.00  0.00    -0.223 C  
HETATM   24  C   UNL     1      -5.664  16.726  67.833  1.00  0.00    -0.129 C  
HETATM   25  C   UNL     1      -6.844  19.148  66.353  1.00  0.00    -0.224 A  
HETATM   26  C   UNL     1      -8.802  19.262  68.008  1.00  0.00    -0.360 A  
HETATM   27  C   UNL     1      -6.134  15.370  67.299  1.00  0.00     0.180 C  
HETATM   28  O   UNL     1      -8.411  17.353  66.610  1.00  0.00    -0.232 OA 
HETATM   29  C   UNL     1      -6.458  18.562  65.128  1.00  0.00    -0.151 A  
HETATM   30  C   UNL     1      -8.681  19.810  69.299  1.00  0.00     0.130 A  
HETATM   31  H   UNL     1      -8.956  17.806  65.977  1.00  0.00     0.000 HD 
HETATM   32  C   UNL     1      -9.727  20.532  69.886  1.00  0.00     0.853 A  
HETATM   33  C   UNL     1      -5.618  19.223  64.230  1.00  0.00    -0.310 A  
HETATM   34  C   UNL     1     -10.908  20.751  69.184  1.00  0.00     0.908 A  
HETATM   35  C   UNL     1      -5.157  20.502  64.524  1.00  0.00    -0.204 A  
HETATM   36  C   UNL     1      -5.533  21.111  65.717  1.00  0.00    -0.261 A  
HETATM   37  C   UNL     1     -11.033  20.272  67.885  1.00  0.00     0.287 A  
HETATM   38  C   UNL     1      -6.358  20.437  66.628  1.00  0.00    -0.247 A  
HETATM   39  C   UNL     1      -9.989  19.549  67.298  1.00  0.00    -0.493 A  
ENDBRANCH  18  19
ENDBRANCH  17  18
ENDBRANCH  16  17
ENDBRANCH  13  16
ENDBRANCH  10  13
ENDBRANCH   2   7
TORSDOF 6
ENDMDL
MODEL      225
REMARK 921   NORMALIZED FREE ENERGY PREDICTED BY IDOCK:    1.00 KCAL/MOL
REMARK 922        TOTAL FREE ENERGY PREDICTED BY IDOCK:   -1.00 KCAL/MOL
REMARK 923 INTER-LIGAND FREE ENERGY PREDICTED BY IDOCK:   -0.38 KCAL/MOL
REMARK 924 INTRA-LIGAND FREE ENERGY PREDICTED BY IDOCK:   -0.62 KCAL/MOL
REMARK 927      BINDING AFFINITY PREDICTED BY RF-SCORE:    0.00 PKD
ROOT
HETATM    1  C   UNL     1     -13.937  14.010  72.006  1.00  0.00    -0.598 C  
HETATM    2  C   UNL     1     -12.633  13.249  71.671  1.00  0.00    -0.254 C  
HETATM    3  C   UNL     1     -12.929  11.739  71.778  1.00  0.00    -0.361 C  
HETATM    4  O   UNL     1     -14.024  11.258  72.042  1.00  0.00     0.169 OA 
HETATM    5  C   UNL     1     -11.568  13.579  72.735  1.00  0.00     3.248 C  
HETATM    6  O   UNL     1     -11.857  10.938  71.554  1.00  0.00    -0.053 OA 
ENDROOT
BRANCH   2   7
HETATM    7  C   UNL     1     -12.173  13.702  70.278  1.00  0.00    -0.423 A  
HETATM    8  C   UNL     1     -12.853  14.742  69.616  1.00  0.00     0.171 A  
HETATM    9  C   UNL     1     -12.562  15.070  68.292  1.00  0.00     0.679 A  
HETATM   10  C   UNL     1     -11.554  14.388  67.603  1.00  0.00    -0.396 A  
HETATM   11  C   UNL     1     -11.142  13.053  69.587  1.00  0.00     0.025 A  
HETATM   12  C   UNL     1     -10.814  13.416  68.285  1.00  0.00    -0.275 A  
BRANCH  10  13
HETATM   13  C   UNL     1     -11.321  14.639  66.131  1.00  0.00    -0.350 C  
HETATM   14  O   UNL     1      -9.999  15.141  65.992  1.00  0.00    -0.270 OA 
HETATM   15  H   UNL     1      -9.853  15.300  65.066  1.00  0.00     0.000 HD 
BRANCH  13  16
HETATM   16  C   UNL     1     -11.579  13.352  65.325  1.00  0.00    -0.329 C  
BRANCH  16  17
HETATM   17  C   UNL     1     -10.444  12.325  65.367  1.00  0.00    -0.302 C  
BRANCH  17  18
HETATM   18  C   UNL     1     -10.769  10.977  64.709  1.00  0.00    -0.234 C  
BRANCH  18  19
HETATM   19  N   UNL     1      -9.926   9.872  65.195  1.00  0.00    -0.292 NA 
HETATM   20  C   UNL     1      -8.695  10.323  65.852  1.00  0.00    -0.156 C  
HETATM   21  C   UNL     1      -8.904  10.914  67.251  1.00  0.00    -0.134 C  
HETATM   22  C   UNL     1      -9.685   9.993  68.225  1.00  0.00    -0.155 C  
HETATM   23  C   UNL     1      -8.797   8.857  68.890  1.00  0.00    -0.137 C  
HETATM   24  C   UNL     1     -10.950   9.514  67.466  1.00  0.00    -0.125 C  
HETATM   25  C   UNL     1      -9.666   7.922  69.761  1.00  0.00    -0.176 A  
HETATM   26  C   UNL     1      -7.571   9.403  69.676  1.00  0.00    -0.095 A  
HETATM   27  C   UNL     1     -10.665   8.951  66.071  1.00  0.00     1.185 C  
HETATM   28  O   UNL     1      -8.269   8.056  67.818  1.00  0.00    -0.125 OA 
HETATM   29  C   UNL     1     -10.211   6.739  69.219  1.00  0.00    -0.197 A  
HETATM   30  C   UNL     1      -7.525  10.696  70.230  1.00  0.00     0.437 A  
HETATM   31  H   UNL     1      -7.738   7.377  68.216  1.00  0.00     0.000 HD 
HETATM   32  C   UNL     1      -6.366  11.187  70.843  1.00  0.00     0.530 A  
HETATM   33  C   UNL     1     -11.055   5.912  69.963  1.00  0.00    -0.411 A  
HETATM   34  C   UNL     1      -5.234  10.385  70.944  1.00  0.00    -0.077 A  
HETATM   35  C   UNL     1     -11.359   6.235  71.281  1.00  0.00    -0.356 A  
HETATM   36  C   UNL     1     -10.824   7.388  71.847  1.00  0.00    -0.262 A  
HETATM   37  C   UNL     1      -5.269   9.083  70.458  1.00  0.00    -0.020 A  
HETATM   38  C   UNL     1      -9.994   8.230  71.092  1.00  0.00    -0.230 A  
HETATM   39  C   UNL     1      -6.426   8.593  69.844  1.00  0.00    -0.034 A  
ENDBRANCH  18  19
ENDBRANCH  17  18
ENDBRANCH  16  17
ENDBRANCH  13  16
ENDBRANCH  10  13
ENDBRANCH   2   7
TORSDOF 6
ENDMDL
MODEL      226
REMARK 921   NORMALIZED FREE ENERGY PREDICTED BY IDOCK:    1.21 KCAL/MOL
REMARK 922        TOTAL FREE ENERGY PREDICTED BY IDOCK:   -0.72 KCAL/MOL
REMARK 923 INTER-LIGAND FREE ENERGY PREDICTED BY IDOCK:   -3.00 KCAL/MOL
REMARK 924 INTRA-LIGAND FREE ENERGY PREDICTED BY IDOCK:    2.28 KCAL/MOL
REMARK 927      BINDING AFFINITY PREDICTED BY RF-SCORE:    0.00 PKD
ROOT
HETATM    1  C   UNL     1     -11.410   5.507  66.817  1.00  0.00     0.651 C  
HETATM    2  C   UNL     1     -10.446   5.538  68.026  1.00  0.00    -0.240 C  
HETATM    3  C   UNL     1      -9.528   4.302  67.928  1.00  0.00    -0.165 C  
HETATM    4  O   UNL     1      -9.553   3.483  67.019  1.00  0.00    -0.204 OA 
HETATM    5  C   UNL     1     -11.261   5.395  69.326  1.00  0.00     0.712 C  
HETATM    6  O   UNL     1      -8.651   4.169  68.955  1.00  0.00    -0.080 OA 
ENDROOT
BRANCH   2   7
HETATM    7  C   UNL     1      -9.699   6.879  67.994  1.00  0.00    -0.138 A  
HETATM    8  C   UNL     1      -8.740   7.175  68.981  1.00  0.00    -0.132 A  
HETATM    9  C   UNL     1      -8.160   8.439  69.072  1.00  0.00    -0.116 A  
HETATM   10  C   UNL     1      -8.498   9.437  68.151  1.00  0.00    -0.120 A  
HETATM   11  C   UNL     1     -10.000   7.876  67.057  1.00  0.00    -0.322 A  
HETATM   12  C   UNL     1      -9.382   9.121  67.114  1.00  0.00    -0.178 A  
BRANCH  10  13
HETATM   13  C   UNL     1      -7.982  10.847  68.319  1.00  0.00    -0.121 C  
HETATM   14  O   UNL     1      -8.525  11.354  69.530  1.00  0.00    -0.266 OA 
HETATM   15  H   UNL     1      -8.201  12.241  69.636  1.00  0.00     0.000 HD 
BRANCH  13  16
HETATM   16  C   UNL     1      -6.441  10.857  68.284  1.00  0.00    -0.057 C  
BRANCH  16  17
HETATM   17  C   UNL     1      -5.828  11.160  66.914  1.00  0.00    -0.092 C  
BRANCH  17  18
HETATM   18  C   UNL     1      -5.262  12.578  66.759  1.00  0.00     0.455 C  
BRANCH  18  19
HETATM   19  N   UNL     1      -5.486  13.427  67.942  1.00  0.00    -0.139 NA 
HETATM   20  C   UNL     1      -5.129  14.833  67.727  1.00  0.00     0.007 C  
HETATM   21  C   UNL     1      -6.121  15.612  66.855  1.00  0.00     0.595 C  
HETATM   22  C   UNL     1      -7.594  15.534  67.336  1.00  0.00    -0.231 C  
HETATM   23  C   UNL     1      -7.936  16.527  68.527  1.00  0.00    -0.216 C  
HETATM   24  C   UNL     1      -7.902  14.036  67.587  1.00  0.00    -0.185 C  
HETATM   25  C   UNL     1      -9.386  16.317  69.015  1.00  0.00    -0.254 A  
HETATM   26  C   UNL     1      -7.649  18.020  68.197  1.00  0.00    -0.260 A  
HETATM   27  C   UNL     1      -6.861  13.320  68.452  1.00  0.00    -0.098 C  
HETATM   28  O   UNL     1      -7.072  16.180  69.623  1.00  0.00    -0.197 OA 
HETATM   29  C   UNL     1      -9.662  15.440  70.087  1.00  0.00     0.091 A  
HETATM   30  C   UNL     1      -7.638  18.531  66.885  1.00  0.00    -0.235 A  
HETATM   31  H   UNL     1      -7.277  16.774  70.336  1.00  0.00     0.000 HD 
HETATM   32  C   UNL     1      -7.277  19.857  66.622  1.00  0.00    -0.263 A  
HETATM   33  C   UNL     1     -10.969  15.179  70.504  1.00  0.00    -0.267 A  
HETATM   34  C   UNL     1      -6.949  20.715  67.666  1.00  0.00    -0.376 A  
HETATM   35  C   UNL     1     -12.037  15.808  69.874  1.00  0.00    -0.315 A  
HETATM   36  C   UNL     1     -11.795  16.689  68.824  1.00  0.00     0.420 A  
HETATM   37  C   UNL     1      -7.008  20.255  68.977  1.00  0.00    -0.127 A  
HETATM   38  C   UNL     1     -10.484  16.933  68.391  1.00  0.00    -0.355 A  
HETATM   39  C   UNL     1      -7.367  18.929  69.241  1.00  0.00    -0.186 A  
ENDBRANCH  18  19
ENDBRANCH  17  18
ENDBRANCH  16  17
ENDBRANCH  13  16
ENDBRANCH  10  13
ENDBRANCH   2   7
TORSDOF 6
ENDMDL
MODEL      227
REMARK 921   NORMALIZED FREE ENERGY PREDICTED BY IDOCK:    1.28 KCAL/MOL
REMARK 922        TOTAL FREE ENERGY PREDICTED BY IDOCK:   -0.62 KCAL/MOL
REMARK 923 INTER-LIGAND FREE ENERGY PREDICTED BY IDOCK:    0.68 KCAL/MOL
REMARK 924 INTRA-LIGAND FREE ENERGY PREDICTED BY IDOCK:   -1.31 KCAL/MOL
REMARK 927      BINDING AFFINITY PREDICTED BY RF-SCORE:    0.00 PKD
ROOT
HETATM    1  C   UNL     1     -11.689  13.386  67.299  1.00  0.00    -0.424 C  
HETATM    2  C   UNL     1     -11.577  11.953  66.728  1.00  0.00    -0.341 C  
HETATM    3  C   UNL     1     -12.256  11.944  65.343  1.00  0.00     0.303 C  
HETATM    4  O   UNL     1     -12.749  12.924  64.800  1.00  0.00    -0.647 OA 
HETATM    5  C   UNL     1     -12.370  10.987  67.628  1.00  0.00     1.614 C  
HETATM    6  O   UNL     1     -12.276  10.731  64.734  1.00  0.00     1.605 OA 
ENDROOT
BRANCH   2   7
HETATM    7  C   UNL     1     -10.088  11.577  66.700  1.00  0.00    -0.242 A  
HETATM    8  C   UNL     1      -9.605  10.552  67.536  1.00  0.00    -0.181 A  
HETATM    9  C   UNL     1      -8.241  10.292  67.649  1.00  0.00    -0.114 A  
HETATM   10  C   UNL     1      -7.318  11.030  66.899  1.00  0.00    -0.133 A  
HETATM   11  C   UNL     1      -9.157  12.282  65.927  1.00  0.00     0.044 A  
HETATM   12  C   UNL     1      -7.799  11.987  65.999  1.00  0.00     0.689 A  
BRANCH  10  13
HETATM   13  C   UNL     1      -5.834  10.852  67.113  1.00  0.00    -0.058 C  
HETATM   14  O   UNL     1      -5.169  11.595  66.100  1.00  0.00    -0.363 OA 
HETATM   15  H   UNL     1      -4.235  11.483  66.234  1.00  0.00     0.000 HD 
BRANCH  13  16
HETATM   16  C   UNL     1      -5.448  11.279  68.542  1.00  0.00    -0.042 C  
BRANCH  16  17
HETATM   17  C   UNL     1      -5.330  12.791  68.756  1.00  0.00    -0.063 C  
BRANCH  17  18
HETATM   18  C   UNL     1      -5.358  13.239  70.223  1.00  0.00    -0.115 C  
BRANCH  18  19
HETATM   19  N   UNL     1      -5.908  14.592  70.409  1.00  0.00    -0.146 NA 
HETATM   20  C   UNL     1      -5.213  15.618  69.625  1.00  0.00    -0.106 C  
HETATM   21  C   UNL     1      -5.526  15.588  68.124  1.00  0.00    -0.124 C  
HETATM   22  C   UNL     1      -7.039  15.633  67.785  1.00  0.00    -0.174 C  
HETATM   23  C   UNL     1      -7.668  17.090  67.836  1.00  0.00    -0.175 C  
HETATM   24  C   UNL     1      -7.727  14.562  68.670  1.00  0.00    -0.137 C  
HETATM   25  C   UNL     1      -9.192  17.039  67.589  1.00  0.00    -0.233 A  
HETATM   26  C   UNL     1      -6.965  18.107  66.892  1.00  0.00    -0.216 A  
HETATM   27  C   UNL     1      -7.356  14.645  70.152  1.00  0.00     0.272 C  
HETATM   28  O   UNL     1      -7.478  17.581  69.175  1.00  0.00    -0.209 OA 
HETATM   29  C   UNL     1     -10.091  16.956  68.674  1.00  0.00    -0.291 A  
HETATM   30  C   UNL     1      -6.262  17.724  65.734  1.00  0.00    -0.202 A  
HETATM   31  H   UNL     1      -7.854  18.453  69.206  1.00  0.00     0.000 HD 
HETATM   32  C   UNL     1      -5.558  18.658  64.965  1.00  0.00    -0.257 A  
HETATM   33  C   UNL     1     -11.469  16.839  68.478  1.00  0.00     0.065 A  
HETATM   34  C   UNL     1      -5.565  20.004  65.318  1.00  0.00    -0.202 A  
HETATM   35  C   UNL     1     -11.987  16.825  67.188  1.00  0.00     1.715 A  
HETATM   36  C   UNL     1     -11.126  16.921  66.099  1.00  0.00     0.335 A  
HETATM   37  C   UNL     1      -6.298  20.420  66.424  1.00  0.00    -0.245 A  
HETATM   38  C   UNL     1      -9.741  17.016  66.297  1.00  0.00    -0.302 A  
HETATM   39  C   UNL     1      -7.001  19.487  67.193  1.00  0.00    -0.218 A  
ENDBRANCH  18  19
ENDBRANCH  17  18
ENDBRANCH  16  17
ENDBRANCH  13  16
ENDBRANCH  10  13
ENDBRANCH   2   7
TORSDOF 6
ENDMDL
MODEL      228
REMARK 921   NORMALIZED FREE ENERGY PREDICTED BY IDOCK:    1.34 KCAL/MOL
REMARK 922        TOTAL FREE ENERGY PREDICTED BY IDOCK:   -0.54 KCAL/MOL
REMARK 923 INTER-LIGAND FREE ENERGY PREDICTED BY IDOCK:    0.65 KCAL/MOL
REMARK 924 INTRA-LIGAND FREE ENERGY PREDICTED BY IDOCK:   -1.19 KCAL/MOL
REMARK 927      BINDING AFFINITY PREDICTED BY RF-SCORE:    0.00 PKD
ROOT
HETATM    1  C   UNL     1      -8.914   8.807  62.579  1.00  0.00     0.092 C  
HETATM    2  C   UNL     1      -8.176   9.926  63.349  1.00  0.00    -0.161 C  
HETATM    3  C   UNL     1      -9.106  11.156  63.397  1.00  0.00    -0.157 C  
HETATM    4  O   UNL     1     -10.239  11.194  62.936  1.00  0.00    -0.256 OA 
HETATM    5  C   UNL     1      -6.919  10.339  62.560  1.00  0.00    -0.141 C  
HETATM    6  O   UNL     1      -8.570  12.244  64.008  1.00  0.00     1.371 OA 
ENDROOT
BRANCH   2   7
HETATM    7  C   UNL     1      -7.796   9.372  64.730  1.00  0.00    -0.118 A  
HETATM    8  C   UNL     1      -8.804   9.002  65.641  1.00  0.00    -0.224 A  
HETATM    9  C   UNL     1      -8.499   8.644  66.953  1.00  0.00    -0.113 A  
HETATM   10  C   UNL     1      -7.168   8.611  67.383  1.00  0.00    -0.080 A  
HETATM   11  C   UNL     1      -6.467   9.299  65.163  1.00  0.00    -0.070 A  
HETATM   12  C   UNL     1      -6.157   8.891  66.457  1.00  0.00    -0.060 A  
BRANCH  10  13
HETATM   13  C   UNL     1      -6.833   8.359  68.834  1.00  0.00    -0.061 C  
HETATM   14  O   UNL     1      -6.506   9.614  69.417  1.00  0.00    -0.043 OA 
HETATM   15  H   UNL     1      -6.295   9.455  70.330  1.00  0.00     0.000 HD 
BRANCH  13  16
HETATM   16  C   UNL     1      -8.004   7.643  69.534  1.00  0.00    -0.125 C  
BRANCH  16  17
HETATM   17  C   UNL     1      -9.081   8.571  70.104  1.00  0.00    -0.154 C  
BRANCH  17  18
HETATM   18  C   UNL     1     -10.317   8.749  69.213  1.00  0.00    -0.214 C  
BRANCH  18  19
HETATM   19  N   UNL     1     -11.078   9.974  69.510  1.00  0.00    -0.240 NA 
HETATM   20  C   UNL     1     -10.274  11.021  70.147  1.00  0.00     0.807 C  
HETATM   21  C   UNL     1      -9.301  11.735  69.202  1.00  0.00     0.345 C  
HETATM   22  C   UNL     1      -9.961  12.315  67.923  1.00  0.00    -0.202 C  
HETATM   23  C   UNL     1     -10.688  13.709  68.148  1.00  0.00    -0.248 C  
HETATM   24  C   UNL     1     -10.829  11.183  67.317  1.00  0.00    -0.326 C  
HETATM   25  C   UNL     1     -11.405  14.167  66.859  1.00  0.00    -0.343 A  
HETATM   26  C   UNL     1      -9.754  14.816  68.713  1.00  0.00    -0.222 A  
HETATM   27  C   UNL     1     -11.764  10.506  68.323  1.00  0.00     0.031 C  
HETATM   28  O   UNL     1     -11.708  13.493  69.139  1.00  0.00    -0.282 OA 
HETATM   29  C   UNL     1     -12.764  13.851  66.643  1.00  0.00     0.021 A  
HETATM   30  C   UNL     1      -8.357  14.814  68.529  1.00  0.00    -0.160 A  
HETATM   31  H   UNL     1     -12.143  14.327  69.274  1.00  0.00     0.000 HD 
HETATM   32  C   UNL     1      -7.540  15.774  69.137  1.00  0.00    -0.212 A  
HETATM   33  C   UNL     1     -13.418  14.193  65.458  1.00  0.00     0.687 A  
HETATM   34  C   UNL     1      -8.101  16.778  69.920  1.00  0.00     1.221 A  
HETATM   35  C   UNL     1     -12.734  14.882  64.463  1.00  0.00     0.139 A  
HETATM   36  C   UNL     1     -11.398  15.221  64.653  1.00  0.00    -0.364 A  
HETATM   37  C   UNL     1      -9.482  16.840  70.072  1.00  0.00     1.116 A  
HETATM   38  C   UNL     1     -10.736  14.857  65.834  1.00  0.00    -0.329 A  
HETATM   39  C   UNL     1     -10.299  15.881  69.465  1.00  0.00    -0.277 A  
ENDBRANCH  18  19
ENDBRANCH  17  18
ENDBRANCH  16  17
ENDBRANCH  13  16
ENDBRANCH  10  13
ENDBRANCH   2   7
TORSDOF 6
ENDMDL
MODEL      229
REMARK 921   NORMALIZED FREE ENERGY PREDICTED BY IDOCK:    1.59 KCAL/MOL
REMARK 922        TOTAL FREE ENERGY PREDICTED BY IDOCK:   -0.21 KCAL/MOL
REMARK 923 INTER-LIGAND FREE ENERGY PREDICTED BY IDOCK:   -1.85 KCAL/MOL
REMARK 924 INTRA-LIGAND FREE ENERGY PREDICTED BY IDOCK:    1.65 KCAL/MOL
REMARK 927      BINDING AFFINITY PREDICTED BY RF-SCORE:    0.00 PKD
ROOT
HETATM    1  C   UNL     1      -7.615  16.546  67.617  1.00  0.00    -0.165 C  
HETATM    2  C   UNL     1      -7.093  15.259  68.296  1.00  0.00    -0.117 C  
HETATM    3  C   UNL     1      -7.700  15.195  69.713  1.00  0.00    -0.066 C  
HETATM    4  O   UNL     1      -8.487  16.011  70.174  1.00  0.00     0.602 OA 
HETATM    5  C   UNL     1      -5.564  15.360  68.463  1.00  0.00    -0.099 C  
HETATM    6  O   UNL     1      -7.292  14.133  70.453  1.00  0.00     0.475 OA 
ENDROOT
BRANCH   2   7
HETATM    7  C   UNL     1      -7.468  14.072  67.398  1.00  0.00    -0.147 A  
HETATM    8  C   UNL     1      -8.741  14.016  66.800  1.00  0.00    -0.134 A  
HETATM    9  C   UNL     1      -9.168  12.884  66.109  1.00  0.00    -0.027 A  
HETATM   10  C   UNL     1      -8.317  11.783  65.966  1.00  0.00     0.186 A  
HETATM   11  C   UNL     1      -6.613  12.978  67.215  1.00  0.00    -0.004 A  
HETATM   12  C   UNL     1      -7.019  11.868  66.480  1.00  0.00     0.193 A  
BRANCH  10  13
HETATM   13  C   UNL     1      -8.814  10.501  65.340  1.00  0.00    -0.187 C  
HETATM   14  O   UNL     1      -7.673   9.765  64.921  1.00  0.00    -0.116 OA 
HETATM   15  H   UNL     1      -7.985   8.958  64.527  1.00  0.00     0.000 HD 
BRANCH  13  16
HETATM   16  C   UNL     1      -9.709   9.736  66.334  1.00  0.00    -0.275 C  
BRANCH  16  17
HETATM   17  C   UNL     1     -11.008  10.450  66.715  1.00  0.00    -0.116 C  
BRANCH  17  18
HETATM   18  C   UNL     1     -11.129  10.823  68.199  1.00  0.00    -0.280 C  
BRANCH  18  19
HETATM   19  N   UNL     1     -11.342   9.659  69.077  1.00  0.00     0.010 NA 
HETATM   20  C   UNL     1     -11.405   8.386  68.353  1.00  0.00     0.866 C  
HETATM   21  C   UNL     1     -10.051   7.880  67.844  1.00  0.00    -0.240 C  
HETATM   22  C   UNL     1      -8.951   7.785  68.933  1.00  0.00    -0.141 C  
HETATM   23  C   UNL     1      -9.045   6.480  69.832  1.00  0.00    -0.143 C  
HETATM   24  C   UNL     1      -8.958   9.138  69.691  1.00  0.00    -0.158 C  
HETATM   25  C   UNL     1      -7.985   6.510  70.955  1.00  0.00    -0.111 A  
HETATM   26  C   UNL     1      -8.986   5.156  69.019  1.00  0.00    -0.123 A  
HETATM   27  C   UNL     1     -10.346   9.586  70.156  1.00  0.00    -0.255 C  
HETATM   28  O   UNL     1     -10.333   6.505  70.474  1.00  0.00    -0.194 OA 
HETATM   29  C   UNL     1      -8.303   7.028  72.229  1.00  0.00    -0.115 A  
HETATM   30  C   UNL     1      -8.369   5.053  67.757  1.00  0.00    -0.105 A  
HETATM   31  H   UNL     1     -10.389   5.724  71.012  1.00  0.00     0.000 HD 
HETATM   32  C   UNL     1      -8.424   3.870  67.012  1.00  0.00    -0.101 A  
HETATM   33  C   UNL     1      -7.346   7.131  73.240  1.00  0.00    -0.078 A  
HETATM   34  C   UNL     1      -9.071   2.749  67.523  1.00  0.00    -0.213 A  
HETATM   35  C   UNL     1      -6.046   6.696  73.011  1.00  0.00    -0.057 A  
HETATM   36  C   UNL     1      -5.705   6.167  71.770  1.00  0.00    -0.031 A  
HETATM   37  C   UNL     1      -9.639   2.802  68.791  1.00  0.00    -0.069 A  
HETATM   38  C   UNL     1      -6.662   6.084  70.748  1.00  0.00    -0.057 A  
HETATM   39  C   UNL     1      -9.585   3.985  69.536  1.00  0.00    -0.265 A  
ENDBRANCH  18  19
ENDBRANCH  17  18
ENDBRANCH  16  17
ENDBRANCH  13  16
ENDBRANCH  10  13
ENDBRANCH   2   7
TORSDOF 6
ENDMDL
MODEL      230
REMARK 921   NORMALIZED FREE ENERGY PREDICTED BY IDOCK:    1.82 KCAL/MOL
REMARK 922        TOTAL FREE ENERGY PREDICTED BY IDOCK:    0.11 KCAL/MOL
REMARK 923 INTER-LIGAND FREE ENERGY PREDICTED BY IDOCK:    1.53 KCAL/MOL
REMARK 924 INTRA-LIGAND FREE ENERGY PREDICTED BY IDOCK:   -1.42 KCAL/MOL
REMARK 927      BINDING AFFINITY PREDICTED BY RF-SCORE:    0.00 PKD
ROOT
HETATM    1  C   UNL     1      -9.234  10.103  64.231  1.00  0.00    -0.312 C  
HETATM    2  C   UNL     1      -8.676  11.208  65.159  1.00  0.00     0.005 C  
HETATM    3  C   UNL     1      -9.823  12.196  65.455  1.00  0.00    -0.221 C  
HETATM    4  O   UNL     1     -10.971  12.077  65.050  1.00  0.00    -0.291 OA 
HETATM    5  C   UNL     1      -7.583  11.994  64.408  1.00  0.00     3.711 C  
HETATM    6  O   UNL     1      -9.468  13.255  66.228  1.00  0.00    -0.254 OA 
ENDROOT
BRANCH   2   7
HETATM    7  C   UNL     1      -8.099  10.523  66.406  1.00  0.00    -0.135 A  
HETATM    8  C   UNL     1      -8.953   9.843  67.294  1.00  0.00    -0.145 A  
HETATM    9  C   UNL     1      -8.487   9.346  68.511  1.00  0.00    -0.119 A  
HETATM   10  C   UNL     1      -7.139   9.486  68.858  1.00  0.00    -0.067 A  
HETATM   11  C   UNL     1      -6.745  10.623  66.750  1.00  0.00    -0.103 A  
HETATM   12  C   UNL     1      -6.268  10.082  67.940  1.00  0.00    -0.057 A  
BRANCH  10  13
HETATM   13  C   UNL     1      -6.650   9.076  70.228  1.00  0.00    -0.045 C  
HETATM   14  O   UNL     1      -5.285   8.705  70.096  1.00  0.00    -0.022 OA 
HETATM   15  H   UNL     1      -4.977   8.447  70.957  1.00  0.00     0.000 HD 
BRANCH  13  16
HETATM   16  C   UNL     1      -6.883  10.216  71.239  1.00  0.00     0.667 C  
BRANCH  16  17
HETATM   17  C   UNL     1      -5.755  11.248  71.320  1.00  0.00     0.208 C  
BRANCH  17  18
HETATM   18  C   UNL     1      -5.776  12.315  70.216  1.00  0.00    -0.167 C  
BRANCH  18  19
HETATM   19  N   UNL     1      -6.648  13.460  70.529  1.00  0.00     0.265 NA 
HETATM   20  C   UNL     1      -5.956  14.752  70.476  1.00  0.00    -0.156 C  
HETATM   21  C   UNL     1      -5.647  15.246  69.058  1.00  0.00    -0.098 C  
HETATM   22  C   UNL     1      -6.877  15.294  68.114  1.00  0.00    -0.137 C  
HETATM   23  C   UNL     1      -7.790  16.578  68.309  1.00  0.00    -0.175 C  
HETATM   24  C   UNL     1      -7.591  13.923  68.242  1.00  0.00    -0.130 C  
HETATM   25  C   UNL     1      -9.044  16.501  67.410  1.00  0.00    -0.210 A  
HETATM   26  C   UNL     1      -7.027  17.920  68.122  1.00  0.00    -0.218 A  
HETATM   27  C   UNL     1      -7.853  13.489  69.686  1.00  0.00     0.945 C  
HETATM   28  O   UNL     1      -8.252  16.560  69.671  1.00  0.00     0.108 OA 
HETATM   29  C   UNL     1     -10.249  15.958  67.905  1.00  0.00    -0.251 A  
HETATM   30  C   UNL     1      -5.863  18.042  67.339  1.00  0.00    -0.160 A  
HETATM   31  H   UNL     1      -8.798  17.328  69.789  1.00  0.00     0.000 HD 
HETATM   32  C   UNL     1      -5.149  19.244  67.275  1.00  0.00    -0.156 A  
HETATM   33  C   UNL     1     -11.376  15.813  67.095  1.00  0.00    -0.025 A  
HETATM   34  C   UNL     1      -5.598  20.364  67.968  1.00  0.00    -0.254 A  
HETATM   35  C   UNL     1     -11.336  16.230  65.769  1.00  0.00     0.359 A  
HETATM   36  C   UNL     1     -10.166  16.783  65.257  1.00  0.00     0.030 A  
HETATM   37  C   UNL     1      -6.777  20.290  68.703  1.00  0.00    -0.294 A  
HETATM   38  C   UNL     1      -9.028  16.908  66.065  1.00  0.00    -0.198 A  
HETATM   39  C   UNL     1      -7.490  19.089  68.767  1.00  0.00    -0.369 A  
ENDBRANCH  18  19
ENDBRANCH  17  18
ENDBRANCH  16  17
ENDBRANCH  13  16
ENDBRANCH  10  13
ENDBRANCH   2   7
TORSDOF 6
ENDMDL
MODEL      231
REMARK 921   NORMALIZED FREE ENERGY PREDICTED BY IDOCK:    2.14 KCAL/MOL
REMARK 922        TOTAL FREE ENERGY PREDICTED BY IDOCK:    0.54 KCAL/MOL
REMARK 923 INTER-LIGAND FREE ENERGY PREDICTED BY IDOCK:    2.54 KCAL/MOL
REMARK 924 INTRA-LIGAND FREE ENERGY PREDICTED BY IDOCK:   -2.00 KCAL/MOL
REMARK 927      BINDING AFFINITY PREDICTED BY RF-SCORE:    0.00 PKD
ROOT
HETATM    1  C   UNL     1     -11.483   5.803  66.950  1.00  0.00     0.731 C  
HETATM    2  C   UNL     1     -10.202   4.965  66.734  1.00  0.00    -0.274 C  
HETATM    3  C   UNL     1     -10.079   4.675  65.224  1.00  0.00    -0.101 C  
HETATM    4  O   UNL     1     -10.851   5.086  64.367  1.00  0.00     0.809 OA 
HETATM    5  C   UNL     1     -10.361   3.607  67.444  1.00  0.00     1.183 C  
HETATM    6  O   UNL     1      -9.016   3.901  64.884  1.00  0.00    -0.121 OA 
ENDROOT
BRANCH   2   7
HETATM    7  C   UNL     1      -9.023   5.754  67.320  1.00  0.00    -0.112 A  
HETATM    8  C   UNL     1      -8.345   6.699  66.527  1.00  0.00    -0.117 A  
HETATM    9  C   UNL     1      -7.178   7.317  66.974  1.00  0.00    -0.092 A  
HETATM   10  C   UNL     1      -6.674   7.033  68.248  1.00  0.00    -0.064 A  
HETATM   11  C   UNL     1      -8.528   5.507  68.606  1.00  0.00    -0.104 A  
HETATM   12  C   UNL     1      -7.393   6.163  69.075  1.00  0.00    -0.085 A  
BRANCH  10  13
HETATM   13  C   UNL     1      -5.341   7.589  68.691  1.00  0.00    -0.022 C  
HETATM   14  O   UNL     1      -5.323   8.967  68.345  1.00  0.00    -0.037 OA 
HETATM   15  H   UNL     1      -4.484   9.317  68.623  1.00  0.00     0.000 HD 
BRANCH  13  16
HETATM   16  C   UNL     1      -5.130   7.329  70.195  1.00  0.00    -0.022 C  
BRANCH  16  17
HETATM   17  C   UNL     1      -5.204   8.575  71.082  1.00  0.00    -0.028 C  
BRANCH  17  18
HETATM   18  C   UNL     1      -5.889   8.360  72.439  1.00  0.00    -0.057 C  
BRANCH  18  19
HETATM   19  N   UNL     1      -7.073   9.214  72.635  1.00  0.00    -0.178 NA 
HETATM   20  C   UNL     1      -7.362  10.083  71.490  1.00  0.00     1.517 C  
HETATM   21  C   UNL     1      -7.961   9.358  70.280  1.00  0.00    -0.172 C  
HETATM   22  C   UNL     1      -9.221   8.510  70.599  1.00  0.00    -0.189 C  
HETATM   23  C   UNL     1     -10.561   9.357  70.692  1.00  0.00    -0.290 C  
HETATM   24  C   UNL     1      -8.873   7.645  71.838  1.00  0.00    -0.143 C  
HETATM   25  C   UNL     1     -11.747   8.462  71.114  1.00  0.00    -0.315 A  
HETATM   26  C   UNL     1     -10.878  10.166  69.403  1.00  0.00    -0.274 A  
HETATM   27  C   UNL     1      -8.266   8.435  73.001  1.00  0.00    -0.113 C  
HETATM   28  O   UNL     1     -10.373  10.323  71.742  1.00  0.00     0.981 OA 
HETATM   29  C   UNL     1     -12.103   8.338  72.474  1.00  0.00    -0.400 A  
HETATM   30  C   UNL     1     -10.409   9.798  68.127  1.00  0.00    -0.241 A  
HETATM   31  H   UNL     1     -11.174  10.830  71.798  1.00  0.00     0.000 HD 
HETATM   32  C   UNL     1     -10.633  10.606  67.006  1.00  0.00    -0.317 A  
HETATM   33  C   UNL     1     -13.126   7.484  72.890  1.00  0.00     1.019 A  
HETATM   34  C   UNL     1     -11.358  11.787  67.127  1.00  0.00    -0.387 A  
HETATM   35  C   UNL     1     -13.837   6.745  71.951  1.00  0.00    -0.133 A  
HETATM   36  C   UNL     1     -13.518   6.857  70.602  1.00  0.00     0.705 A  
HETATM   37  C   UNL     1     -11.884  12.147  68.363  1.00  0.00    -0.360 A  
HETATM   38  C   UNL     1     -12.476   7.699  70.187  1.00  0.00     0.741 A  
HETATM   39  C   UNL     1     -11.660  11.340  69.483  1.00  0.00    -0.398 A  
ENDBRANCH  18  19
ENDBRANCH  17  18
ENDBRANCH  16  17
ENDBRANCH  13  16
ENDBRANCH  10  13
ENDBRANCH   2   7
TORSDOF 6
ENDMDL
MODEL      232
REMARK 921   NORMALIZED FREE ENERGY PREDICTED BY IDOCK:    2.15 KCAL/MOL
REMARK 922        TOTAL FREE ENERGY PREDICTED BY IDOCK:    0.55 KCAL/MOL
REMARK 923 INTER-LIGAND FREE ENERGY PREDICTED BY IDOCK:    0.59 KCAL/MOL
REMARK 924 INTRA-LIGAND FREE ENERGY PREDICTED BY IDOCK:   -0.04 KCAL/MOL
REMARK 927      BINDING AFFINITY PREDICTED BY RF-SCORE:    0.00 PKD
ROOT
HETATM    1  C   UNL     1     -14.015  15.545  71.765  1.00  0.00    -0.569 C  
HETATM    2  C   UNL     1     -12.493  15.752  71.592  1.00  0.00    -0.525 C  
HETATM    3  C   UNL     1     -11.773  14.666  72.418  1.00  0.00     0.067 C  
HETATM    4  O   UNL     1     -12.336  13.784  73.054  1.00  0.00     0.108 OA 
HETATM    5  C   UNL     1     -12.096  17.115  72.191  1.00  0.00     1.606 C  
HETATM    6  O   UNL     1     -10.419  14.749  72.399  1.00  0.00     1.489 OA 
ENDROOT
BRANCH   2   7
HETATM    7  C   UNL     1     -12.184  15.704  70.088  1.00  0.00    -0.387 A  
HETATM    8  C   UNL     1     -11.478  16.760  69.481  1.00  0.00     0.354 A  
HETATM    9  C   UNL     1     -11.317  16.824  68.098  1.00  0.00    -0.026 A  
HETATM   10  C   UNL     1     -11.830  15.810  67.282  1.00  0.00     0.440 A  
HETATM   11  C   UNL     1     -12.660  14.678  69.262  1.00  0.00     0.093 A  
HETATM   12  C   UNL     1     -12.454  14.713  67.887  1.00  0.00     0.316 A  
BRANCH  10  13
HETATM   13  C   UNL     1     -11.784  15.934  65.777  1.00  0.00     0.635 C  
HETATM   14  O   UNL     1     -10.429  15.771  65.381  1.00  0.00    -0.368 OA 
HETATM   15  H   UNL     1     -10.399  15.850  64.435  1.00  0.00     0.000 HD 
BRANCH  13  16
HETATM   16  C   UNL     1     -12.741  14.916  65.129  1.00  0.00     0.169 C  
BRANCH  16  17
HETATM   17  C   UNL     1     -12.082  13.949  64.140  1.00  0.00    -0.464 C  
BRANCH  17  18
HETATM   18  C   UNL     1     -11.827  12.539  64.689  1.00  0.00    -0.378 C  
BRANCH  18  19
HETATM   19  N   UNL     1     -11.652  12.505  66.151  1.00  0.00    -0.375 NA 
HETATM   20  C   UNL     1     -11.901  11.185  66.739  1.00  0.00     0.773 C  
HETATM   21  C   UNL     1     -10.792  10.159  66.482  1.00  0.00    -0.043 C  
HETATM   22  C   UNL     1      -9.373  10.633  66.892  1.00  0.00    -0.180 C  
HETATM   23  C   UNL     1      -9.071  10.497  68.445  1.00  0.00    -0.148 C  
HETATM   24  C   UNL     1      -9.181  12.045  66.281  1.00  0.00    -0.208 C  
HETATM   25  C   UNL     1      -7.684  11.084  68.787  1.00  0.00    -0.135 A  
HETATM   26  C   UNL     1      -9.235   9.049  68.988  1.00  0.00    -0.140 A  
HETATM   27  C   UNL     1     -10.335  13.010  66.566  1.00  0.00    -0.274 C  
HETATM   28  O   UNL     1     -10.046  11.301  69.132  1.00  0.00    -0.363 OA 
HETATM   29  C   UNL     1      -7.556  12.427  69.202  1.00  0.00     0.223 A  
HETATM   30  C   UNL     1      -9.103   7.903  68.179  1.00  0.00    -0.133 A  
HETATM   31  H   UNL     1      -9.866  11.219  70.062  1.00  0.00     0.000 HD 
HETATM   32  C   UNL     1      -9.356   6.622  68.682  1.00  0.00    -0.129 A  
HETATM   33  C   UNL     1      -6.309  13.003  69.452  1.00  0.00    -0.111 A  
HETATM   34  C   UNL     1      -9.717   6.451  70.014  1.00  0.00    -0.183 A  
HETATM   35  C   UNL     1      -5.154  12.241  69.315  1.00  0.00    -0.067 A  
HETATM   36  C   UNL     1      -5.249  10.910  68.922  1.00  0.00    -0.041 A  
HETATM   37  C   UNL     1      -9.799   7.558  70.852  1.00  0.00    -0.177 A  
HETATM   38  C   UNL     1      -6.501  10.339  68.650  1.00  0.00    -0.052 A  
HETATM   39  C   UNL     1      -9.548   8.839  70.349  1.00  0.00    -0.210 A  
ENDBRANCH  18  19
ENDBRANCH  17  18
ENDBRANCH  16  17
ENDBRANCH  13  16
ENDBRANCH  10  13
ENDBRANCH   2   7
TORSDOF 6
ENDMDL
MODEL      233
REMARK 921   NORMALIZED FREE ENERGY PREDICTED BY IDOCK:    2.44 KCAL/MOL
REMARK 922        TOTAL FREE ENERGY PREDICTED BY IDOCK:    0.94 KCAL/MOL
REMARK 923 INTER-LIGAND FREE ENERGY PREDICTED BY IDOCK:    1.53 KCAL/MOL
REMARK 924 INTRA-LIGAND FREE ENERGY PREDICTED BY IDOCK:   -0.59 KCAL/MOL
REMARK 927      BINDING AFFINITY PREDICTED BY RF-SCORE:    0.00 PKD
ROOT
HETATM    1  C   UNL     1     -10.571  17.875  65.335  1.00  0.00     0.113 C  
HETATM    2  C   UNL     1      -9.590  17.064  66.213  1.00  0.00    -0.289 C  
HETATM    3  C   UNL     1      -8.396  17.978  66.554  1.00  0.00    -0.268 C  
HETATM    4  O   UNL     1      -8.292  19.149  66.212  1.00  0.00    -0.306 OA 
HETATM    5  C   UNL     1      -9.036  15.883  65.393  1.00  0.00     0.565 C  
HETATM    6  O   UNL     1      -7.423  17.383  67.289  1.00  0.00    -0.178 OA 
ENDROOT
BRANCH   2   7
HETATM    7  C   UNL     1     -10.367  16.562  67.439  1.00  0.00    -0.290 A  
HETATM    8  C   UNL     1     -11.158  17.456  68.185  1.00  0.00    -0.017 A  
HETATM    9  C   UNL     1     -11.749  17.070  69.387  1.00  0.00     1.196 A  
HETATM   10  C   UNL     1     -11.594  15.763  69.861  1.00  0.00    -0.355 A  
HETATM   11  C   UNL     1     -10.251  15.247  67.906  1.00  0.00    -0.235 A  
HETATM   12  C   UNL     1     -10.884  14.846  69.079  1.00  0.00    -0.248 A  
BRANCH  10  13
HETATM   13  C   UNL     1     -12.112  15.372  71.225  1.00  0.00    -0.366 C  
HETATM   14  O   UNL     1     -11.651  16.349  72.149  1.00  0.00    -0.442 OA 
HETATM   15  H   UNL     1     -11.977  16.103  73.007  1.00  0.00     0.000 HD 
BRANCH  13  16
HETATM   16  C   UNL     1     -13.646  15.232  71.192  1.00  0.00    -0.540 C  
BRANCH  16  17
HETATM   17  C   UNL     1     -14.168  13.804  71.369  1.00  0.00     0.190 C  
BRANCH  17  18
HETATM   18  C   UNL     1     -13.081  12.722  71.433  1.00  0.00    -0.227 C  
BRANCH  18  19
HETATM   19  N   UNL     1     -13.246  11.668  70.418  1.00  0.00     0.462 NA 
HETATM   20  C   UNL     1     -13.160  12.165  69.041  1.00  0.00     2.531 C  
HETATM   21  C   UNL     1     -11.741  12.523  68.585  1.00  0.00    -0.368 C  
HETATM   22  C   UNL     1     -10.702  11.387  68.776  1.00  0.00    -0.240 C  
HETATM   23  C   UNL     1     -10.737  10.282  67.635  1.00  0.00    -0.288 C  
HETATM   24  C   UNL     1     -10.866  10.873  70.229  1.00  0.00     0.061 C  
HETATM   25  C   UNL     1      -9.750   9.137  67.951  1.00  0.00    -0.182 A  
HETATM   26  C   UNL     1     -10.521  10.854  66.206  1.00  0.00    -0.304 A  
HETATM   27  C   UNL     1     -12.311  10.551  70.618  1.00  0.00    -0.356 C  
HETATM   28  O   UNL     1     -12.057   9.710  67.648  1.00  0.00     1.232 OA 
HETATM   29  C   UNL     1     -10.184   7.986  68.642  1.00  0.00    -0.225 A  
HETATM   30  C   UNL     1      -9.826  12.052  65.952  1.00  0.00    -0.259 A  
HETATM   31  H   UNL     1     -12.079   9.049  66.966  1.00  0.00     0.000 HD 
HETATM   32  C   UNL     1      -9.738  12.586  64.661  1.00  0.00     0.036 A  
HETATM   33  C   UNL     1      -9.299   6.967  69.000  1.00  0.00    -0.136 A  
HETATM   34  C   UNL     1     -10.316  11.918  63.586  1.00  0.00    -0.477 A  
HETATM   35  C   UNL     1      -7.955   7.063  68.655  1.00  0.00    -0.120 A  
HETATM   36  C   UNL     1      -7.501   8.179  67.960  1.00  0.00    -0.097 A  
HETATM   37  C   UNL     1     -10.958  10.703  63.797  1.00  0.00     0.674 A  
HETATM   38  C   UNL     1      -8.386   9.212  67.621  1.00  0.00    -0.116 A  
HETATM   39  C   UNL     1     -11.047  10.170  65.087  1.00  0.00     1.404 A  
ENDBRANCH  18  19
ENDBRANCH  17  18
ENDBRANCH  16  17
ENDBRANCH  13  16
ENDBRANCH  10  13
ENDBRANCH   2   7
TORSDOF 6
ENDMDL
MODEL      234
REMARK 921   NORMALIZED FREE ENERGY PREDICTED BY IDOCK:    3.28 KCAL/MOL
REMARK 922        TOTAL FREE ENERGY PREDICTED BY IDOCK:    2.07 KCAL/MOL
REMARK 923 INTER-LIGAND FREE ENERGY PREDICTED BY IDOCK:   -1.37 KCAL/MOL
REMARK 924 INTRA-LIGAND FREE ENERGY PREDICTED BY IDOCK:    3.44 KCAL/MOL
REMARK 927      BINDING AFFINITY PREDICTED BY RF-SCORE:    0.00 PKD
ROOT
HETATM    1  C   UNL     1      -9.626  13.697  69.032  1.00  0.00     0.217 C  
HETATM    2  C   UNL     1      -8.625  13.292  67.925  1.00  0.00    -0.188 C  
HETATM    3  C   UNL     1      -7.653  14.471  67.715  1.00  0.00    -0.159 C  
HETATM    4  O   UNL     1      -7.670  15.514  68.357  1.00  0.00    -0.119 OA 
HETATM    5  C   UNL     1      -9.388  13.093  66.602  1.00  0.00    -0.242 C  
HETATM    6  O   UNL     1      -6.737  14.279  66.732  1.00  0.00     0.425 OA 
ENDROOT
BRANCH   2   7
HETATM    7  C   UNL     1      -7.943  11.988  68.365  1.00  0.00    -0.152 A  
HETATM    8  C   UNL     1      -7.016  11.357  67.515  1.00  0.00    -0.101 A  
HETATM    9  C   UNL     1      -6.499  10.097  67.814  1.00  0.00    -0.062 A  
HETATM   10  C   UNL     1      -6.870   9.446  68.996  1.00  0.00    -0.054 A  
HETATM   11  C   UNL     1      -8.277  11.341  69.562  1.00  0.00     0.437 A  
HETATM   12  C   UNL     1      -7.721  10.108  69.887  1.00  0.00    -0.171 A  
BRANCH  10  13
HETATM   13  C   UNL     1      -6.425   8.028  69.266  1.00  0.00    -0.036 C  
HETATM   14  O   UNL     1      -5.133   7.874  68.696  1.00  0.00    -0.022 OA 
HETATM   15  H   UNL     1      -4.853   6.982  68.865  1.00  0.00     0.000 HD 
BRANCH  13  16
HETATM   16  C   UNL     1      -6.470   7.735  70.778  1.00  0.00    -0.038 C  
BRANCH  16  17
HETATM   17  C   UNL     1      -5.650   6.521  71.225  1.00  0.00    -0.027 C  
BRANCH  17  18
HETATM   18  C   UNL     1      -6.167   5.825  72.491  1.00  0.00    -0.048 C  
BRANCH  18  19
HETATM   19  N   UNL     1      -7.457   5.141  72.294  1.00  0.00    -0.092 NA 
HETATM   20  C   UNL     1      -8.606   5.910  72.782  1.00  0.00    -0.122 C  
HETATM   21  C   UNL     1      -8.990   7.103  71.899  1.00  0.00    -0.135 C  
HETATM   22  C   UNL     1      -9.219   6.748  70.406  1.00  0.00    -0.156 C  
HETATM   23  C   UNL     1     -10.648   6.127  70.104  1.00  0.00    -0.259 C  
HETATM   24  C   UNL     1      -7.999   5.903  69.958  1.00  0.00    -0.105 C  
HETATM   25  C   UNL     1     -10.760   5.705  68.622  1.00  0.00    -0.249 A  
HETATM   26  C   UNL     1     -11.830   7.041  70.534  1.00  0.00    -0.337 A  
HETATM   27  C   UNL     1      -7.667   4.739  70.895  1.00  0.00    -0.073 C  
HETATM   28  O   UNL     1     -10.758   4.926  70.888  1.00  0.00    -0.085 OA 
HETATM   29  C   UNL     1     -10.453   4.385  68.226  1.00  0.00     0.516 A  
HETATM   30  C   UNL     1     -11.721   8.441  70.644  1.00  0.00    -0.159 A  
HETATM   31  H   UNL     1     -11.613   4.554  70.708  1.00  0.00     0.000 HD 
HETATM   32  C   UNL     1     -12.777   9.219  71.131  1.00  0.00    -0.306 A  
HETATM   33  C   UNL     1     -10.479   3.996  66.886  1.00  0.00     0.809 A  
HETATM   34  C   UNL     1     -13.981   8.622  71.490  1.00  0.00    -0.405 A  
HETATM   35  C   UNL     1     -10.837   4.913  65.904  1.00  0.00    -0.140 A  
HETATM   36  C   UNL     1     -11.160   6.217  66.265  1.00  0.00     0.544 A  
HETATM   37  C   UNL     1     -14.138   7.249  71.337  1.00  0.00    -0.456 A  
HETATM   38  C   UNL     1     -11.112   6.613  67.609  1.00  0.00    -0.357 A  
HETATM   39  C   UNL     1     -13.083   6.470  70.852  1.00  0.00     0.540 A  
ENDBRANCH  18  19
ENDBRANCH  17  18
ENDBRANCH  16  17
ENDBRANCH  13  16
ENDBRANCH  10  13
ENDBRANCH   2   7
TORSDOF 6
ENDMDL
MODEL      235
REMARK 921   NORMALIZED FREE ENERGY PREDICTED BY IDOCK:    3.77 KCAL/MOL
REMARK 922        TOTAL FREE ENERGY PREDICTED BY IDOCK:    2.74 KCAL/MOL
REMARK 923 INTER-LIGAND FREE ENERGY PREDICTED BY IDOCK:   -4.26 KCAL/MOL
REMARK 924 INTRA-LIGAND FREE ENERGY PREDICTED BY IDOCK:    7.00 KCAL/MOL
REMARK 927      BINDING AFFINITY PREDICTED BY RF-SCORE:    0.00 PKD
ROOT
HETATM    1  C   UNL     1      -5.133  10.173  69.642  1.00  0.00    -0.038 C  
HETATM    2  C   UNL     1      -6.560   9.598  69.492  1.00  0.00    -0.049 C  
HETATM    3  C   UNL     1      -7.171   9.480  70.904  1.00  0.00    -0.044 C  
HETATM    4  O   UNL     1      -6.615   9.829  71.937  1.00  0.00    -0.241 OA 
HETATM    5  C   UNL     1      -6.472   8.171  68.916  1.00  0.00    -0.048 C  
HETATM    6  O   UNL     1      -8.416   8.942  70.936  1.00  0.00    -0.152 OA 
ENDROOT
BRANCH   2   7
HETATM    7  C   UNL     1      -7.340  10.522  68.546  1.00  0.00    -0.088 A  
HETATM    8  C   UNL     1      -8.330  11.381  69.059  1.00  0.00     0.036 A  
HETATM    9  C   UNL     1      -9.160  12.116  68.214  1.00  0.00    -0.191 A  
HETATM   10  C   UNL     1      -8.999  12.040  66.827  1.00  0.00    -0.198 A  
HETATM   11  C   UNL     1      -7.166  10.484  67.157  1.00  0.00    -0.092 A  
HETATM   12  C   UNL     1      -7.959  11.257  66.315  1.00  0.00    -0.086 A  
BRANCH  10  13
HETATM   13  C   UNL     1      -9.977  12.722  65.899  1.00  0.00    -0.266 C  
HETATM   14  O   UNL     1      -9.455  14.011  65.609  1.00  0.00    -0.518 OA 
HETATM   15  H   UNL     1     -10.070  14.441  65.026  1.00  0.00     0.000 HD 
BRANCH  13  16
HETATM   16  C   UNL     1     -10.213  11.857  64.646  1.00  0.00    -0.316 C  
BRANCH  16  17
HETATM   17  C   UNL     1      -8.987  11.082  64.156  1.00  0.00    -0.045 C  
BRANCH  17  18
HETATM   18  C   UNL     1      -8.511   9.966  65.096  1.00  0.00    -0.150 C  
BRANCH  18  19
HETATM   19  N   UNL     1      -9.435   8.820  65.154  1.00  0.00     0.123 NA 
HETATM   20  C   UNL     1      -8.810   7.546  64.784  1.00  0.00     0.473 C  
HETATM   21  C   UNL     1      -7.869   6.971  65.848  1.00  0.00    -0.106 C  
HETATM   22  C   UNL     1      -8.504   6.829  67.256  1.00  0.00    -0.120 C  
HETATM   23  C   UNL     1      -9.409   5.536  67.428  1.00  0.00    -0.114 C  
HETATM   24  C   UNL     1      -9.184   8.185  67.577  1.00  0.00    -0.154 C  
HETATM   25  C   UNL     1     -10.086   5.521  68.816  1.00  0.00    -0.256 A  
HETATM   26  C   UNL     1      -8.658   4.205  67.138  1.00  0.00    -0.105 A  
HETATM   27  C   UNL     1     -10.096   8.704  66.463  1.00  0.00    -0.269 C  
HETATM   28  O   UNL     1     -10.461   5.629  66.451  1.00  0.00    -0.345 OA 
HETATM   29  C   UNL     1     -11.378   6.062  68.990  1.00  0.00    -0.141 A  
HETATM   30  C   UNL     1      -7.263   4.064  67.266  1.00  0.00    -0.068 A  
HETATM   31  H   UNL     1     -11.003   4.855  66.554  1.00  0.00     0.000 HD 
HETATM   32  C   UNL     1      -6.612   2.880  66.900  1.00  0.00    -0.037 A  
HETATM   33  C   UNL     1     -11.985   6.124  70.245  1.00  0.00     0.227 A  
HETATM   34  C   UNL     1      -7.344   1.796  66.426  1.00  0.00    -0.056 A  
HETATM   35  C   UNL     1     -11.324   5.623  71.361  1.00  0.00    -0.085 A  
HETATM   36  C   UNL     1     -10.055   5.070  71.219  1.00  0.00    -0.276 A  
HETATM   37  C   UNL     1      -8.729   1.885  66.345  1.00  0.00    -0.118 A  
HETATM   38  C   UNL     1      -9.437   5.029  69.961  1.00  0.00    -0.231 A  
HETATM   39  C   UNL     1      -9.380   3.069  66.709  1.00  0.00    -0.120 A  
ENDBRANCH  18  19
ENDBRANCH  17  18
ENDBRANCH  16  17
ENDBRANCH  13  16
ENDBRANCH  10  13
ENDBRANCH   2   7
TORSDOF 6
ENDMDL
MODEL      236
REMARK 921   NORMALIZED FREE ENERGY PREDICTED BY IDOCK:    3.99 KCAL/MOL
REMARK 922        TOTAL FREE ENERGY PREDICTED BY IDOCK:    3.03 KCAL/MOL
REMARK 923 INTER-LIGAND FREE ENERGY PREDICTED BY IDOCK:   -4.54 KCAL/MOL
REMARK 924 INTRA-LIGAND FREE ENERGY PREDICTED BY IDOCK:    7.58 KCAL/MOL
REMARK 927      BINDING AFFINITY PREDICTED BY RF-SCORE:    0.00 PKD
ROOT
HETATM    1  C   UNL     1      -7.412   9.530  71.152  1.00  0.00     0.133 C  
HETATM    2  C   UNL     1      -8.769   8.946  70.695  1.00  0.00    -0.230 C  
HETATM    3  C   UNL     1      -9.626   8.705  71.954  1.00  0.00    -0.307 C  
HETATM    4  O   UNL     1      -9.283   8.979  73.097  1.00  0.00     0.112 OA 
HETATM    5  C   UNL     1      -8.533   7.572  70.038  1.00  0.00    -0.137 C  
HETATM    6  O   UNL     1     -10.840   8.147  71.712  1.00  0.00    -0.232 OA 
ENDROOT
BRANCH   2   7
HETATM    7  C   UNL     1      -9.388   9.932  69.693  1.00  0.00    -0.247 A  
HETATM    8  C   UNL     1     -10.594  10.587  70.004  1.00  0.00    -0.223 A  
HETATM    9  C   UNL     1     -11.261  11.364  69.058  1.00  0.00    -0.319 A  
HETATM   10  C   UNL     1     -10.719  11.538  67.780  1.00  0.00    -0.249 A  
HETATM   11  C   UNL     1      -8.838  10.145  68.422  1.00  0.00    -0.123 A  
HETATM   12  C   UNL     1      -9.476  10.963  67.495  1.00  0.00    -0.168 A  
BRANCH  10  13
HETATM   13  C   UNL     1     -11.496  12.263  66.706  1.00  0.00    -0.361 C  
HETATM   14  O   UNL     1     -11.117  13.631  66.762  1.00  0.00    -0.299 OA 
HETATM   15  H   UNL     1     -11.606  14.088  66.086  1.00  0.00     0.000 HD 
BRANCH  13  16
HETATM   16  C   UNL     1     -11.242  11.610  65.334  1.00  0.00    -0.262 C  
BRANCH  16  17
HETATM   17  C   UNL     1      -9.789  11.205  65.070  1.00  0.00    -0.315 C  
BRANCH  17  18
HETATM   18  C   UNL     1      -9.265  10.065  65.955  1.00  0.00    -0.167 C  
BRANCH  18  19
HETATM   19  N   UNL     1      -9.810   8.747  65.590  1.00  0.00     0.010 NA 
HETATM   20  C   UNL     1      -9.105   8.112  64.472  1.00  0.00     0.805 C  
HETATM   21  C   UNL     1      -7.723   7.554  64.831  1.00  0.00    -0.115 C  
HETATM   22  C   UNL     1      -7.718   6.586  66.043  1.00  0.00    -0.093 C  
HETATM   23  C   UNL     1      -8.169   5.106  65.688  1.00  0.00    -0.119 C  
HETATM   24  C   UNL     1      -8.510   7.288  67.176  1.00  0.00    -0.118 C  
HETATM   25  C   UNL     1      -8.238   4.234  66.961  1.00  0.00    -0.101 A  
HETATM   26  C   UNL     1      -7.307   4.440  64.578  1.00  0.00    -0.071 A  
HETATM   27  C   UNL     1      -9.873   7.832  66.740  1.00  0.00    -0.241 C  
HETATM   28  O   UNL     1      -9.507   5.190  65.167  1.00  0.00    -0.333 OA 
HETATM   29  C   UNL     1      -9.450   4.095  67.671  1.00  0.00    -0.225 A  
HETATM   30  C   UNL     1      -5.977   4.816  64.305  1.00  0.00    -0.018 A  
HETATM   31  H   UNL     1      -9.778   4.305  64.954  1.00  0.00     0.000 HD 
HETATM   32  C   UNL     1      -5.268   4.262  63.233  1.00  0.00    -0.009 A  
HETATM   33  C   UNL     1      -9.524   3.370  68.861  1.00  0.00    -0.201 A  
HETATM   34  C   UNL     1      -5.860   3.297  62.425  1.00  0.00    -0.012 A  
HETATM   35  C   UNL     1      -8.390   2.741  69.363  1.00  0.00    -0.088 A  
HETATM   36  C   UNL     1      -7.184   2.848  68.677  1.00  0.00    -0.049 A  
HETATM   37  C   UNL     1      -7.151   2.864  62.705  1.00  0.00    -0.036 A  
HETATM   38  C   UNL     1      -7.105   3.595  67.493  1.00  0.00    -0.059 A  
HETATM   39  C   UNL     1      -7.861   3.417  63.776  1.00  0.00    -0.080 A  
ENDBRANCH  18  19
ENDBRANCH  17  18
ENDBRANCH  16  17
ENDBRANCH  13  16
ENDBRANCH  10  13
ENDBRANCH   2   7
TORSDOF 6
ENDMDL
MODEL      237
REMARK 921   NORMALIZED FREE ENERGY PREDICTED BY IDOCK:    4.28 KCAL/MOL
REMARK 922        TOTAL FREE ENERGY PREDICTED BY IDOCK:    3.42 KCAL/MOL
REMARK 923 INTER-LIGAND FREE ENERGY PREDICTED BY IDOCK:    0.61 KCAL/MOL
REMARK 924 INTRA-LIGAND FREE ENERGY PREDICTED BY IDOCK:    2.82 KCAL/MOL
REMARK 927      BINDING AFFINITY PREDICTED BY RF-SCORE:    0.00 PKD
ROOT
HETATM    1  C   UNL     1      -7.428   7.201  73.788  1.00  0.00    -0.112 C  
HETATM    2  C   UNL     1      -7.210   8.412  72.853  1.00  0.00    -0.105 C  
HETATM    3  C   UNL     1      -5.897   9.103  73.276  1.00  0.00     0.037 C  
HETATM    4  O   UNL     1      -5.159   8.713  74.171  1.00  0.00    -0.069 OA 
HETATM    5  C   UNL     1      -8.347   9.429  73.068  1.00  0.00     2.263 C  
HETATM    6  O   UNL     1      -5.595  10.221  72.568  1.00  0.00    -0.298 OA 
ENDROOT
BRANCH   2   7
HETATM    7  C   UNL     1      -7.208   7.892  71.408  1.00  0.00    -0.065 A  
HETATM    8  C   UNL     1      -7.730   8.689  70.372  1.00  0.00    -0.081 A  
HETATM    9  C   UNL     1      -7.887   8.189  69.080  1.00  0.00    -0.107 A  
HETATM   10  C   UNL     1      -7.489   6.882  68.779  1.00  0.00    -0.099 A  
HETATM   11  C   UNL     1      -6.780   6.599  71.083  1.00  0.00    -0.058 A  
HETATM   12  C   UNL     1      -6.886   6.116  69.782  1.00  0.00    -0.068 A  
BRANCH  10  13
HETATM   13  C   UNL     1      -7.777   6.282  67.423  1.00  0.00    -0.097 C  
HETATM   14  O   UNL     1      -8.796   7.070  66.820  1.00  0.00    -0.117 OA 
HETATM   15  H   UNL     1      -8.977   6.693  65.967  1.00  0.00     0.000 HD 
BRANCH  13  16
HETATM   16  C   UNL     1      -6.484   6.207  66.588  1.00  0.00    -0.046 C  
BRANCH  16  17
HETATM   17  C   UNL     1      -6.457   7.113  65.355  1.00  0.00    -0.047 C  
BRANCH  17  18
HETATM   18  C   UNL     1      -6.343   8.613  65.658  1.00  0.00    -0.056 C  
BRANCH  18  19
HETATM   19  N   UNL     1      -7.288   9.072  66.691  1.00  0.00    -0.085 NA 
HETATM   20  C   UNL     1      -6.690   9.997  67.659  1.00  0.00    -0.075 C  
HETATM   21  C   UNL     1      -6.442  11.409  67.116  1.00  0.00    -0.109 C  
HETATM   22  C   UNL     1      -7.689  12.080  66.483  1.00  0.00     0.161 C  
HETATM   23  C   UNL     1      -8.686  12.716  67.543  1.00  0.00    -0.184 C  
HETATM   24  C   UNL     1      -8.302  11.046  65.504  1.00  0.00    -0.024 C  
HETATM   25  C   UNL     1      -9.948  13.270  66.845  1.00  0.00    -0.250 A  
HETATM   26  C   UNL     1      -8.023  13.779  68.464  1.00  0.00    -0.131 A  
HETATM   27  C   UNL     1      -8.507   9.656  66.112  1.00  0.00    -0.120 C  
HETATM   28  O   UNL     1      -9.120  11.647  68.403  1.00  0.00    -0.180 OA 
HETATM   29  C   UNL     1     -11.103  12.469  66.709  1.00  0.00    -0.323 A  
HETATM   30  C   UNL     1      -6.885  14.519  68.092  1.00  0.00    -0.129 A  
HETATM   31  H   UNL     1      -9.717  12.027  69.037  1.00  0.00     0.000 HD 
HETATM   32  C   UNL     1      -6.258  15.394  68.986  1.00  0.00    -0.105 A  
HETATM   33  C   UNL     1     -12.232  12.919  66.023  1.00  0.00    -0.431 A  
HETATM   34  C   UNL     1      -6.772  15.574  70.266  1.00  0.00     0.138 A  
HETATM   35  C   UNL     1     -12.245  14.196  65.471  1.00  0.00    -0.443 A  
HETATM   36  C   UNL     1     -11.126  15.013  65.601  1.00  0.00    -0.349 A  
HETATM   37  C   UNL     1      -7.929  14.901  70.643  1.00  0.00     1.496 A  
HETATM   38  C   UNL     1      -9.985  14.552  66.271  1.00  0.00    -0.320 A  
HETATM   39  C   UNL     1      -8.555  14.025  69.750  1.00  0.00     1.199 A  
ENDBRANCH  18  19
ENDBRANCH  17  18
ENDBRANCH  16  17
ENDBRANCH  13  16
ENDBRANCH  10  13
ENDBRANCH   2   7
TORSDOF 6
ENDMDL
MODEL      238
REMARK 921   NORMALIZED FREE ENERGY PREDICTED BY IDOCK:    5.16 KCAL/MOL
REMARK 922        TOTAL FREE ENERGY PREDICTED BY IDOCK:    4.62 KCAL/MOL
REMARK 923 INTER-LIGAND FREE ENERGY PREDICTED BY IDOCK:    4.15 KCAL/MOL
REMARK 924 INTRA-LIGAND FREE ENERGY PREDICTED BY IDOCK:    0.47 KCAL/MOL
REMARK 927      BINDING AFFINITY PREDICTED BY RF-SCORE:    0.00 PKD
ROOT
HETATM    1  C   UNL     1     -11.912  14.585  66.990  1.00  0.00    -0.371 C  
HETATM    2  C   UNL     1     -11.334  14.668  65.558  1.00  0.00    -0.341 C  
HETATM    3  C   UNL     1     -12.520  14.670  64.571  1.00  0.00    -0.292 C  
HETATM    4  O   UNL     1     -13.700  14.652  64.896  1.00  0.00     0.567 OA 
HETATM    5  C   UNL     1     -10.509  13.399  65.272  1.00  0.00    -0.334 C  
HETATM    6  O   UNL     1     -12.163  14.694  63.262  1.00  0.00    -0.192 OA 
ENDROOT
BRANCH   2   7
HETATM    7  C   UNL     1     -10.452  15.923  65.482  1.00  0.00    -0.425 A  
HETATM    8  C   UNL     1      -9.055  15.810  65.616  1.00  0.00    -0.008 A  
HETATM    9  C   UNL     1      -8.243  16.939  65.708  1.00  0.00     0.288 A  
HETATM   10  C   UNL     1      -8.803  18.218  65.634  1.00  0.00     0.711 A  
HETATM   11  C   UNL     1     -10.995  17.209  65.372  1.00  0.00     0.034 A  
HETATM   12  C   UNL     1     -10.179  18.335  65.411  1.00  0.00     0.517 A  
BRANCH  10  13
HETATM   13  C   UNL     1      -7.955  19.446  65.869  1.00  0.00    -0.184 C  
HETATM   14  O   UNL     1      -8.833  20.562  65.928  1.00  0.00    -0.559 OA 
HETATM   15  H   UNL     1      -8.300  21.334  66.075  1.00  0.00     0.000 HD 
BRANCH  13  16
HETATM   16  C   UNL     1      -7.101  19.267  67.139  1.00  0.00    -0.218 C  
BRANCH  16  17
HETATM   17  C   UNL     1      -7.606  20.027  68.369  1.00  0.00    -0.239 C  
BRANCH  17  18
HETATM   18  C   UNL     1      -8.950  19.535  68.925  1.00  0.00    -0.267 C  
BRANCH  18  19
HETATM   19  N   UNL     1      -8.810  18.455  69.916  1.00  0.00     1.227 NA 
HETATM   20  C   UNL     1     -10.050  18.166  70.644  1.00  0.00     2.445 C  
HETATM   21  C   UNL     1     -11.104  17.414  69.824  1.00  0.00     0.897 C  
HETATM   22  C   UNL     1     -10.591  16.106  69.165  1.00  0.00    -0.276 C  
HETATM   23  C   UNL     1     -10.543  14.863  70.152  1.00  0.00    -0.040 C  
HETATM   24  C   UNL     1      -9.262  16.460  68.449  1.00  0.00    -0.217 C  
HETATM   25  C   UNL     1      -9.925  13.632  69.453  1.00  0.00     0.511 A  
HETATM   26  C   UNL     1     -11.915  14.529  70.803  1.00  0.00    -0.388 A  
HETATM   27  C   UNL     1      -8.265  17.223  69.324  1.00  0.00     0.151 C  
HETATM   28  O   UNL     1      -9.658  15.218  71.230  1.00  0.00     0.823 OA 
HETATM   29  C   UNL     1      -8.543  13.366  69.557  1.00  0.00     1.300 A  
HETATM   30  C   UNL     1     -13.149  14.867  70.214  1.00  0.00    -0.112 A  
HETATM   31  H   UNL     1      -9.629  14.475  71.820  1.00  0.00     0.000 HD 
HETATM   32  C   UNL     1     -14.360  14.639  70.878  1.00  0.00     0.177 A  
HETATM   33  C   UNL     1      -7.947  12.300  68.880  1.00  0.00     0.126 A  
HETATM   34  C   UNL     1     -14.370  14.040  72.133  1.00  0.00    -0.577 A  
HETATM   35  C   UNL     1      -8.725  11.455  68.096  1.00  0.00    -0.154 A  
HETATM   36  C   UNL     1     -10.093  11.683  67.987  1.00  0.00    -0.198 A  
HETATM   37  C   UNL     1     -13.170  13.642  72.714  1.00  0.00    -0.431 A  
HETATM   38  C   UNL     1     -10.687  12.767  68.649  1.00  0.00    -0.273 A  
HETATM   39  C   UNL     1     -11.960  13.871  72.052  1.00  0.00     0.472 A  
ENDBRANCH  18  19
ENDBRANCH  17  18
ENDBRANCH  16  17
ENDBRANCH  13  16
ENDBRANCH  10  13
ENDBRANCH   2   7
TORSDOF 6
ENDMDL
MODEL      239
REMARK 921   NORMALIZED FREE ENERGY PREDICTED BY IDOCK:    5.40 KCAL/MOL
REMARK 922        TOTAL FREE ENERGY PREDICTED BY IDOCK:    4.94 KCAL/MOL
REMARK 923 INTER-LIGAND FREE ENERGY PREDICTED BY IDOCK:    0.37 KCAL/MOL
REMARK 924 INTRA-LIGAND FREE ENERGY PREDICTED BY IDOCK:    4.57 KCAL/MOL
REMARK 927      BINDING AFFINITY PREDICTED BY RF-SCORE:    0.00 PKD
ROOT
HETATM    1  C   UNL     1     -11.944  18.229  69.108  1.00  0.00     5.463 C  
HETATM    2  C   UNL     1     -10.901  18.448  67.988  1.00  0.00    -0.170 C  
HETATM    3  C   UNL     1      -9.963  19.588  68.434  1.00  0.00    -0.443 C  
HETATM    4  O   UNL     1     -10.030  20.169  69.510  1.00  0.00    -0.166 OA 
HETATM    5  C   UNL     1     -11.621  18.928  66.713  1.00  0.00     1.307 C  
HETATM    6  O   UNL     1      -9.014  19.927  67.524  1.00  0.00    -0.318 OA 
ENDROOT
BRANCH   2   7
HETATM    7  C   UNL     1     -10.190  17.109  67.743  1.00  0.00    -0.324 A  
HETATM    8  C   UNL     1      -9.660  16.386  68.828  1.00  0.00    -0.249 A  
HETATM    9  C   UNL     1      -8.875  15.251  68.629  1.00  0.00    -0.188 A  
HETATM   10  C   UNL     1      -8.628  14.785  67.333  1.00  0.00    -0.210 A  
HETATM   11  C   UNL     1      -9.965  16.610  66.454  1.00  0.00    -0.316 A  
HETATM   12  C   UNL     1      -9.227  15.447  66.256  1.00  0.00    -0.354 A  
BRANCH  10  13
HETATM   13  C   UNL     1      -7.671  13.640  67.096  1.00  0.00     0.033 C  
HETATM   14  O   UNL     1      -6.354  14.153  67.243  1.00  0.00    -0.372 OA 
HETATM   15  H   UNL     1      -5.752  13.433  67.093  1.00  0.00     0.000 HD 
BRANCH  13  16
HETATM   16  C   UNL     1      -7.988  12.475  68.052  1.00  0.00    -0.153 C  
BRANCH  16  17
HETATM   17  C   UNL     1      -7.190  11.193  67.796  1.00  0.00    -0.091 C  
BRANCH  17  18
HETATM   18  C   UNL     1      -7.915  10.140  66.947  1.00  0.00    -0.114 C  
BRANCH  18  19
HETATM   19  N   UNL     1      -9.382  10.258  67.000  1.00  0.00    -0.153 NA 
HETATM   20  C   UNL     1     -10.025   9.196  67.780  1.00  0.00    -0.189 C  
HETATM   21  C   UNL     1      -9.858   9.336  69.297  1.00  0.00    -0.172 C  
HETATM   22  C   UNL     1     -10.294  10.712  69.866  1.00  0.00    -0.076 C  
HETATM   23  C   UNL     1     -11.862  10.856  70.074  1.00  0.00    -0.347 C  
HETATM   24  C   UNL     1      -9.621  11.793  68.980  1.00  0.00     0.145 C  
HETATM   25  C   UNL     1     -12.224  12.283  70.542  1.00  0.00    -0.387 A  
HETATM   26  C   UNL     1     -12.469   9.771  71.008  1.00  0.00    -0.414 A  
HETATM   27  C   UNL     1      -9.818  11.579  67.477  1.00  0.00    -0.190 C  
HETATM   28  O   UNL     1     -12.474  10.671  68.785  1.00  0.00    -0.795 OA 
HETATM   29  C   UNL     1     -12.576  13.277  69.604  1.00  0.00     0.145 A  
HETATM   30  C   UNL     1     -11.724   9.100  71.997  1.00  0.00    -0.384 A  
HETATM   31  H   UNL     1     -13.412  10.757  68.910  1.00  0.00     0.000 HD 
HETATM   32  C   UNL     1     -12.280   8.060  72.750  1.00  0.00    -0.125 A  
HETATM   33  C   UNL     1     -12.840  14.592  69.992  1.00  0.00    -0.067 A  
HETATM   34  C   UNL     1     -13.606   7.685  72.555  1.00  0.00     0.323 A  
HETATM   35  C   UNL     1     -12.782  14.943  71.336  1.00  0.00    -0.408 A  
HETATM   36  C   UNL     1     -12.452  13.981  72.285  1.00  0.00    -0.183 A  
HETATM   37  C   UNL     1     -14.384   8.369  71.627  1.00  0.00    -0.536 A  
HETATM   38  C   UNL     1     -12.165  12.666  71.892  1.00  0.00     0.754 A  
HETATM   39  C   UNL     1     -13.828   9.408  70.874  1.00  0.00     0.094 A  
ENDBRANCH  18  19
ENDBRANCH  17  18
ENDBRANCH  16  17
ENDBRANCH  13  16
ENDBRANCH  10  13
ENDBRANCH   2   7
TORSDOF 6
ENDMDL
MODEL      240
REMARK 921   NORMALIZED FREE ENERGY PREDICTED BY IDOCK:    5.78 KCAL/MOL
REMARK 922        TOTAL FREE ENERGY PREDICTED BY IDOCK:    5.45 KCAL/MOL
REMARK 923 INTER-LIGAND FREE ENERGY PREDICTED BY IDOCK:    4.05 KCAL/MOL
REMARK 924 INTRA-LIGAND FREE ENERGY PREDICTED BY IDOCK:    1.40 KCAL/MOL
REMARK 927      BINDING AFFINITY PREDICTED BY RF-SCORE:    0.00 PKD
ROOT
HETATM    1  C   UNL     1     -11.845  11.463  70.972  1.00  0.00     0.027 C  
HETATM    2  C   UNL     1     -12.362  11.190  69.541  1.00  0.00    -0.262 C  
HETATM    3  C   UNL     1     -12.517  12.549  68.829  1.00  0.00     0.567 C  
HETATM    4  O   UNL     1     -12.232  13.633  69.321  1.00  0.00    -0.320 OA 
HETATM    5  C   UNL     1     -13.766  10.558  69.622  1.00  0.00     2.418 C  
HETATM    6  O   UNL     1     -13.011  12.471  67.567  1.00  0.00     1.431 OA 
ENDROOT
BRANCH   2   7
HETATM    7  C   UNL     1     -11.371  10.234  68.861  1.00  0.00    -0.230 A  
HETATM    8  C   UNL     1     -11.619   9.776  67.553  1.00  0.00     1.174 A  
HETATM    9  C   UNL     1     -10.826   8.791  66.967  1.00  0.00    -0.031 A  
HETATM   10  C   UNL     1      -9.735   8.259  67.663  1.00  0.00    -0.201 A  
HETATM   11  C   UNL     1     -10.254   9.720  69.531  1.00  0.00    -0.238 A  
HETATM   12  C   UNL     1      -9.430   8.775  68.927  1.00  0.00    -0.145 A  
BRANCH  10  13
HETATM   13  C   UNL     1      -8.952   7.099  67.097  1.00  0.00    -0.125 C  
HETATM   14  O   UNL     1      -9.827   6.374  66.243  1.00  0.00    -0.351 OA 
HETATM   15  H   UNL     1      -9.335   5.643  65.887  1.00  0.00     0.000 HD 
BRANCH  13  16
HETATM   16  C   UNL     1      -7.683   7.609  66.386  1.00  0.00    -0.089 C  
BRANCH  16  17
HETATM   17  C   UNL     1      -7.651   9.117  66.125  1.00  0.00    -0.095 C  
BRANCH  17  18
HETATM   18  C   UNL     1      -6.887   9.937  67.173  1.00  0.00    -0.083 C  
BRANCH  18  19
HETATM   19  N   UNL     1      -7.734  10.914  67.879  1.00  0.00    -0.102 NA 
HETATM   20  C   UNL     1      -6.989  12.063  68.402  1.00  0.00    -0.080 C  
HETATM   21  C   UNL     1      -6.546  13.069  67.334  1.00  0.00    -0.115 C  
HETATM   22  C   UNL     1      -7.692  13.584  66.424  1.00  0.00     1.522 C  
HETATM   23  C   UNL     1      -8.565  14.738  67.078  1.00  0.00    -0.234 C  
HETATM   24  C   UNL     1      -8.469  12.334  65.936  1.00  0.00     0.563 C  
HETATM   25  C   UNL     1      -9.744  15.123  66.157  1.00  0.00    -0.338 A  
HETATM   26  C   UNL     1      -7.735  15.983  67.504  1.00  0.00    -0.176 A  
HETATM   27  C   UNL     1      -8.865  11.369  67.056  1.00  0.00    -0.168 C  
HETATM   28  O   UNL     1      -9.135  14.199  68.283  1.00  0.00    -0.180 OA 
HETATM   29  C   UNL     1     -11.006  14.511  66.315  1.00  0.00    -0.323 A  
HETATM   30  C   UNL     1      -6.507  16.331  66.909  1.00  0.00    -0.075 A  
HETATM   31  H   UNL     1      -9.658  14.889  68.675  1.00  0.00     0.000 HD 
HETATM   32  C   UNL     1      -5.742  17.401  67.386  1.00  0.00    -0.156 A  
HETATM   33  C   UNL     1     -12.069  14.789  65.453  1.00  0.00    -0.168 A  
HETATM   34  C   UNL     1      -6.200  18.169  68.452  1.00  0.00    -0.191 A  
HETATM   35  C   UNL     1     -11.904  15.707  64.422  1.00  0.00    -0.183 A  
HETATM   36  C   UNL     1     -10.675  16.336  64.250  1.00  0.00     0.896 A  
HETATM   37  C   UNL     1      -7.436  17.886  69.022  1.00  0.00    -0.171 A  
HETATM   38  C   UNL     1      -9.602  16.040  65.102  1.00  0.00     0.527 A  
HETATM   39  C   UNL     1      -8.201  16.816  68.545  1.00  0.00    -0.242 A  
ENDBRANCH  18  19
ENDBRANCH  17  18
ENDBRANCH  16  17
ENDBRANCH  13  16
ENDBRANCH  10  13
ENDBRANCH   2   7
TORSDOF 6
ENDMDL
MODEL      241
REMARK 921   NORMALIZED FREE ENERGY PREDICTED BY IDOCK:    5.85 KCAL/MOL
REMARK 922        TOTAL FREE ENERGY PREDICTED BY IDOCK:    5.55 KCAL/MOL
REMARK 923 INTER-LIGAND FREE ENERGY PREDICTED BY IDOCK:    4.08 KCAL/MOL
REMARK 924 INTRA-LIGAND FREE ENERGY PREDICTED BY IDOCK:    1.47 KCAL/MOL
REMARK 927      BINDING AFFINITY PREDICTED BY RF-SCORE:    0.00 PKD
ROOT
HETATM    1  C   UNL     1     -10.065  17.009  65.195  1.00  0.00     0.546 C  
HETATM    2  C   UNL     1      -9.353  17.763  66.342  1.00  0.00    -0.264 C  
HETATM    3  C   UNL     1     -10.440  18.388  67.240  1.00  0.00    -0.405 C  
HETATM    4  O   UNL     1     -11.645  18.257  67.073  1.00  0.00     0.854 OA 
HETATM    5  C   UNL     1      -8.531  18.925  65.749  1.00  0.00     0.305 C  
HETATM    6  O   UNL     1      -9.961  19.127  68.273  1.00  0.00    -0.356 OA 
ENDROOT
BRANCH   2   7
HETATM    7  C   UNL     1      -8.441  16.761  67.065  1.00  0.00    -0.225 A  
HETATM    8  C   UNL     1      -7.230  16.356  66.471  1.00  0.00    -0.127 A  
HETATM    9  C   UNL     1      -6.458  15.335  67.023  1.00  0.00     0.451 A  
HETATM   10  C   UNL     1      -6.859  14.713  68.210  1.00  0.00    -0.116 A  
HETATM   11  C   UNL     1      -8.811  16.155  68.272  1.00  0.00    -0.188 A  
HETATM   12  C   UNL     1      -8.014  15.173  68.852  1.00  0.00    -0.178 A  
BRANCH  10  13
HETATM   13  C   UNL     1      -6.107  13.517  68.745  1.00  0.00    -0.086 C  
HETATM   14  O   UNL     1      -5.165  13.132  67.753  1.00  0.00    -0.105 OA 
HETATM   15  H   UNL     1      -4.692  12.379  68.088  1.00  0.00     0.000 HD 
BRANCH  13  16
HETATM   16  C   UNL     1      -5.464  13.856  70.104  1.00  0.00    -0.111 C  
BRANCH  16  17
HETATM   17  C   UNL     1      -6.400  13.735  71.309  1.00  0.00     0.526 C  
BRANCH  17  18
HETATM   18  C   UNL     1      -5.821  12.957  72.499  1.00  0.00     1.425 C  
BRANCH  18  19
HETATM   19  N   UNL     1      -5.149  11.707  72.107  1.00  0.00    -0.340 NA 
HETATM   20  C   UNL     1      -5.433  10.584  73.007  1.00  0.00     0.655 C  
HETATM   21  C   UNL     1      -6.840   9.993  72.856  1.00  0.00     2.408 C  
HETATM   22  C   UNL     1      -7.211   9.583  71.407  1.00  0.00     0.265 C  
HETATM   23  C   UNL     1      -6.625   8.175  70.965  1.00  0.00    -0.038 C  
HETATM   24  C   UNL     1      -6.852  10.787  70.498  1.00  0.00     0.331 C  
HETATM   25  C   UNL     1      -6.949   7.887  69.483  1.00  0.00    -0.054 A  
HETATM   26  C   UNL     1      -7.059   7.001  71.889  1.00  0.00    -0.069 A  
HETATM   27  C   UNL     1      -5.438  11.333  70.714  1.00  0.00    -0.124 C  
HETATM   28  O   UNL     1      -5.193   8.266  71.069  1.00  0.00    -0.029 OA 
HETATM   29  C   UNL     1      -6.031   8.233  68.468  1.00  0.00    -0.041 A  
HETATM   30  C   UNL     1      -8.238   7.022  72.659  1.00  0.00    -0.117 A  
HETATM   31  H   UNL     1      -4.842   7.423  70.805  1.00  0.00     0.000 HD 
HETATM   32  C   UNL     1      -8.543   5.990  73.553  1.00  0.00    -0.119 A  
HETATM   33  C   UNL     1      -6.326   8.047  67.116  1.00  0.00    -0.056 A  
HETATM   34  C   UNL     1      -7.693   4.896  73.678  1.00  0.00    -0.095 A  
HETATM   35  C   UNL     1      -7.543   7.488  66.742  1.00  0.00    -0.101 A  
HETATM   36  C   UNL     1      -8.463   7.123  67.721  1.00  0.00    -0.120 A  
HETATM   37  C   UNL     1      -6.551   4.820  72.888  1.00  0.00    -0.052 A  
HETATM   38  C   UNL     1      -8.174   7.331  69.077  1.00  0.00    -0.125 A  
HETATM   39  C   UNL     1      -6.245   5.852  71.995  1.00  0.00    -0.044 A  
ENDBRANCH  18  19
ENDBRANCH  17  18
ENDBRANCH  16  17
ENDBRANCH  13  16
ENDBRANCH  10  13
ENDBRANCH   2   7
TORSDOF 6
ENDMDL
MODEL      242
REMARK 921   NORMALIZED FREE ENERGY PREDICTED BY IDOCK:    7.25 KCAL/MOL
REMARK 922        TOTAL FREE ENERGY PREDICTED BY IDOCK:    7.44 KCAL/MOL
REMARK 923 INTER-LIGAND FREE ENERGY PREDICTED BY IDOCK:    6.94 KCAL/MOL
REMARK 924 INTRA-LIGAND FREE ENERGY PREDICTED BY IDOCK:    0.50 KCAL/MOL
REMARK 927      BINDING AFFINITY PREDICTED BY RF-SCORE:    0.00 PKD
ROOT
HETATM    1  C   UNL     1     -10.338   9.897  70.007  1.00  0.00    -0.320 C  
HETATM    2  C   UNL     1      -9.399  10.875  69.264  1.00  0.00    -0.027 C  
HETATM    3  C   UNL     1      -7.981  10.268  69.278  1.00  0.00    -0.149 C  
HETATM    4  O   UNL     1      -7.690   9.181  69.762  1.00  0.00    -0.070 OA 
HETATM    5  C   UNL     1      -9.331  12.202  70.043  1.00  0.00     3.124 C  
HETATM    6  O   UNL     1      -7.030  11.042  68.696  1.00  0.00    -0.065 OA 
ENDROOT
BRANCH   2   7
HETATM    7  C   UNL     1      -9.973  11.096  67.857  1.00  0.00    -0.189 A  
HETATM    8  C   UNL     1     -10.687  10.064  67.218  1.00  0.00    -0.309 A  
HETATM    9  C   UNL     1     -11.085  10.175  65.887  1.00  0.00     0.643 A  
HETATM   10  C   UNL     1     -10.811  11.341  65.164  1.00  0.00    -0.268 A  
HETATM   11  C   UNL     1      -9.738  12.272  67.133  1.00  0.00    -0.203 A  
HETATM   12  C   UNL     1     -10.182  12.405  65.821  1.00  0.00    -0.283 A  
BRANCH  10  13
HETATM   13  C   UNL     1     -11.114  11.421  63.687  1.00  0.00    -0.325 C  
HETATM   14  O   UNL     1     -12.471  11.038  63.512  1.00  0.00     0.119 OA 
HETATM   15  H   UNL     1     -12.662  11.088  62.583  1.00  0.00     0.000 HD 
BRANCH  13  16
HETATM   16  C   UNL     1     -10.801  12.833  63.155  1.00  0.00     0.336 C  
BRANCH  16  17
HETATM   17  C   UNL     1     -12.015  13.756  63.016  1.00  0.00     0.627 C  
BRANCH  17  18
HETATM   18  C   UNL     1     -12.219  14.733  64.182  1.00  0.00    -0.295 C  
BRANCH  18  19
HETATM   19  N   UNL     1     -11.210  15.805  64.227  1.00  0.00    -0.338 NA 
HETATM   20  C   UNL     1     -11.625  16.963  65.025  1.00  0.00     0.834 C  
HETATM   21  C   UNL     1     -11.594  16.732  66.540  1.00  0.00     1.241 C  
HETATM   22  C   UNL     1     -10.237  16.208  67.080  1.00  0.00    -0.281 C  
HETATM   23  C   UNL     1      -9.142  17.341  67.280  1.00  0.00    -0.228 C  
HETATM   24  C   UNL     1      -9.829  15.016  66.178  1.00  0.00    -0.325 C  
HETATM   25  C   UNL     1      -7.794  16.728  67.719  1.00  0.00    -0.187 A  
HETATM   26  C   UNL     1      -9.594  18.485  68.233  1.00  0.00    -0.370 A  
HETATM   27  C   UNL     1      -9.898  15.316  64.678  1.00  0.00     0.877 C  
HETATM   28  O   UNL     1      -8.926  17.946  65.993  1.00  0.00    -0.495 OA 
HETATM   29  C   UNL     1      -6.814  16.391  66.761  1.00  0.00    -0.183 A  
HETATM   30  C   UNL     1     -10.567  18.313  69.236  1.00  0.00     0.470 A  
HETATM   31  H   UNL     1      -8.271  18.624  66.112  1.00  0.00     0.000 HD 
HETATM   32  C   UNL     1     -11.018  19.390  70.007  1.00  0.00     2.449 A  
HETATM   33  C   UNL     1      -5.615  15.773  67.124  1.00  0.00     0.229 A  
HETATM   34  C   UNL     1     -10.486  20.661  69.815  1.00  0.00     0.634 A  
HETATM   35  C   UNL     1      -5.354  15.496  68.461  1.00  0.00    -0.099 A  
HETATM   36  C   UNL     1      -6.295  15.831  69.430  1.00  0.00    -0.154 A  
HETATM   37  C   UNL     1      -9.483  20.850  68.871  1.00  0.00     1.116 A  
HETATM   38  C   UNL     1      -7.508  16.431  69.063  1.00  0.00    -0.227 A  
HETATM   39  C   UNL     1      -9.032  19.774  68.100  1.00  0.00    -0.367 A  
ENDBRANCH  18  19
ENDBRANCH  17  18
ENDBRANCH  16  17
ENDBRANCH  13  16
ENDBRANCH  10  13
ENDBRANCH   2   7
TORSDOF 6
ENDMDL
MODEL      243
REMARK 921   NORMALIZED FREE ENERGY PREDICTED BY IDOCK:    7.40 KCAL/MOL
REMARK 922        TOTAL FREE ENERGY PREDICTED BY IDOCK:    7.64 KCAL/MOL
REMARK 923 INTER-LIGAND FREE ENERGY PREDICTED BY IDOCK:    7.80 KCAL/MOL
REMARK 924 INTRA-LIGAND FREE ENERGY PREDICTED BY IDOCK:   -0.16 KCAL/MOL
REMARK 927      BINDING AFFINITY PREDICTED BY RF-SCORE:    0.00 PKD
ROOT
HETATM    1  C   UNL     1     -10.341  19.109  65.418  1.00  0.00     0.291 C  
HETATM    2  C   UNL     1     -10.110  19.266  66.938  1.00  0.00    -0.467 C  
HETATM    3  C   UNL     1     -11.492  19.336  67.620  1.00  0.00     0.763 C  
HETATM    4  O   UNL     1     -12.565  19.237  67.037  1.00  0.00     3.484 OA 
HETATM    5  C   UNL     1      -9.405  20.610  67.207  1.00  0.00    -0.480 C  
HETATM    6  O   UNL     1     -11.450  19.521  68.964  1.00  0.00     2.176 OA 
ENDROOT
BRANCH   2   7
HETATM    7  C   UNL     1      -9.240  18.089  67.403  1.00  0.00    -0.253 A  
HETATM    8  C   UNL     1      -8.473  18.202  68.578  1.00  0.00    -0.312 A  
HETATM    9  C   UNL     1      -7.556  17.217  68.942  1.00  0.00    -0.234 A  
HETATM   10  C   UNL     1      -7.406  16.069  68.156  1.00  0.00    -0.133 A  
HETATM   11  C   UNL     1      -9.106  16.919  66.646  1.00  0.00    -0.280 A  
HETATM   12  C   UNL     1      -8.230  15.910  67.037  1.00  0.00    -0.255 A  
BRANCH  10  13
HETATM   13  C   UNL     1      -6.324  15.061  68.463  1.00  0.00    -0.092 C  
HETATM   14  O   UNL     1      -5.224  15.776  69.010  1.00  0.00    -0.099 OA 
HETATM   15  H   UNL     1      -4.543  15.142  69.203  1.00  0.00     0.000 HD 
BRANCH  13  16
HETATM   16  C   UNL     1      -6.869  13.962  69.396  1.00  0.00    -0.065 C  
BRANCH  16  17
HETATM   17  C   UNL     1      -8.329  13.573  69.151  1.00  0.00     0.459 C  
BRANCH  17  18
HETATM   18  C   UNL     1      -8.817  12.360  69.954  1.00  0.00     2.973 C  
BRANCH  18  19
HETATM   19  N   UNL     1      -9.586  11.397  69.148  1.00  0.00     0.026 NA 
HETATM   20  C   UNL     1     -10.672  12.016  68.380  1.00  0.00    -0.229 C  
HETATM   21  C   UNL     1     -10.207  12.819  67.161  1.00  0.00    -0.235 C  
HETATM   22  C   UNL     1      -9.287  12.035  66.189  1.00  0.00    -0.217 C  
HETATM   23  C   UNL     1     -10.069  11.074  65.195  1.00  0.00    -0.289 C  
HETATM   24  C   UNL     1      -8.186  11.370  67.056  1.00  0.00    -0.160 C  
HETATM   25  C   UNL     1      -9.082  10.254  64.335  1.00  0.00    -0.275 A  
HETATM   26  C   UNL     1     -11.125  11.807  64.320  1.00  0.00    -0.420 A  
HETATM   27  C   UNL     1      -8.725  10.598  68.263  1.00  0.00    -0.135 C  
HETATM   28  O   UNL     1     -10.795  10.134  66.007  1.00  0.00     0.020 OA 
HETATM   29  C   UNL     1      -8.667   8.969  64.748  1.00  0.00    -0.187 A  
HETATM   30  C   UNL     1     -11.044  13.176  63.999  1.00  0.00    -0.395 A  
HETATM   31  H   UNL     1     -11.263   9.559  65.413  1.00  0.00     0.000 HD 
HETATM   32  C   UNL     1     -12.065  13.821  63.293  1.00  0.00     0.046 A  
HETATM   33  C   UNL     1      -7.724   8.235  64.026  1.00  0.00    -0.140 A  
HETATM   34  C   UNL     1     -13.180  13.108  62.864  1.00  0.00     1.916 A  
HETATM   35  C   UNL     1      -7.186   8.758  62.855  1.00  0.00    -0.093 A  
HETATM   36  C   UNL     1      -7.587  10.016  62.416  1.00  0.00    -0.134 A  
HETATM   37  C   UNL     1     -13.260  11.743  63.116  1.00  0.00     0.457 A  
HETATM   38  C   UNL     1      -8.517  10.762  63.153  1.00  0.00    -0.090 A  
HETATM   39  C   UNL     1     -12.240  11.097  63.822  1.00  0.00     0.856 A  
ENDBRANCH  18  19
ENDBRANCH  17  18
ENDBRANCH  16  17
ENDBRANCH  13  16
ENDBRANCH  10  13
ENDBRANCH   2   7
TORSDOF 6
ENDMDL
MODEL      244
REMARK 921   NORMALIZED FREE ENERGY PREDICTED BY IDOCK:    7.40 KCAL/MOL
REMARK 922        TOTAL FREE ENERGY PREDICTED BY IDOCK:    7.64 KCAL/MOL
REMARK 923 INTER-LIGAND FREE ENERGY PREDICTED BY IDOCK:    6.47 KCAL/MOL
REMARK 924 INTRA-LIGAND FREE ENERGY PREDICTED BY IDOCK:    1.17 KCAL/MOL
REMARK 927      BINDING AFFINITY PREDICTED BY RF-SCORE:    0.00 PKD
ROOT
HETATM    1  C   UNL     1      -7.141  16.705  69.006  1.00  0.00    -0.216 C  
HETATM    2  C   UNL     1      -6.661  15.451  69.773  1.00  0.00    -0.170 C  
HETATM    3  C   UNL     1      -7.744  15.092  70.812  1.00  0.00     1.572 C  
HETATM    4  O   UNL     1      -8.805  15.687  70.950  1.00  0.00     1.788 OA 
HETATM    5  C   UNL     1      -5.380  15.798  70.556  1.00  0.00    -0.159 C  
HETATM    6  O   UNL     1      -7.439  14.030  71.599  1.00  0.00     2.621 OA 
ENDROOT
BRANCH   2   7
HETATM    7  C   UNL     1      -6.390  14.347  68.741  1.00  0.00    -0.086 A  
HETATM    8  C   UNL     1      -6.971  14.422  67.461  1.00  0.00    -0.182 A  
HETATM    9  C   UNL     1      -6.873  13.365  66.558  1.00  0.00     2.237 A  
HETATM   10  C   UNL     1      -6.158  12.212  66.898  1.00  0.00    -0.014 A  
HETATM   11  C   UNL     1      -5.646  13.202  69.054  1.00  0.00    -0.071 A  
HETATM   12  C   UNL     1      -5.503  12.169  68.134  1.00  0.00    -0.054 A  
BRANCH  10  13
HETATM   13  C   UNL     1      -6.159  11.008  65.986  1.00  0.00    -0.094 C  
HETATM   14  O   UNL     1      -5.137  10.131  66.442  1.00  0.00    -0.037 OA 
HETATM   15  H   UNL     1      -5.137   9.374  65.868  1.00  0.00     0.000 HD 
BRANCH  13  16
HETATM   16  C   UNL     1      -7.557  10.361  65.959  1.00  0.00    -0.137 C  
BRANCH  16  17
HETATM   17  C   UNL     1      -8.688  11.288  65.506  1.00  0.00    -0.038 C  
BRANCH  17  18
HETATM   18  C   UNL     1      -9.817  11.478  66.529  1.00  0.00    -0.202 C  
BRANCH  18  19
HETATM   19  N   UNL     1     -10.819  10.399  66.498  1.00  0.00    -0.094 NA 
HETATM   20  C   UNL     1     -10.464   9.298  65.597  1.00  0.00     0.818 C  
HETATM   21  C   UNL     1      -9.350   8.385  66.122  1.00  0.00    -0.267 C  
HETATM   22  C   UNL     1      -9.606   7.812  67.541  1.00  0.00    -0.184 C  
HETATM   23  C   UNL     1     -10.578   6.556  67.563  1.00  0.00    -0.280 C  
HETATM   24  C   UNL     1     -10.017   9.009  68.437  1.00  0.00    -0.200 C  
HETATM   25  C   UNL     1     -10.865   6.111  69.014  1.00  0.00    -0.416 A  
HETATM   26  C   UNL     1     -10.088   5.372  66.682  1.00  0.00    -0.250 A  
HETATM   27  C   UNL     1     -11.123   9.883  67.842  1.00  0.00    -0.152 C  
HETATM   28  O   UNL     1     -11.831   6.988  67.003  1.00  0.00    -0.017 OA 
HETATM   29  C   UNL     1     -11.995   6.600  69.704  1.00  0.00     0.114 A  
HETATM   30  C   UNL     1      -8.734   5.162  66.358  1.00  0.00    -0.113 A  
HETATM   31  H   UNL     1     -12.413   6.237  67.016  1.00  0.00     0.000 HD 
HETATM   32  C   UNL     1      -8.343   4.143  65.481  1.00  0.00    -0.109 A  
HETATM   33  C   UNL     1     -12.241   6.269  71.038  1.00  0.00     0.063 A  
HETATM   34  C   UNL     1      -9.294   3.290  64.931  1.00  0.00    -0.149 A  
HETATM   35  C   UNL     1     -11.373   5.417  71.712  1.00  0.00    -0.014 A  
HETATM   36  C   UNL     1     -10.259   4.907  71.054  1.00  0.00    -0.262 A  
HETATM   37  C   UNL     1     -10.632   3.436  65.278  1.00  0.00     0.718 A  
HETATM   38  C   UNL     1     -10.001   5.259  69.721  1.00  0.00    -0.306 A  
HETATM   39  C   UNL     1     -11.023   4.455  66.153  1.00  0.00     0.809 A  
ENDBRANCH  18  19
ENDBRANCH  17  18
ENDBRANCH  16  17
ENDBRANCH  13  16
ENDBRANCH  10  13
ENDBRANCH   2   7
TORSDOF 6
ENDMDL
MODEL      245
REMARK 921   NORMALIZED FREE ENERGY PREDICTED BY IDOCK:    7.77 KCAL/MOL
REMARK 922        TOTAL FREE ENERGY PREDICTED BY IDOCK:    8.15 KCAL/MOL
REMARK 923 INTER-LIGAND FREE ENERGY PREDICTED BY IDOCK:    5.58 KCAL/MOL
REMARK 924 INTRA-LIGAND FREE ENERGY PREDICTED BY IDOCK:    2.57 KCAL/MOL
REMARK 927      BINDING AFFINITY PREDICTED BY RF-SCORE:    0.00 PKD
ROOT
HETATM    1  C   UNL     1      -9.782   6.715  64.790  1.00  0.00     2.213 C  
HETATM    2  C   UNL     1     -10.150   7.315  66.167  1.00  0.00     0.272 C  
HETATM    3  C   UNL     1     -11.207   6.396  66.814  1.00  0.00    -0.028 C  
HETATM    4  O   UNL     1     -11.628   5.358  66.319  1.00  0.00     0.581 OA 
HETATM    5  C   UNL     1     -10.813   8.690  65.959  1.00  0.00     1.751 C  
HETATM    6  O   UNL     1     -11.664   6.823  68.018  1.00  0.00     0.337 OA 
ENDROOT
BRANCH   2   7
HETATM    7  C   UNL     1      -8.854   7.450  66.980  1.00  0.00    -0.132 A  
HETATM    8  C   UNL     1      -8.670   6.681  68.144  1.00  0.00    -0.117 A  
HETATM    9  C   UNL     1      -7.580   6.891  68.987  1.00  0.00    -0.104 A  
HETATM   10  C   UNL     1      -6.619   7.857  68.668  1.00  0.00    -0.057 A  
HETATM   11  C   UNL     1      -7.866   8.388  66.654  1.00  0.00    -0.093 A  
HETATM   12  C   UNL     1      -6.750   8.562  67.466  1.00  0.00    -0.063 A  
BRANCH  10  13
HETATM   13  C   UNL     1      -5.510   8.189  69.638  1.00  0.00    -0.026 C  
HETATM   14  O   UNL     1      -5.167   9.554  69.437  1.00  0.00    -0.035 OA 
HETATM   15  H   UNL     1      -4.468   9.763  70.046  1.00  0.00     0.000 HD 
BRANCH  13  16
HETATM   16  C   UNL     1      -5.950   7.872  71.080  1.00  0.00    -0.034 C  
BRANCH  16  17
HETATM   17  C   UNL     1      -7.256   8.541  71.518  1.00  0.00    -0.104 C  
BRANCH  17  18
HETATM   18  C   UNL     1      -8.346   8.596  70.439  1.00  0.00    -0.130 C  
BRANCH  18  19
HETATM   19  N   UNL     1      -9.233   9.766  70.567  1.00  0.00    -0.141 NA 
HETATM   20  C   UNL     1      -8.511  11.025  70.774  1.00  0.00     4.106 C  
HETATM   21  C   UNL     1      -7.810  11.567  69.523  1.00  0.00     0.430 C  
HETATM   22  C   UNL     1      -8.732  11.713  68.285  1.00  0.00    -0.163 C  
HETATM   23  C   UNL     1      -9.622  13.029  68.295  1.00  0.00    -0.213 C  
HETATM   24  C   UNL     1      -9.498  10.373  68.138  1.00  0.00    -0.152 C  
HETATM   25  C   UNL     1     -10.584  13.050  67.087  1.00  0.00    -0.251 A  
HETATM   26  C   UNL     1      -8.794  14.341  68.397  1.00  0.00    -0.187 A  
HETATM   27  C   UNL     1     -10.160   9.888  69.431  1.00  0.00    -0.212 C  
HETATM   28  O   UNL     1     -10.439  12.972  69.478  1.00  0.00    -0.336 OA 
HETATM   29  C   UNL     1     -11.895  12.542  67.205  1.00  0.00    -0.381 A  
HETATM   30  C   UNL     1      -7.456  14.444  67.968  1.00  0.00    -0.144 A  
HETATM   31  H   UNL     1     -10.971  13.759  69.485  1.00  0.00     0.000 HD 
HETATM   32  C   UNL     1      -6.713  15.613  68.167  1.00  0.00    -0.133 A  
HETATM   33  C   UNL     1     -12.762  12.486  66.112  1.00  0.00     0.898 A  
HETATM   34  C   UNL     1      -7.298  16.720  68.773  1.00  0.00    -0.227 A  
HETATM   35  C   UNL     1     -12.347  12.959  64.873  1.00  0.00    -0.532 A  
HETATM   36  C   UNL     1     -11.064  13.479  64.729  1.00  0.00    -0.368 A  
HETATM   37  C   UNL     1      -8.635  16.669  69.154  1.00  0.00    -0.110 A  
HETATM   38  C   UNL     1     -10.187  13.515  65.822  1.00  0.00    -0.305 A  
HETATM   39  C   UNL     1      -9.377  15.500  68.956  1.00  0.00    -0.235 A  
ENDBRANCH  18  19
ENDBRANCH  17  18
ENDBRANCH  16  17
ENDBRANCH  13  16
ENDBRANCH  10  13
ENDBRANCH   2   7
TORSDOF 6
ENDMDL
MODEL      246
REMARK 921   NORMALIZED FREE ENERGY PREDICTED BY IDOCK:    8.76 KCAL/MOL
REMARK 922        TOTAL FREE ENERGY PREDICTED BY IDOCK:    9.48 KCAL/MOL
REMARK 923 INTER-LIGAND FREE ENERGY PREDICTED BY IDOCK:    9.72 KCAL/MOL
REMARK 924 INTRA-LIGAND FREE ENERGY PREDICTED BY IDOCK:   -0.24 KCAL/MOL
REMARK 927      BINDING AFFINITY PREDICTED BY RF-SCORE:    0.00 PKD
ROOT
HETATM    1  C   UNL     1     -11.641   5.491  66.901  1.00  0.00     1.616 C  
HETATM    2  C   UNL     1     -11.061   5.312  68.323  1.00  0.00     0.733 C  
HETATM    3  C   UNL     1     -10.120   4.090  68.298  1.00  0.00     0.290 C  
HETATM    4  O   UNL     1      -9.864   3.425  67.302  1.00  0.00    -0.069 OA 
HETATM    5  C   UNL     1     -12.208   4.981  69.298  1.00  0.00     8.438 C  
HETATM    6  O   UNL     1      -9.568   3.779  69.498  1.00  0.00    -0.184 OA 
ENDROOT
BRANCH   2   7
HETATM    7  C   UNL     1     -10.372   6.627  68.716  1.00  0.00    -0.214 A  
HETATM    8  C   UNL     1      -9.631   6.704  69.910  1.00  0.00    -0.161 A  
HETATM    9  C   UNL     1      -9.126   7.918  70.372  1.00  0.00    -0.154 A  
HETATM   10  C   UNL     1      -9.318   9.089  69.631  1.00  0.00    -0.169 A  
HETATM   11  C   UNL     1     -10.525   7.800  67.966  1.00  0.00    -0.244 A  
HETATM   12  C   UNL     1      -9.976   9.003  68.399  1.00  0.00    -0.200 A  
BRANCH  10  13
HETATM   13  C   UNL     1      -8.897  10.430  70.185  1.00  0.00     0.489 C  
HETATM   14  O   UNL     1      -9.584  10.614  71.415  1.00  0.00     2.179 OA 
HETATM   15  H   UNL     1      -9.320  11.457  71.764  1.00  0.00     0.000 HD 
BRANCH  13  16
HETATM   16  C   UNL     1      -7.363  10.490  70.323  1.00  0.00     0.190 C  
BRANCH  16  17
HETATM   17  C   UNL     1      -6.611  10.832  69.034  1.00  0.00    -0.058 C  
BRANCH  17  18
HETATM   18  C   UNL     1      -5.965  12.224  69.013  1.00  0.00    -0.070 C  
BRANCH  18  19
HETATM   19  N   UNL     1      -6.887  13.300  69.413  1.00  0.00    -0.034 NA 
HETATM   20  C   UNL     1      -6.331  14.644  69.226  1.00  0.00    -0.116 C  
HETATM   21  C   UNL     1      -6.266  15.105  67.766  1.00  0.00    -0.172 C  
HETATM   22  C   UNL     1      -7.613  15.007  67.002  1.00  0.00    -0.077 C  
HETATM   23  C   UNL     1      -8.605  16.214  67.287  1.00  0.00    -0.178 C  
HETATM   24  C   UNL     1      -8.174  13.586  67.268  1.00  0.00    -0.164 C  
HETATM   25  C   UNL     1      -9.958  15.992  66.576  1.00  0.00    -0.293 A  
HETATM   26  C   UNL     1      -8.002  17.609  66.957  1.00  0.00    -0.242 A  
HETATM   27  C   UNL     1      -8.194  13.190  68.747  1.00  0.00     0.098 C  
HETATM   28  O   UNL     1      -8.872  16.211  68.701  1.00  0.00    -0.196 OA 
HETATM   29  C   UNL     1     -11.029  15.366  67.251  1.00  0.00    -0.317 A  
HETATM   30  C   UNL     1      -6.972  17.800  66.016  1.00  0.00    -0.335 A  
HETATM   31  H   UNL     1      -9.465  16.933  68.872  1.00  0.00     0.000 HD 
HETATM   32  C   UNL     1      -6.387  19.056  65.818  1.00  0.00    -0.270 A  
HETATM   33  C   UNL     1     -12.239  15.091  66.611  1.00  0.00     0.271 A  
HETATM   34  C   UNL     1      -6.838  20.159  66.536  1.00  0.00    -0.258 A  
HETATM   35  C   UNL     1     -12.419  15.456  65.281  1.00  0.00     0.641 A  
HETATM   36  C   UNL     1     -11.387  16.087  64.595  1.00  0.00    -0.312 A  
HETATM   37  C   UNL     1      -7.893  20.013  67.430  1.00  0.00    -0.330 A  
HETATM   38  C   UNL     1     -10.164  16.343  65.231  1.00  0.00    -0.114 A  
HETATM   39  C   UNL     1      -8.477  18.758  67.628  1.00  0.00    -0.292 A  
ENDBRANCH  18  19
ENDBRANCH  17  18
ENDBRANCH  16  17
ENDBRANCH  13  16
ENDBRANCH  10  13
ENDBRANCH   2   7
TORSDOF 6
ENDMDL
MODEL      247
REMARK 921   NORMALIZED FREE ENERGY PREDICTED BY IDOCK:    9.48 KCAL/MOL
REMARK 922        TOTAL FREE ENERGY PREDICTED BY IDOCK:   10.45 KCAL/MOL
REMARK 923 INTER-LIGAND FREE ENERGY PREDICTED BY IDOCK:   10.78 KCAL/MOL
REMARK 924 INTRA-LIGAND FREE ENERGY PREDICTED BY IDOCK:   -0.33 KCAL/MOL
REMARK 927      BINDING AFFINITY PREDICTED BY RF-SCORE:    0.00 PKD
ROOT
HETATM    1  C   UNL     1     -12.593  10.404  68.085  1.00  0.00     3.167 C  
HETATM    2  C   UNL     1     -11.461  10.594  69.122  1.00  0.00    -0.349 C  
HETATM    3  C   UNL     1     -10.125  10.649  68.354  1.00  0.00    -0.166 C  
HETATM    4  O   UNL     1     -10.015  10.593  67.136  1.00  0.00    -0.184 OA 
HETATM    5  C   UNL     1     -11.406   9.358  70.041  1.00  0.00    -0.172 C  
HETATM    6  O   UNL     1      -9.027  10.768  69.143  1.00  0.00    -0.159 OA 
ENDROOT
BRANCH   2   7
HETATM    7  C   UNL     1     -11.775  11.862  69.928  1.00  0.00    -0.383 A  
HETATM    8  C   UNL     1     -11.249  13.103  69.521  1.00  0.00    -0.151 A  
HETATM    9  C   UNL     1     -11.383  14.242  70.313  1.00  0.00    -0.143 A  
HETATM   10  C   UNL     1     -12.082  14.180  71.523  1.00  0.00    -0.252 A  
HETATM   11  C   UNL     1     -12.503  11.823  71.124  1.00  0.00    -0.390 A  
HETATM   12  C   UNL     1     -12.684  12.971  71.889  1.00  0.00    -0.212 A  
BRANCH  10  13
HETATM   13  C   UNL     1     -12.119  15.369  72.454  1.00  0.00    -0.419 C  
HETATM   14  O   UNL     1     -10.922  15.344  73.220  1.00  0.00     0.627 OA 
HETATM   15  H   UNL     1     -10.945  16.092  73.805  1.00  0.00     0.000 HD 
BRANCH  13  16
HETATM   16  C   UNL     1     -12.306  16.670  71.649  1.00  0.00     0.864 C  
BRANCH  16  17
HETATM   17  C   UNL     1     -11.059  17.553  71.549  1.00  0.00     1.933 C  
BRANCH  17  18
HETATM   18  C   UNL     1     -11.224  18.806  70.677  1.00  0.00     4.431 C  
BRANCH  18  19
HETATM   19  N   UNL     1     -10.379  18.791  69.471  1.00  0.00     0.280 NA 
HETATM   20  C   UNL     1      -9.102  18.096  69.661  1.00  0.00     0.872 C  
HETATM   21  C   UNL     1      -9.217  16.569  69.721  1.00  0.00     0.551 C  
HETATM   22  C   UNL     1      -9.962  15.934  68.517  1.00  0.00    -0.216 C  
HETATM   23  C   UNL     1      -9.063  15.766  67.219  1.00  0.00    -0.207 C  
HETATM   24  C   UNL     1     -11.279  16.732  68.338  1.00  0.00    -0.176 C  
HETATM   25  C   UNL     1      -9.901  15.226  66.039  1.00  0.00    -0.357 A  
HETATM   26  C   UNL     1      -7.781  14.917  67.452  1.00  0.00    -0.231 A  
HETATM   27  C   UNL     1     -11.088  18.250  68.301  1.00  0.00     0.447 C  
HETATM   28  O   UNL     1      -8.617  17.082  66.846  1.00  0.00    -0.203 OA 
HETATM   29  C   UNL     1     -10.504  16.114  65.122  1.00  0.00    -0.295 A  
HETATM   30  C   UNL     1      -7.673  13.947  68.468  1.00  0.00    -0.139 A  
HETATM   31  H   UNL     1      -8.079  16.982  66.069  1.00  0.00     0.000 HD 
HETATM   32  C   UNL     1      -6.470  13.275  68.710  1.00  0.00    -0.099 A  
HETATM   33  C   UNL     1     -11.323  15.657  64.088  1.00  0.00    -0.033 A  
HETATM   34  C   UNL     1      -5.353  13.532  67.922  1.00  0.00    -0.095 A  
HETATM   35  C   UNL     1     -11.542  14.294  63.927  1.00  0.00     0.053 A  
HETATM   36  C   UNL     1     -10.948  13.393  64.806  1.00  0.00    -0.371 A  
HETATM   37  C   UNL     1      -5.446  14.442  66.874  1.00  0.00     1.691 A  
HETATM   38  C   UNL     1     -10.145  13.854  65.859  1.00  0.00    -0.331 A  
HETATM   39  C   UNL     1      -6.647  15.115  66.633  1.00  0.00     1.597 A  
ENDBRANCH  18  19
ENDBRANCH  17  18
ENDBRANCH  16  17
ENDBRANCH  13  16
ENDBRANCH  10  13
ENDBRANCH   2   7
TORSDOF 6
ENDMDL
MODEL      248
REMARK 921   NORMALIZED FREE ENERGY PREDICTED BY IDOCK:    9.63 KCAL/MOL
REMARK 922        TOTAL FREE ENERGY PREDICTED BY IDOCK:   10.65 KCAL/MOL
REMARK 923 INTER-LIGAND FREE ENERGY PREDICTED BY IDOCK:    9.31 KCAL/MOL
REMARK 924 INTRA-LIGAND FREE ENERGY PREDICTED BY IDOCK:    1.34 KCAL/MOL
REMARK 927      BINDING AFFINITY PREDICTED BY RF-SCORE:    0.00 PKD
ROOT
HETATM    1  C   UNL     1      -6.657  16.681  69.930  1.00  0.00     0.053 C  
HETATM    2  C   UNL     1      -6.499  15.300  70.608  1.00  0.00     0.235 C  
HETATM    3  C   UNL     1      -7.768  15.038  71.444  1.00  0.00     3.098 C  
HETATM    4  O   UNL     1      -8.732  15.789  71.506  1.00  0.00     4.063 OA 
HETATM    5  C   UNL     1      -5.312  15.352  71.590  1.00  0.00     0.078 C  
HETATM    6  O   UNL     1      -7.754  13.872  72.140  1.00  0.00     4.716 OA 
ENDROOT
BRANCH   2   7
HETATM    7  C   UNL     1      -6.249  14.263  69.503  1.00  0.00    -0.122 A  
HETATM    8  C   UNL     1      -6.841  14.428  68.237  1.00  0.00    -0.111 A  
HETATM    9  C   UNL     1      -6.764  13.431  67.265  1.00  0.00     0.099 A  
HETATM   10  C   UNL     1      -6.058  12.251  67.521  1.00  0.00    -0.140 A  
HETATM   11  C   UNL     1      -5.515  13.093  69.733  1.00  0.00    -0.100 A  
HETATM   12  C   UNL     1      -5.392  12.120  68.745  1.00  0.00    -0.050 A  
BRANCH  10  13
HETATM   13  C   UNL     1      -6.081  11.110  66.532  1.00  0.00    -0.144 C  
HETATM   14  O   UNL     1      -5.152  10.135  66.990  1.00  0.00    -0.040 OA 
HETATM   15  H   UNL     1      -5.166   9.417  66.367  1.00  0.00     0.000 HD 
BRANCH  13  16
HETATM   16  C   UNL     1      -7.515  10.568  66.378  1.00  0.00    -0.133 C  
BRANCH  16  17
HETATM   17  C   UNL     1      -8.513  11.550  65.759  1.00  0.00     0.130 C  
BRANCH  17  18
HETATM   18  C   UNL     1      -9.807  11.746  66.561  1.00  0.00    -0.206 C  
BRANCH  18  19
HETATM   19  N   UNL     1     -10.603  10.514  66.692  1.00  0.00    -0.226 NA 
HETATM   20  C   UNL     1      -9.797   9.290  66.646  1.00  0.00    -0.245 C  
HETATM   21  C   UNL     1      -8.984   9.019  67.916  1.00  0.00    -0.135 C  
HETATM   22  C   UNL     1      -9.818   9.023  69.224  1.00  0.00    -0.179 C  
HETATM   23  C   UNL     1     -10.599   7.667  69.494  1.00  0.00    -0.227 C  
HETATM   24  C   UNL     1     -10.679  10.313  69.200  1.00  0.00    -0.259 C  
HETATM   25  C   UNL     1     -11.485   7.786  70.754  1.00  0.00    -0.285 A  
HETATM   26  C   UNL     1      -9.676   6.417  69.554  1.00  0.00    -0.167 A  
HETATM   27  C   UNL     1     -11.450  10.524  67.894  1.00  0.00    -0.109 C  
HETATM   28  O   UNL     1     -11.485   7.465  68.379  1.00  0.00    -0.178 OA 
HETATM   29  C   UNL     1     -12.838   8.175  70.646  1.00  0.00     0.450 A  
HETATM   30  C   UNL     1      -8.313   6.481  69.899  1.00  0.00    -0.131 A  
HETATM   31  H   UNL     1     -11.953   6.654  68.540  1.00  0.00     0.000 HD 
HETATM   32  C   UNL     1      -7.492   5.349  69.844  1.00  0.00    -0.069 A  
HETATM   33  C   UNL     1     -13.641   8.357  71.773  1.00  0.00    -0.405 A  
HETATM   34  C   UNL     1      -8.021   4.117  69.473  1.00  0.00    -0.056 A  
HETATM   35  C   UNL     1     -13.119   8.132  73.041  1.00  0.00     0.630 A  
HETATM   36  C   UNL     1     -11.793   7.733  73.179  1.00  0.00     0.267 A  
HETATM   37  C   UNL     1      -9.377   4.011  69.183  1.00  0.00    -0.236 A  
HETATM   38  C   UNL     1     -10.980   7.573  72.048  1.00  0.00    -0.282 A  
HETATM   39  C   UNL     1     -10.197   5.142  69.237  1.00  0.00    -0.276 A  
ENDBRANCH  18  19
ENDBRANCH  17  18
ENDBRANCH  16  17
ENDBRANCH  13  16
ENDBRANCH  10  13
ENDBRANCH   2   7
TORSDOF 6
ENDMDL
MODEL      249
REMARK 921   NORMALIZED FREE ENERGY PREDICTED BY IDOCK:    9.97 KCAL/MOL
REMARK 922        TOTAL FREE ENERGY PREDICTED BY IDOCK:   11.11 KCAL/MOL
REMARK 923 INTER-LIGAND FREE ENERGY PREDICTED BY IDOCK:   10.04 KCAL/MOL
REMARK 924 INTRA-LIGAND FREE ENERGY PREDICTED BY IDOCK:    1.07 KCAL/MOL
REMARK 927      BINDING AFFINITY PREDICTED BY RF-SCORE:    0.00 PKD
ROOT
HETATM    1  C   UNL     1      -9.440   4.786  67.329  1.00  0.00    -0.163 C  
HETATM    2  C   UNL     1      -9.090   6.084  68.094  1.00  0.00    -0.118 C  
HETATM    3  C   UNL     1      -7.558   6.259  68.047  1.00  0.00    -0.102 C  
HETATM    4  O   UNL     1      -6.786   5.509  67.464  1.00  0.00    -0.057 OA 
HETATM    5  C   UNL     1      -9.483   5.919  69.575  1.00  0.00    -0.166 C  
HETATM    6  O   UNL     1      -7.094   7.341  68.723  1.00  0.00    -0.078 OA 
ENDROOT
BRANCH   2   7
HETATM    7  C   UNL     1      -9.873   7.234  67.445  1.00  0.00    -0.206 A  
HETATM    8  C   UNL     1      -9.267   8.025  66.451  1.00  0.00    -0.245 A  
HETATM    9  C   UNL     1      -9.891   9.169  65.955  1.00  0.00    -0.305 A  
HETATM   10  C   UNL     1     -11.160   9.536  66.416  1.00  0.00     0.721 A  
HETATM   11  C   UNL     1     -11.159   7.592  67.870  1.00  0.00     0.169 A  
HETATM   12  C   UNL     1     -11.805   8.703  67.337  1.00  0.00     3.658 A  
BRANCH  10  13
HETATM   13  C   UNL     1     -11.787  10.842  65.989  1.00  0.00     1.581 C  
HETATM   14  O   UNL     1     -11.665  11.745  67.080  1.00  0.00    -0.547 OA 
HETATM   15  H   UNL     1     -12.060  12.567  66.812  1.00  0.00     0.000 HD 
BRANCH  13  16
HETATM   16  C   UNL     1     -11.127  11.351  64.694  1.00  0.00    -0.277 C  
BRANCH  16  17
HETATM   17  C   UNL     1      -9.624  11.081  64.585  1.00  0.00    -0.297 C  
BRANCH  17  18
HETATM   18  C   UNL     1      -8.726  12.181  65.167  1.00  0.00     0.941 C  
BRANCH  18  19
HETATM   19  N   UNL     1      -9.373  12.954  66.241  1.00  0.00    -0.192 NA 
HETATM   20  C   UNL     1      -8.493  13.216  67.384  1.00  0.00    -0.201 C  
HETATM   21  C   UNL     1      -7.421  14.281  67.126  1.00  0.00     0.062 C  
HETATM   22  C   UNL     1      -7.973  15.630  66.596  1.00  0.00    -0.185 C  
HETATM   23  C   UNL     1      -8.567  16.572  67.728  1.00  0.00    -0.177 C  
HETATM   24  C   UNL     1      -8.926  15.291  65.421  1.00  0.00     0.992 C  
HETATM   25  C   UNL     1      -9.188  17.845  67.112  1.00  0.00    -0.258 A  
HETATM   26  C   UNL     1      -7.550  16.914  68.854  1.00  0.00    -0.234 A  
HETATM   27  C   UNL     1      -9.959  14.210  65.747  1.00  0.00    -0.309 C  
HETATM   28  O   UNL     1      -9.639  15.847  68.356  1.00  0.00    -0.202 OA 
HETATM   29  C   UNL     1     -10.563  17.891  66.794  1.00  0.00    -0.253 A  
HETATM   30  C   UNL     1      -6.155  16.900  68.661  1.00  0.00    -0.148 A  
HETATM   31  H   UNL     1      -9.995  16.410  69.034  1.00  0.00     0.000 HD 
HETATM   32  C   UNL     1      -5.269  17.116  69.724  1.00  0.00    -0.176 A  
HETATM   33  C   UNL     1     -11.136  19.002  66.173  1.00  0.00     0.159 A  
HETATM   34  C   UNL     1      -5.757  17.381  70.999  1.00  0.00     0.392 A  
HETATM   35  C   UNL     1     -10.352  20.111  65.874  1.00  0.00    -0.448 A  
HETATM   36  C   UNL     1      -8.997  20.101  66.189  1.00  0.00    -0.273 A  
HETATM   37  C   UNL     1      -7.130  17.459  71.208  1.00  0.00     5.008 A  
HETATM   38  C   UNL     1      -8.418  18.976  66.792  1.00  0.00    -0.307 A  
HETATM   39  C   UNL     1      -8.015  17.243  70.147  1.00  0.00     2.287 A  
ENDBRANCH  18  19
ENDBRANCH  17  18
ENDBRANCH  16  17
ENDBRANCH  13  16
ENDBRANCH  10  13
ENDBRANCH   2   7
TORSDOF 6
ENDMDL
MODEL      250
REMARK 921   NORMALIZED FREE ENERGY PREDICTED BY IDOCK:   10.00 KCAL/MOL
REMARK 922        TOTAL FREE ENERGY PREDICTED BY IDOCK:   11.16 KCAL/MOL
REMARK 923 INTER-LIGAND FREE ENERGY PREDICTED BY IDOCK:   11.37 KCAL/MOL
REMARK 924 INTRA-LIGAND FREE ENERGY PREDICTED BY IDOCK:   -0.21 KCAL/MOL
REMARK 927      BINDING AFFINITY PREDICTED BY RF-SCORE:    0.00 PKD
ROOT
HETATM    1  C   UNL     1     -11.790   3.371  72.316  1.00  0.00     2.239 C  
HETATM    2  C   UNL     1     -10.475   4.120  72.635  1.00  0.00    -0.228 C  
HETATM    3  C   UNL     1      -9.319   3.346  71.969  1.00  0.00    -0.123 C  
HETATM    4  O   UNL     1      -9.454   2.344  71.279  1.00  0.00    -0.126 OA 
HETATM    5  C   UNL     1     -10.228   4.083  74.156  1.00  0.00    -0.233 C  
HETATM    6  O   UNL     1      -8.086   3.864  72.202  1.00  0.00    -0.080 OA 
ENDROOT
BRANCH   2   7
HETATM    7  C   UNL     1     -10.630   5.566  72.141  1.00  0.00    -0.280 A  
HETATM    8  C   UNL     1      -9.931   6.607  72.782  1.00  0.00    -0.187 A  
HETATM    9  C   UNL     1     -10.168   7.943  72.462  1.00  0.00    -0.342 A  
HETATM   10  C   UNL     1     -11.088   8.275  71.461  1.00  0.00    -0.315 A  
HETATM   11  C   UNL     1     -11.520   5.911  71.117  1.00  0.00    -0.152 A  
HETATM   12  C   UNL     1     -11.718   7.241  70.760  1.00  0.00    -0.333 A  
BRANCH  10  13
HETATM   13  C   UNL     1     -11.454   9.717  71.200  1.00  0.00    -0.384 C  
HETATM   14  O   UNL     1     -10.633  10.520  72.038  1.00  0.00     2.151 OA 
HETATM   15  H   UNL     1     -10.864  11.427  71.873  1.00  0.00     0.000 HD 
BRANCH  13  16
HETATM   16  C   UNL     1     -11.304  10.040  69.701  1.00  0.00    -0.253 C  
BRANCH  16  17
HETATM   17  C   UNL     1     -12.539  10.668  69.049  1.00  0.00     0.695 C  
BRANCH  17  18
HETATM   18  C   UNL     1     -12.738  12.161  69.348  1.00  0.00     0.752 C  
BRANCH  18  19
HETATM   19  N   UNL     1     -11.641  12.748  70.136  1.00  0.00    -0.137 NA 
HETATM   20  C   UNL     1     -10.337  12.675  69.468  1.00  0.00     0.689 C  
HETATM   21  C   UNL     1     -10.165  13.661  68.307  1.00  0.00    -0.243 C  
HETATM   22  C   UNL     1     -10.462  15.139  68.672  1.00  0.00    -0.234 C  
HETATM   23  C   UNL     1      -9.262  15.874  69.408  1.00  0.00    -0.235 C  
HETATM   24  C   UNL     1     -11.825  15.151  69.410  1.00  0.00    -0.357 C  
HETATM   25  C   UNL     1      -9.670  17.302  69.830  1.00  0.00     0.584 A  
HETATM   26  C   UNL     1      -7.935  15.868  68.598  1.00  0.00    -0.156 A  
HETATM   27  C   UNL     1     -11.928  14.131  70.547  1.00  0.00    -0.323 C  
HETATM   28  O   UNL     1      -9.001  15.140  70.618  1.00  0.00     0.309 OA 
HETATM   29  C   UNL     1     -10.194  17.548  71.117  1.00  0.00     3.261 A  
HETATM   30  C   UNL     1      -7.889  15.759  67.194  1.00  0.00    -0.247 A  
HETATM   31  H   UNL     1      -8.284  15.579  71.059  1.00  0.00     0.000 HD 
HETATM   32  C   UNL     1      -6.673  15.658  66.509  1.00  0.00     1.176 A  
HETATM   33  C   UNL     1     -10.635  18.816  71.500  1.00  0.00     3.205 A  
HETATM   34  C   UNL     1      -5.471  15.693  67.207  1.00  0.00     0.160 A  
HETATM   35  C   UNL     1     -10.542  19.881  70.612  1.00  0.00     1.924 A  
HETATM   36  C   UNL     1     -10.015  19.673  69.341  1.00  0.00    -0.246 A  
HETATM   37  C   UNL     1      -5.482  15.859  68.588  1.00  0.00    -0.102 A  
HETATM   38  C   UNL     1      -9.593  18.394  68.949  1.00  0.00    -0.284 A  
HETATM   39  C   UNL     1      -6.697  15.960  69.273  1.00  0.00    -0.176 A  
ENDBRANCH  18  19
ENDBRANCH  17  18
ENDBRANCH  16  17
ENDBRANCH  13  16
ENDBRANCH  10  13
ENDBRANCH   2   7
TORSDOF 6
ENDMDL
MODEL      251
REMARK 921   NORMALIZED FREE ENERGY PREDICTED BY IDOCK:   10.60 KCAL/MOL
REMARK 922        TOTAL FREE ENERGY PREDICTED BY IDOCK:   11.97 KCAL/MOL
REMARK 923 INTER-LIGAND FREE ENERGY PREDICTED BY IDOCK:    8.08 KCAL/MOL
REMARK 924 INTRA-LIGAND FREE ENERGY PREDICTED BY IDOCK:    3.89 KCAL/MOL
REMARK 927      BINDING AFFINITY PREDICTED BY RF-SCORE:    0.00 PKD
ROOT
HETATM    1  C   UNL     1     -14.193  10.756  70.706  1.00  0.00     2.513 C  
HETATM    2  C   UNL     1     -13.048  10.512  71.715  1.00  0.00    -0.570 C  
HETATM    3  C   UNL     1     -13.265   9.122  72.348  1.00  0.00    -0.444 C  
HETATM    4  O   UNL     1     -14.170   8.353  72.052  1.00  0.00    -0.414 OA 
HETATM    5  C   UNL     1     -13.146  11.548  72.852  1.00  0.00     2.554 C  
HETATM    6  O   UNL     1     -12.354   8.786  73.296  1.00  0.00     0.199 OA 
ENDROOT
BRANCH   2   7
HETATM    7  C   UNL     1     -11.719  10.656  70.958  1.00  0.00    -0.329 A  
HETATM    8  C   UNL     1     -11.151  11.930  70.769  1.00  0.00     1.794 A  
HETATM    9  C   UNL     1     -10.034  12.112  69.955  1.00  0.00     2.317 A  
HETATM   10  C   UNL     1      -9.429  11.014  69.334  1.00  0.00     0.123 A  
HETATM   11  C   UNL     1     -11.082   9.562  70.359  1.00  0.00    -0.330 A  
HETATM   12  C   UNL     1      -9.935   9.735  69.591  1.00  0.00    -0.244 A  
BRANCH  10  13
HETATM   13  C   UNL     1      -8.305  11.212  68.344  1.00  0.00    -0.149 C  
HETATM   14  O   UNL     1      -7.356  12.080  68.950  1.00  0.00    -0.147 OA 
HETATM   15  H   UNL     1      -6.649  12.205  68.328  1.00  0.00     0.000 HD 
BRANCH  13  16
HETATM   16  C   UNL     1      -7.716   9.850  67.929  1.00  0.00    -0.090 C  
BRANCH  16  17
HETATM   17  C   UNL     1      -8.633   8.988  67.057  1.00  0.00    -0.120 C  
BRANCH  17  18
HETATM   18  C   UNL     1      -9.979   8.625  67.699  1.00  0.00    -0.194 C  
BRANCH  18  19
HETATM   19  N   UNL     1     -10.137   7.182  67.944  1.00  0.00    -0.164 NA 
HETATM   20  C   UNL     1     -11.027   6.521  66.984  1.00  0.00    -0.396 C  
HETATM   21  C   UNL     1     -10.419   6.320  65.592  1.00  0.00     1.299 C  
HETATM   22  C   UNL     1      -9.048   5.593  65.589  1.00  0.00    -0.110 C  
HETATM   23  C   UNL     1      -9.156   4.014  65.716  1.00  0.00    -0.142 C  
HETATM   24  C   UNL     1      -8.166   6.304  66.647  1.00  0.00    -0.111 C  
HETATM   25  C   UNL     1      -7.753   3.375  65.812  1.00  0.00    -0.081 A  
HETATM   26  C   UNL     1     -10.015   3.355  64.600  1.00  0.00    -0.117 A  
HETATM   27  C   UNL     1      -8.844   6.483  68.008  1.00  0.00    -0.114 C  
HETATM   28  O   UNL     1      -9.825   3.739  66.960  1.00  0.00    -0.316 OA 
HETATM   29  C   UNL     1      -7.165   3.120  67.069  1.00  0.00    -0.058 A  
HETATM   30  C   UNL     1     -10.210   3.937  63.333  1.00  0.00    -0.182 A  
HETATM   31  H   UNL     1      -9.889   2.794  67.036  1.00  0.00     0.000 HD 
HETATM   32  C   UNL     1     -11.070   3.363  62.390  1.00  0.00    -0.005 A  
HETATM   33  C   UNL     1      -5.871   2.608  67.185  1.00  0.00    -0.023 A  
HETATM   34  C   UNL     1     -11.734   2.175  62.680  1.00  0.00     0.245 A  
HETATM   35  C   UNL     1      -5.137   2.314  66.041  1.00  0.00    -0.005 A  
HETATM   36  C   UNL     1      -5.696   2.541  64.787  1.00  0.00    -0.013 A  
HETATM   37  C   UNL     1     -11.517   1.546  63.901  1.00  0.00     0.677 A  
HETATM   38  C   UNL     1      -6.986   3.076  64.673  1.00  0.00    -0.049 A  
HETATM   39  C   UNL     1     -10.658   2.120  64.843  1.00  0.00     1.277 A  
ENDBRANCH  18  19
ENDBRANCH  17  18
ENDBRANCH  16  17
ENDBRANCH  13  16
ENDBRANCH  10  13
ENDBRANCH   2   7
TORSDOF 6
ENDMDL
MODEL      252
REMARK 921   NORMALIZED FREE ENERGY PREDICTED BY IDOCK:   13.84 KCAL/MOL
REMARK 922        TOTAL FREE ENERGY PREDICTED BY IDOCK:   16.34 KCAL/MOL
REMARK 923 INTER-LIGAND FREE ENERGY PREDICTED BY IDOCK:   17.48 KCAL/MOL
REMARK 924 INTRA-LIGAND FREE ENERGY PREDICTED BY IDOCK:   -1.14 KCAL/MOL
REMARK 927      BINDING AFFINITY PREDICTED BY RF-SCORE:    0.00 PKD
ROOT
HETATM    1  C   UNL     1      -8.487   8.604  62.635  1.00  0.00    -0.163 C  
HETATM    2  C   UNL     1      -8.020   9.898  63.341  1.00  0.00    -0.153 C  
HETATM    3  C   UNL     1      -9.074  10.990  63.067  1.00  0.00    -0.291 C  
HETATM    4  O   UNL     1     -10.108  10.820  62.434  1.00  0.00     0.030 OA 
HETATM    5  C   UNL     1      -6.699  10.373  62.705  1.00  0.00    -0.123 C  
HETATM    6  O   UNL     1      -8.775  12.206  63.591  1.00  0.00     0.711 OA 
ENDROOT
BRANCH   2   7
HETATM    7  C   UNL     1      -7.825   9.573  64.829  1.00  0.00    -0.120 A  
HETATM    8  C   UNL     1      -8.727  10.079  65.784  1.00  0.00    -0.160 A  
HETATM    9  C   UNL     1      -8.493   9.934  67.151  1.00  0.00    -0.121 A  
HETATM   10  C   UNL     1      -7.362   9.245  67.602  1.00  0.00    -0.084 A  
HETATM   11  C   UNL     1      -6.717   8.854  65.295  1.00  0.00    -0.068 A  
HETATM   12  C   UNL     1      -6.510   8.663  66.658  1.00  0.00    -0.060 A  
BRANCH  10  13
HETATM   13  C   UNL     1      -7.025   9.199  69.074  1.00  0.00    -0.063 C  
HETATM   14  O   UNL     1      -5.707   8.680  69.190  1.00  0.00    -0.037 OA 
HETATM   15  H   UNL     1      -5.495   8.651  70.116  1.00  0.00     0.000 HD 
BRANCH  13  16
HETATM   16  C   UNL     1      -7.193  10.596  69.702  1.00  0.00    -0.139 C  
BRANCH  16  17
HETATM   17  C   UNL     1      -6.085  11.596  69.360  1.00  0.00    -0.088 C  
BRANCH  17  18
HETATM   18  C   UNL     1      -6.485  12.683  68.353  1.00  0.00    -0.078 C  
BRANCH  18  19
HETATM   19  N   UNL     1      -7.839  13.217  68.579  1.00  0.00    -0.129 NA 
HETATM   20  C   UNL     1      -7.944  14.056  69.777  1.00  0.00     0.819 C  
HETATM   21  C   UNL     1      -7.312  15.445  69.634  1.00  0.00    -0.177 C  
HETATM   22  C   UNL     1      -7.812  16.253  68.408  1.00  0.00    -0.168 C  
HETATM   23  C   UNL     1      -9.212  16.968  68.635  1.00  0.00    -0.266 C  
HETATM   24  C   UNL     1      -7.719  15.308  67.183  1.00  0.00    -0.238 C  
HETATM   25  C   UNL     1      -9.689  17.662  67.340  1.00  0.00    -0.283 A  
HETATM   26  C   UNL     1      -9.228  17.938  69.850  1.00  0.00     1.449 A  
HETATM   27  C   UNL     1      -8.358  13.934  67.405  1.00  0.00    -0.198 C  
HETATM   28  O   UNL     1     -10.167  15.933  68.929  1.00  0.00    -0.207 OA 
HETATM   29  C   UNL     1     -10.536  16.988  66.435  1.00  0.00    -0.252 A  
HETATM   30  C   UNL     1      -8.071  18.564  70.351  1.00  0.00     2.857 A  
HETATM   31  H   UNL     1     -11.005  16.360  69.065  1.00  0.00     0.000 HD 
HETATM   32  C   UNL     1      -8.110  19.352  71.507  1.00  0.00     4.111 A  
HETATM   33  C   UNL     1     -10.926  17.566  65.225  1.00  0.00     0.232 A  
HETATM   34  C   UNL     1      -9.313  19.559  72.174  1.00  0.00     4.238 A  
HETATM   35  C   UNL     1     -10.497  18.848  64.898  1.00  0.00     1.985 A  
HETATM   36  C   UNL     1      -9.673  19.543  65.778  1.00  0.00    -0.099 A  
HETATM   37  C   UNL     1     -10.483  19.001  71.670  1.00  0.00     3.274 A  
HETATM   38  C   UNL     1      -9.263  18.953  66.982  1.00  0.00    -0.325 A  
HETATM   39  C   UNL     1     -10.444  18.213  70.515  1.00  0.00     1.863 A  
ENDBRANCH  18  19
ENDBRANCH  17  18
ENDBRANCH  16  17
ENDBRANCH  13  16
ENDBRANCH  10  13
ENDBRANCH   2   7
TORSDOF 6
ENDMDL
MODEL      253
REMARK 921   NORMALIZED FREE ENERGY PREDICTED BY IDOCK:   15.41 KCAL/MOL
REMARK 922        TOTAL FREE ENERGY PREDICTED BY IDOCK:   18.46 KCAL/MOL
REMARK 923 INTER-LIGAND FREE ENERGY PREDICTED BY IDOCK:    9.90 KCAL/MOL
REMARK 924 INTRA-LIGAND FREE ENERGY PREDICTED BY IDOCK:    8.56 KCAL/MOL
REMARK 927      BINDING AFFINITY PREDICTED BY RF-SCORE:    0.00 PKD
ROOT
HETATM    1  C   UNL     1      -6.506  14.844  69.902  1.00  0.00    -0.171 C  
HETATM    2  C   UNL     1      -6.862  13.516  69.195  1.00  0.00    -0.084 C  
HETATM    3  C   UNL     1      -6.128  12.378  69.932  1.00  0.00    -0.135 C  
HETATM    4  O   UNL     1      -5.427  12.525  70.925  1.00  0.00    -0.161 OA 
HETATM    5  C   UNL     1      -6.318  13.548  67.754  1.00  0.00    -0.166 C  
HETATM    6  O   UNL     1      -6.310  11.146  69.391  1.00  0.00    -0.066 OA 
ENDROOT
BRANCH   2   7
HETATM    7  C   UNL     1      -8.392  13.381  69.198  1.00  0.00     0.501 A  
HETATM    8  C   UNL     1      -9.157  14.073  70.157  1.00  0.00     2.207 A  
HETATM    9  C   UNL     1     -10.528  13.852  70.287  1.00  0.00     1.218 A  
HETATM   10  C   UNL     1     -11.181  12.956  69.434  1.00  0.00    -0.197 A  
HETATM   11  C   UNL     1      -9.065  12.516  68.327  1.00  0.00    -0.183 A  
HETATM   12  C   UNL     1     -10.442  12.334  68.421  1.00  0.00    -0.244 A  
BRANCH  10  13
HETATM   13  C   UNL     1     -12.634  12.605  69.651  1.00  0.00     0.382 C  
HETATM   14  O   UNL     1     -12.934  12.875  71.014  1.00  0.00    -0.223 OA 
HETATM   15  H   UNL     1     -13.848  12.654  71.151  1.00  0.00     0.000 HD 
BRANCH  13  16
HETATM   16  C   UNL     1     -13.522  13.381  68.660  1.00  0.00     4.755 C  
BRANCH  16  17
HETATM   17  C   UNL     1     -13.281  13.055  67.184  1.00  0.00     3.726 C  
BRANCH  17  18
HETATM   18  C   UNL     1     -11.880  12.517  66.862  1.00  0.00    -0.334 C  
BRANCH  18  19
HETATM   19  N   UNL     1     -11.884  11.119  66.401  1.00  0.00     0.114 NA 
HETATM   20  C   UNL     1     -10.892  10.846  65.356  1.00  0.00    -0.042 C  
HETATM   21  C   UNL     1      -9.445  10.781  65.858  1.00  0.00    -0.236 C  
HETATM   22  C   UNL     1      -9.219   9.797  67.037  1.00  0.00    -0.166 C  
HETATM   23  C   UNL     1      -9.080   8.280  66.591  1.00  0.00    -0.166 C  
HETATM   24  C   UNL     1     -10.317  10.102  68.088  1.00  0.00    -0.217 C  
HETATM   25  C   UNL     1      -8.962   7.355  67.823  1.00  0.00    -0.127 A  
HETATM   26  C   UNL     1      -7.932   8.031  65.572  1.00  0.00    -0.117 A  
HETATM   27  C   UNL     1     -11.733  10.166  67.511  1.00  0.00     1.200 C  
HETATM   28  O   UNL     1     -10.303   7.927  65.920  1.00  0.00    -0.026 OA 
HETATM   29  C   UNL     1     -10.112   6.757  68.383  1.00  0.00    -0.168 A  
HETATM   30  C   UNL     1      -6.801   8.863  65.466  1.00  0.00    -0.076 A  
HETATM   31  H   UNL     1     -10.220   7.019  65.653  1.00  0.00     0.000 HD 
HETATM   32  C   UNL     1      -5.839   8.664  64.470  1.00  0.00    -0.064 A  
HETATM   33  C   UNL     1     -10.043   5.973  69.537  1.00  0.00    -0.246 A  
HETATM   34  C   UNL     1      -5.967   7.609  63.573  1.00  0.00    -0.054 A  
HETATM   35  C   UNL     1      -8.816   5.748  70.150  1.00  0.00    -0.144 A  
HETATM   36  C   UNL     1      -7.664   6.312  69.612  1.00  0.00    -0.099 A  
HETATM   37  C   UNL     1      -7.043   6.735  63.688  1.00  0.00    -0.060 A  
HETATM   38  C   UNL     1      -7.736   7.117  68.467  1.00  0.00    -0.120 A  
HETATM   39  C   UNL     1      -8.006   6.935  64.683  1.00  0.00    -0.112 A  
ENDBRANCH  18  19
ENDBRANCH  17  18
ENDBRANCH  16  17
ENDBRANCH  13  16
ENDBRANCH  10  13
ENDBRANCH   2   7
TORSDOF 6
ENDMDL
MODEL      254
REMARK 921   NORMALIZED FREE ENERGY PREDICTED BY IDOCK:   16.10 KCAL/MOL
REMARK 922        TOTAL FREE ENERGY PREDICTED BY IDOCK:   19.39 KCAL/MOL
REMARK 923 INTER-LIGAND FREE ENERGY PREDICTED BY IDOCK:   14.92 KCAL/MOL
REMARK 924 INTRA-LIGAND FREE ENERGY PREDICTED BY IDOCK:    4.47 KCAL/MOL
REMARK 927      BINDING AFFINITY PREDICTED BY RF-SCORE:    0.00 PKD
ROOT
HETATM    1  C   UNL     1     -13.894  14.121  70.479  1.00  0.00     0.743 C  
HETATM    2  C   UNL     1     -12.617  14.039  69.610  1.00  0.00    -0.066 C  
HETATM    3  C   UNL     1     -11.862  15.375  69.756  1.00  0.00    -0.347 C  
HETATM    4  O   UNL     1     -12.214  16.303  70.474  1.00  0.00    -0.091 OA 
HETATM    5  C   UNL     1     -13.021  13.905  68.129  1.00  0.00     1.961 C  
HETATM    6  O   UNL     1     -10.734  15.470  69.008  1.00  0.00    -0.223 OA 
ENDROOT
BRANCH   2   7
HETATM    7  C   UNL     1     -11.817  12.812  70.071  1.00  0.00    -0.352 A  
HETATM    8  C   UNL     1     -10.981  12.135  69.163  1.00  0.00    -0.215 A  
HETATM    9  C   UNL     1     -10.364  10.932  69.504  1.00  0.00    -0.136 A  
HETATM   10  C   UNL     1     -10.539  10.388  70.781  1.00  0.00     0.301 A  
HETATM   11  C   UNL     1     -11.953  12.275  71.358  1.00  0.00     0.756 A  
HETATM   12  C   UNL     1     -11.295  11.102  71.716  1.00  0.00     2.826 A  
BRANCH  10  13
HETATM   13  C   UNL     1      -9.990   9.021  71.117  1.00  0.00    -0.295 C  
HETATM   14  O   UNL     1     -10.004   8.897  72.533  1.00  0.00    -0.184 OA 
HETATM   15  H   UNL     1      -9.658   8.038  72.745  1.00  0.00     0.000 HD 
BRANCH  13  16
HETATM   16  C   UNL     1     -10.803   7.929  70.396  1.00  0.00    -0.244 C  
BRANCH  16  17
HETATM   17  C   UNL     1     -12.100   8.414  69.743  1.00  0.00     1.114 C  
BRANCH  17  18
HETATM   18  C   UNL     1     -13.023   7.299  69.234  1.00  0.00     4.731 C  
BRANCH  18  19
HETATM   19  N   UNL     1     -12.371   6.399  68.267  1.00  0.00     3.258 NA 
HETATM   20  C   UNL     1     -11.991   7.063  67.016  1.00  0.00     2.850 C  
HETATM   21  C   UNL     1     -10.773   7.985  67.133  1.00  0.00    -0.285 C  
HETATM   22  C   UNL     1      -9.517   7.312  67.746  1.00  0.00    -0.143 C  
HETATM   23  C   UNL     1      -8.689   6.431  66.716  1.00  0.00    -0.119 C  
HETATM   24  C   UNL     1      -9.983   6.594  69.038  1.00  0.00    -0.162 C  
HETATM   25  C   UNL     1      -7.519   5.714  67.424  1.00  0.00    -0.084 A  
HETATM   26  C   UNL     1      -8.210   7.219  65.464  1.00  0.00    -0.139 A  
HETATM   27  C   UNL     1     -11.213   5.702  68.848  1.00  0.00     0.318 C  
HETATM   28  O   UNL     1      -9.577   5.406  66.236  1.00  0.00    -0.151 OA 
HETATM   29  C   UNL     1      -7.679   4.406  67.930  1.00  0.00    -0.080 A  
HETATM   30  C   UNL     1      -8.010   8.613  65.461  1.00  0.00    -0.108 A  
HETATM   31  H   UNL     1      -9.082   4.878  65.619  1.00  0.00     0.000 HD 
HETATM   32  C   UNL     1      -7.674   9.300  64.289  1.00  0.00    -0.119 A  
HETATM   33  C   UNL     1      -6.661   3.762  68.635  1.00  0.00    -0.041 A  
HETATM   34  C   UNL     1      -7.502   8.606  63.096  1.00  0.00    -0.106 A  
HETATM   35  C   UNL     1      -5.442   4.401  68.833  1.00  0.00    -0.012 A  
HETATM   36  C   UNL     1      -5.249   5.685  68.333  1.00  0.00    -0.003 A  
HETATM   37  C   UNL     1      -7.636   7.222  63.080  1.00  0.00    -0.112 A  
HETATM   38  C   UNL     1      -6.280   6.341  67.645  1.00  0.00    -0.025 A  
HETATM   39  C   UNL     1      -7.972   6.536  64.251  1.00  0.00    -0.095 A  
ENDBRANCH  18  19
ENDBRANCH  17  18
ENDBRANCH  16  17
ENDBRANCH  13  16
ENDBRANCH  10  13
ENDBRANCH   2   7
TORSDOF 6
ENDMDL
MODEL      255
REMARK 921   NORMALIZED FREE ENERGY PREDICTED BY IDOCK:   16.26 KCAL/MOL
REMARK 922        TOTAL FREE ENERGY PREDICTED BY IDOCK:   19.61 KCAL/MOL
REMARK 923 INTER-LIGAND FREE ENERGY PREDICTED BY IDOCK:   19.80 KCAL/MOL
REMARK 924 INTRA-LIGAND FREE ENERGY PREDICTED BY IDOCK:   -0.19 KCAL/MOL
REMARK 927      BINDING AFFINITY PREDICTED BY RF-SCORE:    0.00 PKD
ROOT
HETATM    1  C   UNL     1     -11.790   3.371  72.318  1.00  0.00     2.239 C  
HETATM    2  C   UNL     1     -10.472   4.100  72.670  1.00  0.00    -0.228 C  
HETATM    3  C   UNL     1      -9.318   3.345  71.981  1.00  0.00    -0.123 C  
HETATM    4  O   UNL     1      -9.455   2.369  71.255  1.00  0.00    -0.126 OA 
HETATM    5  C   UNL     1     -10.233   4.006  74.190  1.00  0.00    -0.233 C  
HETATM    6  O   UNL     1      -8.083   3.846  72.239  1.00  0.00    -0.081 OA 
ENDROOT
BRANCH   2   7
HETATM    7  C   UNL     1     -10.616   5.564  72.229  1.00  0.00    -0.276 A  
HETATM    8  C   UNL     1      -9.917   6.577  72.913  1.00  0.00    -0.188 A  
HETATM    9  C   UNL     1     -10.145   7.925  72.641  1.00  0.00    -0.343 A  
HETATM   10  C   UNL     1     -11.057   8.299  71.647  1.00  0.00    -0.326 A  
HETATM   11  C   UNL     1     -11.498   5.952  71.213  1.00  0.00    -0.167 A  
HETATM   12  C   UNL     1     -11.687   7.295  70.904  1.00  0.00    -0.348 A  
BRANCH  10  13
HETATM   13  C   UNL     1     -11.414   9.751  71.437  1.00  0.00    -0.365 C  
HETATM   14  O   UNL     1     -10.198  10.487  71.420  1.00  0.00     0.940 OA 
HETATM   15  H   UNL     1     -10.422  11.401  71.288  1.00  0.00     0.000 HD 
BRANCH  13  16
HETATM   16  C   UNL     1     -12.248   9.913  70.152  1.00  0.00    -0.040 C  
BRANCH  16  17
HETATM   17  C   UNL     1     -13.566  10.672  70.329  1.00  0.00     0.830 C  
BRANCH  17  18
HETATM   18  C   UNL     1     -13.424  12.195  70.445  1.00  0.00     1.642 C  
BRANCH  18  19
HETATM   19  N   UNL     1     -12.038  12.666  70.276  1.00  0.00    -0.341 NA 
HETATM   20  C   UNL     1     -11.469  12.344  68.963  1.00  0.00    -0.300 C  
HETATM   21  C   UNL     1     -12.007  13.203  67.813  1.00  0.00    -0.352 C  
HETATM   22  C   UNL     1     -11.897  14.732  68.049  1.00  0.00    -0.324 C  
HETATM   23  C   UNL     1     -10.455  15.328  67.754  1.00  0.00    -0.253 C  
HETATM   24  C   UNL     1     -12.472  15.007  69.462  1.00  0.00    -0.122 C  
HETATM   25  C   UNL     1     -10.398  16.830  68.110  1.00  0.00    -0.318 A  
HETATM   26  C   UNL     1      -9.953  15.059  66.306  1.00  0.00    -0.300 A  
HETATM   27  C   UNL     1     -11.900  14.103  70.556  1.00  0.00    -0.282 C  
HETATM   28  O   UNL     1      -9.536  14.655  68.633  1.00  0.00    -0.204 OA 
HETATM   29  C   UNL     1      -9.963  17.248  69.386  1.00  0.00    -0.036 A  
HETATM   30  C   UNL     1     -10.820  14.840  65.218  1.00  0.00    -0.395 A  
HETATM   31  H   UNL     1      -8.673  15.011  68.457  1.00  0.00     0.000 HD 
HETATM   32  C   UNL     1     -10.330  14.503  63.951  1.00  0.00     2.119 A  
HETATM   33  C   UNL     1      -9.968  18.593  69.759  1.00  0.00     0.556 A  
HETATM   34  C   UNL     1      -8.959  14.407  63.733  1.00  0.00     9.104 A  
HETATM   35  C   UNL     1     -10.387  19.562  68.854  1.00  0.00    -0.254 A  
HETATM   36  C   UNL     1     -10.807  19.182  67.583  1.00  0.00    -0.467 A  
HETATM   37  C   UNL     1      -8.077  14.675  64.774  1.00  0.00     8.852 A  
HETATM   38  C   UNL     1     -10.824  17.828  67.218  1.00  0.00    -0.164 A  
HETATM   39  C   UNL     1      -8.566  15.011  66.040  1.00  0.00     0.468 A  
ENDBRANCH  18  19
ENDBRANCH  17  18
ENDBRANCH  16  17
ENDBRANCH  13  16
ENDBRANCH  10  13
ENDBRANCH   2   7
TORSDOF 6
ENDMDL
MODEL      256
REMARK 921   NORMALIZED FREE ENERGY PREDICTED BY IDOCK:   17.06 KCAL/MOL
REMARK 922        TOTAL FREE ENERGY PREDICTED BY IDOCK:   20.69 KCAL/MOL
REMARK 923 INTER-LIGAND FREE ENERGY PREDICTED BY IDOCK:   16.76 KCAL/MOL
REMARK 924 INTRA-LIGAND FREE ENERGY PREDICTED BY IDOCK:    3.93 KCAL/MOL
REMARK 927      BINDING AFFINITY PREDICTED BY RF-SCORE:    0.00 PKD
ROOT
HETATM    1  C   UNL     1     -10.065  17.772  68.918  1.00  0.00    -0.350 C  
HETATM    2  C   UNL     1     -11.148  17.243  67.948  1.00  0.00    -0.053 C  
HETATM    3  C   UNL     1     -10.683  17.553  66.510  1.00  0.00    -0.085 C  
HETATM    4  O   UNL     1      -9.620  18.085  66.218  1.00  0.00    -0.375 OA 
HETATM    5  C   UNL     1     -12.457  18.022  68.179  1.00  0.00     5.028 C  
HETATM    6  O   UNL     1     -11.561  17.185  65.543  1.00  0.00     0.754 OA 
ENDROOT
BRANCH   2   7
HETATM    7  C   UNL     1     -11.343  15.748  68.236  1.00  0.00    -0.354 A  
HETATM    8  C   UNL     1     -10.272  14.851  68.059  1.00  0.00    -0.228 A  
HETATM    9  C   UNL     1     -10.457  13.473  68.160  1.00  0.00    -0.249 A  
HETATM   10  C   UNL     1     -11.716  12.952  68.479  1.00  0.00    -0.374 A  
HETATM   11  C   UNL     1     -12.589  15.214  68.591  1.00  0.00     0.470 A  
HETATM   12  C   UNL     1     -12.762  13.842  68.744  1.00  0.00     0.797 A  
BRANCH  10  13
HETATM   13  C   UNL     1     -11.961  11.462  68.457  1.00  0.00    -0.225 C  
HETATM   14  O   UNL     1     -13.367  11.265  68.414  1.00  0.00     2.754 OA 
HETATM   15  H   UNL     1     -13.522  10.328  68.401  1.00  0.00     0.000 HD 
BRANCH  13  16
HETATM   16  C   UNL     1     -11.212  10.817  67.275  1.00  0.00    -0.272 C  
BRANCH  16  17
HETATM   17  C   UNL     1     -12.100  10.400  66.099  1.00  0.00     3.903 C  
BRANCH  17  18
HETATM   18  C   UNL     1     -11.368  10.261  64.757  1.00  0.00     2.348 C  
BRANCH  18  19
HETATM   19  N   UNL     1      -9.985   9.776  64.894  1.00  0.00    -0.150 NA 
HETATM   20  C   UNL     1      -9.414  10.008  66.225  1.00  0.00    -0.191 C  
HETATM   21  C   UNL     1      -9.956   9.078  67.317  1.00  0.00    -0.275 C  
HETATM   22  C   UNL     1      -9.851   7.567  66.981  1.00  0.00    -0.280 C  
HETATM   23  C   UNL     1      -8.412   6.948  67.236  1.00  0.00    -0.121 C  
HETATM   24  C   UNL     1     -10.427   7.387  65.553  1.00  0.00     2.887 C  
HETATM   25  C   UNL     1      -8.360   5.472  66.782  1.00  0.00    -0.108 A  
HETATM   26  C   UNL     1      -7.909   7.119  68.698  1.00  0.00    -0.122 A  
HETATM   27  C   UNL     1      -9.851   8.359  64.520  1.00  0.00     2.616 C  
HETATM   28  O   UNL     1      -7.490   7.673  66.403  1.00  0.00    -0.081 OA 
HETATM   29  C   UNL     1      -7.927   5.137  65.481  1.00  0.00    -0.109 A  
HETATM   30  C   UNL     1      -8.776   7.269  69.798  1.00  0.00    -0.142 A  
HETATM   31  H   UNL     1      -6.629   7.303  66.556  1.00  0.00     0.000 HD 
HETATM   32  C   UNL     1      -8.285   7.520  71.085  1.00  0.00    -0.101 A  
HETATM   33  C   UNL     1      -7.936   3.819  65.021  1.00  0.00    -0.090 A  
HETATM   34  C   UNL     1      -6.914   7.597  71.309  1.00  0.00    -0.050 A  
HETATM   35  C   UNL     1      -8.359   2.794  65.860  1.00  0.00    -0.093 A  
HETATM   36  C   UNL     1      -8.778   3.092  67.153  1.00  0.00    -0.137 A  
HETATM   37  C   UNL     1      -6.033   7.395  70.253  1.00  0.00    -0.024 A  
HETATM   38  C   UNL     1      -8.790   4.419  67.607  1.00  0.00    -0.121 A  
HETATM   39  C   UNL     1      -6.522   7.145  68.967  1.00  0.00    -0.036 A  
ENDBRANCH  18  19
ENDBRANCH  17  18
ENDBRANCH  16  17
ENDBRANCH  13  16
ENDBRANCH  10  13
ENDBRANCH   2   7
TORSDOF 6
ENDMDL
MODEL      257
REMARK 921   NORMALIZED FREE ENERGY PREDICTED BY IDOCK:   17.65 KCAL/MOL
REMARK 922        TOTAL FREE ENERGY PREDICTED BY IDOCK:   21.49 KCAL/MOL
REMARK 923 INTER-LIGAND FREE ENERGY PREDICTED BY IDOCK:   22.81 KCAL/MOL
REMARK 924 INTRA-LIGAND FREE ENERGY PREDICTED BY IDOCK:   -1.33 KCAL/MOL
REMARK 927      BINDING AFFINITY PREDICTED BY RF-SCORE:    0.00 PKD
ROOT
HETATM    1  C   UNL     1      -9.648  12.044  72.110  1.00  0.00    18.749 C  
HETATM    2  C   UNL     1     -10.415  11.056  71.200  1.00  0.00     3.125 C  
HETATM    3  C   UNL     1     -11.923  11.321  71.383  1.00  0.00     0.284 C  
HETATM    4  O   UNL     1     -12.398  12.195  72.096  1.00  0.00     0.395 OA 
HETATM    5  C   UNL     1     -10.146   9.616  71.678  1.00  0.00     0.489 C  
HETATM    6  O   UNL     1     -12.731  10.491  70.674  1.00  0.00    -0.345 OA 
ENDROOT
BRANCH   2   7
HETATM    7  C   UNL     1      -9.912  11.258  69.763  1.00  0.00     0.646 A  
HETATM    8  C   UNL     1      -8.530  11.337  69.506  1.00  0.00     0.535 A  
HETATM    9  C   UNL     1      -8.046  11.674  68.243  1.00  0.00    -0.150 A  
HETATM   10  C   UNL     1      -8.934  11.909  67.188  1.00  0.00    -0.178 A  
HETATM   11  C   UNL     1     -10.788  11.460  68.689  1.00  0.00    -0.249 A  
HETATM   12  C   UNL     1     -10.304  11.744  67.415  1.00  0.00    -0.228 A  
BRANCH  10  13
HETATM   13  C   UNL     1      -8.430  12.407  65.853  1.00  0.00     0.692 C  
HETATM   14  O   UNL     1      -7.369  13.315  66.115  1.00  0.00     1.092 OA 
HETATM   15  H   UNL     1      -7.052  13.629  65.276  1.00  0.00     0.000 HD 
BRANCH  13  16
HETATM   16  C   UNL     1      -8.019  11.220  64.962  1.00  0.00     0.597 C  
BRANCH  16  17
HETATM   17  C   UNL     1      -6.544  10.819  65.060  1.00  0.00     0.170 C  
BRANCH  17  18
HETATM   18  C   UNL     1      -6.280   9.508  65.813  1.00  0.00    -0.064 C  
BRANCH  18  19
HETATM   19  N   UNL     1      -7.362   8.521  65.661  1.00  0.00    -0.082 NA 
HETATM   20  C   UNL     1      -6.884   7.135  65.608  1.00  0.00    -0.052 C  
HETATM   21  C   UNL     1      -6.424   6.572  66.958  1.00  0.00    -0.043 C  
HETATM   22  C   UNL     1      -7.470   6.701  68.096  1.00  0.00    -0.095 C  
HETATM   23  C   UNL     1      -8.594   5.580  68.068  1.00  0.00    -0.100 C  
HETATM   24  C   UNL     1      -7.969   8.169  68.078  1.00  0.00    -0.127 C  
HETATM   25  C   UNL     1      -9.652   5.837  69.164  1.00  0.00    -0.171 A  
HETATM   26  C   UNL     1      -8.033   4.131  68.135  1.00  0.00    -0.081 A  
HETATM   27  C   UNL     1      -8.398   8.666  66.695  1.00  0.00    -0.108 C  
HETATM   28  O   UNL     1      -9.269   5.696  66.802  1.00  0.00    -0.123 OA 
HETATM   29  C   UNL     1     -10.821   6.572  68.875  1.00  0.00    -0.354 A  
HETATM   30  C   UNL     1      -6.788   3.813  68.712  1.00  0.00    -0.046 A  
HETATM   31  H   UNL     1      -9.942   5.025  66.785  1.00  0.00     0.000 HD 
HETATM   32  C   UNL     1      -6.273   2.513  68.664  1.00  0.00    -0.028 A  
HETATM   33  C   UNL     1     -11.760   6.877  69.862  1.00  0.00    -0.199 A  
HETATM   34  C   UNL     1      -7.003   1.491  68.066  1.00  0.00    -0.035 A  
HETATM   35  C   UNL     1     -11.564   6.434  71.166  1.00  0.00    -0.378 A  
HETATM   36  C   UNL     1     -10.428   5.694  71.478  1.00  0.00    -0.298 A  
HETATM   37  C   UNL     1      -8.261   1.763  67.540  1.00  0.00    -0.073 A  
HETATM   38  C   UNL     1      -9.475   5.408  70.491  1.00  0.00    -0.215 A  
HETATM   39  C   UNL     1      -8.776   3.062  67.586  1.00  0.00    -0.140 A  
ENDBRANCH  18  19
ENDBRANCH  17  18
ENDBRANCH  16  17
ENDBRANCH  13  16
ENDBRANCH  10  13
ENDBRANCH   2   7
TORSDOF 6
ENDMDL
MODEL      258
REMARK 921   NORMALIZED FREE ENERGY PREDICTED BY IDOCK:   18.63 KCAL/MOL
REMARK 922        TOTAL FREE ENERGY PREDICTED BY IDOCK:   22.80 KCAL/MOL
REMARK 923 INTER-LIGAND FREE ENERGY PREDICTED BY IDOCK:   18.99 KCAL/MOL
REMARK 924 INTRA-LIGAND FREE ENERGY PREDICTED BY IDOCK:    3.81 KCAL/MOL
REMARK 927      BINDING AFFINITY PREDICTED BY RF-SCORE:    0.00 PKD
ROOT
HETATM    1  C   UNL     1     -12.095  11.153  67.978  1.00  0.00     0.125 C  
HETATM    2  C   UNL     1     -10.655  11.527  67.555  1.00  0.00    -0.243 C  
HETATM    3  C   UNL     1     -10.676  11.846  66.046  1.00  0.00    -0.285 C  
HETATM    4  O   UNL     1     -11.678  11.837  65.343  1.00  0.00    -0.232 OA 
HETATM    5  C   UNL     1      -9.738  10.304  67.748  1.00  0.00    -0.178 C  
HETATM    6  O   UNL     1      -9.463  12.149  65.518  1.00  0.00    -0.185 OA 
ENDROOT
BRANCH   2   7
HETATM    7  C   UNL     1     -10.199  12.698  68.438  1.00  0.00    -0.233 A  
HETATM    8  C   UNL     1     -11.097  13.737  68.749  1.00  0.00    -0.295 A  
HETATM    9  C   UNL     1     -10.673  14.886  69.413  1.00  0.00    -0.264 A  
HETATM   10  C   UNL     1      -9.340  15.014  69.820  1.00  0.00     0.065 A  
HETATM   11  C   UNL     1      -8.877  12.823  68.882  1.00  0.00     0.333 A  
HETATM   12  C   UNL     1      -8.465  13.946  69.593  1.00  0.00     1.047 A  
BRANCH  10  13
HETATM   13  C   UNL     1      -8.837  16.307  70.417  1.00  0.00     2.093 C  
HETATM   14  O   UNL     1      -7.789  16.779  69.582  1.00  0.00     0.133 OA 
HETATM   15  H   UNL     1      -7.472  17.592  69.958  1.00  0.00     0.000 HD 
BRANCH  13  16
HETATM   16  C   UNL     1      -9.998  17.308  70.572  1.00  0.00     2.058 C  
BRANCH  16  17
HETATM   17  C   UNL     1      -9.589  18.703  71.054  1.00  0.00     4.041 C  
BRANCH  17  18
HETATM   18  C   UNL     1     -10.610  19.811  70.763  1.00  0.00     2.267 C  
BRANCH  18  19
HETATM   19  N   UNL     1     -10.689  20.172  69.338  1.00  0.00     0.397 NA 
HETATM   20  C   UNL     1      -9.385  20.483  68.741  1.00  0.00     0.592 C  
HETATM   21  C   UNL     1      -8.498  19.259  68.486  1.00  0.00    -0.401 C  
HETATM   22  C   UNL     1      -9.177  18.138  67.656  1.00  0.00    -0.259 C  
HETATM   23  C   UNL     1      -9.176  18.404  66.091  1.00  0.00    -0.120 C  
HETATM   24  C   UNL     1     -10.562  17.881  68.304  1.00  0.00    -0.314 C  
HETATM   25  C   UNL     1      -9.958  17.299  65.347  1.00  0.00     0.328 A  
HETATM   26  C   UNL     1      -7.755  18.607  65.493  1.00  0.00     0.357 A  
HETATM   27  C   UNL     1     -11.385  19.150  68.542  1.00  0.00     1.644 C  
HETATM   28  O   UNL     1      -9.887  19.636  65.875  1.00  0.00    -0.380 OA 
HETATM   29  C   UNL     1     -11.329  17.463  65.055  1.00  0.00     0.879 A  
HETATM   30  C   UNL     1      -6.589  18.079  66.081  1.00  0.00    -0.293 A  
HETATM   31  H   UNL     1      -9.887  19.795  64.939  1.00  0.00     0.000 HD 
HETATM   32  C   UNL     1      -5.319  18.368  65.569  1.00  0.00    -0.211 A  
HETATM   33  C   UNL     1     -12.076  16.453  64.445  1.00  0.00     0.772 A  
HETATM   34  C   UNL     1      -5.184  19.166  64.438  1.00  0.00    -0.248 A  
HETATM   35  C   UNL     1     -11.464  15.257  64.089  1.00  0.00    -0.017 A  
HETATM   36  C   UNL     1     -10.110  15.071  64.351  1.00  0.00     1.048 A  
HETATM   37  C   UNL     1      -6.320  19.654  63.801  1.00  0.00     0.368 A  
HETATM   38  C   UNL     1      -9.366  16.077  64.983  1.00  0.00     1.322 A  
HETATM   39  C   UNL     1      -7.589  19.366  64.313  1.00  0.00     3.283 A  
ENDBRANCH  18  19
ENDBRANCH  17  18
ENDBRANCH  16  17
ENDBRANCH  13  16
ENDBRANCH  10  13
ENDBRANCH   2   7
TORSDOF 6
ENDMDL
MODEL      259
REMARK 921   NORMALIZED FREE ENERGY PREDICTED BY IDOCK:   18.96 KCAL/MOL
REMARK 922        TOTAL FREE ENERGY PREDICTED BY IDOCK:   23.26 KCAL/MOL
REMARK 923 INTER-LIGAND FREE ENERGY PREDICTED BY IDOCK:   19.42 KCAL/MOL
REMARK 924 INTRA-LIGAND FREE ENERGY PREDICTED BY IDOCK:    3.84 KCAL/MOL
REMARK 927      BINDING AFFINITY PREDICTED BY RF-SCORE:    0.00 PKD
ROOT
HETATM    1  C   UNL     1     -12.207  18.346  68.049  1.00  0.00     4.073 C  
HETATM    2  C   UNL     1     -10.787  18.575  68.617  1.00  0.00     0.457 C  
HETATM    3  C   UNL     1     -10.935  19.056  70.075  1.00  0.00     2.729 C  
HETATM    4  O   UNL     1     -12.000  19.184  70.664  1.00  0.00     8.262 OA 
HETATM    5  C   UNL     1     -10.105  19.711  67.831  1.00  0.00    -0.543 C  
HETATM    6  O   UNL     1      -9.762  19.344  70.695  1.00  0.00     1.053 OA 
ENDROOT
BRANCH   2   7
HETATM    7  C   UNL     1     -10.007  17.260  68.466  1.00  0.00    -0.320 A  
HETATM    8  C   UNL     1      -8.608  17.250  68.625  1.00  0.00    -0.265 A  
HETATM    9  C   UNL     1      -7.855  16.111  68.342  1.00  0.00    -0.160 A  
HETATM   10  C   UNL     1      -8.487  14.935  67.925  1.00  0.00    -0.154 A  
HETATM   11  C   UNL     1     -10.629  16.065  68.083  1.00  0.00    -0.286 A  
HETATM   12  C   UNL     1      -9.884  14.913  67.852  1.00  0.00    -0.214 A  
BRANCH  10  13
HETATM   13  C   UNL     1      -7.675  13.739  67.485  1.00  0.00    -0.176 C  
HETATM   14  O   UNL     1      -8.242  12.593  68.105  1.00  0.00    -0.155 OA 
HETATM   15  H   UNL     1      -7.731  11.840  67.829  1.00  0.00     0.000 HD 
BRANCH  13  16
HETATM   16  C   UNL     1      -7.644  13.654  65.947  1.00  0.00     3.946 C  
BRANCH  16  17
HETATM   17  C   UNL     1      -8.769  12.825  65.322  1.00  0.00     1.542 C  
BRANCH  17  18
HETATM   18  C   UNL     1      -8.305  11.758  64.322  1.00  0.00     1.476 C  
BRANCH  18  19
HETATM   19  N   UNL     1      -7.376  10.776  64.906  1.00  0.00     0.136 NA 
HETATM   20  C   UNL     1      -7.107  11.002  66.330  1.00  0.00    -0.092 C  
HETATM   21  C   UNL     1      -8.260  10.614  67.261  1.00  0.00    -0.116 C  
HETATM   22  C   UNL     1      -8.778   9.164  67.071  1.00  0.00    -0.131 C  
HETATM   23  C   UNL     1      -7.890   8.063  67.793  1.00  0.00    -0.126 C  
HETATM   24  C   UNL     1      -9.004   8.968  65.550  1.00  0.00    -0.252 C  
HETATM   25  C   UNL     1      -8.408   6.644  67.471  1.00  0.00    -0.121 A  
HETATM   26  C   UNL     1      -7.739   8.289  69.324  1.00  0.00    -0.103 A  
HETATM   27  C   UNL     1      -7.816   9.390  64.682  1.00  0.00    -0.120 C  
HETATM   28  O   UNL     1      -6.568   8.161  67.236  1.00  0.00    -0.056 OA 
HETATM   29  C   UNL     1      -7.873   5.913  66.389  1.00  0.00    -0.101 A  
HETATM   30  C   UNL     1      -8.680   8.997  70.095  1.00  0.00    -0.184 A  
HETATM   31  H   UNL     1      -6.036   7.502  67.667  1.00  0.00     0.000 HD 
HETATM   32  C   UNL     1      -8.460   9.265  71.451  1.00  0.00     0.108 A  
HETATM   33  C   UNL     1      -8.369   4.657  66.034  1.00  0.00    -0.114 A  
HETATM   34  C   UNL     1      -7.306   8.805  72.078  1.00  0.00    -0.022 A  
HETATM   35  C   UNL     1      -9.403   4.087  66.768  1.00  0.00    -0.199 A  
HETATM   36  C   UNL     1      -9.942   4.778  67.850  1.00  0.00    -0.161 A  
HETATM   37  C   UNL     1      -6.386   8.052  71.356  1.00  0.00    -0.036 A  
HETATM   38  C   UNL     1      -9.457   6.048  68.192  1.00  0.00    -0.115 A  
HETATM   39  C   UNL     1      -6.606   7.785  70.001  1.00  0.00    -0.037 A  
ENDBRANCH  18  19
ENDBRANCH  17  18
ENDBRANCH  16  17
ENDBRANCH  13  16
ENDBRANCH  10  13
ENDBRANCH   2   7
TORSDOF 6
ENDMDL
MODEL      260
REMARK 921   NORMALIZED FREE ENERGY PREDICTED BY IDOCK:   19.49 KCAL/MOL
REMARK 922        TOTAL FREE ENERGY PREDICTED BY IDOCK:   23.97 KCAL/MOL
REMARK 923 INTER-LIGAND FREE ENERGY PREDICTED BY IDOCK:   22.26 KCAL/MOL
REMARK 924 INTRA-LIGAND FREE ENERGY PREDICTED BY IDOCK:    1.71 KCAL/MOL
REMARK 927      BINDING AFFINITY PREDICTED BY RF-SCORE:    0.00 PKD
ROOT
HETATM    1  C   UNL     1      -7.491   9.770  68.909  1.00  0.00    -0.075 C  
HETATM    2  C   UNL     1      -7.261   9.260  67.467  1.00  0.00    -0.080 C  
HETATM    3  C   UNL     1      -6.944   7.753  67.546  1.00  0.00    -0.078 C  
HETATM    4  O   UNL     1      -6.928   7.095  68.578  1.00  0.00    -0.073 OA 
HETATM    5  C   UNL     1      -6.018   9.954  66.878  1.00  0.00    -0.055 C  
HETATM    6  O   UNL     1      -6.672   7.171  66.350  1.00  0.00    -0.050 OA 
ENDROOT
BRANCH   2   7
HETATM    7  C   UNL     1      -8.516   9.596  66.647  1.00  0.00    -0.126 A  
HETATM    8  C   UNL     1      -8.595  10.816  65.950  1.00  0.00    -0.182 A  
HETATM    9  C   UNL     1      -9.775  11.220  65.327  1.00  0.00    -0.280 A  
HETATM   10  C   UNL     1     -10.903  10.394  65.353  1.00  0.00     0.213 A  
HETATM   11  C   UNL     1      -9.641   8.763  66.634  1.00  0.00    -0.283 A  
HETATM   12  C   UNL     1     -10.803   9.141  65.967  1.00  0.00     1.151 A  
BRANCH  10  13
HETATM   13  C   UNL     1     -12.224  10.877  64.803  1.00  0.00     2.518 C  
HETATM   14  O   UNL     1     -13.033  11.251  65.910  1.00  0.00     3.461 OA 
HETATM   15  H   UNL     1     -13.864  11.554  65.564  1.00  0.00     0.000 HD 
BRANCH  13  16
HETATM   16  C   UNL     1     -11.995  12.019  63.794  1.00  0.00    -0.588 C  
BRANCH  16  17
HETATM   17  C   UNL     1     -10.594  12.637  63.826  1.00  0.00    -0.432 C  
BRANCH  17  18
HETATM   18  C   UNL     1     -10.521  14.094  63.348  1.00  0.00     3.522 C  
BRANCH  18  19
HETATM   19  N   UNL     1     -10.862  15.069  64.397  1.00  0.00    -0.100 NA 
HETATM   20  C   UNL     1     -11.370  14.452  65.626  1.00  0.00    -0.330 C  
HETATM   21  C   UNL     1     -10.297  13.762  66.477  1.00  0.00    -0.286 C  
HETATM   22  C   UNL     1      -9.083  14.660  66.829  1.00  0.00    -0.287 C  
HETATM   23  C   UNL     1      -9.343  15.647  68.045  1.00  0.00    -0.193 C  
HETATM   24  C   UNL     1      -8.616  15.318  65.505  1.00  0.00     1.660 C  
HETATM   25  C   UNL     1      -8.129  16.577  68.266  1.00  0.00    -0.179 A  
HETATM   26  C   UNL     1      -9.762  14.925  69.357  1.00  0.00    -0.099 A  
HETATM   27  C   UNL     1      -9.743  15.973  64.702  1.00  0.00     1.888 C  
HETATM   28  O   UNL     1     -10.449  16.488  67.673  1.00  0.00    -0.291 OA 
HETATM   29  C   UNL     1      -8.078  17.848  67.656  1.00  0.00    -0.224 A  
HETATM   30  C   UNL     1      -9.422  13.588  69.643  1.00  0.00     1.423 A  
HETATM   31  H   UNL     1     -10.605  17.079  68.401  1.00  0.00     0.000 HD 
HETATM   32  C   UNL     1      -9.902  12.942  70.788  1.00  0.00     6.751 A  
HETATM   33  C   UNL     1      -6.964  18.680  67.782  1.00  0.00    -0.223 A  
HETATM   34  C   UNL     1     -10.709  13.625  71.691  1.00  0.00     4.796 A  
HETATM   35  C   UNL     1      -5.876  18.270  68.544  1.00  0.00    -0.181 A  
HETATM   36  C   UNL     1      -5.903  17.028  69.170  1.00  0.00    -0.170 A  
HETATM   37  C   UNL     1     -11.014  14.963  71.465  1.00  0.00     0.198 A  
HETATM   38  C   UNL     1      -7.013  16.184  69.024  1.00  0.00    -0.178 A  
HETATM   39  C   UNL     1     -10.535  15.609  70.321  1.00  0.00    -0.277 A  
ENDBRANCH  18  19
ENDBRANCH  17  18
ENDBRANCH  16  17
ENDBRANCH  13  16
ENDBRANCH  10  13
ENDBRANCH   2   7
TORSDOF 6
ENDMDL
MODEL      261
REMARK 921   NORMALIZED FREE ENERGY PREDICTED BY IDOCK:   19.66 KCAL/MOL
REMARK 922        TOTAL FREE ENERGY PREDICTED BY IDOCK:   24.20 KCAL/MOL
REMARK 923 INTER-LIGAND FREE ENERGY PREDICTED BY IDOCK:   25.12 KCAL/MOL
REMARK 924 INTRA-LIGAND FREE ENERGY PREDICTED BY IDOCK:   -0.92 KCAL/MOL
REMARK 927      BINDING AFFINITY PREDICTED BY RF-SCORE:    0.00 PKD
ROOT
HETATM    1  C   UNL     1     -11.808  10.008  63.244  1.00  0.00     6.480 C  
HETATM    2  C   UNL     1     -10.708  10.976  63.737  1.00  0.00    -0.294 C  
HETATM    3  C   UNL     1     -11.267  12.410  63.643  1.00  0.00    -0.474 C  
HETATM    4  O   UNL     1     -12.400  12.697  63.280  1.00  0.00    -0.596 OA 
HETATM    5  C   UNL     1      -9.500  10.897  62.783  1.00  0.00    -0.359 C  
HETATM    6  O   UNL     1     -10.390  13.382  64.003  1.00  0.00    -0.336 OA 
ENDROOT
BRANCH   2   7
HETATM    7  C   UNL     1     -10.311  10.548  65.158  1.00  0.00    -0.310 A  
HETATM    8  C   UNL     1     -10.756   9.315  65.671  1.00  0.00     1.446 A  
HETATM    9  C   UNL     1     -10.546   8.967  67.004  1.00  0.00    -0.270 A  
HETATM   10  C   UNL     1      -9.851   9.832  67.857  1.00  0.00    -0.176 A  
HETATM   11  C   UNL     1      -9.585  11.387  66.012  1.00  0.00    -0.247 A  
HETATM   12  C   UNL     1      -9.329  11.018  67.329  1.00  0.00    -0.167 A  
BRANCH  10  13
HETATM   13  C   UNL     1      -9.736   9.531  69.333  1.00  0.00    -0.183 C  
HETATM   14  O   UNL     1      -8.892  10.523  69.902  1.00  0.00    -0.377 OA 
HETATM   15  H   UNL     1      -8.819  10.333  70.830  1.00  0.00     0.000 HD 
BRANCH  13  16
HETATM   16  C   UNL     1     -11.135   9.473  69.974  1.00  0.00    -0.268 C  
BRANCH  16  17
HETATM   17  C   UNL     1     -11.815  10.831  70.166  1.00  0.00    -0.427 C  
BRANCH  17  18
HETATM   18  C   UNL     1     -12.117  11.591  68.868  1.00  0.00    -0.206 C  
BRANCH  18  19
HETATM   19  N   UNL     1     -12.381  13.024  69.079  1.00  0.00    -0.012 NA 
HETATM   20  C   UNL     1     -11.440  13.661  70.006  1.00  0.00    -0.090 C  
HETATM   21  C   UNL     1     -10.043  13.902  69.422  1.00  0.00     0.313 C  
HETATM   22  C   UNL     1     -10.035  14.682  68.081  1.00  0.00    -0.224 C  
HETATM   23  C   UNL     1     -10.182  16.254  68.248  1.00  0.00    -0.253 C  
HETATM   24  C   UNL     1     -11.074  13.993  67.159  1.00  0.00    -0.313 C  
HETATM   25  C   UNL     1     -10.270  16.946  66.870  1.00  0.00    -0.296 A  
HETATM   26  C   UNL     1      -9.084  16.892  69.146  1.00  0.00    -0.091 A  
HETATM   27  C   UNL     1     -12.440  13.773  67.814  1.00  0.00     0.241 C  
HETATM   28  O   UNL     1     -11.436  16.488  68.913  1.00  0.00    -0.267 OA 
HETATM   29  C   UNL     1     -11.524  17.209  66.278  1.00  0.00     1.271 A  
HETATM   30  C   UNL     1      -7.811  16.317  69.332  1.00  0.00    -0.081 A  
HETATM   31  H   UNL     1     -11.525  17.429  69.014  1.00  0.00     0.000 HD 
HETATM   32  C   UNL     1      -6.886  16.869  70.225  1.00  0.00     1.052 A  
HETATM   33  C   UNL     1     -11.631  17.771  65.004  1.00  0.00     2.238 A  
HETATM   34  C   UNL     1      -7.197  18.026  70.932  1.00  0.00     3.723 A  
HETATM   35  C   UNL     1     -10.483  18.106  64.295  1.00  0.00     5.362 A  
HETATM   36  C   UNL     1      -9.233  17.872  64.860  1.00  0.00     3.749 A  
HETATM   37  C   UNL     1      -8.423  18.648  70.725  1.00  0.00     4.461 A  
HETATM   38  C   UNL     1      -9.126  17.288  66.129  1.00  0.00    -0.193 A  
HETATM   39  C   UNL     1      -9.349  18.097  69.833  1.00  0.00     1.292 A  
ENDBRANCH  18  19
ENDBRANCH  17  18
ENDBRANCH  16  17
ENDBRANCH  13  16
ENDBRANCH  10  13
ENDBRANCH   2   7
TORSDOF 6
ENDMDL
MODEL      262
REMARK 921   NORMALIZED FREE ENERGY PREDICTED BY IDOCK:   20.54 KCAL/MOL
REMARK 922        TOTAL FREE ENERGY PREDICTED BY IDOCK:   25.40 KCAL/MOL
REMARK 923 INTER-LIGAND FREE ENERGY PREDICTED BY IDOCK:   22.61 KCAL/MOL
REMARK 924 INTRA-LIGAND FREE ENERGY PREDICTED BY IDOCK:    2.79 KCAL/MOL
REMARK 927      BINDING AFFINITY PREDICTED BY RF-SCORE:    0.00 PKD
ROOT
HETATM    1  C   UNL     1     -13.691  16.319  71.767  1.00  0.00     1.290 C  
HETATM    2  C   UNL     1     -12.462  16.687  72.630  1.00  0.00     0.179 C  
HETATM    3  C   UNL     1     -11.951  15.393  73.296  1.00  0.00    -0.454 C  
HETATM    4  O   UNL     1     -12.428  14.280  73.120  1.00  0.00    -0.239 OA 
HETATM    5  C   UNL     1     -12.903  17.636  73.761  1.00  0.00     2.654 C  
HETATM    6  O   UNL     1     -10.892  15.568  74.128  1.00  0.00     2.453 OA 
ENDROOT
BRANCH   2   7
HETATM    7  C   UNL     1     -11.435  17.369  71.713  1.00  0.00     1.708 A  
HETATM    8  C   UNL     1     -10.297  17.984  72.267  1.00  0.00     4.958 A  
HETATM    9  C   UNL     1      -9.430  18.743  71.482  1.00  0.00     5.748 A  
HETATM   10  C   UNL     1      -9.659  18.880  70.109  1.00  0.00     1.226 A  
HETATM   11  C   UNL     1     -11.632  17.483  70.331  1.00  0.00     2.849 A  
HETATM   12  C   UNL     1     -10.738  18.196  69.538  1.00  0.00     0.908 A  
BRANCH  10  13
HETATM   13  C   UNL     1      -8.808  19.808  69.275  1.00  0.00     0.165 C  
HETATM   14  O   UNL     1      -7.615  19.109  68.948  1.00  0.00    -0.339 OA 
HETATM   15  H   UNL     1      -7.079  19.693  68.423  1.00  0.00     0.000 HD 
BRANCH  13  16
HETATM   16  C   UNL     1      -9.597  20.288  68.041  1.00  0.00    -0.381 C  
BRANCH  16  17
HETATM   17  C   UNL     1      -9.150  19.677  66.710  1.00  0.00    -0.424 C  
BRANCH  17  18
HETATM   18  C   UNL     1      -9.685  18.265  66.436  1.00  0.00    -0.334 C  
BRANCH  18  19
HETATM   19  N   UNL     1      -9.513  17.346  67.573  1.00  0.00    -0.247 NA 
HETATM   20  C   UNL     1     -10.624  16.403  67.735  1.00  0.00    -0.321 C  
HETATM   21  C   UNL     1     -10.654  15.275  66.698  1.00  0.00    -0.304 C  
HETATM   22  C   UNL     1      -9.329  14.476  66.583  1.00  0.00    -0.301 C  
HETATM   23  C   UNL     1      -9.144  13.370  67.707  1.00  0.00    -0.202 C  
HETATM   24  C   UNL     1      -8.189  15.519  66.456  1.00  0.00    -0.167 C  
HETATM   25  C   UNL     1      -7.761  12.693  67.587  1.00  0.00    -0.155 A  
HETATM   26  C   UNL     1     -10.296  12.326  67.753  1.00  0.00    -0.216 A  
HETATM   27  C   UNL     1      -8.233  16.623  67.516  1.00  0.00    -0.164 C  
HETATM   28  O   UNL     1      -9.165  14.053  68.973  1.00  0.00    -0.391 OA 
HETATM   29  C   UNL     1      -6.658  13.176  68.324  1.00  0.00    -0.097 A  
HETATM   30  C   UNL     1     -11.099  12.016  66.638  1.00  0.00    -0.358 A  
HETATM   31  H   UNL     1      -9.053  13.392  69.646  1.00  0.00     0.000 HD 
HETATM   32  C   UNL     1     -12.189  11.145  66.745  1.00  0.00     1.932 A  
HETATM   33  C   UNL     1      -5.383  12.627  68.182  1.00  0.00    -0.073 A  
HETATM   34  C   UNL     1     -12.486  10.539  67.961  1.00  0.00     2.536 A  
HETATM   35  C   UNL     1      -5.179  11.560  67.314  1.00  0.00    -0.071 A  
HETATM   36  C   UNL     1      -6.250  11.052  66.585  1.00  0.00    -0.124 A  
HETATM   37  C   UNL     1     -11.675  10.780  69.065  1.00  0.00    -0.357 A  
HETATM   38  C   UNL     1      -7.526  11.619  66.711  1.00  0.00    -0.091 A  
HETATM   39  C   UNL     1     -10.586  11.651  68.959  1.00  0.00    -0.188 A  
ENDBRANCH  18  19
ENDBRANCH  17  18
ENDBRANCH  16  17
ENDBRANCH  13  16
ENDBRANCH  10  13
ENDBRANCH   2   7
TORSDOF 6
ENDMDL
MODEL      263
REMARK 921   NORMALIZED FREE ENERGY PREDICTED BY IDOCK:   20.82 KCAL/MOL
REMARK 922        TOTAL FREE ENERGY PREDICTED BY IDOCK:   25.77 KCAL/MOL
REMARK 923 INTER-LIGAND FREE ENERGY PREDICTED BY IDOCK:   23.32 KCAL/MOL
REMARK 924 INTRA-LIGAND FREE ENERGY PREDICTED BY IDOCK:    2.45 KCAL/MOL
REMARK 927      BINDING AFFINITY PREDICTED BY RF-SCORE:    0.00 PKD
ROOT
HETATM    1  C   UNL     1      -7.678   5.636  64.861  1.00  0.00    -0.099 C  
HETATM    2  C   UNL     1      -9.110   6.069  64.469  1.00  0.00     0.602 C  
HETATM    3  C   UNL     1     -10.056   5.655  65.614  1.00  0.00     0.349 C  
HETATM    4  O   UNL     1      -9.701   5.119  66.656  1.00  0.00    -0.140 OA 
HETATM    5  C   UNL     1      -9.548   5.288  63.215  1.00  0.00     0.752 C  
HETATM    6  O   UNL     1     -11.366   5.931  65.391  1.00  0.00     1.820 OA 
ENDROOT
BRANCH   2   7
HETATM    7  C   UNL     1      -9.082   7.579  64.192  1.00  0.00     1.406 A  
HETATM    8  C   UNL     1      -9.448   8.487  65.204  1.00  0.00     0.436 A  
HETATM    9  C   UNL     1      -9.585   9.849  64.941  1.00  0.00    -0.356 A  
HETATM   10  C   UNL     1      -9.323  10.348  63.661  1.00  0.00    -0.329 A  
HETATM   11  C   UNL     1      -8.788   8.098  62.925  1.00  0.00     0.462 A  
HETATM   12  C   UNL     1      -8.871   9.464  62.675  1.00  0.00    -0.232 A  
BRANCH  10  13
HETATM   13  C   UNL     1      -9.597  11.796  63.328  1.00  0.00    -0.256 C  
HETATM   14  O   UNL     1     -10.845  12.136  63.917  1.00  0.00    -0.331 OA 
HETATM   15  H   UNL     1     -11.019  13.046  63.707  1.00  0.00     0.000 HD 
BRANCH  13  16
HETATM   16  C   UNL     1      -8.431  12.682  63.804  1.00  0.00     3.960 C  
BRANCH  16  17
HETATM   17  C   UNL     1      -8.782  13.667  64.923  1.00  0.00     3.429 C  
BRANCH  17  18
HETATM   18  C   UNL     1      -7.949  13.515  66.203  1.00  0.00     1.886 C  
BRANCH  18  19
HETATM   19  N   UNL     1      -8.694  12.901  67.315  1.00  0.00    -0.197 NA 
HETATM   20  C   UNL     1      -9.107  11.519  67.049  1.00  0.00    -0.175 C  
HETATM   21  C   UNL     1      -7.968  10.495  67.115  1.00  0.00    -0.116 C  
HETATM   22  C   UNL     1      -7.149  10.532  68.432  1.00  0.00    -0.078 C  
HETATM   23  C   UNL     1      -7.840   9.768  69.641  1.00  0.00    -0.142 C  
HETATM   24  C   UNL     1      -6.778  12.015  68.684  1.00  0.00    -0.080 C  
HETATM   25  C   UNL     1      -7.017   9.938  70.937  1.00  0.00     0.077 A  
HETATM   26  C   UNL     1      -8.145   8.273  69.343  1.00  0.00    -0.115 A  
HETATM   27  C   UNL     1      -7.962  12.981  68.588  1.00  0.00    -0.027 C  
HETATM   28  O   UNL     1      -9.110  10.405  69.867  1.00  0.00    -0.403 OA 
HETATM   29  C   UNL     1      -7.310  10.982  71.841  1.00  0.00     6.252 A  
HETATM   30  C   UNL     1      -7.429   7.514  68.397  1.00  0.00    -0.108 A  
HETATM   31  H   UNL     1      -9.523   9.949  70.590  1.00  0.00     0.000 HD 
HETATM   32  C   UNL     1      -7.798   6.201  68.085  1.00  0.00    -0.103 A  
HETATM   33  C   UNL     1      -6.539  11.200  72.985  1.00  0.00     5.172 A  
HETATM   34  C   UNL     1      -8.873   5.602  68.733  1.00  0.00    -0.108 A  
HETATM   35  C   UNL     1      -5.466  10.363  73.268  1.00  0.00     0.573 A  
HETATM   36  C   UNL     1      -5.162   9.316  72.403  1.00  0.00    -0.076 A  
HETATM   37  C   UNL     1      -9.563   6.307  69.714  1.00  0.00    -0.169 A  
HETATM   38  C   UNL     1      -5.922   9.112  71.243  1.00  0.00    -0.067 A  
HETATM   39  C   UNL     1      -9.195   7.619  70.026  1.00  0.00    -0.151 A  
ENDBRANCH  18  19
ENDBRANCH  17  18
ENDBRANCH  16  17
ENDBRANCH  13  16
ENDBRANCH  10  13
ENDBRANCH   2   7
TORSDOF 6
ENDMDL
MODEL      264
REMARK 921   NORMALIZED FREE ENERGY PREDICTED BY IDOCK:   20.86 KCAL/MOL
REMARK 922        TOTAL FREE ENERGY PREDICTED BY IDOCK:   25.83 KCAL/MOL
REMARK 923 INTER-LIGAND FREE ENERGY PREDICTED BY IDOCK:   21.31 KCAL/MOL
REMARK 924 INTRA-LIGAND FREE ENERGY PREDICTED BY IDOCK:    4.52 KCAL/MOL
REMARK 927      BINDING AFFINITY PREDICTED BY RF-SCORE:    0.00 PKD
ROOT
HETATM    1  C   UNL     1     -13.159  12.076  65.729  1.00  0.00     3.097 C  
HETATM    2  C   UNL     1     -12.123  13.193  65.462  1.00  0.00    -0.490 C  
HETATM    3  C   UNL     1     -12.899  14.491  65.159  1.00  0.00    -0.060 C  
HETATM    4  O   UNL     1     -14.118  14.597  65.177  1.00  0.00     1.036 OA 
HETATM    5  C   UNL     1     -11.315  12.842  64.198  1.00  0.00    -0.442 C  
HETATM    6  O   UNL     1     -12.116  15.558  64.858  1.00  0.00    -0.031 OA 
ENDROOT
BRANCH   2   7
HETATM    7  C   UNL     1     -11.205  13.282  66.690  1.00  0.00    -0.332 A  
HETATM    8  C   UNL     1     -10.330  12.222  66.993  1.00  0.00    -0.237 A  
HETATM    9  C   UNL     1      -9.600  12.201  68.180  1.00  0.00    -0.208 A  
HETATM   10  C   UNL     1      -9.699  13.263  69.086  1.00  0.00     0.441 A  
HETATM   11  C   UNL     1     -11.266  14.355  67.589  1.00  0.00    -0.328 A  
HETATM   12  C   UNL     1     -10.497  14.361  68.749  1.00  0.00    -0.244 A  
BRANCH  10  13
HETATM   13  C   UNL     1      -9.021  13.190  70.434  1.00  0.00     5.336 C  
HETATM   14  O   UNL     1      -9.228  14.440  71.079  1.00  0.00     2.196 OA 
HETATM   15  H   UNL     1      -8.802  14.395  71.927  1.00  0.00     0.000 HD 
BRANCH  13  16
HETATM   16  C   UNL     1      -9.558  11.989  71.236  1.00  0.00    11.176 C  
BRANCH  16  17
HETATM   17  C   UNL     1     -11.078  11.961  71.418  1.00  0.00     3.873 C  
BRANCH  17  18
HETATM   18  C   UNL     1     -11.882  11.853  70.115  1.00  0.00    -0.308 C  
BRANCH  18  19
HETATM   19  N   UNL     1     -12.220  10.467  69.751  1.00  0.00    -0.162 NA 
HETATM   20  C   UNL     1     -11.699  10.064  68.441  1.00  0.00     0.439 C  
HETATM   21  C   UNL     1     -10.188   9.810  68.411  1.00  0.00    -0.210 C  
HETATM   22  C   UNL     1      -9.686   8.806  69.483  1.00  0.00    -0.172 C  
HETATM   23  C   UNL     1      -9.899   7.283  69.090  1.00  0.00    -0.166 C  
HETATM   24  C   UNL     1     -10.298   9.255  70.835  1.00  0.00    -0.367 C  
HETATM   25  C   UNL     1      -9.472   6.353  70.247  1.00  0.00    -0.171 A  
HETATM   26  C   UNL     1      -9.222   6.883  67.748  1.00  0.00    -0.119 A  
HETATM   27  C   UNL     1     -11.808   9.504  70.784  1.00  0.00    -0.277 C  
HETATM   28  O   UNL     1     -11.313   7.093  68.903  1.00  0.00    -0.468 OA 
HETATM   29  C   UNL     1     -10.416   5.912  71.199  1.00  0.00    -0.291 A  
HETATM   30  C   UNL     1      -8.106   7.559  67.217  1.00  0.00    -0.115 A  
HETATM   31  H   UNL     1     -11.442   6.182  68.668  1.00  0.00     0.000 HD 
HETATM   32  C   UNL     1      -7.587   7.233  65.959  1.00  0.00    -0.089 A  
HETATM   33  C   UNL     1     -10.044   5.128  72.293  1.00  0.00    -0.243 A  
HETATM   34  C   UNL     1      -8.151   6.203  65.214  1.00  0.00    -0.132 A  
HETATM   35  C   UNL     1      -8.718   4.743  72.452  1.00  0.00    -0.124 A  
HETATM   36  C   UNL     1      -7.767   5.150  71.521  1.00  0.00    -0.103 A  
HETATM   37  C   UNL     1      -9.216   5.479  65.737  1.00  0.00    -0.132 A  
HETATM   38  C   UNL     1      -8.137   5.956  70.435  1.00  0.00    -0.107 A  
HETATM   39  C   UNL     1      -9.736   5.805  66.994  1.00  0.00    -0.155 A  
ENDBRANCH  18  19
ENDBRANCH  17  18
ENDBRANCH  16  17
ENDBRANCH  13  16
ENDBRANCH  10  13
ENDBRANCH   2   7
TORSDOF 6
ENDMDL
MODEL      265
REMARK 921   NORMALIZED FREE ENERGY PREDICTED BY IDOCK:   21.12 KCAL/MOL
REMARK 922        TOTAL FREE ENERGY PREDICTED BY IDOCK:   26.17 KCAL/MOL
REMARK 923 INTER-LIGAND FREE ENERGY PREDICTED BY IDOCK:   23.52 KCAL/MOL
REMARK 924 INTRA-LIGAND FREE ENERGY PREDICTED BY IDOCK:    2.66 KCAL/MOL
REMARK 927      BINDING AFFINITY PREDICTED BY RF-SCORE:    0.00 PKD
ROOT
HETATM    1  C   UNL     1      -6.457  17.549  70.252  1.00  0.00     0.574 C  
HETATM    2  C   UNL     1      -6.350  16.242  71.072  1.00  0.00     1.342 C  
HETATM    3  C   UNL     1      -7.617  16.130  71.945  1.00  0.00     7.691 C  
HETATM    4  O   UNL     1      -8.545  16.928  71.936  1.00  0.00     9.971 OA 
HETATM    5  C   UNL     1      -5.148  16.343  72.030  1.00  0.00     0.593 C  
HETATM    6  O   UNL     1      -7.645  15.046  72.762  1.00  0.00     4.320 OA 
ENDROOT
BRANCH   2   7
HETATM    7  C   UNL     1      -6.166  15.083  70.082  1.00  0.00    -0.154 A  
HETATM    8  C   UNL     1      -6.778  15.134  68.816  1.00  0.00    -0.099 A  
HETATM    9  C   UNL     1      -6.760  14.036  67.957  1.00  0.00    -0.148 A  
HETATM   10  C   UNL     1      -6.095  12.863  68.328  1.00  0.00    -0.082 A  
HETATM   11  C   UNL     1      -5.473  13.915  70.425  1.00  0.00    -0.124 A  
HETATM   12  C   UNL     1      -5.409  12.837  69.547  1.00  0.00    -0.079 A  
BRANCH  10  13
HETATM   13  C   UNL     1      -6.184  11.623  67.470  1.00  0.00    -0.083 C  
HETATM   14  O   UNL     1      -5.446  10.601  68.126  1.00  0.00    -0.037 OA 
HETATM   15  H   UNL     1      -5.501   9.821  67.585  1.00  0.00     0.000 HD 
BRANCH  13  16
HETATM   16  C   UNL     1      -7.658  11.253  67.220  1.00  0.00    -0.130 C  
BRANCH  16  17
HETATM   17  C   UNL     1      -7.900   9.795  66.817  1.00  0.00    -0.102 C  
BRANCH  17  18
HETATM   18  C   UNL     1      -8.684   9.608  65.511  1.00  0.00    -0.153 C  
BRANCH  18  19
HETATM   19  N   UNL     1     -10.022  10.224  65.542  1.00  0.00    -0.286 NA 
HETATM   20  C   UNL     1     -10.574  10.355  66.894  1.00  0.00    -0.230 C  
HETATM   21  C   UNL     1      -9.933  11.465  67.734  1.00  0.00    -0.192 C  
HETATM   22  C   UNL     1      -9.928  12.860  67.056  1.00  0.00    -0.244 C  
HETATM   23  C   UNL     1     -11.307  13.638  67.170  1.00  0.00    -0.319 C  
HETATM   24  C   UNL     1      -9.376  12.656  65.621  1.00  0.00     0.116 C  
HETATM   25  C   UNL     1     -11.254  14.967  66.384  1.00  0.00    -0.331 A  
HETATM   26  C   UNL     1     -11.783  13.853  68.635  1.00  0.00    -0.396 A  
HETATM   27  C   UNL     1     -10.054  11.521  64.848  1.00  0.00    -0.268 C  
HETATM   28  O   UNL     1     -12.304  12.817  66.536  1.00  0.00    -0.476 OA 
HETATM   29  C   UNL     1     -11.694  15.025  65.044  1.00  0.00    -0.291 A  
HETATM   30  C   UNL     1     -10.903  13.891  69.733  1.00  0.00     0.115 A  
HETATM   31  H   UNL     1     -13.130  13.282  66.604  1.00  0.00     0.000 HD 
HETATM   32  C   UNL     1     -11.378  13.987  71.046  1.00  0.00     0.551 A  
HETATM   33  C   UNL     1     -11.594  16.195  64.289  1.00  0.00    -0.062 A  
HETATM   34  C   UNL     1     -12.744  14.077  71.292  1.00  0.00    -0.439 A  
HETATM   35  C   UNL     1     -11.070  17.348  64.863  1.00  0.00     0.577 A  
HETATM   36  C   UNL     1     -10.642  17.325  66.187  1.00  0.00    -0.204 A  
HETATM   37  C   UNL     1     -13.635  14.100  70.224  1.00  0.00     0.840 A  
HETATM   38  C   UNL     1     -10.723  16.144  66.937  1.00  0.00    -0.247 A  
HETATM   39  C   UNL     1     -13.160  14.004  68.912  1.00  0.00     2.000 A  
ENDBRANCH  18  19
ENDBRANCH  17  18
ENDBRANCH  16  17
ENDBRANCH  13  16
ENDBRANCH  10  13
ENDBRANCH   2   7
TORSDOF 6
ENDMDL
MODEL      266
REMARK 921   NORMALIZED FREE ENERGY PREDICTED BY IDOCK:   26.15 KCAL/MOL
REMARK 922        TOTAL FREE ENERGY PREDICTED BY IDOCK:   32.97 KCAL/MOL
REMARK 923 INTER-LIGAND FREE ENERGY PREDICTED BY IDOCK:   31.05 KCAL/MOL
REMARK 924 INTRA-LIGAND FREE ENERGY PREDICTED BY IDOCK:    1.93 KCAL/MOL
REMARK 927      BINDING AFFINITY PREDICTED BY RF-SCORE:    0.00 PKD
ROOT
HETATM    1  C   UNL     1      -7.046  12.288  72.712  1.00  0.00    10.101 C  
HETATM    2  C   UNL     1      -6.456  11.406  71.588  1.00  0.00     2.688 C  
HETATM    3  C   UNL     1      -6.118  10.030  72.198  1.00  0.00     0.635 C  
HETATM    4  O   UNL     1      -6.331   9.709  73.360  1.00  0.00    -0.033 OA 
HETATM    5  C   UNL     1      -5.131  12.024  71.103  1.00  0.00    -0.130 C  
HETATM    6  O   UNL     1      -5.544   9.156  71.333  1.00  0.00    -0.044 OA 
ENDROOT
BRANCH   2   7
HETATM    7  C   UNL     1      -7.484  11.351  70.448  1.00  0.00     1.924 A  
HETATM    8  C   UNL     1      -8.218  12.504  70.107  1.00  0.00     3.593 A  
HETATM    9  C   UNL     1      -9.264  12.450  69.188  1.00  0.00     0.630 A  
HETATM   10  C   UNL     1      -9.585  11.245  68.555  1.00  0.00    -0.199 A  
HETATM   11  C   UNL     1      -7.793  10.160  69.780  1.00  0.00    -0.175 A  
HETATM   12  C   UNL     1      -8.802  10.117  68.823  1.00  0.00    -0.146 A  
BRANCH  10  13
HETATM   13  C   UNL     1     -10.800  11.143  67.663  1.00  0.00    -0.247 C  
HETATM   14  O   UNL     1     -11.919  11.585  68.420  1.00  0.00    -0.511 OA 
HETATM   15  H   UNL     1     -12.683  11.520  67.859  1.00  0.00     0.000 HD 
BRANCH  13  16
HETATM   16  C   UNL     1     -10.578  11.947  66.367  1.00  0.00    -0.284 C  
BRANCH  16  17
HETATM   17  C   UNL     1      -9.958  13.333  66.565  1.00  0.00    -0.280 C  
BRANCH  17  18
HETATM   18  C   UNL     1      -8.434  13.338  66.746  1.00  0.00     0.028 C  
BRANCH  18  19
HETATM   19  N   UNL     1      -7.816  14.640  66.443  1.00  0.00     0.691 NA 
HETATM   20  C   UNL     1      -8.629  15.481  65.559  1.00  0.00     1.464 C  
HETATM   21  C   UNL     1      -9.855  16.107  66.233  1.00  0.00    -0.329 C  
HETATM   22  C   UNL     1      -9.539  16.898  67.530  1.00  0.00    -0.245 C  
HETATM   23  C   UNL     1      -8.992  18.366  67.272  1.00  0.00    -0.263 C  
HETATM   24  C   UNL     1      -8.646  15.981  68.404  1.00  0.00    -0.185 C  
HETATM   25  C   UNL     1      -8.604  19.048  68.602  1.00  0.00    -0.389 A  
HETATM   26  C   UNL     1      -9.954  19.251  66.429  1.00  0.00    -0.479 A  
HETATM   27  C   UNL     1      -7.450  15.380  67.660  1.00  0.00    -0.173 C  
HETATM   28  O   UNL     1      -7.783  18.233  66.503  1.00  0.00    -0.228 OA 
HETATM   29  C   UNL     1      -7.279  18.979  69.084  1.00  0.00    -0.305 A  
HETATM   30  C   UNL     1     -11.344  19.037  66.369  1.00  0.00     0.670 A  
HETATM   31  H   UNL     1      -7.456  19.112  66.348  1.00  0.00     0.000 HD 
HETATM   32  C   UNL     1     -12.163  19.792  65.521  1.00  0.00     4.879 A  
HETATM   33  C   UNL     1      -6.916  19.527  70.315  1.00  0.00     0.209 A  
HETATM   34  C   UNL     1     -11.616  20.801  64.735  1.00  0.00     2.526 A  
HETATM   35  C   UNL     1      -7.867  20.181  71.091  1.00  0.00     1.663 A  
HETATM   36  C   UNL     1      -9.178  20.278  70.636  1.00  0.00     1.635 A  
HETATM   37  C   UNL     1     -10.255  21.075  64.816  1.00  0.00     2.420 A  
HETATM   38  C   UNL     1      -9.546  19.708  69.409  1.00  0.00    -0.136 A  
HETATM   39  C   UNL     1      -9.437  20.320  65.663  1.00  0.00     0.071 A  
ENDBRANCH  18  19
ENDBRANCH  17  18
ENDBRANCH  16  17
ENDBRANCH  13  16
ENDBRANCH  10  13
ENDBRANCH   2   7
TORSDOF 6
ENDMDL
MODEL      267
REMARK 921   NORMALIZED FREE ENERGY PREDICTED BY IDOCK:   27.32 KCAL/MOL
REMARK 922        TOTAL FREE ENERGY PREDICTED BY IDOCK:   34.55 KCAL/MOL
REMARK 923 INTER-LIGAND FREE ENERGY PREDICTED BY IDOCK:   35.70 KCAL/MOL
REMARK 924 INTRA-LIGAND FREE ENERGY PREDICTED BY IDOCK:   -1.16 KCAL/MOL
REMARK 927      BINDING AFFINITY PREDICTED BY RF-SCORE:    0.00 PKD
ROOT
HETATM    1  C   UNL     1     -11.474  11.085  66.843  1.00  0.00     0.028 C  
HETATM    2  C   UNL     1     -11.452   9.574  67.173  1.00  0.00     1.308 C  
HETATM    3  C   UNL     1     -12.447   8.871  66.227  1.00  0.00    12.108 C  
HETATM    4  O   UNL     1     -13.093   9.431  65.350  1.00  0.00    15.006 OA 
HETATM    5  C   UNL     1     -11.968   9.363  68.610  1.00  0.00     1.609 C  
HETATM    6  O   UNL     1     -12.571   7.535  66.431  1.00  0.00     6.807 OA 
ENDROOT
BRANCH   2   7
HETATM    7  C   UNL     1     -10.003   9.087  67.035  1.00  0.00    -0.295 A  
HETATM    8  C   UNL     1      -9.438   8.266  68.029  1.00  0.00    -0.153 A  
HETATM    9  C   UNL     1      -8.084   7.935  68.014  1.00  0.00    -0.126 A  
HETATM   10  C   UNL     1      -7.260   8.390  66.979  1.00  0.00    -0.080 A  
HETATM   11  C   UNL     1      -9.174   9.504  65.986  1.00  0.00    -0.248 A  
HETATM   12  C   UNL     1      -7.834   9.131  65.941  1.00  0.00    -0.105 A  
BRANCH  10  13
HETATM   13  C   UNL     1      -5.768   8.155  67.022  1.00  0.00    -0.038 C  
HETATM   14  O   UNL     1      -5.186   8.948  65.997  1.00  0.00    -0.032 OA 
HETATM   15  H   UNL     1      -4.247   8.800  66.024  1.00  0.00     0.000 HD 
BRANCH  13  16
HETATM   16  C   UNL     1      -5.221   8.468  68.428  1.00  0.00    -0.034 C  
BRANCH  16  17
HETATM   17  C   UNL     1      -5.609   9.842  68.981  1.00  0.00    -0.035 C  
BRANCH  17  18
HETATM   18  C   UNL     1      -5.947   9.863  70.478  1.00  0.00    -0.078 C  
BRANCH  18  19
HETATM   19  N   UNL     1      -6.561  11.127  70.919  1.00  0.00     0.126 NA 
HETATM   20  C   UNL     1      -5.744  12.308  70.622  1.00  0.00    -0.135 C  
HETATM   21  C   UNL     1      -5.731  12.713  69.144  1.00  0.00    -0.076 C  
HETATM   22  C   UNL     1      -7.139  12.905  68.520  1.00  0.00    -0.102 C  
HETATM   23  C   UNL     1      -7.803  14.310  68.849  1.00  0.00    -0.097 C  
HETATM   24  C   UNL     1      -7.969  11.652  68.900  1.00  0.00    -0.026 C  
HETATM   25  C   UNL     1      -9.238  14.383  68.282  1.00  0.00    -0.201 A  
HETATM   26  C   UNL     1      -6.944  15.527  68.402  1.00  0.00    -0.115 A  
HETATM   27  C   UNL     1      -7.922  11.300  70.389  1.00  0.00     2.603 C  
HETATM   28  O   UNL     1      -7.915  14.395  70.280  1.00  0.00     0.107 OA 
HETATM   29  C   UNL     1     -10.345  14.027  69.084  1.00  0.00    -0.064 A  
HETATM   30  C   UNL     1      -6.002  15.463  67.357  1.00  0.00     0.032 A  
HETATM   31  H   UNL     1      -8.312  15.235  70.477  1.00  0.00     0.000 HD 
HETATM   32  C   UNL     1      -5.177  16.551  67.051  1.00  0.00    -0.064 A  
HETATM   33  C   UNL     1     -11.645  14.018  68.577  1.00  0.00    -0.357 A  
HETATM   34  C   UNL     1      -5.295  17.741  67.761  1.00  0.00    -0.137 A  
HETATM   35  C   UNL     1     -11.878  14.387  67.257  1.00  0.00    -0.434 A  
HETATM   36  C   UNL     1     -10.809  14.757  66.447  1.00  0.00    -0.322 A  
HETATM   37  C   UNL     1      -6.257  17.854  68.759  1.00  0.00    -0.205 A  
HETATM   38  C   UNL     1      -9.501  14.744  66.950  1.00  0.00    -0.253 A  
HETATM   39  C   UNL     1      -7.081  16.766  69.066  1.00  0.00    -0.221 A  
ENDBRANCH  18  19
ENDBRANCH  17  18
ENDBRANCH  16  17
ENDBRANCH  13  16
ENDBRANCH  10  13
ENDBRANCH   2   7
TORSDOF 6
ENDMDL
MODEL      268
REMARK 921   NORMALIZED FREE ENERGY PREDICTED BY IDOCK:   27.87 KCAL/MOL
REMARK 922        TOTAL FREE ENERGY PREDICTED BY IDOCK:   35.29 KCAL/MOL
REMARK 923 INTER-LIGAND FREE ENERGY PREDICTED BY IDOCK:   24.11 KCAL/MOL
REMARK 924 INTRA-LIGAND FREE ENERGY PREDICTED BY IDOCK:   11.18 KCAL/MOL
REMARK 927      BINDING AFFINITY PREDICTED BY RF-SCORE:    0.00 PKD
ROOT
HETATM    1  C   UNL     1     -12.203  19.347  67.380  1.00  0.00     3.070 C  
HETATM    2  C   UNL     1     -10.948  18.885  68.155  1.00  0.00     0.119 C  
HETATM    3  C   UNL     1     -11.252  19.011  69.662  1.00  0.00     3.296 C  
HETATM    4  O   UNL     1     -12.323  19.375  70.131  1.00  0.00    10.710 OA 
HETATM    5  C   UNL     1      -9.782  19.844  67.847  1.00  0.00    -0.510 C  
HETATM    6  O   UNL     1     -10.217  18.681  70.475  1.00  0.00     1.206 OA 
ENDROOT
BRANCH   2   7
HETATM    7  C   UNL     1     -10.616  17.457  67.699  1.00  0.00    -0.350 A  
HETATM    8  C   UNL     1      -9.283  17.005  67.712  1.00  0.00    -0.236 A  
HETATM    9  C   UNL     1      -8.929  15.775  67.160  1.00  0.00    -0.233 A  
HETATM   10  C   UNL     1      -9.909  14.942  66.609  1.00  0.00    -0.272 A  
HETATM   11  C   UNL     1     -11.591  16.597  67.177  1.00  0.00     0.766 A  
HETATM   12  C   UNL     1     -11.247  15.347  66.674  1.00  0.00    -0.175 A  
BRANCH  10  13
HETATM   13  C   UNL     1      -9.524  13.673  65.887  1.00  0.00    -0.032 C  
HETATM   14  O   UNL     1     -10.175  12.596  66.548  1.00  0.00    -0.236 OA 
HETATM   15  H   UNL     1      -9.932  11.797  66.095  1.00  0.00     0.000 HD 
BRANCH  13  16
HETATM   16  C   UNL     1      -9.880  13.781  64.392  1.00  0.00     0.622 C  
BRANCH  16  17
HETATM   17  C   UNL     1     -11.310  13.368  64.037  1.00  0.00    -0.356 C  
BRANCH  17  18
HETATM   18  C   UNL     1     -11.419  12.282  62.957  1.00  0.00     0.021 C  
BRANCH  18  19
HETATM   19  N   UNL     1     -10.378  11.246  63.065  1.00  0.00    -0.262 NA 
HETATM   20  C   UNL     1      -9.249  11.639  63.915  1.00  0.00     0.131 C  
HETATM   21  C   UNL     1      -9.555  11.631  65.417  1.00  0.00    -0.228 C  
HETATM   22  C   UNL     1     -10.141  10.295  65.944  1.00  0.00    -0.319 C  
HETATM   23  C   UNL     1      -9.049   9.173  66.211  1.00  0.00    -0.178 C  
HETATM   24  C   UNL     1     -11.298   9.907  64.988  1.00  0.00     3.474 C  
HETATM   25  C   UNL     1      -9.718   7.846  66.632  1.00  0.00    -0.305 A  
HETATM   26  C   UNL     1      -7.942   9.605  67.214  1.00  0.00    -0.106 A  
HETATM   27  C   UNL     1     -10.923   9.952  63.504  1.00  0.00     3.975 C  
HETATM   28  O   UNL     1      -8.387   8.927  64.957  1.00  0.00    -0.146 OA 
HETATM   29  C   UNL     1     -10.034   6.864  65.668  1.00  0.00     1.025 A  
HETATM   30  C   UNL     1      -8.137  10.593  68.198  1.00  0.00    -0.114 A  
HETATM   31  H   UNL     1      -7.734   8.256  65.116  1.00  0.00     0.000 HD 
HETATM   32  C   UNL     1      -7.087  11.025  69.017  1.00  0.00    -0.106 A  
HETATM   33  C   UNL     1     -10.700   5.686  66.011  1.00  0.00     0.092 A  
HETATM   34  C   UNL     1      -5.823  10.459  68.893  1.00  0.00    -0.040 A  
HETATM   35  C   UNL     1     -11.049   5.447  67.336  1.00  0.00     0.483 A  
HETATM   36  C   UNL     1     -10.737   6.390  68.311  1.00  0.00    -0.351 A  
HETATM   37  C   UNL     1      -5.614   9.440  67.969  1.00  0.00    -0.037 A  
HETATM   38  C   UNL     1     -10.088   7.583  67.962  1.00  0.00    -0.221 A  
HETATM   39  C   UNL     1      -6.663   9.008  67.151  1.00  0.00    -0.066 A  
ENDBRANCH  18  19
ENDBRANCH  17  18
ENDBRANCH  16  17
ENDBRANCH  13  16
ENDBRANCH  10  13
ENDBRANCH   2   7
TORSDOF 6
ENDMDL
MODEL      269
REMARK 921   NORMALIZED FREE ENERGY PREDICTED BY IDOCK:   28.26 KCAL/MOL
REMARK 922        TOTAL FREE ENERGY PREDICTED BY IDOCK:   35.82 KCAL/MOL
REMARK 923 INTER-LIGAND FREE ENERGY PREDICTED BY IDOCK:   33.21 KCAL/MOL
REMARK 924 INTRA-LIGAND FREE ENERGY PREDICTED BY IDOCK:    2.61 KCAL/MOL
REMARK 927      BINDING AFFINITY PREDICTED BY RF-SCORE:    0.00 PKD
ROOT
HETATM    1  C   UNL     1     -13.158  12.073  65.754  1.00  0.00     3.097 C  
HETATM    2  C   UNL     1     -12.114  13.195  65.545  1.00  0.00    -0.490 C  
HETATM    3  C   UNL     1     -12.880  14.501  65.252  1.00  0.00    -0.091 C  
HETATM    4  O   UNL     1     -14.100  14.608  65.236  1.00  0.00     0.902 OA 
HETATM    5  C   UNL     1     -11.270  12.874  64.297  1.00  0.00    -0.408 C  
HETATM    6  O   UNL     1     -12.088  15.574  64.999  1.00  0.00     0.054 OA 
ENDROOT
BRANCH   2   7
HETATM    7  C   UNL     1     -11.233  13.253  66.802  1.00  0.00    -0.331 A  
HETATM    8  C   UNL     1     -10.097  12.428  66.903  1.00  0.00    -0.230 A  
HETATM    9  C   UNL     1      -9.367  12.342  68.087  1.00  0.00    -0.205 A  
HETATM   10  C   UNL     1      -9.734  13.109  69.198  1.00  0.00     0.469 A  
HETATM   11  C   UNL     1     -11.566  14.042  67.909  1.00  0.00    -0.377 A  
HETATM   12  C   UNL     1     -10.807  13.997  69.074  1.00  0.00    -0.268 A  
BRANCH  10  13
HETATM   13  C   UNL     1      -9.038  12.924  70.526  1.00  0.00     6.605 C  
HETATM   14  O   UNL     1      -8.760  11.537  70.668  1.00  0.00     2.929 OA 
HETATM   15  H   UNL     1      -8.323  11.421  71.504  1.00  0.00     0.000 HD 
BRANCH  13  16
HETATM   16  C   UNL     1      -7.781  13.813  70.596  1.00  0.00     2.854 C  
BRANCH  16  17
HETATM   17  C   UNL     1      -6.775  13.601  69.461  1.00  0.00    -0.023 C  
BRANCH  17  18
HETATM   18  C   UNL     1      -7.323  13.875  68.054  1.00  0.00    -0.141 C  
BRANCH  18  19
HETATM   19  N   UNL     1      -7.107  15.260  67.604  1.00  0.00    -0.165 NA 
HETATM   20  C   UNL     1      -8.347  15.964  67.263  1.00  0.00    -0.186 C  
HETATM   21  C   UNL     1      -9.190  16.383  68.473  1.00  0.00    -0.226 C  
HETATM   22  C   UNL     1      -8.418  17.208  69.537  1.00  0.00     0.579 C  
HETATM   23  C   UNL     1      -8.266  18.746  69.173  1.00  0.00    -0.008 C  
HETATM   24  C   UNL     1      -7.102  16.442  69.826  1.00  0.00     0.148 C  
HETATM   25  C   UNL     1      -7.401  19.475  70.224  1.00  0.00     0.564 A  
HETATM   26  C   UNL     1      -9.623  19.470  68.940  1.00  0.00    -0.460 A  
HETATM   27  C   UNL     1      -6.322  16.044  68.570  1.00  0.00    -0.115 C  
HETATM   28  O   UNL     1      -7.551  18.813  67.926  1.00  0.00    -0.243 OA 
HETATM   29  C   UNL     1      -6.009  19.617  70.035  1.00  0.00    -0.323 A  
HETATM   30  C   UNL     1     -10.835  19.036  69.510  1.00  0.00     1.555 A  
HETATM   31  H   UNL     1      -7.460  19.733  67.708  1.00  0.00     0.000 HD 
HETATM   32  C   UNL     1     -12.051  19.655  69.197  1.00  0.00     6.754 A  
HETATM   33  C   UNL     1      -5.193  20.210  71.000  1.00  0.00    -0.296 A  
HETATM   34  C   UNL     1     -12.081  20.742  68.330  1.00  0.00     4.601 A  
HETATM   35  C   UNL     1      -5.753  20.699  72.175  1.00  0.00     0.239 A  
HETATM   36  C   UNL     1      -7.124  20.587  72.384  1.00  0.00     2.129 A  
HETATM   37  C   UNL     1     -10.893  21.229  67.797  1.00  0.00     2.410 A  
HETATM   38  C   UNL     1      -7.939  19.971  71.424  1.00  0.00     2.000 A  
HETATM   39  C   UNL     1      -9.678  20.611  68.109  1.00  0.00    -0.086 A  
ENDBRANCH  18  19
ENDBRANCH  17  18
ENDBRANCH  16  17
ENDBRANCH  13  16
ENDBRANCH  10  13
ENDBRANCH   2   7
TORSDOF 6
ENDMDL
MODEL      270
REMARK 921   NORMALIZED FREE ENERGY PREDICTED BY IDOCK:   30.86 KCAL/MOL
REMARK 922        TOTAL FREE ENERGY PREDICTED BY IDOCK:   39.34 KCAL/MOL
REMARK 923 INTER-LIGAND FREE ENERGY PREDICTED BY IDOCK:   30.24 KCAL/MOL
REMARK 924 INTRA-LIGAND FREE ENERGY PREDICTED BY IDOCK:    9.10 KCAL/MOL
REMARK 927      BINDING AFFINITY PREDICTED BY RF-SCORE:    0.00 PKD
ROOT
HETATM    1  C   UNL     1      -9.359  17.869  64.257  1.00  0.00     8.494 C  
HETATM    2  C   UNL     1      -8.373  18.550  65.236  1.00  0.00     1.700 C  
HETATM    3  C   UNL     1      -9.157  19.617  66.027  1.00  0.00    -0.244 C  
HETATM    4  O   UNL     1     -10.356  19.834  65.909  1.00  0.00    -0.486 OA 
HETATM    5  C   UNL     1      -7.289  19.289  64.428  1.00  0.00     2.348 C  
HETATM    6  O   UNL     1      -8.406  20.335  66.900  1.00  0.00    -0.313 OA 
ENDROOT
BRANCH   2   7
HETATM    7  C   UNL     1      -7.750  17.451  66.110  1.00  0.00    -0.311 A  
HETATM    8  C   UNL     1      -6.762  16.603  65.576  1.00  0.00     2.434 A  
HETATM    9  C   UNL     1      -6.290  15.502  66.289  1.00  0.00     2.863 A  
HETATM   10  C   UNL     1      -6.770  15.238  67.577  1.00  0.00    -0.197 A  
HETATM   11  C   UNL     1      -8.194  17.197  67.414  1.00  0.00    -0.197 A  
HETATM   12  C   UNL     1      -7.684  16.130  68.147  1.00  0.00    -0.143 A  
BRANCH  10  13
HETATM   13  C   UNL     1      -6.370  13.976  68.304  1.00  0.00    -0.114 C  
HETATM   14  O   UNL     1      -5.804  13.095  67.343  1.00  0.00    -0.303 OA 
HETATM   15  H   UNL     1      -5.553  12.301  67.800  1.00  0.00     0.000 HD 
BRANCH  13  16
HETATM   16  C   UNL     1      -5.416  14.312  69.467  1.00  0.00    -0.091 C  
BRANCH  16  17
HETATM   17  C   UNL     1      -6.089  14.929  70.697  1.00  0.00    -0.074 C  
BRANCH  17  18
HETATM   18  C   UNL     1      -5.689  14.296  72.036  1.00  0.00    -0.076 C  
BRANCH  18  19
HETATM   19  N   UNL     1      -5.545  12.831  71.969  1.00  0.00    -0.266 NA 
HETATM   20  C   UNL     1      -6.740  12.106  72.412  1.00  0.00     6.573 C  
HETATM   21  C   UNL     1      -7.905  12.138  71.415  1.00  0.00     9.855 C  
HETATM   22  C   UNL     1      -7.535  11.672  69.983  1.00  0.00     1.141 C  
HETATM   23  C   UNL     1      -7.494  10.094  69.808  1.00  0.00    -0.163 C  
HETATM   24  C   UNL     1      -6.246  12.437  69.584  1.00  0.00    -0.130 C  
HETATM   25  C   UNL     1      -7.019   9.712  68.389  1.00  0.00    -0.065 A  
HETATM   26  C   UNL     1      -8.830   9.390  70.179  1.00  0.00    -0.249 A  
HETATM   27  C   UNL     1      -5.134  12.373  70.634  1.00  0.00    -0.124 C  
HETATM   28  O   UNL     1      -6.505   9.598  70.727  1.00  0.00    -0.092 OA 
HETATM   29  C   UNL     1      -5.653   9.460  68.133  1.00  0.00    -0.037 A  
HETATM   30  C   UNL     1     -10.081  10.034  70.126  1.00  0.00    -0.266 A  
HETATM   31  H   UNL     1      -6.479   8.654  70.624  1.00  0.00     0.000 HD 
HETATM   32  C   UNL     1     -11.249   9.398  70.562  1.00  0.00    -0.329 A  
HETATM   33  C   UNL     1      -5.187   9.180  66.848  1.00  0.00    -0.039 A  
HETATM   34  C   UNL     1     -11.199   8.090  71.034  1.00  0.00    -0.287 A  
HETATM   35  C   UNL     1      -6.080   9.122  65.783  1.00  0.00    -0.055 A  
HETATM   36  C   UNL     1      -7.433   9.351  66.007  1.00  0.00    -0.096 A  
HETATM   37  C   UNL     1      -9.988   7.408  71.043  1.00  0.00    -0.183 A  
HETATM   38  C   UNL     1      -7.898   9.654  67.295  1.00  0.00    -0.095 A  
HETATM   39  C   UNL     1      -8.820   8.044  70.608  1.00  0.00    -0.143 A  
ENDBRANCH  18  19
ENDBRANCH  17  18
ENDBRANCH  16  17
ENDBRANCH  13  16
ENDBRANCH  10  13
ENDBRANCH   2   7
TORSDOF 6
ENDMDL
MODEL      271
REMARK 921   NORMALIZED FREE ENERGY PREDICTED BY IDOCK:   35.12 KCAL/MOL
REMARK 922        TOTAL FREE ENERGY PREDICTED BY IDOCK:   45.08 KCAL/MOL
REMARK 923 INTER-LIGAND FREE ENERGY PREDICTED BY IDOCK:   41.40 KCAL/MOL
REMARK 924 INTRA-LIGAND FREE ENERGY PREDICTED BY IDOCK:    3.68 KCAL/MOL
REMARK 927      BINDING AFFINITY PREDICTED BY RF-SCORE:    0.00 PKD
ROOT
HETATM    1  C   UNL     1      -8.212   5.603  64.892  1.00  0.00    -0.134 C  
HETATM    2  C   UNL     1      -9.720   5.922  65.017  1.00  0.00     0.920 C  
HETATM    3  C   UNL     1     -10.156   5.578  66.455  1.00  0.00    -0.204 C  
HETATM    4  O   UNL     1      -9.409   5.167  67.333  1.00  0.00    -0.114 OA 
HETATM    5  C   UNL     1     -10.512   5.000  64.070  1.00  0.00     1.249 C  
HETATM    6  O   UNL     1     -11.477   5.765  66.703  1.00  0.00     0.195 OA 
ENDROOT
BRANCH   2   7
HETATM    7  C   UNL     1      -9.918   7.397  64.636  1.00  0.00     3.916 A  
HETATM    8  C   UNL     1      -9.424   8.413  65.476  1.00  0.00     0.131 A  
HETATM    9  C   UNL     1      -9.721   9.755  65.242  1.00  0.00    -0.371 A  
HETATM   10  C   UNL     1     -10.494  10.122  64.136  1.00  0.00     0.757 A  
HETATM   11  C   UNL     1     -10.659   7.782  63.512  1.00  0.00    11.359 A  
HETATM   12  C   UNL     1     -10.912   9.125  63.248  1.00  0.00     8.484 A  
BRANCH  10  13
HETATM   13  C   UNL     1     -10.937  11.554  63.947  1.00  0.00    -0.401 C  
HETATM   14  O   UNL     1     -11.310  12.053  65.225  1.00  0.00    -0.325 OA 
HETATM   15  H   UNL     1     -11.589  12.954  65.106  1.00  0.00     0.000 HD 
BRANCH  13  16
HETATM   16  C   UNL     1      -9.821  12.371  63.270  1.00  0.00     0.267 C  
BRANCH  16  17
HETATM   17  C   UNL     1      -9.381  13.623  64.035  1.00  0.00     3.211 C  
BRANCH  17  18
HETATM   18  C   UNL     1      -8.294  13.384  65.092  1.00  0.00     3.996 C  
BRANCH  18  19
HETATM   19  N   UNL     1      -8.777  13.556  66.473  1.00  0.00     0.011 NA 
HETATM   20  C   UNL     1      -9.985  12.779  66.770  1.00  0.00    -0.237 C  
HETATM   21  C   UNL     1      -9.744  11.274  66.935  1.00  0.00    -0.215 C  
HETATM   22  C   UNL     1      -8.644  10.910  67.968  1.00  0.00    -0.131 C  
HETATM   23  C   UNL     1      -9.139  10.946  69.476  1.00  0.00     0.256 C  
HETATM   24  C   UNL     1      -7.411  11.788  67.633  1.00  0.00    -0.123 C  
HETATM   25  C   UNL     1      -7.966  10.676  70.444  1.00  0.00     1.145 A  
HETATM   26  C   UNL     1     -10.348  10.010  69.759  1.00  0.00    -0.290 A  
HETATM   27  C   UNL     1      -7.731  13.276  67.468  1.00  0.00    -0.171 C  
HETATM   28  O   UNL     1      -9.594  12.286  69.735  1.00  0.00     0.842 OA 
HETATM   29  C   UNL     1      -7.227  11.747  70.992  1.00  0.00     4.167 A  
HETATM   30  C   UNL     1     -10.632   8.864  68.991  1.00  0.00    -0.203 A  
HETATM   31  H   UNL     1      -9.890  12.309  70.638  1.00  0.00     0.000 HD 
HETATM   32  C   UNL     1     -11.785   8.103  69.215  1.00  0.00     1.077 A  
HETATM   33  C   UNL     1      -6.120  11.530  71.814  1.00  0.00     1.741 A  
HETATM   34  C   UNL     1     -12.668   8.451  70.231  1.00  0.00     1.048 A  
HETATM   35  C   UNL     1      -5.735  10.232  72.131  1.00  0.00     0.445 A  
HETATM   36  C   UNL     1      -6.453   9.156  71.618  1.00  0.00    -0.018 A  
HETATM   37  C   UNL     1     -12.385   9.544  71.044  1.00  0.00    -0.363 A  
HETATM   38  C   UNL     1      -7.551   9.375  70.774  1.00  0.00    -0.138 A  
HETATM   39  C   UNL     1     -11.233  10.305  70.820  1.00  0.00    -0.373 A  
ENDBRANCH  18  19
ENDBRANCH  17  18
ENDBRANCH  16  17
ENDBRANCH  13  16
ENDBRANCH  10  13
ENDBRANCH   2   7
TORSDOF 6
ENDMDL
MODEL      272
REMARK 921   NORMALIZED FREE ENERGY PREDICTED BY IDOCK:   35.54 KCAL/MOL
REMARK 922        TOTAL FREE ENERGY PREDICTED BY IDOCK:   45.65 KCAL/MOL
REMARK 923 INTER-LIGAND FREE ENERGY PREDICTED BY IDOCK:   43.01 KCAL/MOL
REMARK 924 INTRA-LIGAND FREE ENERGY PREDICTED BY IDOCK:    2.64 KCAL/MOL
REMARK 927      BINDING AFFINITY PREDICTED BY RF-SCORE:    0.00 PKD
ROOT
HETATM    1  C   UNL     1     -10.810   8.316  70.315  1.00  0.00    -0.241 C  
HETATM    2  C   UNL     1      -9.469   8.757  69.684  1.00  0.00    -0.170 C  
HETATM    3  C   UNL     1      -9.793   9.595  68.430  1.00  0.00    -0.153 C  
HETATM    4  O   UNL     1     -10.922   9.879  68.051  1.00  0.00    -0.257 OA 
HETATM    5  C   UNL     1      -8.699   7.510  69.209  1.00  0.00    -0.136 C  
HETATM    6  O   UNL     1      -8.704  10.018  67.738  1.00  0.00    -0.125 OA 
ENDROOT
BRANCH   2   7
HETATM    7  C   UNL     1      -8.675   9.515  70.757  1.00  0.00    -0.108 A  
HETATM    8  C   UNL     1      -9.298  10.528  71.511  1.00  0.00     5.073 A  
HETATM    9  C   UNL     1      -8.569  11.338  72.379  1.00  0.00    16.249 A  
HETATM   10  C   UNL     1      -7.195  11.134  72.546  1.00  0.00     8.345 A  
HETATM   11  C   UNL     1      -7.306   9.298  70.962  1.00  0.00    -0.091 A  
HETATM   12  C   UNL     1      -6.588  10.072  71.869  1.00  0.00     0.994 A  
BRANCH  10  13
HETATM   13  C   UNL     1      -6.370  12.088  73.377  1.00  0.00     4.656 C  
HETATM   14  O   UNL     1      -5.135  11.444  73.660  1.00  0.00    -0.335 OA 
HETATM   15  H   UNL     1      -4.616  12.044  74.183  1.00  0.00     0.000 HD 
BRANCH  13  16
HETATM   16  C   UNL     1      -6.208  13.432  72.641  1.00  0.00     1.890 C  
BRANCH  16  17
HETATM   17  C   UNL     1      -6.518  13.388  71.142  1.00  0.00     1.126 C  
BRANCH  17  18
HETATM   18  C   UNL     1      -7.553  14.417  70.667  1.00  0.00     1.544 C  
BRANCH  18  19
HETATM   19  N   UNL     1      -8.750  13.805  70.065  1.00  0.00     1.991 NA 
HETATM   20  C   UNL     1      -9.604  14.765  69.358  1.00  0.00    -0.003 C  
HETATM   21  C   UNL     1      -9.045  15.238  68.011  1.00  0.00    -0.176 C  
HETATM   22  C   UNL     1      -8.663  14.091  67.038  1.00  0.00    -0.220 C  
HETATM   23  C   UNL     1      -9.898  13.475  66.253  1.00  0.00    -0.299 C  
HETATM   24  C   UNL     1      -7.800  13.089  67.847  1.00  0.00    -0.149 C  
HETATM   25  C   UNL     1      -9.454  12.276  65.387  1.00  0.00     0.014 A  
HETATM   26  C   UNL     1     -10.696  14.521  65.424  1.00  0.00    -0.372 A  
HETATM   27  C   UNL     1      -8.415  12.674  69.186  1.00  0.00     0.655 C  
HETATM   28  O   UNL     1     -10.808  12.961  67.242  1.00  0.00    -0.249 OA 
HETATM   29  C   UNL     1      -9.523  10.960  65.893  1.00  0.00    -0.241 A  
HETATM   30  C   UNL     1     -10.130  15.717  64.943  1.00  0.00     0.179 A  
HETATM   31  H   UNL     1     -11.547  12.592  66.772  1.00  0.00     0.000 HD 
HETATM   32  C   UNL     1     -10.905  16.680  64.286  1.00  0.00     0.982 A  
HETATM   33  C   UNL     1      -9.064   9.865  65.158  1.00  0.00    -0.257 A  
HETATM   34  C   UNL     1     -12.261  16.457  64.067  1.00  0.00     1.359 A  
HETATM   35  C   UNL     1      -8.543  10.055  63.883  1.00  0.00    -0.196 A  
HETATM   36  C   UNL     1      -8.475  11.339  63.352  1.00  0.00     0.306 A  
HETATM   37  C   UNL     1     -12.836  15.260  64.480  1.00  0.00     0.571 A  
HETATM   38  C   UNL     1      -8.916  12.440  64.099  1.00  0.00     1.265 A  
HETATM   39  C   UNL     1     -12.061  14.298  65.136  1.00  0.00    -0.410 A  
ENDBRANCH  18  19
ENDBRANCH  17  18
ENDBRANCH  16  17
ENDBRANCH  13  16
ENDBRANCH  10  13
ENDBRANCH   2   7
TORSDOF 6
ENDMDL
MODEL      273
REMARK 921   NORMALIZED FREE ENERGY PREDICTED BY IDOCK:   38.89 KCAL/MOL
REMARK 922        TOTAL FREE ENERGY PREDICTED BY IDOCK:   50.18 KCAL/MOL
REMARK 923 INTER-LIGAND FREE ENERGY PREDICTED BY IDOCK:   33.61 KCAL/MOL
REMARK 924 INTRA-LIGAND FREE ENERGY PREDICTED BY IDOCK:   16.57 KCAL/MOL
REMARK 927      BINDING AFFINITY PREDICTED BY RF-SCORE:    0.00 PKD
ROOT
HETATM    1  C   UNL     1     -12.723  16.419  67.909  1.00  0.00     2.744 C  
HETATM    2  C   UNL     1     -12.354  15.530  66.699  1.00  0.00     1.202 C  
HETATM    3  C   UNL     1     -13.284  15.916  65.530  1.00  0.00     3.156 C  
HETATM    4  O   UNL     1     -14.126  16.803  65.571  1.00  0.00     7.401 OA 
HETATM    5  C   UNL     1     -12.649  14.058  67.045  1.00  0.00     0.075 C  
HETATM    6  O   UNL     1     -13.107  15.181  64.403  1.00  0.00    -0.182 OA 
ENDROOT
BRANCH   2   7
HETATM    7  C   UNL     1     -10.860  15.734  66.407  1.00  0.00    -0.226 A  
HETATM    8  C   UNL     1      -9.902  15.420  67.389  1.00  0.00    -0.216 A  
HETATM    9  C   UNL     1      -8.556  15.739  67.216  1.00  0.00    -0.209 A  
HETATM   10  C   UNL     1      -8.123  16.351  66.035  1.00  0.00     0.004 A  
HETATM   11  C   UNL     1     -10.407  16.314  65.215  1.00  0.00    -0.247 A  
HETATM   12  C   UNL     1      -9.056  16.583  65.019  1.00  0.00     2.248 A  
BRANCH  10  13
HETATM   13  C   UNL     1      -6.696  16.824  65.890  1.00  0.00     0.846 C  
HETATM   14  O   UNL     1      -6.740  18.195  65.520  1.00  0.00    -0.392 OA 
HETATM   15  H   UNL     1      -5.843  18.493  65.428  1.00  0.00     0.000 HD 
BRANCH  13  16
HETATM   16  C   UNL     1      -5.915  16.564  67.193  1.00  0.00    -0.186 C  
BRANCH  16  17
HETATM   17  C   UNL     1      -5.548  17.820  67.988  1.00  0.00    -0.145 C  
BRANCH  17  18
HETATM   18  C   UNL     1      -6.571  18.228  69.058  1.00  0.00    -0.256 C  
BRANCH  18  19
HETATM   19  N   UNL     1      -6.895  17.142  69.998  1.00  0.00     0.384 NA 
HETATM   20  C   UNL     1      -7.868  17.529  71.024  1.00  0.00     6.274 C  
HETATM   21  C   UNL     1      -9.309  17.654  70.514  1.00  0.00     3.540 C  
HETATM   22  C   UNL     1      -9.835  16.400  69.769  1.00  0.00     0.088 C  
HETATM   23  C   UNL     1     -10.329  15.237  70.731  1.00  0.00     0.246 C  
HETATM   24  C   UNL     1      -8.752  16.012  68.730  1.00  0.00    -0.223 C  
HETATM   25  C   UNL     1     -10.738  13.989  69.918  1.00  0.00     0.261 A  
HETATM   26  C   UNL     1     -11.448  15.676  71.717  1.00  0.00    -0.505 A  
HETATM   27  C   UNL     1      -7.337  15.921  69.308  1.00  0.00    -0.221 C  
HETATM   28  O   UNL     1      -9.201  14.857  71.540  1.00  0.00     2.060 OA 
HETATM   29  C   UNL     1      -9.807  12.958  69.669  1.00  0.00     1.491 A  
HETATM   30  C   UNL     1     -12.326  16.746  71.459  1.00  0.00     1.502 A  
HETATM   31  H   UNL     1      -9.496  14.161  72.116  1.00  0.00     0.000 HD 
HETATM   32  C   UNL     1     -13.255  17.174  72.414  1.00  0.00     4.487 A  
HETATM   33  C   UNL     1     -10.130  11.852  68.880  1.00  0.00    -0.060 A  
HETATM   34  C   UNL     1     -13.351  16.524  73.640  1.00  0.00     0.172 A  
HETATM   35  C   UNL     1     -11.404  11.736  68.336  1.00  0.00    -0.328 A  
HETATM   36  C   UNL     1     -12.348  12.730  68.577  1.00  0.00     0.245 A  
HETATM   37  C   UNL     1     -12.536  15.427  73.901  1.00  0.00    -0.750 A  
HETATM   38  C   UNL     1     -12.016  13.851  69.351  1.00  0.00    -0.402 A  
HETATM   39  C   UNL     1     -11.607  14.999  72.947  1.00  0.00    -0.266 A  
ENDBRANCH  18  19
ENDBRANCH  17  18
ENDBRANCH  16  17
ENDBRANCH  13  16
ENDBRANCH  10  13
ENDBRANCH   2   7
TORSDOF 6
ENDMDL
MODEL      274
REMARK 921   NORMALIZED FREE ENERGY PREDICTED BY IDOCK:   40.32 KCAL/MOL
REMARK 922        TOTAL FREE ENERGY PREDICTED BY IDOCK:   52.11 KCAL/MOL
REMARK 923 INTER-LIGAND FREE ENERGY PREDICTED BY IDOCK:   49.86 KCAL/MOL
REMARK 924 INTRA-LIGAND FREE ENERGY PREDICTED BY IDOCK:    2.25 KCAL/MOL
REMARK 927      BINDING AFFINITY PREDICTED BY RF-SCORE:    0.00 PKD
ROOT
HETATM    1  C   UNL     1     -11.000  10.716  66.320  1.00  0.00    -0.017 C  
HETATM    2  C   UNL     1     -11.299   9.251  66.715  1.00  0.00     1.372 C  
HETATM    3  C   UNL     1     -12.303   8.683  65.690  1.00  0.00    13.735 C  
HETATM    4  O   UNL     1     -12.735   9.294  64.722  1.00  0.00    13.217 OA 
HETATM    5  C   UNL     1     -11.995   9.229  68.090  1.00  0.00     2.668 C  
HETATM    6  O   UNL     1     -12.698   7.408  65.936  1.00  0.00     8.720 OA 
ENDROOT
BRANCH   2   7
HETATM    7  C   UNL     1      -9.961   8.499  66.767  1.00  0.00    -0.351 A  
HETATM    8  C   UNL     1      -9.701   7.597  67.816  1.00  0.00    -0.180 A  
HETATM    9  C   UNL     1      -8.443   7.018  67.979  1.00  0.00    -0.125 A  
HETATM   10  C   UNL     1      -7.416   7.299  67.072  1.00  0.00    -0.105 A  
HETATM   11  C   UNL     1      -8.935   8.742  65.846  1.00  0.00    -0.240 A  
HETATM   12  C   UNL     1      -7.695   8.124  65.977  1.00  0.00    -0.090 A  
BRANCH  10  13
HETATM   13  C   UNL     1      -6.015   6.789  67.313  1.00  0.00    -0.017 C  
HETATM   14  O   UNL     1      -5.176   7.375  66.326  1.00  0.00    -0.023 OA 
HETATM   15  H   UNL     1      -4.294   7.053  66.478  1.00  0.00     0.000 HD 
BRANCH  13  16
HETATM   16  C   UNL     1      -5.576   7.101  68.757  1.00  0.00    -0.018 C  
BRANCH  16  17
HETATM   17  C   UNL     1      -5.793   8.551  69.199  1.00  0.00    -0.039 C  
BRANCH  17  18
HETATM   18  C   UNL     1      -5.544   8.814  70.691  1.00  0.00    -0.027 C  
BRANCH  18  19
HETATM   19  N   UNL     1      -6.264   9.993  71.202  1.00  0.00    -0.294 NA 
HETATM   20  C   UNL     1      -6.113  11.182  70.356  1.00  0.00    -0.126 C  
HETATM   21  C   UNL     1      -6.914  11.134  69.050  1.00  0.00    -0.101 C  
HETATM   22  C   UNL     1      -8.425  10.837  69.235  1.00  0.00    -0.058 C  
HETATM   23  C   UNL     1      -9.284  12.103  69.658  1.00  0.00     1.818 C  
HETATM   24  C   UNL     1      -8.525   9.602  70.168  1.00  0.00    -0.231 C  
HETATM   25  C   UNL     1     -10.753  11.706  69.924  1.00  0.00     0.401 A  
HETATM   26  C   UNL     1      -9.179  13.291  68.660  1.00  0.00     0.017 A  
HETATM   27  C   UNL     1      -7.687   9.715  71.444  1.00  0.00     0.733 C  
HETATM   28  O   UNL     1      -8.747  12.575  70.907  1.00  0.00     6.846 OA 
HETATM   29  C   UNL     1     -11.182  11.373  71.227  1.00  0.00     2.107 A  
HETATM   30  C   UNL     1      -8.859  13.127  67.298  1.00  0.00    -0.208 A  
HETATM   31  H   UNL     1      -9.261  13.333  71.161  1.00  0.00     0.000 HD 
HETATM   32  C   UNL     1      -8.676  14.227  66.454  1.00  0.00     0.116 A  
HETATM   33  C   UNL     1     -12.485  10.944  71.483  1.00  0.00    -0.419 A  
HETATM   34  C   UNL     1      -8.839  15.520  66.942  1.00  0.00    -0.284 A  
HETATM   35  C   UNL     1     -13.404  10.858  70.444  1.00  0.00     0.367 A  
HETATM   36  C   UNL     1     -13.015  11.193  69.151  1.00  0.00     1.331 A  
HETATM   37  C   UNL     1      -9.212  15.712  68.268  1.00  0.00    -0.188 A  
HETATM   38  C   UNL     1     -11.699  11.602  68.890  1.00  0.00    -0.397 A  
HETATM   39  C   UNL     1      -9.394  14.612  69.112  1.00  0.00    -0.051 A  
ENDBRANCH  18  19
ENDBRANCH  17  18
ENDBRANCH  16  17
ENDBRANCH  13  16
ENDBRANCH  10  13
ENDBRANCH   2   7
TORSDOF 6
ENDMDL
MODEL      275
REMARK 921   NORMALIZED FREE ENERGY PREDICTED BY IDOCK:   41.25 KCAL/MOL
REMARK 922        TOTAL FREE ENERGY PREDICTED BY IDOCK:   53.36 KCAL/MOL
REMARK 923 INTER-LIGAND FREE ENERGY PREDICTED BY IDOCK:   24.06 KCAL/MOL
REMARK 924 INTRA-LIGAND FREE ENERGY PREDICTED BY IDOCK:   29.31 KCAL/MOL
REMARK 927      BINDING AFFINITY PREDICTED BY RF-SCORE:    0.00 PKD
ROOT
HETATM    1  C   UNL     1     -12.732  16.418  67.926  1.00  0.00     2.744 C  
HETATM    2  C   UNL     1     -12.521  15.562  66.655  1.00  0.00     1.461 C  
HETATM    3  C   UNL     1     -13.476  16.093  65.566  1.00  0.00     4.801 C  
HETATM    4  O   UNL     1     -14.225  17.052  65.700  1.00  0.00     9.271 OA 
HETATM    5  C   UNL     1     -12.936  14.108  66.951  1.00  0.00     1.074 C  
HETATM    6  O   UNL     1     -13.436  15.404  64.397  1.00  0.00     0.547 OA 
ENDROOT
BRANCH   2   7
HETATM    7  C   UNL     1     -11.034  15.642  66.280  1.00  0.00    -0.201 A  
HETATM    8  C   UNL     1     -10.060  15.112  67.148  1.00  0.00    -0.239 A  
HETATM    9  C   UNL     1      -8.700  15.306  66.914  1.00  0.00    -0.288 A  
HETATM   10  C   UNL     1      -8.272  16.006  65.781  1.00  0.00     0.837 A  
HETATM   11  C   UNL     1     -10.591  16.309  65.131  1.00  0.00    -0.327 A  
HETATM   12  C   UNL     1      -9.233  16.456  64.869  1.00  0.00     2.442 A  
BRANCH  10  13
HETATM   13  C   UNL     1      -6.812  16.340  65.588  1.00  0.00     3.127 C  
HETATM   14  O   UNL     1      -6.712  17.754  65.484  1.00  0.00    -0.313 OA 
HETATM   15  H   UNL     1      -5.793  17.964  65.362  1.00  0.00     0.000 HD 
BRANCH  13  16
HETATM   16  C   UNL     1      -5.974  15.747  66.736  1.00  0.00     0.781 C  
BRANCH  16  17
HETATM   17  C   UNL     1      -5.413  16.773  67.724  1.00  0.00    -0.139 C  
BRANCH  17  18
HETATM   18  C   UNL     1      -6.324  17.082  68.920  1.00  0.00    -0.183 C  
BRANCH  18  19
HETATM   19  N   UNL     1      -6.861  15.875  69.571  1.00  0.00    -0.196 NA 
HETATM   20  C   UNL     1      -8.245  15.573  69.192  1.00  0.00    -0.247 C  
HETATM   21  C   UNL     1      -8.404  15.004  67.778  1.00  0.00    -0.158 C  
HETATM   22  C   UNL     1      -7.520  13.763  67.484  1.00  0.00    -0.182 C  
HETATM   23  C   UNL     1      -8.112  12.401  68.046  1.00  0.00    -0.162 C  
HETATM   24  C   UNL     1      -6.083  14.122  67.941  1.00  0.00    -0.154 C  
HETATM   25  C   UNL     1      -7.129  11.235  67.805  1.00  0.00    -0.087 A  
HETATM   26  C   UNL     1      -9.537  12.074  67.515  1.00  0.00    -0.177 A  
HETATM   27  C   UNL     1      -6.003  14.699  69.357  1.00  0.00    -0.101 C  
HETATM   28  O   UNL     1      -8.236  12.556  69.471  1.00  0.00     0.243 OA 
HETATM   29  C   UNL     1      -6.192  10.870  68.797  1.00  0.00    -0.044 A  
HETATM   30  C   UNL     1     -10.034  12.564  66.292  1.00  0.00    -0.263 A  
HETATM   31  H   UNL     1      -8.591  11.741  69.808  1.00  0.00     0.000 HD 
HETATM   32  C   UNL     1     -11.356  12.329  65.895  1.00  0.00    -0.406 A  
HETATM   33  C   UNL     1      -5.247   9.866  68.579  1.00  0.00    -0.032 A  
HETATM   34  C   UNL     1     -12.204  11.573  66.698  1.00  0.00     1.259 A  
HETATM   35  C   UNL     1      -5.228   9.182  67.369  1.00  0.00    -0.037 A  
HETATM   36  C   UNL     1      -6.148   9.509  66.378  1.00  0.00    -0.060 A  
HETATM   37  C   UNL     1     -11.724  11.027  67.883  1.00  0.00    -0.216 A  
HETATM   38  C   UNL     1      -7.083  10.533  66.589  1.00  0.00    -0.118 A  
HETATM   39  C   UNL     1     -10.404  11.262  68.280  1.00  0.00    -0.200 A  
ENDBRANCH  18  19
ENDBRANCH  17  18
ENDBRANCH  16  17
ENDBRANCH  13  16
ENDBRANCH  10  13
ENDBRANCH   2   7
TORSDOF 6
ENDMDL
MODEL      276
REMARK 921   NORMALIZED FREE ENERGY PREDICTED BY IDOCK:   41.38 KCAL/MOL
REMARK 922        TOTAL FREE ENERGY PREDICTED BY IDOCK:   53.54 KCAL/MOL
REMARK 923 INTER-LIGAND FREE ENERGY PREDICTED BY IDOCK:   54.85 KCAL/MOL
REMARK 924 INTRA-LIGAND FREE ENERGY PREDICTED BY IDOCK:   -1.31 KCAL/MOL
REMARK 927      BINDING AFFINITY PREDICTED BY RF-SCORE:    0.00 PKD
ROOT
HETATM    1  C   UNL     1      -8.254   5.603  64.874  1.00  0.00    -0.134 C  
HETATM    2  C   UNL     1      -9.779   5.853  64.906  1.00  0.00     1.080 C  
HETATM    3  C   UNL     1     -10.262   5.631  66.353  1.00  0.00    -0.171 C  
HETATM    4  O   UNL     1      -9.536   5.349  67.297  1.00  0.00    -0.117 OA 
HETATM    5  C   UNL     1     -10.483   4.802  64.026  1.00  0.00     0.688 C  
HETATM    6  O   UNL     1     -11.601   5.771  66.529  1.00  0.00     0.426 OA 
ENDROOT
BRANCH   2   7
HETATM    7  C   UNL     1     -10.032   7.271  64.371  1.00  0.00     4.614 A  
HETATM    8  C   UNL     1      -9.650   8.390  65.135  1.00  0.00     0.760 A  
HETATM    9  C   UNL     1     -10.004   9.683  64.753  1.00  0.00     0.184 A  
HETATM   10  C   UNL     1     -10.721   9.897  63.571  1.00  0.00     2.856 A  
HETATM   11  C   UNL     1     -10.717   7.503  63.172  1.00  0.00    12.357 A  
HETATM   12  C   UNL     1     -11.024   8.796  62.762  1.00  0.00     9.854 A  
BRANCH  10  13
HETATM   13  C   UNL     1     -11.227  11.275  63.216  1.00  0.00     0.081 C  
HETATM   14  O   UNL     1     -11.773  11.843  64.399  1.00  0.00    -0.329 OA 
HETATM   15  H   UNL     1     -12.092  12.709  64.176  1.00  0.00     0.000 HD 
BRANCH  13  16
HETATM   16  C   UNL     1     -10.094  12.115  62.597  1.00  0.00     1.081 C  
BRANCH  16  17
HETATM   17  C   UNL     1      -9.646  13.315  63.437  1.00  0.00     3.276 C  
BRANCH  17  18
HETATM   18  C   UNL     1      -8.542  13.011  64.459  1.00  0.00     3.723 C  
BRANCH  18  19
HETATM   19  N   UNL     1      -9.057  12.746  65.813  1.00  0.00     0.204 NA 
HETATM   20  C   UNL     1      -8.002  12.529  66.807  1.00  0.00     0.086 C  
HETATM   21  C   UNL     1      -7.259  13.801  67.230  1.00  0.00     0.016 C  
HETATM   22  C   UNL     1      -8.182  14.949  67.718  1.00  0.00    -0.164 C  
HETATM   23  C   UNL     1      -8.667  14.791  69.222  1.00  0.00    -0.026 C  
HETATM   24  C   UNL     1      -9.298  15.106  66.654  1.00  0.00    -0.291 C  
HETATM   25  C   UNL     1      -9.660  15.912  69.598  1.00  0.00    -0.177 A  
HETATM   26  C   UNL     1      -7.501  14.685  70.246  1.00  0.00     0.503 A  
HETATM   27  C   UNL     1      -9.984  13.792  66.270  1.00  0.00    -0.305 C  
HETATM   28  O   UNL     1      -9.390  13.550  69.300  1.00  0.00    -0.195 OA 
HETATM   29  C   UNL     1     -11.051  15.715  69.461  1.00  0.00    -0.298 A  
HETATM   30  C   UNL     1      -6.218  15.217  70.011  1.00  0.00    -0.152 A  
HETATM   31  H   UNL     1      -9.680  13.455  70.200  1.00  0.00     0.000 HD 
HETATM   32  C   UNL     1      -5.168  15.015  70.914  1.00  0.00    -0.138 A  
HETATM   33  C   UNL     1     -11.967  16.734  69.728  1.00  0.00     1.256 A  
HETATM   34  C   UNL     1      -5.382  14.302  72.089  1.00  0.00    -0.200 A  
HETATM   35  C   UNL     1     -11.517  17.975  70.163  1.00  0.00     3.803 A  
HETATM   36  C   UNL     1     -10.152  18.195  70.322  1.00  0.00     1.507 A  
HETATM   37  C   UNL     1      -6.652  13.814  72.376  1.00  0.00     2.539 A  
HETATM   38  C   UNL     1      -9.231  17.178  70.032  1.00  0.00     1.630 A  
HETATM   39  C   UNL     1      -7.702  14.015  71.474  1.00  0.00     5.020 A  
ENDBRANCH  18  19
ENDBRANCH  17  18
ENDBRANCH  16  17
ENDBRANCH  13  16
ENDBRANCH  10  13
ENDBRANCH   2   7
TORSDOF 6
ENDMDL
MODEL      277
REMARK 921   NORMALIZED FREE ENERGY PREDICTED BY IDOCK:   41.76 KCAL/MOL
REMARK 922        TOTAL FREE ENERGY PREDICTED BY IDOCK:   54.05 KCAL/MOL
REMARK 923 INTER-LIGAND FREE ENERGY PREDICTED BY IDOCK:   53.00 KCAL/MOL
REMARK 924 INTRA-LIGAND FREE ENERGY PREDICTED BY IDOCK:    1.05 KCAL/MOL
REMARK 927      BINDING AFFINITY PREDICTED BY RF-SCORE:    0.00 PKD
ROOT
HETATM    1  C   UNL     1      -9.386   8.289  64.773  1.00  0.00     0.899 C  
HETATM    2  C   UNL     1     -10.198   8.724  66.015  1.00  0.00     0.138 C  
HETATM    3  C   UNL     1     -11.336   7.702  66.215  1.00  0.00     2.940 C  
HETATM    4  O   UNL     1     -11.513   6.709  65.522  1.00  0.00     3.528 OA 
HETATM    5  C   UNL     1     -10.857  10.088  65.736  1.00  0.00     0.408 C  
HETATM    6  O   UNL     1     -12.168   7.981  67.251  1.00  0.00     4.100 OA 
ENDROOT
BRANCH   2   7
HETATM    7  C   UNL     1      -9.225   8.819  67.200  1.00  0.00    -0.167 A  
HETATM    8  C   UNL     1      -9.253   7.844  68.214  1.00  0.00    -0.137 A  
HETATM    9  C   UNL     1      -8.495   7.984  69.375  1.00  0.00    -0.132 A  
HETATM   10  C   UNL     1      -7.657   9.092  69.540  1.00  0.00    -0.077 A  
HETATM   11  C   UNL     1      -8.353   9.904  67.362  1.00  0.00    -0.118 A  
HETATM   12  C   UNL     1      -7.557  10.018  68.497  1.00  0.00    -0.087 A  
BRANCH  10  13
HETATM   13  C   UNL     1      -6.937   9.325  70.847  1.00  0.00    -0.104 C  
HETATM   14  O   UNL     1      -6.713  10.724  70.963  1.00  0.00    -0.341 OA 
HETATM   15  H   UNL     1      -6.260  10.871  71.785  1.00  0.00     0.000 HD 
BRANCH  13  16
HETATM   16  C   UNL     1      -7.749   8.734  72.015  1.00  0.00    -0.025 C  
BRANCH  16  17
HETATM   17  C   UNL     1      -9.018   9.510  72.378  1.00  0.00     2.260 C  
BRANCH  17  18
HETATM   18  C   UNL     1      -9.721  10.187  71.193  1.00  0.00     1.476 C  
BRANCH  18  19
HETATM   19  N   UNL     1     -10.058  11.598  71.445  1.00  0.00     6.867 NA 
HETATM   20  C   UNL     1      -8.895  12.425  71.781  1.00  0.00    18.874 C  
HETATM   21  C   UNL     1      -7.984  12.750  70.592  1.00  0.00     5.626 C  
HETATM   22  C   UNL     1      -8.715  13.380  69.378  1.00  0.00     1.035 C  
HETATM   23  C   UNL     1      -8.990  14.937  69.529  1.00  0.00     0.027 C  
HETATM   24  C   UNL     1      -9.954  12.493  69.094  1.00  0.00     0.361 C  
HETATM   25  C   UNL     1      -9.810  15.467  68.332  1.00  0.00    -0.210 A  
HETATM   26  C   UNL     1      -7.704  15.778  69.765  1.00  0.00     0.073 A  
HETATM   27  C   UNL     1     -10.808  12.199  70.331  1.00  0.00     1.713 C  
HETATM   28  O   UNL     1      -9.806  15.106  70.701  1.00  0.00    -0.318 OA 
HETATM   29  C   UNL     1     -11.219  15.533  68.400  1.00  0.00    -0.341 A  
HETATM   30  C   UNL     1      -6.425  15.364  69.345  1.00  0.00    -0.148 A  
HETATM   31  H   UNL     1      -9.971  16.037  70.792  1.00  0.00     0.000 HD 
HETATM   32  C   UNL     1      -5.278  16.101  69.664  1.00  0.00    -0.119 A  
HETATM   33  C   UNL     1     -11.988  15.942  67.310  1.00  0.00     0.749 A  
HETATM   34  C   UNL     1      -5.385  17.287  70.383  1.00  0.00    -0.253 A  
HETATM   35  C   UNL     1     -11.366  16.321  66.125  1.00  0.00     0.452 A  
HETATM   36  C   UNL     1      -9.978  16.281  66.033  1.00  0.00    -0.370 A  
HETATM   37  C   UNL     1      -6.640  17.751  70.761  1.00  0.00     1.816 A  
HETATM   38  C   UNL     1      -9.208  15.848  67.121  1.00  0.00    -0.222 A  
HETATM   39  C   UNL     1      -7.786  17.014  70.444  1.00  0.00     2.829 A  
ENDBRANCH  18  19
ENDBRANCH  17  18
ENDBRANCH  16  17
ENDBRANCH  13  16
ENDBRANCH  10  13
ENDBRANCH   2   7
TORSDOF 6
ENDMDL
MODEL      278
REMARK 921   NORMALIZED FREE ENERGY PREDICTED BY IDOCK:   43.02 KCAL/MOL
REMARK 922        TOTAL FREE ENERGY PREDICTED BY IDOCK:   55.76 KCAL/MOL
REMARK 923 INTER-LIGAND FREE ENERGY PREDICTED BY IDOCK:   38.03 KCAL/MOL
REMARK 924 INTRA-LIGAND FREE ENERGY PREDICTED BY IDOCK:   17.73 KCAL/MOL
REMARK 927      BINDING AFFINITY PREDICTED BY RF-SCORE:    0.00 PKD
ROOT
HETATM    1  C   UNL     1     -10.509  17.921  65.317  1.00  0.00     0.366 C  
HETATM    2  C   UNL     1      -9.112  17.367  65.683  1.00  0.00     0.447 C  
HETATM    3  C   UNL     1      -8.078  18.477  65.402  1.00  0.00     1.080 C  
HETATM    4  O   UNL     1      -8.349  19.601  65.001  1.00  0.00     0.402 OA 
HETATM    5  C   UNL     1      -8.776  16.188  64.750  1.00  0.00     4.623 C  
HETATM    6  O   UNL     1      -6.789  18.118  65.634  1.00  0.00    -0.394 OA 
ENDROOT
BRANCH   2   7
HETATM    7  C   UNL     1      -9.160  16.910  67.148  1.00  0.00    -0.228 A  
HETATM    8  C   UNL     1      -9.579  17.805  68.151  1.00  0.00    -0.303 A  
HETATM    9  C   UNL     1      -9.486  17.474  69.502  1.00  0.00     0.412 A  
HETATM   10  C   UNL     1      -9.002  16.219  69.888  1.00  0.00     0.693 A  
HETATM   11  C   UNL     1      -8.712  15.645  67.548  1.00  0.00    -0.189 A  
HETATM   12  C   UNL     1      -8.669  15.294  68.893  1.00  0.00    -0.208 A  
BRANCH  10  13
HETATM   13  C   UNL     1      -8.768  15.900  71.346  1.00  0.00     5.275 C  
HETATM   14  O   UNL     1      -8.022  16.975  71.900  1.00  0.00     9.658 OA 
HETATM   15  H   UNL     1      -7.874  16.774  72.817  1.00  0.00     0.000 HD 
BRANCH  13  16
HETATM   16  C   UNL     1     -10.112  15.652  72.058  1.00  0.00     2.888 C  
BRANCH  16  17
HETATM   17  C   UNL     1     -10.588  14.197  72.052  1.00  0.00     3.994 C  
BRANCH  17  18
HETATM   18  C   UNL     1      -9.923  13.305  70.994  1.00  0.00     7.005 C  
BRANCH  18  19
HETATM   19  N   UNL     1     -10.864  12.806  69.977  1.00  0.00     0.661 NA 
HETATM   20  C   UNL     1     -11.457  13.869  69.159  1.00  0.00    -0.299 C  
HETATM   21  C   UNL     1     -10.504  14.478  68.124  1.00  0.00    -0.239 C  
HETATM   22  C   UNL     1      -9.828  13.442  67.189  1.00  0.00    -0.237 C  
HETATM   23  C   UNL     1     -10.747  12.961  65.987  1.00  0.00    -0.277 C  
HETATM   24  C   UNL     1      -9.257  12.325  68.100  1.00  0.00    -0.197 C  
HETATM   25  C   UNL     1     -10.044  11.858  65.166  1.00  0.00    -0.293 A  
HETATM   26  C   UNL     1     -11.250  14.122  65.082  1.00  0.00    -0.337 A  
HETATM   27  C   UNL     1     -10.261  11.776  69.118  1.00  0.00     0.076 C  
HETATM   28  O   UNL     1     -11.920  12.365  66.570  1.00  0.00    -0.564 OA 
HETATM   29  C   UNL     1     -10.262  10.495  65.461  1.00  0.00    -0.325 A  
HETATM   30  C   UNL     1     -10.568  15.348  64.952  1.00  0.00    -0.380 A  
HETATM   31  H   UNL     1     -12.470  12.077  65.851  1.00  0.00     0.000 HD 
HETATM   32  C   UNL     1     -11.103  16.405  64.207  1.00  0.00     0.257 A  
HETATM   33  C   UNL     1      -9.587   9.480  64.781  1.00  0.00    -0.093 A  
HETATM   34  C   UNL     1     -12.318  16.253  63.548  1.00  0.00     2.860 A  
HETATM   35  C   UNL     1      -8.691   9.800  63.768  1.00  0.00    -0.239 A  
HETATM   36  C   UNL     1      -8.467  11.135  63.444  1.00  0.00     0.200 A  
HETATM   37  C   UNL     1     -12.986  15.035  63.610  1.00  0.00     1.582 A  
HETATM   38  C   UNL     1      -9.128  12.155  64.143  1.00  0.00     0.673 A  
HETATM   39  C   UNL     1     -12.452  13.979  64.355  1.00  0.00    -0.326 A  
ENDBRANCH  18  19
ENDBRANCH  17  18
ENDBRANCH  16  17
ENDBRANCH  13  16
ENDBRANCH  10  13
ENDBRANCH   2   7
TORSDOF 6
ENDMDL
MODEL      279
REMARK 921   NORMALIZED FREE ENERGY PREDICTED BY IDOCK:   44.07 KCAL/MOL
REMARK 922        TOTAL FREE ENERGY PREDICTED BY IDOCK:   57.17 KCAL/MOL
REMARK 923 INTER-LIGAND FREE ENERGY PREDICTED BY IDOCK:   32.57 KCAL/MOL
REMARK 924 INTRA-LIGAND FREE ENERGY PREDICTED BY IDOCK:   24.60 KCAL/MOL
REMARK 927      BINDING AFFINITY PREDICTED BY RF-SCORE:    0.00 PKD
ROOT
HETATM    1  C   UNL     1      -7.791  12.829  64.672  1.00  0.00     6.103 C  
HETATM    2  C   UNL     1      -7.633  13.228  66.157  1.00  0.00     2.441 C  
HETATM    3  C   UNL     1      -7.106  14.677  66.202  1.00  0.00     3.956 C  
HETATM    4  O   UNL     1      -6.900  15.377  65.219  1.00  0.00     6.618 OA 
HETATM    5  C   UNL     1      -6.560  12.335  66.809  1.00  0.00     0.217 C  
HETATM    6  O   UNL     1      -6.873  15.153  67.451  1.00  0.00    -0.185 OA 
ENDROOT
BRANCH   2   7
HETATM    7  C   UNL     1      -8.995  13.034  66.840  1.00  0.00    -0.210 A  
HETATM    8  C   UNL     1      -9.388  13.893  67.884  1.00  0.00    -0.208 A  
HETATM    9  C   UNL     1     -10.542  13.650  68.627  1.00  0.00    -0.260 A  
HETATM   10  C   UNL     1     -11.359  12.556  68.322  1.00  0.00    -0.331 A  
HETATM   11  C   UNL     1      -9.841  11.964  66.522  1.00  0.00    -0.225 A  
HETATM   12  C   UNL     1     -11.021  11.751  67.228  1.00  0.00    -0.318 A  
BRANCH  10  13
HETATM   13  C   UNL     1     -12.535  12.203  69.202  1.00  0.00     0.378 C  
HETATM   14  O   UNL     1     -12.090  11.220  70.128  1.00  0.00    -0.316 OA 
HETATM   15  H   UNL     1     -12.830  10.998  70.681  1.00  0.00     0.000 HD 
BRANCH  13  16
HETATM   16  C   UNL     1     -13.096  13.471  69.874  1.00  0.00     0.780 C  
BRANCH  16  17
HETATM   17  C   UNL     1     -13.137  13.428  71.404  1.00  0.00    -0.373 C  
BRANCH  17  18
HETATM   18  C   UNL     1     -11.833  13.849  72.096  1.00  0.00     0.961 C  
BRANCH  18  19
HETATM   19  N   UNL     1     -10.722  14.077  71.158  1.00  0.00     1.922 NA 
HETATM   20  C   UNL     1     -11.107  13.933  69.750  1.00  0.00    -0.006 C  
HETATM   21  C   UNL     1     -11.942  15.096  69.201  1.00  0.00    -0.304 C  
HETATM   22  C   UNL     1     -11.305  16.496  69.408  1.00  0.00    -0.105 C  
HETATM   23  C   UNL     1     -10.187  16.859  68.342  1.00  0.00    -0.322 C  
HETATM   24  C   UNL     1     -10.880  16.575  70.897  1.00  0.00     0.345 C  
HETATM   25  C   UNL     1      -9.532  18.218  68.676  1.00  0.00    -0.343 A  
HETATM   26  C   UNL     1     -10.687  16.807  66.870  1.00  0.00    -0.139 A  
HETATM   27  C   UNL     1     -10.063  15.374  71.378  1.00  0.00     1.505 C  
HETATM   28  O   UNL     1      -9.158  15.860  68.457  1.00  0.00    -0.186 OA 
HETATM   29  C   UNL     1      -8.358  18.275  69.458  1.00  0.00     0.624 A  
HETATM   30  C   UNL     1     -12.036  16.983  66.508  1.00  0.00     3.106 A  
HETATM   31  H   UNL     1      -8.489  16.078  67.819  1.00  0.00     0.000 HD 
HETATM   32  C   UNL     1     -12.463  16.830  65.184  1.00  0.00     3.812 A  
HETATM   33  C   UNL     1      -7.784  19.491  69.833  1.00  0.00     0.420 A  
HETATM   34  C   UNL     1     -11.545  16.526  64.183  1.00  0.00     0.522 A  
HETATM   35  C   UNL     1      -8.357  20.687  69.415  1.00  0.00     1.520 A  
HETATM   36  C   UNL     1      -9.506  20.662  68.630  1.00  0.00     0.484 A  
HETATM   37  C   UNL     1     -10.197  16.404  64.501  1.00  0.00     1.460 A  
HETATM   38  C   UNL     1     -10.095  19.440  68.273  1.00  0.00    -0.531 A  
HETATM   39  C   UNL     1      -9.771  16.556  65.824  1.00  0.00    -0.237 A  
ENDBRANCH  18  19
ENDBRANCH  17  18
ENDBRANCH  16  17
ENDBRANCH  13  16
ENDBRANCH  10  13
ENDBRANCH   2   7
TORSDOF 6
ENDMDL
MODEL      280
REMARK 921   NORMALIZED FREE ENERGY PREDICTED BY IDOCK:   46.05 KCAL/MOL
REMARK 922        TOTAL FREE ENERGY PREDICTED BY IDOCK:   59.85 KCAL/MOL
REMARK 923 INTER-LIGAND FREE ENERGY PREDICTED BY IDOCK:   58.25 KCAL/MOL
REMARK 924 INTRA-LIGAND FREE ENERGY PREDICTED BY IDOCK:    1.60 KCAL/MOL
REMARK 927      BINDING AFFINITY PREDICTED BY RF-SCORE:    0.00 PKD
ROOT
HETATM    1  C   UNL     1      -7.555   9.720  68.874  1.00  0.00    -0.081 C  
HETATM    2  C   UNL     1      -7.204   9.006  67.549  1.00  0.00    -0.080 C  
HETATM    3  C   UNL     1      -6.497   7.681  67.901  1.00  0.00    -0.054 C  
HETATM    4  O   UNL     1      -6.302   7.274  69.039  1.00  0.00    -0.033 OA 
HETATM    5  C   UNL     1      -6.193   9.864  66.764  1.00  0.00    -0.064 C  
HETATM    6  O   UNL     1      -6.086   6.959  66.828  1.00  0.00    -0.034 OA 
ENDROOT
BRANCH   2   7
HETATM    7  C   UNL     1      -8.507   8.830  66.754  1.00  0.00    -0.113 A  
HETATM    8  C   UNL     1      -8.925   9.833  65.858  1.00  0.00    -0.189 A  
HETATM    9  C   UNL     1     -10.173   9.778  65.241  1.00  0.00     0.033 A  
HETATM   10  C   UNL     1     -11.028   8.696  65.476  1.00  0.00     4.108 A  
HETATM   11  C   UNL     1      -9.357   7.735  66.951  1.00  0.00    -0.212 A  
HETATM   12  C   UNL     1     -10.581   7.653  66.294  1.00  0.00     0.720 A  
BRANCH  10  13
HETATM   13  C   UNL     1     -12.434   8.691  64.923  1.00  0.00    18.439 C  
HETATM   14  O   UNL     1     -13.307   9.049  65.986  1.00  0.00    16.304 OA 
HETATM   15  H   UNL     1     -14.192   9.045  65.639  1.00  0.00     0.000 HD 
BRANCH  13  16
HETATM   16  C   UNL     1     -12.531   9.631  63.706  1.00  0.00    12.160 C  
BRANCH  16  17
HETATM   17  C   UNL     1     -11.409  10.667  63.599  1.00  0.00     1.456 C  
BRANCH  17  18
HETATM   18  C   UNL     1     -11.759  11.915  62.776  1.00  0.00     0.628 C  
BRANCH  18  19
HETATM   19  N   UNL     1     -12.595  12.881  63.510  1.00  0.00    -0.734 NA 
HETATM   20  C   UNL     1     -13.100  12.365  64.786  1.00  0.00     0.326 C  
HETATM   21  C   UNL     1     -12.046  12.282  65.896  1.00  0.00    -0.261 C  
HETATM   22  C   UNL     1     -11.282  13.607  66.155  1.00  0.00    -0.309 C  
HETATM   23  C   UNL     1     -12.078  14.644  67.056  1.00  0.00    -0.186 C  
HETATM   24  C   UNL     1     -10.810  14.126  64.773  1.00  0.00    -0.426 C  
HETATM   25  C   UNL     1     -11.300  15.972  67.181  1.00  0.00     0.103 A  
HETATM   26  C   UNL     1     -12.483  14.080  68.448  1.00  0.00     0.231 A  
HETATM   27  C   UNL     1     -11.912  14.168  63.711  1.00  0.00    -0.119 C  
HETATM   28  O   UNL     1     -13.305  14.943  66.367  1.00  0.00     0.800 OA 
HETATM   29  C   UNL     1     -11.550  17.037  66.289  1.00  0.00     1.529 A  
HETATM   30  C   UNL     1     -11.788  13.036  69.088  1.00  0.00    -0.360 A  
HETATM   31  H   UNL     1     -13.781  15.563  66.906  1.00  0.00     0.000 HD 
HETATM   32  C   UNL     1     -12.242  12.488  70.293  1.00  0.00    -0.345 A  
HETATM   33  C   UNL     1     -10.814  18.222  66.335  1.00  0.00    -0.014 A  
HETATM   34  C   UNL     1     -13.386  12.991  70.905  1.00  0.00     0.268 A  
HETATM   35  C   UNL     1      -9.820  18.384  67.294  1.00  0.00    -0.327 A  
HETATM   36  C   UNL     1      -9.560  17.358  68.197  1.00  0.00    -0.287 A  
HETATM   37  C   UNL     1     -14.060  14.061  70.326  1.00  0.00     2.139 A  
HETATM   38  C   UNL     1     -10.285  16.159  68.135  1.00  0.00    -0.247 A  
HETATM   39  C   UNL     1     -13.607  14.608  69.121  1.00  0.00     3.484 A  
ENDBRANCH  18  19
ENDBRANCH  17  18
ENDBRANCH  16  17
ENDBRANCH  13  16
ENDBRANCH  10  13
ENDBRANCH   2   7
TORSDOF 6
ENDMDL
MODEL      281
REMARK 921   NORMALIZED FREE ENERGY PREDICTED BY IDOCK:   52.05 KCAL/MOL
REMARK 922        TOTAL FREE ENERGY PREDICTED BY IDOCK:   67.95 KCAL/MOL
REMARK 923 INTER-LIGAND FREE ENERGY PREDICTED BY IDOCK:   63.64 KCAL/MOL
REMARK 924 INTRA-LIGAND FREE ENERGY PREDICTED BY IDOCK:    4.31 KCAL/MOL
REMARK 927      BINDING AFFINITY PREDICTED BY RF-SCORE:    0.00 PKD
ROOT
HETATM    1  C   UNL     1     -10.096  17.770  68.915  1.00  0.00    -0.350 C  
HETATM    2  C   UNL     1     -11.280  17.402  67.991  1.00  0.00     0.147 C  
HETATM    3  C   UNL     1     -10.844  17.675  66.537  1.00  0.00     0.055 C  
HETATM    4  O   UNL     1      -9.736  18.071  66.202  1.00  0.00    -0.452 OA 
HETATM    5  C   UNL     1     -12.466  18.339  68.292  1.00  0.00     5.661 C  
HETATM    6  O   UNL     1     -11.805  17.439  65.607  1.00  0.00     1.677 OA 
ENDROOT
BRANCH   2   7
HETATM    7  C   UNL     1     -11.654  15.939  68.271  1.00  0.00    -0.274 A  
HETATM    8  C   UNL     1     -10.726  14.913  68.009  1.00  0.00    -0.253 A  
HETATM    9  C   UNL     1     -11.085  13.570  68.103  1.00  0.00    -0.283 A  
HETATM   10  C   UNL     1     -12.379  13.213  68.499  1.00  0.00     0.134 A  
HETATM   11  C   UNL     1     -12.933  15.567  68.702  1.00  0.00     1.689 A  
HETATM   12  C   UNL     1     -13.277  14.227  68.848  1.00  0.00     2.458 A  
BRANCH  10  13
HETATM   13  C   UNL     1     -12.821  11.769  68.474  1.00  0.00     2.194 C  
HETATM   14  O   UNL     1     -14.240  11.760  68.544  1.00  0.00     8.879 OA 
HETATM   15  H   UNL     1     -14.519  10.851  68.529  1.00  0.00     0.000 HD 
BRANCH  13  16
HETATM   16  C   UNL     1     -12.263  11.063  67.222  1.00  0.00     1.607 C  
BRANCH  16  17
HETATM   17  C   UNL     1     -13.287  10.245  66.431  1.00  0.00    15.129 C  
BRANCH  17  18
HETATM   18  C   UNL     1     -13.100  10.275  64.908  1.00  0.00    10.561 C  
BRANCH  18  19
HETATM   19  N   UNL     1     -11.694  10.425  64.497  1.00  0.00     2.630 NA 
HETATM   20  C   UNL     1     -10.854  11.070  65.512  1.00  0.00    -0.088 C  
HETATM   21  C   UNL     1     -10.513  10.178  66.711  1.00  0.00    -0.270 C  
HETATM   22  C   UNL     1      -9.886   8.810  66.334  1.00  0.00    -0.352 C  
HETATM   23  C   UNL     1      -8.333   8.881  66.008  1.00  0.00    -0.124 C  
HETATM   24  C   UNL     1     -10.787   8.195  65.233  1.00  0.00     5.525 C  
HETATM   25  C   UNL     1      -7.808   7.505  65.543  1.00  0.00    -0.114 A  
HETATM   26  C   UNL     1      -7.477   9.463  67.169  1.00  0.00    -0.091 A  
HETATM   27  C   UNL     1     -11.097   9.148  64.076  1.00  0.00     8.787 C  
HETATM   28  O   UNL     1      -8.180   9.784  64.898  1.00  0.00    -0.127 OA 
HETATM   29  C   UNL     1      -7.760   7.183  64.169  1.00  0.00    -0.120 A  
HETATM   30  C   UNL     1      -7.874   9.412  68.519  1.00  0.00    -0.089 A  
HETATM   31  H   UNL     1      -7.251   9.826  64.702  1.00  0.00     0.000 HD 
HETATM   32  C   UNL     1      -7.124  10.035  69.524  1.00  0.00    -0.091 A  
HETATM   33  C   UNL     1      -7.354   5.923  63.725  1.00  0.00    -0.064 A  
HETATM   34  C   UNL     1      -5.944  10.699  69.207  1.00  0.00    -0.042 A  
HETATM   35  C   UNL     1      -6.962   4.956  64.644  1.00  0.00    -0.050 A  
HETATM   36  C   UNL     1      -6.985   5.250  66.004  1.00  0.00    -0.067 A  
HETATM   37  C   UNL     1      -5.497  10.717  67.891  1.00  0.00    -0.039 A  
HETATM   38  C   UNL     1      -7.413   6.508  66.450  1.00  0.00    -0.085 A  
HETATM   39  C   UNL     1      -6.246  10.095  66.886  1.00  0.00    -0.064 A  
ENDBRANCH  18  19
ENDBRANCH  17  18
ENDBRANCH  16  17
ENDBRANCH  13  16
ENDBRANCH  10  13
ENDBRANCH   2   7
TORSDOF 6
ENDMDL
MODEL      282
REMARK 921   NORMALIZED FREE ENERGY PREDICTED BY IDOCK:   52.91 KCAL/MOL
REMARK 922        TOTAL FREE ENERGY PREDICTED BY IDOCK:   69.11 KCAL/MOL
REMARK 923 INTER-LIGAND FREE ENERGY PREDICTED BY IDOCK:   32.84 KCAL/MOL
REMARK 924 INTRA-LIGAND FREE ENERGY PREDICTED BY IDOCK:   36.27 KCAL/MOL
REMARK 927      BINDING AFFINITY PREDICTED BY RF-SCORE:    0.00 PKD
ROOT
HETATM    1  C   UNL     1     -13.703  10.409  71.814  1.00  0.00    -0.110 C  
HETATM    2  C   UNL     1     -12.503  11.076  72.526  1.00  0.00     1.720 C  
HETATM    3  C   UNL     1     -11.429   9.992  72.754  1.00  0.00     3.508 C  
HETATM    4  O   UNL     1     -11.522   8.828  72.387  1.00  0.00    -0.350 OA 
HETATM    5  C   UNL     1     -12.950  11.570  73.915  1.00  0.00    11.393 C  
HETATM    6  O   UNL     1     -10.326  10.423  73.417  1.00  0.00     8.685 OA 
ENDROOT
BRANCH   2   7
HETATM    7  C   UNL     1     -12.035  12.249  71.653  1.00  0.00     1.186 A  
HETATM    8  C   UNL     1     -12.110  13.566  72.144  1.00  0.00     0.740 A  
HETATM    9  C   UNL     1     -11.842  14.661  71.325  1.00  0.00    -0.378 A  
HETATM   10  C   UNL     1     -11.454  14.468  69.995  1.00  0.00    -0.311 A  
HETATM   11  C   UNL     1     -11.610  12.069  70.330  1.00  0.00    -0.014 A  
HETATM   12  C   UNL     1     -11.291  13.160  69.527  1.00  0.00    -0.227 A  
BRANCH  10  13
HETATM   13  C   UNL     1     -11.294  15.644  69.061  1.00  0.00    -0.330 C  
HETATM   14  O   UNL     1     -10.130  16.352  69.467  1.00  0.00    -0.251 OA 
HETATM   15  H   UNL     1     -10.029  17.092  68.880  1.00  0.00     0.000 HD 
BRANCH  13  16
HETATM   16  C   UNL     1     -11.239  15.160  67.599  1.00  0.00    -0.329 C  
BRANCH  16  17
HETATM   17  C   UNL     1     -12.385  14.233  67.183  1.00  0.00    -0.169 C  
BRANCH  17  18
HETATM   18  C   UNL     1     -13.059  13.481  68.338  1.00  0.00     2.653 C  
BRANCH  18  19
HETATM   19  N   UNL     1     -12.257  12.357  68.850  1.00  0.00    -0.087 NA 
HETATM   20  C   UNL     1     -12.389  11.134  68.052  1.00  0.00     0.938 C  
HETATM   21  C   UNL     1     -11.657  11.175  66.706  1.00  0.00     0.175 C  
HETATM   22  C   UNL     1     -10.156  11.552  66.804  1.00  0.00    -0.245 C  
HETATM   23  C   UNL     1      -9.214  10.344  67.223  1.00  0.00    -0.142 C  
HETATM   24  C   UNL     1     -10.072  12.822  67.689  1.00  0.00    -0.220 C  
HETATM   25  C   UNL     1      -7.756  10.822  67.400  1.00  0.00    -0.107 A  
HETATM   26  C   UNL     1      -9.308   9.119  66.271  1.00  0.00    -0.274 A  
HETATM   27  C   UNL     1     -10.839  12.713  69.010  1.00  0.00    -0.146 C  
HETATM   28  O   UNL     1      -9.664   9.891  68.513  1.00  0.00    -0.149 OA 
HETATM   29  C   UNL     1      -7.280  11.220  68.668  1.00  0.00    -0.098 A  
HETATM   30  C   UNL     1      -9.703   9.220  64.922  1.00  0.00     0.215 A  
HETATM   31  H   UNL     1      -9.101   9.169  68.764  1.00  0.00     0.000 HD 
HETATM   32  C   UNL     1      -9.872   8.082  64.125  1.00  0.00     3.978 A  
HETATM   33  C   UNL     1      -5.989  11.721  68.843  1.00  0.00    -0.051 A  
HETATM   34  C   UNL     1      -9.620   6.817  64.645  1.00  0.00     2.191 A  
HETATM   35  C   UNL     1      -5.128  11.816  67.756  1.00  0.00    -0.057 A  
HETATM   36  C   UNL     1      -5.564  11.417  66.496  1.00  0.00    -0.142 A  
HETATM   37  C   UNL     1      -9.173   6.690  65.956  1.00  0.00    -0.068 A  
HETATM   38  C   UNL     1      -6.868  10.935  66.317  1.00  0.00    -0.123 A  
HETATM   39  C   UNL     1      -9.005   7.827  66.754  1.00  0.00    -0.163 A  
ENDBRANCH  18  19
ENDBRANCH  17  18
ENDBRANCH  16  17
ENDBRANCH  13  16
ENDBRANCH  10  13
ENDBRANCH   2   7
TORSDOF 6
ENDMDL
MODEL      283
REMARK 921   NORMALIZED FREE ENERGY PREDICTED BY IDOCK:   55.98 KCAL/MOL
REMARK 922        TOTAL FREE ENERGY PREDICTED BY IDOCK:   73.26 KCAL/MOL
REMARK 923 INTER-LIGAND FREE ENERGY PREDICTED BY IDOCK:   74.30 KCAL/MOL
REMARK 924 INTRA-LIGAND FREE ENERGY PREDICTED BY IDOCK:   -1.04 KCAL/MOL
REMARK 927      BINDING AFFINITY PREDICTED BY RF-SCORE:    0.00 PKD
ROOT
HETATM    1  C   UNL     1     -10.828   8.337  70.330  1.00  0.00    -0.241 C  
HETATM    2  C   UNL     1      -9.497   8.968  69.859  1.00  0.00    -0.186 C  
HETATM    3  C   UNL     1      -9.809   9.883  68.658  1.00  0.00    -0.158 C  
HETATM    4  O   UNL     1     -10.929  10.087  68.207  1.00  0.00    -0.248 OA 
HETATM    5  C   UNL     1      -8.562   7.854  69.350  1.00  0.00    -0.137 C  
HETATM    6  O   UNL     1      -8.722  10.476  68.103  1.00  0.00    -0.125 OA 
ENDROOT
BRANCH   2   7
HETATM    7  C   UNL     1      -8.876   9.697  71.060  1.00  0.00     0.315 A  
HETATM    8  C   UNL     1      -9.677  10.519  71.875  1.00  0.00     6.295 A  
HETATM    9  C   UNL     1      -9.117  11.315  72.873  1.00  0.00    19.372 A  
HETATM   10  C   UNL     1      -7.739  11.284  73.109  1.00  0.00    14.737 A  
HETATM   11  C   UNL     1      -7.503   9.648  71.331  1.00  0.00     0.544 A  
HETATM   12  C   UNL     1      -6.951  10.402  72.362  1.00  0.00     3.506 A  
BRANCH  10  13
HETATM   13  C   UNL     1      -7.104  12.239  74.092  1.00  0.00     7.326 C  
HETATM   14  O   UNL     1      -5.780  11.780  74.332  1.00  0.00     0.207 OA 
HETATM   15  H   UNL     1      -5.381  12.381  74.951  1.00  0.00     0.000 HD 
BRANCH  13  16
HETATM   16  C   UNL     1      -7.166  13.680  73.549  1.00  0.00     5.507 C  
BRANCH  16  17
HETATM   17  C   UNL     1      -7.482  13.795  72.056  1.00  0.00     6.137 C  
BRANCH  17  18
HETATM   18  C   UNL     1      -7.178  15.166  71.436  1.00  0.00     2.214 C  
BRANCH  18  19
HETATM   19  N   UNL     1      -8.361  15.812  70.842  1.00  0.00     2.605 NA 
HETATM   20  C   UNL     1      -8.039  16.994  70.036  1.00  0.00     1.789 C  
HETATM   21  C   UNL     1      -7.404  16.679  68.677  1.00  0.00    -0.203 C  
HETATM   22  C   UNL     1      -8.213  15.682  67.807  1.00  0.00    -0.155 C  
HETATM   23  C   UNL     1      -9.429  16.346  67.029  1.00  0.00    -0.230 C  
HETATM   24  C   UNL     1      -8.562  14.477  68.717  1.00  0.00    -0.145 C  
HETATM   25  C   UNL     1     -10.244  15.275  66.272  1.00  0.00    -0.300 A  
HETATM   26  C   UNL     1      -9.009  17.518  66.097  1.00  0.00    -0.156 A  
HETATM   27  C   UNL     1      -9.178  14.869  70.062  1.00  0.00     0.475 C  
HETATM   28  O   UNL     1     -10.303  16.910  68.023  1.00  0.00    -0.302 OA 
HETATM   29  C   UNL     1     -11.369  14.671  66.874  1.00  0.00    -0.361 A  
HETATM   30  C   UNL     1      -7.719  17.640  65.547  1.00  0.00     0.639 A  
HETATM   31  H   UNL     1     -11.030  17.307  67.559  1.00  0.00     0.000 HD 
HETATM   32  C   UNL     1      -7.350  18.761  64.794  1.00  0.00     1.787 A  
HETATM   33  C   UNL     1     -12.083  13.653  66.239  1.00  0.00    -0.477 A  
HETATM   34  C   UNL     1      -8.271  19.773  64.547  1.00  0.00     3.053 A  
HETATM   35  C   UNL     1     -11.704  13.225  64.972  1.00  0.00    -0.362 A  
HETATM   36  C   UNL     1     -10.608  13.812  64.347  1.00  0.00    -0.316 A  
HETATM   37  C   UNL     1      -9.570  19.653  65.029  1.00  0.00     1.894 A  
HETATM   38  C   UNL     1      -9.878  14.819  64.994  1.00  0.00    -0.071 A  
HETATM   39  C   UNL     1      -9.939  18.534  65.782  1.00  0.00     0.071 A  
ENDBRANCH  18  19
ENDBRANCH  17  18
ENDBRANCH  16  17
ENDBRANCH  13  16
ENDBRANCH  10  13
ENDBRANCH   2   7
TORSDOF 6
ENDMDL
MODEL      284
REMARK 921   NORMALIZED FREE ENERGY PREDICTED BY IDOCK:   60.40 KCAL/MOL
REMARK 922        TOTAL FREE ENERGY PREDICTED BY IDOCK:   79.23 KCAL/MOL
REMARK 923 INTER-LIGAND FREE ENERGY PREDICTED BY IDOCK:   71.27 KCAL/MOL
REMARK 924 INTRA-LIGAND FREE ENERGY PREDICTED BY IDOCK:    7.96 KCAL/MOL
REMARK 927      BINDING AFFINITY PREDICTED BY RF-SCORE:    0.00 PKD
ROOT
HETATM    1  C   UNL     1     -13.121   8.857  63.535  1.00  0.00    19.526 C  
HETATM    2  C   UNL     1     -11.619   9.213  63.444  1.00  0.00    12.950 C  
HETATM    3  C   UNL     1     -11.503  10.604  62.789  1.00  0.00     2.256 C  
HETATM    4  O   UNL     1     -12.453  11.299  62.451  1.00  0.00     0.911 OA 
HETATM    5  C   UNL     1     -10.917   8.211  62.507  1.00  0.00    11.157 C  
HETATM    6  O   UNL     1     -10.230  11.035  62.600  1.00  0.00    -0.095 OA 
ENDROOT
BRANCH   2   7
HETATM    7  C   UNL     1     -11.034   9.136  64.863  1.00  0.00     5.189 A  
HETATM    8  C   UNL     1     -11.141   7.944  65.604  1.00  0.00     4.920 A  
HETATM    9  C   UNL     1     -10.762   7.889  66.945  1.00  0.00    -0.219 A  
HETATM   10  C   UNL     1     -10.231   9.020  67.574  1.00  0.00    -0.302 A  
HETATM   11  C   UNL     1     -10.466  10.250  65.495  1.00  0.00    -0.139 A  
HETATM   12  C   UNL     1     -10.039  10.180  66.817  1.00  0.00    -0.277 A  
BRANCH  10  13
HETATM   13  C   UNL     1      -9.945   9.013  69.057  1.00  0.00    -0.185 C  
HETATM   14  O   UNL     1      -9.827  10.367  69.471  1.00  0.00    -0.260 OA 
HETATM   15  H   UNL     1      -9.647  10.363  70.404  1.00  0.00     0.000 HD 
BRANCH  13  16
HETATM   16  C   UNL     1     -11.043   8.234  69.807  1.00  0.00    -0.056 C  
BRANCH  16  17
HETATM   17  C   UNL     1     -12.315   9.033  70.103  1.00  0.00     0.624 C  
BRANCH  17  18
HETATM   18  C   UNL     1     -12.472  10.322  69.285  1.00  0.00     0.602 C  
BRANCH  18  19
HETATM   19  N   UNL     1     -12.230  11.544  70.071  1.00  0.00    -0.294 NA 
HETATM   20  C   UNL     1     -11.031  11.470  70.911  1.00  0.00     2.115 C  
HETATM   21  C   UNL     1      -9.710  11.582  70.141  1.00  0.00     2.240 C  
HETATM   22  C   UNL     1      -9.606  12.830  69.226  1.00  0.00     0.788 C  
HETATM   23  C   UNL     1      -9.215  14.163  69.995  1.00  0.00     1.635 C  
HETATM   24  C   UNL     1     -10.913  12.882  68.394  1.00  0.00    -0.285 C  
HETATM   25  C   UNL     1      -9.234  15.375  69.037  1.00  0.00    -0.235 A  
HETATM   26  C   UNL     1      -7.871  14.063  70.773  1.00  0.00     2.973 A  
HETATM   27  C   UNL     1     -12.190  12.749  69.228  1.00  0.00    -0.054 C  
HETATM   28  O   UNL     1     -10.237  14.394  70.980  1.00  0.00     0.791 OA 
HETATM   29  C   UNL     1     -10.395  16.167  68.906  1.00  0.00    -0.250 A  
HETATM   30  C   UNL     1      -6.842  13.169  70.420  1.00  0.00     0.984 A  
HETATM   31  H   UNL     1     -10.003  15.191  71.441  1.00  0.00     0.000 HD 
HETATM   32  C   UNL     1      -5.689  13.038  71.203  1.00  0.00    -0.027 A  
HETATM   33  C   UNL     1     -10.462  17.225  67.998  1.00  0.00    -0.375 A  
HETATM   34  C   UNL     1      -5.523  13.820  72.342  1.00  0.00    -0.126 A  
HETATM   35  C   UNL     1      -9.359  17.535  67.210  1.00  0.00    -0.244 A  
HETATM   36  C   UNL     1      -8.195  16.781  67.329  1.00  0.00    -0.198 A  
HETATM   37  C   UNL     1      -6.496  14.754  72.682  1.00  0.00     1.456 A  
HETATM   38  C   UNL     1      -8.136  15.705  68.225  1.00  0.00    -0.134 A  
HETATM   39  C   UNL     1      -7.648  14.884  71.900  1.00  0.00     3.907 A  
ENDBRANCH  18  19
ENDBRANCH  17  18
ENDBRANCH  16  17
ENDBRANCH  13  16
ENDBRANCH  10  13
ENDBRANCH   2   7
TORSDOF 6
ENDMDL
MODEL      285
REMARK 921   NORMALIZED FREE ENERGY PREDICTED BY IDOCK:   61.55 KCAL/MOL
REMARK 922        TOTAL FREE ENERGY PREDICTED BY IDOCK:   80.78 KCAL/MOL
REMARK 923 INTER-LIGAND FREE ENERGY PREDICTED BY IDOCK:   64.90 KCAL/MOL
REMARK 924 INTRA-LIGAND FREE ENERGY PREDICTED BY IDOCK:   15.88 KCAL/MOL
REMARK 927      BINDING AFFINITY PREDICTED BY RF-SCORE:    0.00 PKD
ROOT
HETATM    1  C   UNL     1     -11.969   4.188  70.470  1.00  0.00     8.708 C  
HETATM    2  C   UNL     1     -10.465   3.834  70.419  1.00  0.00     1.099 C  
HETATM    3  C   UNL     1     -10.086   3.603  68.942  1.00  0.00     0.599 C  
HETATM    4  O   UNL     1     -10.852   3.727  67.996  1.00  0.00     2.077 OA 
HETATM    5  C   UNL     1     -10.233   2.503  71.160  1.00  0.00     0.417 C  
HETATM    6  O   UNL     1      -8.794   3.236  68.742  1.00  0.00    -0.093 OA 
ENDROOT
BRANCH   2   7
HETATM    7  C   UNL     1      -9.693   4.978  71.093  1.00  0.00    -0.241 A  
HETATM    8  C   UNL     1      -8.343   4.800  71.453  1.00  0.00    -0.108 A  
HETATM    9  C   UNL     1      -7.661   5.756  72.203  1.00  0.00    -0.102 A  
HETATM   10  C   UNL     1      -8.303   6.939  72.587  1.00  0.00    -0.117 A  
HETATM   11  C   UNL     1     -10.311   6.182  71.453  1.00  0.00    -0.260 A  
HETATM   12  C   UNL     1      -9.615   7.161  72.156  1.00  0.00    -0.160 A  
BRANCH  10  13
HETATM   13  C   UNL     1      -7.622   7.919  73.513  1.00  0.00    -0.147 C  
HETATM   14  O   UNL     1      -6.573   7.220  74.171  1.00  0.00    -0.077 OA 
HETATM   15  H   UNL     1      -6.145   7.836  74.754  1.00  0.00     0.000 HD 
BRANCH  13  16
HETATM   16  C   UNL     1      -7.139   9.150  72.723  1.00  0.00     0.538 C  
BRANCH  16  17
HETATM   17  C   UNL     1      -8.029  10.389  72.849  1.00  0.00     8.022 C  
BRANCH  17  18
HETATM   18  C   UNL     1      -9.337  10.328  72.049  1.00  0.00     5.777 C  
BRANCH  18  19
HETATM   19  N   UNL     1      -9.664   8.975  71.568  1.00  0.00    -0.306 NA 
HETATM   20  C   UNL     1     -10.796   8.943  70.637  1.00  0.00    -0.239 C  
HETATM   21  C   UNL     1     -10.477   9.473  69.235  1.00  0.00    -0.226 C  
HETATM   22  C   UNL     1      -9.251   8.802  68.560  1.00  0.00    -0.141 C  
HETATM   23  C   UNL     1      -9.569   7.393  67.901  1.00  0.00    -0.141 C  
HETATM   24  C   UNL     1      -8.102   8.826  69.600  1.00  0.00    -0.101 C  
HETATM   25  C   UNL     1      -8.282   6.745  67.345  1.00  0.00    -0.122 A  
HETATM   26  C   UNL     1     -10.698   7.443  66.833  1.00  0.00    -0.324 A  
HETATM   27  C   UNL     1      -8.499   8.296  70.981  1.00  0.00    -0.133 C  
HETATM   28  O   UNL     1     -10.045   6.537  68.955  1.00  0.00    -0.153 OA 
HETATM   29  C   UNL     1      -7.529   5.852  68.136  1.00  0.00    -0.081 A  
HETATM   30  C   UNL     1     -11.022   8.606  66.108  1.00  0.00     1.776 A  
HETATM   31  H   UNL     1     -10.235   5.693  68.561  1.00  0.00     0.000 HD 
HETATM   32  C   UNL     1     -12.109   8.639  65.228  1.00  0.00    13.311 A  
HETATM   33  C   UNL     1      -6.326   5.306  67.683  1.00  0.00    -0.040 A  
HETATM   34  C   UNL     1     -12.882   7.500  65.027  1.00  0.00    18.271 A  
HETATM   35  C   UNL     1      -5.854   5.622  66.414  1.00  0.00    -0.018 A  
HETATM   36  C   UNL     1      -6.583   6.489  65.606  1.00  0.00    -0.043 A  
HETATM   37  C   UNL     1     -12.552   6.320  65.685  1.00  0.00     7.073 A  
HETATM   38  C   UNL     1      -7.779   7.054  66.069  1.00  0.00    -0.099 A  
HETATM   39  C   UNL     1     -11.465   6.288  66.565  1.00  0.00     0.702 A  
ENDBRANCH  18  19
ENDBRANCH  17  18
ENDBRANCH  16  17
ENDBRANCH  13  16
ENDBRANCH  10  13
ENDBRANCH   2   7
TORSDOF 6
ENDMDL
MODEL      286
REMARK 921   NORMALIZED FREE ENERGY PREDICTED BY IDOCK:   63.07 KCAL/MOL
REMARK 922        TOTAL FREE ENERGY PREDICTED BY IDOCK:   82.83 KCAL/MOL
REMARK 923 INTER-LIGAND FREE ENERGY PREDICTED BY IDOCK:   76.64 KCAL/MOL
REMARK 924 INTRA-LIGAND FREE ENERGY PREDICTED BY IDOCK:    6.19 KCAL/MOL
REMARK 927      BINDING AFFINITY PREDICTED BY RF-SCORE:    0.00 PKD
ROOT
HETATM    1  C   UNL     1      -7.182  13.414  73.076  1.00  0.00     6.959 C  
HETATM    2  C   UNL     1      -7.306  12.124  72.232  1.00  0.00    11.039 C  
HETATM    3  C   UNL     1      -6.981  10.928  73.150  1.00  0.00     6.548 C  
HETATM    4  O   UNL     1      -6.717  11.012  74.342  1.00  0.00     2.114 OA 
HETATM    5  C   UNL     1      -6.242  12.144  71.118  1.00  0.00     1.208 C  
HETATM    6  O   UNL     1      -7.006   9.720  72.531  1.00  0.00     0.546 OA 
ENDROOT
BRANCH   2   7
HETATM    7  C   UNL     1      -8.721  12.091  71.636  1.00  0.00    15.822 A  
HETATM    8  C   UNL     1      -9.167  13.151  70.822  1.00  0.00     7.824 A  
HETATM    9  C   UNL     1     -10.491  13.228  70.395  1.00  0.00     2.421 A  
HETATM   10  C   UNL     1     -11.403  12.225  70.741  1.00  0.00     1.308 A  
HETATM   11  C   UNL     1      -9.635  11.076  71.943  1.00  0.00    10.260 A  
HETATM   12  C   UNL     1     -10.944  11.125  71.473  1.00  0.00     3.268 A  
BRANCH  10  13
HETATM   13  C   UNL     1     -12.868  12.366  70.401  1.00  0.00     0.255 C  
HETATM   14  O   UNL     1     -13.324  13.577  70.988  1.00  0.00    -0.151 OA 
HETATM   15  H   UNL     1     -14.246  13.666  70.775  1.00  0.00     0.000 HD 
BRANCH  13  16
HETATM   16  C   UNL     1     -13.068  12.309  68.875  1.00  0.00     2.690 C  
BRANCH  16  17
HETATM   17  C   UNL     1     -12.134  13.214  68.066  1.00  0.00    -0.240 C  
BRANCH  17  18
HETATM   18  C   UNL     1     -10.732  12.640  67.822  1.00  0.00    -0.220 C  
BRANCH  18  19
HETATM   19  N   UNL     1      -9.801  13.612  67.224  1.00  0.00    -0.236 NA 
HETATM   20  C   UNL     1     -10.448  14.860  66.806  1.00  0.00    -0.284 C  
HETATM   21  C   UNL     1     -10.836  15.790  67.961  1.00  0.00    -0.309 C  
HETATM   22  C   UNL     1      -9.672  16.127  68.930  1.00  0.00    -0.242 C  
HETATM   23  C   UNL     1      -8.703  17.268  68.401  1.00  0.00    -0.261 C  
HETATM   24  C   UNL     1      -9.000  14.781  69.304  1.00  0.00    -0.028 C  
HETATM   25  C   UNL     1      -7.517  17.472  69.369  1.00  0.00     0.127 A  
HETATM   26  C   UNL     1      -9.428  18.608  68.088  1.00  0.00    -0.356 A  
HETATM   27  C   UNL     1      -8.656  13.899  68.101  1.00  0.00    -0.180 C  
HETATM   28  O   UNL     1      -8.151  16.805  67.156  1.00  0.00    -0.166 OA 
HETATM   29  C   UNL     1      -6.301  16.784  69.169  1.00  0.00    -0.200 A  
HETATM   30  C   UNL     1     -10.638  18.990  68.699  1.00  0.00     0.051 A  
HETATM   31  H   UNL     1      -7.571  17.487  66.840  1.00  0.00     0.000 HD 
HETATM   32  C   UNL     1     -11.312  20.156  68.317  1.00  0.00     1.353 A  
HETATM   33  C   UNL     1      -5.237  16.897  70.066  1.00  0.00    -0.186 A  
HETATM   34  C   UNL     1     -10.777  20.985  67.337  1.00  0.00     1.535 A  
HETATM   35  C   UNL     1      -5.353  17.721  71.179  1.00  0.00    -0.097 A  
HETATM   36  C   UNL     1      -6.534  18.424  71.395  1.00  0.00     2.219 A  
HETATM   37  C   UNL     1      -9.555  20.664  66.757  1.00  0.00    -0.360 A  
HETATM   38  C   UNL     1      -7.610  18.293  70.506  1.00  0.00     2.968 A  
HETATM   39  C   UNL     1      -8.882  19.498  67.137  1.00  0.00    -0.357 A  
ENDBRANCH  18  19
ENDBRANCH  17  18
ENDBRANCH  16  17
ENDBRANCH  13  16
ENDBRANCH  10  13
ENDBRANCH   2   7
TORSDOF 6
ENDMDL
MODEL      287
REMARK 921   NORMALIZED FREE ENERGY PREDICTED BY IDOCK:   67.66 KCAL/MOL
REMARK 922        TOTAL FREE ENERGY PREDICTED BY IDOCK:   89.04 KCAL/MOL
REMARK 923 INTER-LIGAND FREE ENERGY PREDICTED BY IDOCK:   46.12 KCAL/MOL
REMARK 924 INTRA-LIGAND FREE ENERGY PREDICTED BY IDOCK:   42.92 KCAL/MOL
REMARK 927      BINDING AFFINITY PREDICTED BY RF-SCORE:    0.00 PKD
ROOT
HETATM    1  C   UNL     1     -12.186  10.553  69.833  1.00  0.00    -0.289 C  
HETATM    2  C   UNL     1     -12.276   9.493  68.711  1.00  0.00     2.067 C  
HETATM    3  C   UNL     1     -11.565  10.063  67.467  1.00  0.00     0.929 C  
HETATM    4  O   UNL     1     -11.002  11.149  67.420  1.00  0.00    -0.254 OA 
HETATM    5  C   UNL     1     -13.755   9.282  68.332  1.00  0.00    12.827 C  
HETATM    6  O   UNL     1     -11.603   9.256  66.376  1.00  0.00     1.862 OA 
ENDROOT
BRANCH   2   7
HETATM    7  C   UNL     1     -11.658   8.193  69.246  1.00  0.00     0.826 A  
HETATM    8  C   UNL     1     -11.880   6.978  68.571  1.00  0.00     1.160 A  
HETATM    9  C   UNL     1     -11.467   5.762  69.112  1.00  0.00     0.501 A  
HETATM   10  C   UNL     1     -10.785   5.730  70.333  1.00  0.00    -0.372 A  
HETATM   11  C   UNL     1     -10.942   8.149  70.449  1.00  0.00    -0.248 A  
HETATM   12  C   UNL     1     -10.482   6.941  70.964  1.00  0.00    -0.235 A  
BRANCH  10  13
HETATM   13  C   UNL     1     -10.453   4.414  70.996  1.00  0.00     0.196 C  
HETATM   14  O   UNL     1     -11.602   3.584  70.888  1.00  0.00     4.716 OA 
HETATM   15  H   UNL     1     -11.393   2.756  71.305  1.00  0.00     0.000 HD 
BRANCH  13  16
HETATM   16  C   UNL     1      -9.190   3.801  70.360  1.00  0.00    -0.213 C  
BRANCH  16  17
HETATM   17  C   UNL     1      -7.911   4.624  70.542  1.00  0.00    -0.061 C  
BRANCH  17  18
HETATM   18  C   UNL     1      -7.172   4.963  69.240  1.00  0.00    -0.056 C  
BRANCH  18  19
HETATM   19  N   UNL     1      -7.228   6.393  68.894  1.00  0.00    -0.082 NA 
HETATM   20  C   UNL     1      -8.589   6.938  68.879  1.00  0.00    -0.131 C  
HETATM   21  C   UNL     1      -9.202   7.147  70.268  1.00  0.00    -0.156 C  
HETATM   22  C   UNL     1      -8.331   7.996  71.232  1.00  0.00    -0.130 C  
HETATM   23  C   UNL     1      -8.450   9.562  70.997  1.00  0.00     0.202 C  
HETATM   24  C   UNL     1      -6.899   7.404  71.176  1.00  0.00    -0.050 C  
HETATM   25  C   UNL     1      -7.478  10.329  71.921  1.00  0.00     3.307 A  
HETATM   26  C   UNL     1      -9.903  10.102  71.113  1.00  0.00     1.261 A  
HETATM   27  C   UNL     1      -6.359   7.209  69.756  1.00  0.00    -0.035 C  
HETATM   28  O   UNL     1      -8.028   9.816  69.646  1.00  0.00    -0.116 OA 
HETATM   29  C   UNL     1      -6.186  10.679  71.472  1.00  0.00     0.781 A  
HETATM   30  C   UNL     1     -10.905   9.463  71.868  1.00  0.00    -0.096 A  
HETATM   31  H   UNL     1      -8.099  10.753  69.505  1.00  0.00     0.000 HD 
HETATM   32  C   UNL     1     -12.227   9.925  71.867  1.00  0.00    -0.333 A  
HETATM   33  C   UNL     1      -5.264  11.311  72.309  1.00  0.00     0.373 A  
HETATM   34  C   UNL     1     -12.573  11.055  71.134  1.00  0.00    -0.522 A  
HETATM   35  C   UNL     1      -5.619  11.632  73.614  1.00  0.00     1.434 A  
HETATM   36  C   UNL     1      -6.890  11.314  74.080  1.00  0.00     5.328 A  
HETATM   37  C   UNL     1     -11.593  11.742  70.425  1.00  0.00    -0.109 A  
HETATM   38  C   UNL     1      -7.808  10.659  73.247  1.00  0.00    10.022 A  
HETATM   39  C   UNL     1     -10.273  11.280  70.426  1.00  0.00     1.814 A  
ENDBRANCH  18  19
ENDBRANCH  17  18
ENDBRANCH  16  17
ENDBRANCH  13  16
ENDBRANCH  10  13
ENDBRANCH   2   7
TORSDOF 6
ENDMDL
MODEL      288
REMARK 921   NORMALIZED FREE ENERGY PREDICTED BY IDOCK:   68.12 KCAL/MOL
REMARK 922        TOTAL FREE ENERGY PREDICTED BY IDOCK:   89.66 KCAL/MOL
REMARK 923 INTER-LIGAND FREE ENERGY PREDICTED BY IDOCK:   41.00 KCAL/MOL
REMARK 924 INTRA-LIGAND FREE ENERGY PREDICTED BY IDOCK:   48.66 KCAL/MOL
REMARK 927      BINDING AFFINITY PREDICTED BY RF-SCORE:    0.00 PKD
ROOT
HETATM    1  C   UNL     1     -12.264   6.336  68.080  1.00  0.00     3.869 C  
HETATM    2  C   UNL     1     -10.857   6.126  67.472  1.00  0.00    -0.422 C  
HETATM    3  C   UNL     1     -10.922   6.529  65.985  1.00  0.00     1.379 C  
HETATM    4  O   UNL     1     -11.915   6.974  65.423  1.00  0.00     6.685 OA 
HETATM    5  C   UNL     1     -10.503   4.627  67.521  1.00  0.00     0.115 C  
HETATM    6  O   UNL     1      -9.762   6.354  65.303  1.00  0.00     0.660 OA 
ENDROOT
BRANCH   2   7
HETATM    7  C   UNL     1      -9.862   6.950  68.303  1.00  0.00    -0.141 A  
HETATM    8  C   UNL     1      -9.163   8.018  67.709  1.00  0.00    -0.142 A  
HETATM    9  C   UNL     1      -8.143   8.683  68.387  1.00  0.00    -0.118 A  
HETATM   10  C   UNL     1      -7.817   8.322  69.699  1.00  0.00    -0.102 A  
HETATM   11  C   UNL     1      -9.550   6.624  69.629  1.00  0.00    -0.156 A  
HETATM   12  C   UNL     1      -8.569   7.322  70.325  1.00  0.00    -0.142 A  
BRANCH  10  13
HETATM   13  C   UNL     1      -6.628   8.940  70.395  1.00  0.00    -0.045 C  
HETATM   14  O   UNL     1      -5.510   8.797  69.528  1.00  0.00    -0.033 OA 
HETATM   15  H   UNL     1      -4.761   9.186  69.966  1.00  0.00     0.000 HD 
BRANCH  13  16
HETATM   16  C   UNL     1      -6.932  10.403  70.770  1.00  0.00     0.416 C  
BRANCH  16  17
HETATM   17  C   UNL     1      -6.013  11.441  70.120  1.00  0.00    -0.152 C  
BRANCH  17  18
HETATM   18  C   UNL     1      -6.718  12.720  69.646  1.00  0.00     0.090 C  
BRANCH  18  19
HETATM   19  N   UNL     1      -7.090  12.686  68.221  1.00  0.00    -0.095 NA 
HETATM   20  C   UNL     1      -6.229  11.816  67.413  1.00  0.00    -0.108 C  
HETATM   21  C   UNL     1      -6.475  10.317  67.617  1.00  0.00    -0.058 C  
HETATM   22  C   UNL     1      -7.951   9.878  67.429  1.00  0.00    -0.106 C  
HETATM   23  C   UNL     1      -8.380   9.693  65.911  1.00  0.00    -0.120 C  
HETATM   24  C   UNL     1      -8.816  10.854  68.268  1.00  0.00    -0.140 C  
HETATM   25  C   UNL     1      -9.885   9.359  65.804  1.00  0.00    -0.345 A  
HETATM   26  C   UNL     1      -7.505   8.667  65.136  1.00  0.00    -0.090 A  
HETATM   27  C   UNL     1      -8.504  12.333  68.023  1.00  0.00    -0.171 C  
HETATM   28  O   UNL     1      -8.187  10.963  65.263  1.00  0.00    -0.318 OA 
HETATM   29  C   UNL     1     -10.836  10.386  65.618  1.00  0.00     0.141 A  
HETATM   30  C   UNL     1      -6.808   7.618  65.765  1.00  0.00    -0.053 A  
HETATM   31  H   UNL     1      -8.444  10.852  64.355  1.00  0.00     0.000 HD 
HETATM   32  C   UNL     1      -5.952   6.776  65.046  1.00  0.00    -0.035 A  
HETATM   33  C   UNL     1     -12.206  10.120  65.587  1.00  0.00     6.235 A  
HETATM   34  C   UNL     1      -5.794   6.944  63.674  1.00  0.00    -0.036 A  
HETATM   35  C   UNL     1     -12.662   8.813  65.717  1.00  0.00    16.772 A  
HETATM   36  C   UNL     1     -11.748   7.778  65.887  1.00  0.00     6.789 A  
HETATM   37  C   UNL     1      -6.514   7.934  63.016  1.00  0.00    -0.076 A  
HETATM   38  C   UNL     1     -10.373   8.049  65.941  1.00  0.00     1.153 A  
HETATM   39  C   UNL     1      -7.369   8.776  63.734  1.00  0.00    -0.099 A  
ENDBRANCH  18  19
ENDBRANCH  17  18
ENDBRANCH  16  17
ENDBRANCH  13  16
ENDBRANCH  10  13
ENDBRANCH   2   7
TORSDOF 6
ENDMDL
MODEL      289
REMARK 921   NORMALIZED FREE ENERGY PREDICTED BY IDOCK:   75.34 KCAL/MOL
REMARK 922        TOTAL FREE ENERGY PREDICTED BY IDOCK:   99.42 KCAL/MOL
REMARK 923 INTER-LIGAND FREE ENERGY PREDICTED BY IDOCK:   70.18 KCAL/MOL
REMARK 924 INTRA-LIGAND FREE ENERGY PREDICTED BY IDOCK:   29.24 KCAL/MOL
REMARK 927      BINDING AFFINITY PREDICTED BY RF-SCORE:    0.00 PKD
ROOT
HETATM    1  C   UNL     1     -12.233  10.523  67.666  1.00  0.00     2.181 C  
HETATM    2  C   UNL     1     -11.717  11.539  66.621  1.00  0.00     0.048 C  
HETATM    3  C   UNL     1     -12.707  11.542  65.439  1.00  0.00     2.604 C  
HETATM    4  O   UNL     1     -13.734  10.878  65.385  1.00  0.00     7.679 OA 
HETATM    5  C   UNL     1     -10.360  11.057  66.074  1.00  0.00    -0.311 C  
HETATM    6  O   UNL     1     -12.359  12.360  64.413  1.00  0.00    -0.437 OA 
ENDROOT
BRANCH   2   7
HETATM    7  C   UNL     1     -11.573  12.898  67.322  1.00  0.00    -0.416 A  
HETATM    8  C   UNL     1     -12.720  13.632  67.676  1.00  0.00     0.834 A  
HETATM    9  C   UNL     1     -12.624  14.933  68.170  1.00  0.00     0.679 A  
HETATM   10  C   UNL     1     -11.370  15.524  68.358  1.00  0.00    -0.357 A  
HETATM   11  C   UNL     1     -10.323  13.488  67.551  1.00  0.00    -0.237 A  
HETATM   12  C   UNL     1     -10.225  14.766  68.093  1.00  0.00    -0.228 A  
BRANCH  10  13
HETATM   13  C   UNL     1     -11.256  16.975  68.761  1.00  0.00     0.043 C  
HETATM   14  O   UNL     1     -10.617  17.662  67.693  1.00  0.00    -0.369 OA 
HETATM   15  H   UNL     1     -10.544  18.574  67.946  1.00  0.00     0.000 HD 
BRANCH  13  16
HETATM   16  C   UNL     1     -12.645  17.541  69.112  1.00  0.00     6.223 C  
BRANCH  16  17
HETATM   17  C   UNL     1     -12.659  19.019  69.514  1.00  0.00    13.915 C  
BRANCH  17  18
HETATM   18  C   UNL     1     -13.411  19.944  68.548  1.00  0.00     9.213 C  
BRANCH  18  19
HETATM   19  N   UNL     1     -12.834  19.964  67.193  1.00  0.00     4.159 NA 
HETATM   20  C   UNL     1     -11.415  20.333  67.168  1.00  0.00     1.506 C  
HETATM   21  C   UNL     1     -10.467  19.235  67.663  1.00  0.00    -0.557 C  
HETATM   22  C   UNL     1     -10.644  17.867  66.954  1.00  0.00    -0.271 C  
HETATM   23  C   UNL     1      -9.929  17.777  65.539  1.00  0.00     0.376 C  
HETATM   24  C   UNL     1     -12.161  17.549  66.973  1.00  0.00     3.751 C  
HETATM   25  C   UNL     1     -10.237  16.428  64.853  1.00  0.00     0.417 A  
HETATM   26  C   UNL     1      -8.401  18.060  65.593  1.00  0.00     0.531 A  
HETATM   27  C   UNL     1     -13.046  18.696  66.478  1.00  0.00    10.225 C  
HETATM   28  O   UNL     1     -10.503  18.806  64.714  1.00  0.00     0.592 OA 
HETATM   29  C   UNL     1     -11.323  16.310  63.959  1.00  0.00     0.446 A  
HETATM   30  C   UNL     1      -7.621  17.862  66.749  1.00  0.00    -0.247 A  
HETATM   31  H   UNL     1     -10.076  18.752  63.867  1.00  0.00     0.000 HD 
HETATM   32  C   UNL     1      -6.269  18.223  66.788  1.00  0.00    -0.201 A  
HETATM   33  C   UNL     1     -11.666  15.087  63.379  1.00  0.00     1.545 A  
HETATM   34  C   UNL     1      -5.655  18.762  65.662  1.00  0.00    -0.206 A  
HETATM   35  C   UNL     1     -10.917  13.951  63.660  1.00  0.00     0.849 A  
HETATM   36  C   UNL     1      -9.832  14.039  64.527  1.00  0.00     0.563 A  
HETATM   37  C   UNL     1      -6.385  18.916  64.488  1.00  0.00     0.169 A  
HETATM   38  C   UNL     1      -9.501  15.263  65.126  1.00  0.00     0.359 A  
HETATM   39  C   UNL     1      -7.736  18.556  64.449  1.00  0.00     5.112 A  
ENDBRANCH  18  19
ENDBRANCH  17  18
ENDBRANCH  16  17
ENDBRANCH  13  16
ENDBRANCH  10  13
ENDBRANCH   2   7
TORSDOF 6
ENDMDL
MODEL      290
REMARK 921   NORMALIZED FREE ENERGY PREDICTED BY IDOCK:   79.96 KCAL/MOL
REMARK 922        TOTAL FREE ENERGY PREDICTED BY IDOCK:  105.66 KCAL/MOL
REMARK 923 INTER-LIGAND FREE ENERGY PREDICTED BY IDOCK:   75.41 KCAL/MOL
REMARK 924 INTRA-LIGAND FREE ENERGY PREDICTED BY IDOCK:   30.25 KCAL/MOL
REMARK 927      BINDING AFFINITY PREDICTED BY RF-SCORE:    0.00 PKD
ROOT
HETATM    1  C   UNL     1      -9.497   9.977  70.708  1.00  0.00     0.490 C  
HETATM    2  C   UNL     1      -8.928  11.379  70.387  1.00  0.00     3.647 C  
HETATM    3  C   UNL     1      -8.130  11.856  71.617  1.00  0.00    12.572 C  
HETATM    4  O   UNL     1      -7.958  11.201  72.637  1.00  0.00    10.673 OA 
HETATM    5  C   UNL     1     -10.096  12.366  70.193  1.00  0.00     2.749 C  
HETATM    6  O   UNL     1      -7.605  13.103  71.499  1.00  0.00     5.419 OA 
ENDROOT
BRANCH   2   7
HETATM    7  C   UNL     1      -8.093  11.261  69.103  1.00  0.00     0.019 A  
HETATM    8  C   UNL     1      -7.334  10.100  68.862  1.00  0.00    -0.083 A  
HETATM    9  C   UNL     1      -6.446  10.025  67.790  1.00  0.00    -0.066 A  
HETATM   10  C   UNL     1      -6.319  11.100  66.903  1.00  0.00    -0.114 A  
HETATM   11  C   UNL     1      -7.983  12.315  68.188  1.00  0.00    -0.155 A  
HETATM   12  C   UNL     1      -7.137  12.220  67.087  1.00  0.00    -0.102 A  
BRANCH  10  13
HETATM   13  C   UNL     1      -5.266  11.086  65.821  1.00  0.00    -0.127 C  
HETATM   14  O   UNL     1      -5.294   9.798  65.221  1.00  0.00    -0.046 OA 
HETATM   15  H   UNL     1      -4.631   9.788  64.540  1.00  0.00     0.000 HD 
BRANCH  13  16
HETATM   16  C   UNL     1      -5.512  12.234  64.824  1.00  0.00     5.201 C  
BRANCH  16  17
HETATM   17  C   UNL     1      -6.449  11.892  63.662  1.00  0.00     4.158 C  
BRANCH  17  18
HETATM   18  C   UNL     1      -7.945  11.968  63.995  1.00  0.00     2.996 C  
BRANCH  18  19
HETATM   19  N   UNL     1      -8.249  11.621  65.394  1.00  0.00     0.501 NA 
HETATM   20  C   UNL     1      -9.618  11.135  65.591  1.00  0.00    -0.224 C  
HETATM   21  C   UNL     1      -9.864   9.711  65.080  1.00  0.00    -0.141 C  
HETATM   22  C   UNL     1      -8.870   8.653  65.628  1.00  0.00    -0.227 C  
HETATM   23  C   UNL     1      -9.220   8.136  67.088  1.00  0.00    -0.145 C  
HETATM   24  C   UNL     1      -7.447   9.236  65.433  1.00  0.00    -0.098 C  
HETATM   25  C   UNL     1      -8.131   7.168  67.602  1.00  0.00    -0.114 A  
HETATM   26  C   UNL     1     -10.643   7.520  67.208  1.00  0.00    -0.394 A  
HETATM   27  C   UNL     1      -7.281  10.666  65.954  1.00  0.00    -0.119 C  
HETATM   28  O   UNL     1      -9.200   9.284  67.954  1.00  0.00    -0.130 OA 
HETATM   29  C   UNL     1      -7.050   7.648  68.373  1.00  0.00    -0.081 A  
HETATM   30  C   UNL     1     -11.333   6.956  66.118  1.00  0.00     2.239 A  
HETATM   31  H   UNL     1      -9.409   8.976  68.828  1.00  0.00     0.000 HD 
HETATM   32  C   UNL     1     -12.651   6.503  66.244  1.00  0.00     7.224 A  
HETATM   33  C   UNL     1      -6.017   6.808  68.792  1.00  0.00    -0.022 A  
HETATM   34  C   UNL     1     -13.301   6.573  67.472  1.00  0.00    14.827 A  
HETATM   35  C   UNL     1      -6.049   5.455  68.470  1.00  0.00    -0.026 A  
HETATM   36  C   UNL     1      -7.109   4.950  67.724  1.00  0.00    -0.062 A  
HETATM   37  C   UNL     1     -12.625   7.072  68.580  1.00  0.00     4.716 A  
HETATM   38  C   UNL     1      -8.135   5.799  67.284  1.00  0.00    -0.102 A  
HETATM   39  C   UNL     1     -11.309   7.526  68.454  1.00  0.00     0.554 A  
ENDBRANCH  18  19
ENDBRANCH  17  18
ENDBRANCH  16  17
ENDBRANCH  13  16
ENDBRANCH  10  13
ENDBRANCH   2   7
TORSDOF 6
ENDMDL
MODEL      291
REMARK 921   NORMALIZED FREE ENERGY PREDICTED BY IDOCK:   90.21 KCAL/MOL
REMARK 922        TOTAL FREE ENERGY PREDICTED BY IDOCK:  119.49 KCAL/MOL
REMARK 923 INTER-LIGAND FREE ENERGY PREDICTED BY IDOCK:  103.84 KCAL/MOL
REMARK 924 INTRA-LIGAND FREE ENERGY PREDICTED BY IDOCK:   15.66 KCAL/MOL
REMARK 927      BINDING AFFINITY PREDICTED BY RF-SCORE:    0.00 PKD
ROOT
HETATM    1  C   UNL     1      -8.762  11.849  64.875  1.00  0.00     0.795 C  
HETATM    2  C   UNL     1      -8.628  12.076  66.398  1.00  0.00    -0.037 C  
HETATM    3  C   UNL     1      -8.137  13.522  66.617  1.00  0.00     0.490 C  
HETATM    4  O   UNL     1      -7.940  14.336  65.724  1.00  0.00     2.123 OA 
HETATM    5  C   UNL     1      -7.538  11.139  66.955  1.00  0.00    -0.135 C  
HETATM    6  O   UNL     1      -7.927  13.856  67.915  1.00  0.00    -0.131 OA 
ENDROOT
BRANCH   2   7
HETATM    7  C   UNL     1      -9.990  11.772  67.038  1.00  0.00    -0.224 A  
HETATM    8  C   UNL     1     -10.323  12.333  68.285  1.00  0.00    -0.227 A  
HETATM    9  C   UNL     1     -11.481  11.956  68.964  1.00  0.00    -0.355 A  
HETATM   10  C   UNL     1     -12.360  11.028  68.395  1.00  0.00     0.513 A  
HETATM   11  C   UNL     1     -10.898  10.873  66.464  1.00  0.00    -0.234 A  
HETATM   12  C   UNL     1     -12.080  10.535  67.116  1.00  0.00     2.426 A  
BRANCH  10  13
HETATM   13  C   UNL     1     -13.544  10.509  69.177  1.00  0.00     4.015 C  
HETATM   14  O   UNL     1     -13.215   9.201  69.623  1.00  0.00     1.575 OA 
HETATM   15  H   UNL     1     -13.959   8.874  70.114  1.00  0.00     0.000 HD 
BRANCH  13  16
HETATM   16  C   UNL     1     -13.892  11.480  70.322  1.00  0.00     3.000 C  
BRANCH  16  17
HETATM   17  C   UNL     1     -14.041  10.827  71.699  1.00  0.00     0.916 C  
BRANCH  17  18
HETATM   18  C   UNL     1     -12.726  10.634  72.467  1.00  0.00     0.949 C  
BRANCH  18  19
HETATM   19  N   UNL     1     -11.546  11.119  71.733  1.00  0.00     1.465 NA 
HETATM   20  C   UNL     1     -11.879  11.822  70.490  1.00  0.00    -0.192 C  
HETATM   21  C   UNL     1     -12.456  13.228  70.693  1.00  0.00    -0.373 C  
HETATM   22  C   UNL     1     -11.583  14.156  71.577  1.00  0.00     0.431 C  
HETATM   23  C   UNL     1     -10.364  14.821  70.807  1.00  0.00     0.706 C  
HETATM   24  C   UNL     1     -11.227  13.351  72.853  1.00  0.00     5.936 C  
HETATM   25  C   UNL     1      -9.487  15.645  71.776  1.00  0.00     4.431 A  
HETATM   26  C   UNL     1     -10.790  15.654  69.565  1.00  0.00    -0.271 A  
HETATM   27  C   UNL     1     -10.671  11.952  72.573  1.00  0.00    12.873 C  
HETATM   28  O   UNL     1      -9.545  13.746  70.314  1.00  0.00     1.523 OA 
HETATM   29  C   UNL     1      -8.364  15.060  72.401  1.00  0.00     7.120 A  
HETATM   30  C   UNL     1     -12.063  16.240  69.429  1.00  0.00     0.211 A  
HETATM   31  H   UNL     1      -8.815  14.144  69.853  1.00  0.00     0.000 HD 
HETATM   32  C   UNL     1     -12.443  16.897  68.254  1.00  0.00     2.525 A  
HETATM   33  C   UNL     1      -7.595  15.759  73.332  1.00  0.00    11.268 A  
HETATM   34  C   UNL     1     -11.548  17.013  67.195  1.00  0.00     0.994 A  
HETATM   35  C   UNL     1      -7.916  17.075  73.649  1.00  0.00    17.113 A  
HETATM   36  C   UNL     1      -9.008  17.683  73.038  1.00  0.00    15.249 A  
HETATM   37  C   UNL     1     -10.263  16.495  67.322  1.00  0.00    -0.287 A  
HETATM   38  C   UNL     1      -9.793  16.972  72.119  1.00  0.00     7.866 A  
HETATM   39  C   UNL     1      -9.884  15.837  68.496  1.00  0.00    -0.209 A  
ENDBRANCH  18  19
ENDBRANCH  17  18
ENDBRANCH  16  17
ENDBRANCH  13  16
ENDBRANCH  10  13
ENDBRANCH   2   7
TORSDOF 6
ENDMDL
MODEL      292
REMARK 921   NORMALIZED FREE ENERGY PREDICTED BY IDOCK:  108.26 KCAL/MOL
REMARK 922        TOTAL FREE ENERGY PREDICTED BY IDOCK:  143.88 KCAL/MOL
REMARK 923 INTER-LIGAND FREE ENERGY PREDICTED BY IDOCK:   23.32 KCAL/MOL
REMARK 924 INTRA-LIGAND FREE ENERGY PREDICTED BY IDOCK:  120.56 KCAL/MOL
REMARK 927      BINDING AFFINITY PREDICTED BY RF-SCORE:    0.00 PKD
ROOT
HETATM    1  C   UNL     1      -9.751   7.931  66.446  1.00  0.00    -0.235 C  
HETATM    2  C   UNL     1      -8.487   8.060  65.564  1.00  0.00    -0.159 C  
HETATM    3  C   UNL     1      -8.946   8.415  64.135  1.00  0.00     0.578 C  
HETATM    4  O   UNL     1     -10.108   8.598  63.798  1.00  0.00     3.265 OA 
HETATM    5  C   UNL     1      -7.782   6.692  65.487  1.00  0.00    -0.097 C  
HETATM    6  O   UNL     1      -7.940   8.517  63.229  1.00  0.00    -0.147 OA 
ENDROOT
BRANCH   2   7
HETATM    7  C   UNL     1      -7.573   9.111  66.209  1.00  0.00    -0.092 A  
HETATM    8  C   UNL     1      -6.285   8.750  66.647  1.00  0.00    -0.058 A  
HETATM    9  C   UNL     1      -5.491   9.636  67.374  1.00  0.00    -0.036 A  
HETATM   10  C   UNL     1      -5.952  10.926  67.655  1.00  0.00    -0.043 A  
HETATM   11  C   UNL     1      -8.006  10.418  66.466  1.00  0.00    -0.123 A  
HETATM   12  C   UNL     1      -7.194  11.321  67.145  1.00  0.00    -0.126 A  
BRANCH  10  13
HETATM   13  C   UNL     1      -5.163  11.847  68.556  1.00  0.00    -0.045 C  
HETATM   14  O   UNL     1      -5.356  13.172  68.080  1.00  0.00    -0.079 OA 
HETATM   15  H   UNL     1      -4.860  13.751  68.647  1.00  0.00     0.000 HD 
BRANCH  13  16
HETATM   16  C   UNL     1      -5.593  11.652  70.023  1.00  0.00    -0.114 C  
BRANCH  16  17
HETATM   17  C   UNL     1      -6.500  12.752  70.583  1.00  0.00     0.811 C  
BRANCH  17  18
HETATM   18  C   UNL     1      -7.525  13.311  69.587  1.00  0.00     0.700 C  
BRANCH  18  19
HETATM   19  N   UNL     1      -8.722  12.464  69.447  1.00  0.00     0.983 NA 
HETATM   20  C   UNL     1      -9.857  13.156  68.827  1.00  0.00     0.015 C  
HETATM   21  C   UNL     1      -9.714  13.379  67.317  1.00  0.00    -0.232 C  
HETATM   22  C   UNL     1      -9.404  12.093  66.506  1.00  0.00    -0.229 C  
HETATM   23  C   UNL     1     -10.681  11.199  66.203  1.00  0.00    -0.225 C  
HETATM   24  C   UNL     1      -8.230  11.384  67.227  1.00  0.00    -0.150 C  
HETATM   25  C   UNL     1     -10.277   9.892  65.486  1.00  0.00    -0.194 A  
HETATM   26  C   UNL     1     -11.804  11.954  65.437  1.00  0.00    -0.149 A  
HETATM   27  C   UNL     1      -8.436  11.210  68.734  1.00  0.00    -0.134 C  
HETATM   28  O   UNL     1     -11.239  10.822  67.474  1.00  0.00    -0.310 OA 
HETATM   29  C   UNL     1     -10.021   8.717  66.226  1.00  0.00    -0.315 A  
HETATM   30  C   UNL     1     -11.559  13.068  64.611  1.00  0.00    -0.389 A  
HETATM   31  H   UNL     1     -12.003  10.287  67.294  1.00  0.00     0.000 HD 
HETATM   32  C   UNL     1     -12.607  13.781  64.018  1.00  0.00    -0.131 A  
HETATM   33  C   UNL     1      -9.587   7.542  65.611  1.00  0.00     0.511 A  
HETATM   34  C   UNL     1     -13.925  13.380  64.210  1.00  0.00     4.018 A  
HETATM   35  C   UNL     1      -9.420   7.502  64.231  1.00  0.00     2.513 A  
HETATM   36  C   UNL     1      -9.679   8.640  63.473  1.00  0.00     2.793 A  
HETATM   37  C   UNL     1     -14.194  12.248  64.973  1.00  0.00     5.767 A  
HETATM   38  C   UNL     1     -10.093   9.826  64.095  1.00  0.00     0.766 A  
HETATM   39  C   UNL     1     -13.147  11.536  65.567  1.00  0.00     4.416 A  
ENDBRANCH  18  19
ENDBRANCH  17  18
ENDBRANCH  16  17
ENDBRANCH  13  16
ENDBRANCH  10  13
ENDBRANCH   2   7
TORSDOF 6
ENDMDL
MODEL      293
REMARK 921   NORMALIZED FREE ENERGY PREDICTED BY IDOCK:  109.29 KCAL/MOL
REMARK 922        TOTAL FREE ENERGY PREDICTED BY IDOCK:  145.27 KCAL/MOL
REMARK 923 INTER-LIGAND FREE ENERGY PREDICTED BY IDOCK:  107.46 KCAL/MOL
REMARK 924 INTRA-LIGAND FREE ENERGY PREDICTED BY IDOCK:   37.81 KCAL/MOL
REMARK 927      BINDING AFFINITY PREDICTED BY RF-SCORE:    0.00 PKD
ROOT
HETATM    1  C   UNL     1     -12.264   6.336  68.080  1.00  0.00     3.869 C  
HETATM    2  C   UNL     1     -10.857   6.126  67.472  1.00  0.00    -0.422 C  
HETATM    3  C   UNL     1     -10.922   6.529  65.985  1.00  0.00     1.379 C  
HETATM    4  O   UNL     1     -11.915   6.974  65.423  1.00  0.00     6.685 OA 
HETATM    5  C   UNL     1     -10.503   4.627  67.521  1.00  0.00     0.115 C  
HETATM    6  O   UNL     1      -9.762   6.354  65.303  1.00  0.00     0.660 OA 
ENDROOT
BRANCH   2   7
HETATM    7  C   UNL     1      -9.862   6.950  68.303  1.00  0.00    -0.141 A  
HETATM    8  C   UNL     1     -10.194   8.259  68.703  1.00  0.00    -0.223 A  
HETATM    9  C   UNL     1      -9.258   9.087  69.321  1.00  0.00    -0.145 A  
HETATM   10  C   UNL     1      -7.968   8.614  69.589  1.00  0.00    -0.096 A  
HETATM   11  C   UNL     1      -8.580   6.479  68.611  1.00  0.00    -0.124 A  
HETATM   12  C   UNL     1      -7.662   7.286  69.276  1.00  0.00    -0.107 A  
BRANCH  10  13
HETATM   13  C   UNL     1      -6.906   9.541  70.132  1.00  0.00    -0.085 C  
HETATM   14  O   UNL     1      -6.870  10.683  69.287  1.00  0.00    -0.065 OA 
HETATM   15  H   UNL     1      -6.201  11.266  69.627  1.00  0.00     0.000 HD 
BRANCH  13  16
HETATM   16  C   UNL     1      -7.196   9.877  71.607  1.00  0.00     1.192 C  
BRANCH  16  17
HETATM   17  C   UNL     1      -7.433  11.362  71.898  1.00  0.00     8.484 C  
BRANCH  17  18
HETATM   18  C   UNL     1      -8.555  11.652  72.903  1.00  0.00    22.010 C  
BRANCH  18  19
HETATM   19  N   UNL     1      -9.850  11.940  72.264  1.00  0.00    15.487 NA 
HETATM   20  C   UNL     1      -9.723  12.502  70.916  1.00  0.00     8.490 C  
HETATM   21  C   UNL     1      -9.306  11.488  69.844  1.00  0.00     1.757 C  
HETATM   22  C   UNL     1     -10.199  10.221  69.779  1.00  0.00    -0.262 C  
HETATM   23  C   UNL     1     -11.557  10.430  68.984  1.00  0.00    -0.150 C  
HETATM   24  C   UNL     1     -10.333   9.696  71.232  1.00  0.00    -0.154 C  
HETATM   25  C   UNL     1     -12.433   9.159  69.053  1.00  0.00     3.051 A  
HETATM   26  C   UNL     1     -11.355  10.912  67.519  1.00  0.00    -0.309 A  
HETATM   27  C   UNL     1     -10.737  10.767  72.248  1.00  0.00     6.647 C  
HETATM   28  O   UNL     1     -12.281  11.473  69.658  1.00  0.00    -0.286 OA 
HETATM   29  C   UNL     1     -13.412   9.017  70.059  1.00  0.00     2.069 A  
HETATM   30  C   UNL     1     -10.181  10.665  66.782  1.00  0.00    -0.284 A  
HETATM   31  H   UNL     1     -13.094  11.598  69.183  1.00  0.00     0.000 HD 
HETATM   32  C   UNL     1      -9.997  11.201  65.502  1.00  0.00    -0.298 A  
HETATM   33  C   UNL     1     -14.170   7.852  70.187  1.00  0.00     2.763 A  
HETATM   34  C   UNL     1     -10.994  11.972  64.915  1.00  0.00    -0.356 A  
HETATM   35  C   UNL     1     -13.985   6.802  69.294  1.00  0.00    10.276 A  
HETATM   36  C   UNL     1     -13.037   6.919  68.282  1.00  0.00    10.186 A  
HETATM   37  C   UNL     1     -12.188  12.184  65.595  1.00  0.00    -0.049 A  
HETATM   38  C   UNL     1     -12.261   8.081  68.168  1.00  0.00     4.485 A  
HETATM   39  C   UNL     1     -12.373  11.650  66.874  1.00  0.00     1.410 A  
ENDBRANCH  18  19
ENDBRANCH  17  18
ENDBRANCH  16  17
ENDBRANCH  13  16
ENDBRANCH  10  13
ENDBRANCH   2   7
TORSDOF 6
ENDMDL
