MODEL        1
REMARK 921   NORMALIZED FREE ENERGY PREDICTED BY IDOCK:   -8.13 KCAL/MOL
REMARK 922        TOTAL FREE ENERGY PREDICTED BY IDOCK:   -9.86 KCAL/MOL
REMARK 923 INTER-LIGAND FREE ENERGY PREDICTED BY IDOCK:   -9.08 KCAL/MOL
REMARK 924 INTRA-LIGAND FREE ENERGY PREDICTED BY IDOCK:   -0.78 KCAL/MOL
REMARK 927      BINDING AFFINITY PREDICTED BY RF-SCORE:    0.00 PKD
ROOT
HETATM    1  C   UNL     1     -10.532  17.814  67.155  1.00  0.00    -0.335 C  
HETATM    2  C   UNL     1     -10.980  16.341  67.036  1.00  0.00    -0.086 C  
HETATM    3  N   UNL     1     -10.442  15.699  68.259  1.00  0.00    -0.246 NA 
HETATM    4  H   UNL     1     -11.235  18.695  65.385  1.00  0.00     0.000 HD 
HETATM    5  C   UNL     1      -9.537  16.649  68.951  1.00  0.00    -0.252 C  
HETATM    6  C   UNL     1      -9.185  17.674  67.873  1.00  0.00    -0.267 C  
HETATM    7  N   UNL     1     -10.373  18.615  65.925  1.00  0.00    -0.588 NA 
HETATM    8  O   UNL     1      -8.763  18.946  68.364  1.00  0.00    -0.322 OA 
HETATM    9  C   UNL     1      -9.816  19.929  66.331  1.00  0.00    -0.459 C  
HETATM   10  C   UNL     1      -8.575  19.844  67.252  1.00  0.00    -0.325 C  
ENDROOT
BRANCH   3  11
HETATM   11  C   UNL     1     -10.980  14.575  68.887  1.00  0.00    -0.256 A  
HETATM   12  C   UNL     1     -12.070  12.370  70.323  1.00  0.00    -0.377 A  
HETATM   13  C   UNL     1     -12.625  11.275  71.154  1.00  0.00    -0.397 C  
HETATM   14  C   UNL     1     -12.448  13.666  70.642  1.00  0.00    -0.417 A  
HETATM   15  C   UNL     1     -12.214   9.894  70.866  1.00  0.00    -0.420 C  
HETATM   16  C   UNL     1     -11.921  14.730  69.929  1.00  0.00    -0.328 A  
HETATM   17  O   UNL     1     -13.393  11.500  72.086  1.00  0.00    -0.477 OA 
HETATM   18  C   UNL     1     -11.385   9.726  69.831  1.00  0.00    -0.192 C  
HETATM   19  C   UNL     1     -12.708   8.713  71.604  1.00  0.00    -0.341 C  
HETATM   20  F   UNL     1     -12.363  15.942  70.294  1.00  0.00    -0.379 F  
HETATM   21  N   UNL     1     -10.903  10.714  68.982  1.00  0.00    -0.218 NA 
HETATM   22  O   UNL     1     -12.413   7.565  71.307  1.00  0.00    -0.328 OA 
HETATM   23  O   UNL     1     -13.534   9.000  72.633  1.00  0.00    -0.463 OA 
HETATM   24  N   UNL     1      -8.541  12.825  67.049  1.00  0.00    -0.197 NA 
HETATM   25  C   UNL     1     -11.176  12.098  69.265  1.00  0.00    -0.226 A  
HETATM   26  C   UNL     1     -10.591  13.223  68.595  1.00  0.00    -0.264 A  
HETATM   27  C   UNL     1      -9.466  13.001  67.731  1.00  0.00    -0.209 C  
BRANCH  21  28
HETATM   28  C   UNL     1     -10.393  10.223  67.677  1.00  0.00    -0.220 C  
HETATM   29  C   UNL     1      -9.184   9.306  67.610  1.00  0.00    -0.139 C  
HETATM   30  C   UNL     1     -10.532   8.787  67.231  1.00  0.00    -0.353 C  
ENDBRANCH  21  28
ENDBRANCH   3  11
TORSDOF 2
ENDMDL
MODEL        2
REMARK 921   NORMALIZED FREE ENERGY PREDICTED BY IDOCK:   -8.01 KCAL/MOL
REMARK 922        TOTAL FREE ENERGY PREDICTED BY IDOCK:   -9.72 KCAL/MOL
REMARK 923 INTER-LIGAND FREE ENERGY PREDICTED BY IDOCK:   -9.06 KCAL/MOL
REMARK 924 INTRA-LIGAND FREE ENERGY PREDICTED BY IDOCK:   -0.65 KCAL/MOL
REMARK 927      BINDING AFFINITY PREDICTED BY RF-SCORE:    0.00 PKD
ROOT
HETATM    1  C   UNL     1     -10.635  17.752  67.042  1.00  0.00    -0.262 C  
HETATM    2  C   UNL     1     -10.842  16.223  66.968  1.00  0.00    -0.173 C  
HETATM    3  N   UNL     1     -10.492  15.744  68.327  1.00  0.00    -0.252 NA 
HETATM    4  H   UNL     1     -11.062  18.410  65.097  1.00  0.00     0.000 HD 
HETATM    5  C   UNL     1      -9.893  16.860  69.099  1.00  0.00    -0.206 C  
HETATM    6  C   UNL     1      -9.465  17.862  68.026  1.00  0.00    -0.279 C  
HETATM    7  N   UNL     1     -10.331  18.494  65.803  1.00  0.00    -0.609 NA 
HETATM    8  O   UNL     1      -9.335  19.210  68.476  1.00  0.00    -0.339 OA 
HETATM    9  C   UNL     1     -10.059  19.900  66.194  1.00  0.00    -0.504 C  
HETATM   10  C   UNL     1      -9.040  20.059  67.350  1.00  0.00    -0.357 C  
ENDROOT
BRANCH   3  11
HETATM   11  C   UNL     1     -10.991  14.590  68.931  1.00  0.00    -0.256 A  
HETATM   12  C   UNL     1     -12.019  12.325  70.319  1.00  0.00    -0.373 A  
HETATM   13  C   UNL     1     -12.551  11.200  71.124  1.00  0.00    -0.409 C  
HETATM   14  C   UNL     1     -12.506  13.593  70.597  1.00  0.00    -0.417 A  
HETATM   15  C   UNL     1     -12.027   9.849  70.881  1.00  0.00    -0.434 C  
HETATM   16  C   UNL     1     -12.009  14.686  69.907  1.00  0.00    -0.329 A  
HETATM   17  O   UNL     1     -13.393  11.378  72.001  1.00  0.00    -0.467 OA 
HETATM   18  C   UNL     1     -11.121   9.732  69.905  1.00  0.00    -0.254 C  
HETATM   19  C   UNL     1     -12.486   8.642  71.599  1.00  0.00    -0.335 C  
HETATM   20  F   UNL     1     -12.557  15.867  70.227  1.00  0.00    -0.411 F  
HETATM   21  N   UNL     1     -10.653  10.745  69.078  1.00  0.00    -0.207 NA 
HETATM   22  O   UNL     1     -12.093   7.515  71.336  1.00  0.00    -0.303 OA 
HETATM   23  O   UNL     1     -13.396   8.879  72.568  1.00  0.00    -0.431 OA 
HETATM   24  N   UNL     1      -8.319  13.002  67.280  1.00  0.00    -0.190 NA 
HETATM   25  C   UNL     1     -11.039  12.108  69.326  1.00  0.00    -0.167 A  
HETATM   26  C   UNL     1     -10.491  13.266  68.682  1.00  0.00    -0.242 A  
HETATM   27  C   UNL     1      -9.298  13.117  67.897  1.00  0.00    -0.215 C  
BRANCH  21  28
HETATM   28  C   UNL     1     -10.024  10.281  67.816  1.00  0.00    -0.173 C  
HETATM   29  C   UNL     1     -10.406   8.945  67.203  1.00  0.00    -0.351 C  
HETATM   30  C   UNL     1     -10.772  10.213  66.505  1.00  0.00    -0.118 C  
ENDBRANCH  21  28
ENDBRANCH   3  11
TORSDOF 2
ENDMDL
MODEL        3
REMARK 921   NORMALIZED FREE ENERGY PREDICTED BY IDOCK:   -7.75 KCAL/MOL
REMARK 922        TOTAL FREE ENERGY PREDICTED BY IDOCK:   -9.43 KCAL/MOL
REMARK 923 INTER-LIGAND FREE ENERGY PREDICTED BY IDOCK:   -8.92 KCAL/MOL
REMARK 924 INTRA-LIGAND FREE ENERGY PREDICTED BY IDOCK:   -0.51 KCAL/MOL
REMARK 927      BINDING AFFINITY PREDICTED BY RF-SCORE:    0.00 PKD
ROOT
HETATM    1  C   UNL     1      -9.550  18.094  68.320  1.00  0.00    -0.317 C  
HETATM    2  C   UNL     1     -10.232  17.290  69.449  1.00  0.00    -0.139 C  
HETATM    3  N   UNL     1     -11.038  16.273  68.733  1.00  0.00    -0.343 NA 
HETATM    4  H   UNL     1      -8.472  19.575  69.341  1.00  0.00     0.000 HD 
HETATM    5  C   UNL     1     -11.035  16.581  67.282  1.00  0.00    -0.084 C  
HETATM    6  C   UNL     1     -10.614  18.048  67.217  1.00  0.00    -0.346 C  
HETATM    7  N   UNL     1      -9.144  19.489  68.579  1.00  0.00    -0.360 NA 
HETATM    8  O   UNL     1     -10.042  18.459  65.975  1.00  0.00    -0.491 OA 
HETATM    9  C   UNL     1      -8.644  20.042  67.296  1.00  0.00    -0.335 C  
HETATM   10  C   UNL     1      -9.590  19.822  66.090  1.00  0.00    -0.398 C  
ENDROOT
BRANCH   3  11
HETATM   11  C   UNL     1     -11.401  15.024  69.239  1.00  0.00    -0.296 A  
HETATM   12  C   UNL     1     -12.152  12.550  70.432  1.00  0.00    -0.380 A  
HETATM   13  C   UNL     1     -12.543  11.308  71.142  1.00  0.00    -0.397 C  
HETATM   14  C   UNL     1     -12.752  13.732  70.841  1.00  0.00    -0.394 A  
HETATM   15  C   UNL     1     -11.897  10.045  70.760  1.00  0.00    -0.435 C  
HETATM   16  C   UNL     1     -12.389  14.928  70.244  1.00  0.00    -0.341 A  
HETATM   17  O   UNL     1     -13.368  11.320  72.053  1.00  0.00    -0.462 OA 
HETATM   18  C   UNL     1     -11.018  10.109  69.755  1.00  0.00    -0.280 C  
HETATM   19  C   UNL     1     -12.210   8.738  71.373  1.00  0.00    -0.309 C  
HETATM   20  F   UNL     1     -13.039  16.013  70.688  1.00  0.00    -0.425 F  
HETATM   21  N   UNL     1     -10.681  11.235  69.015  1.00  0.00    -0.214 NA 
HETATM   22  O   UNL     1     -11.717   7.685  70.995  1.00  0.00    -0.284 OA 
HETATM   23  O   UNL     1     -13.105   8.792  72.382  1.00  0.00    -0.395 OA 
HETATM   24  N   UNL     1      -8.644  13.871  67.378  1.00  0.00    -0.189 NA 
HETATM   25  C   UNL     1     -11.191  12.525  69.399  1.00  0.00    -0.149 A  
HETATM   26  C   UNL     1     -10.782  13.786  68.853  1.00  0.00    -0.249 A  
HETATM   27  C   UNL     1      -9.607  13.830  68.028  1.00  0.00    -0.214 C  
BRANCH  21  28
HETATM   28  C   UNL     1     -10.054  10.954  67.699  1.00  0.00    -0.179 C  
HETATM   29  C   UNL     1     -10.249   9.612  67.016  1.00  0.00    -0.308 C  
HETATM   30  C   UNL     1     -10.849  10.844  66.420  1.00  0.00    -0.210 C  
ENDBRANCH  21  28
ENDBRANCH   3  11
TORSDOF 2
ENDMDL
MODEL        4
REMARK 921   NORMALIZED FREE ENERGY PREDICTED BY IDOCK:   -7.43 KCAL/MOL
REMARK 922        TOTAL FREE ENERGY PREDICTED BY IDOCK:   -9.08 KCAL/MOL
REMARK 923 INTER-LIGAND FREE ENERGY PREDICTED BY IDOCK:   -8.43 KCAL/MOL
REMARK 924 INTRA-LIGAND FREE ENERGY PREDICTED BY IDOCK:   -0.65 KCAL/MOL
REMARK 927      BINDING AFFINITY PREDICTED BY RF-SCORE:    0.00 PKD
ROOT
HETATM    1  C   UNL     1     -10.239   7.910  72.657  1.00  0.00    -0.296 C  
HETATM    2  C   UNL     1      -9.671   8.878  71.597  1.00  0.00    -0.309 C  
HETATM    3  N   UNL     1     -10.581   8.719  70.437  1.00  0.00    -0.213 NA 
HETATM    4  H   UNL     1      -8.902   8.087  74.264  1.00  0.00     0.000 HD 
HETATM    5  C   UNL     1     -11.491   7.574  70.685  1.00  0.00    -0.269 C  
HETATM    6  C   UNL     1     -10.790   6.777  71.784  1.00  0.00    -0.229 C  
HETATM    7  N   UNL     1      -9.333   7.365  73.688  1.00  0.00    -0.236 NA 
HETATM    8  O   UNL     1     -11.645   5.939  72.561  1.00  0.00    -0.302 OA 
HETATM    9  C   UNL     1     -10.114   6.380  74.477  1.00  0.00    -0.339 C  
HETATM   10  C   UNL     1     -10.880   5.338  73.624  1.00  0.00    -0.294 C  
ENDROOT
BRANCH   3  11
HETATM   11  C   UNL     1     -10.837   9.692  69.470  1.00  0.00    -0.231 A  
HETATM   12  C   UNL     1     -11.511  11.712  67.579  1.00  0.00    -0.360 A  
HETATM   13  C   UNL     1     -11.949  12.775  66.643  1.00  0.00    -0.341 C  
HETATM   14  C   UNL     1     -11.787  11.897  68.926  1.00  0.00    -0.366 A  
HETATM   15  C   UNL     1     -11.707  12.591  65.206  1.00  0.00    -0.430 C  
HETATM   16  C   UNL     1     -11.442  10.914  69.838  1.00  0.00    -0.323 A  
HETATM   17  O   UNL     1     -12.528  13.783  67.039  1.00  0.00    -0.315 OA 
HETATM   18  C   UNL     1     -11.062  11.475  64.851  1.00  0.00    -0.215 C  
HETATM   19  C   UNL     1     -12.074  13.581  64.171  1.00  0.00    -0.435 C  
HETATM   20  F   UNL     1     -11.727  11.192  71.119  1.00  0.00    -0.347 F  
HETATM   21  N   UNL     1     -10.569  10.493  65.701  1.00  0.00    -0.126 NA 
HETATM   22  O   UNL     1     -11.802  13.447  62.988  1.00  0.00    -0.210 OA 
HETATM   23  O   UNL     1     -12.727  14.666  64.641  1.00  0.00    -0.588 OA 
HETATM   24  N   UNL     1      -9.922   7.161  67.201  1.00  0.00    -0.190 NA 
HETATM   25  C   UNL     1     -10.861  10.551  67.108  1.00  0.00    -0.259 A  
HETATM   26  C   UNL     1     -10.585   9.520  68.066  1.00  0.00    -0.282 A  
HETATM   27  C   UNL     1     -10.206   8.220  67.587  1.00  0.00    -0.231 C  
BRANCH  21  28
HETATM   28  C   UNL     1      -9.521   9.623  65.110  1.00  0.00    -0.265 C  
HETATM   29  C   UNL     1      -9.034   9.849  63.689  1.00  0.00    -0.278 C  
HETATM   30  C   UNL     1      -8.116  10.103  64.839  1.00  0.00    -0.153 C  
ENDBRANCH  21  28
ENDBRANCH   3  11
TORSDOF 2
ENDMDL
MODEL        5
REMARK 921   NORMALIZED FREE ENERGY PREDICTED BY IDOCK:   -7.21 KCAL/MOL
REMARK 922        TOTAL FREE ENERGY PREDICTED BY IDOCK:   -8.83 KCAL/MOL
REMARK 923 INTER-LIGAND FREE ENERGY PREDICTED BY IDOCK:   -8.16 KCAL/MOL
REMARK 924 INTRA-LIGAND FREE ENERGY PREDICTED BY IDOCK:   -0.66 KCAL/MOL
REMARK 927      BINDING AFFINITY PREDICTED BY RF-SCORE:    0.00 PKD
ROOT
HETATM    1  C   UNL     1      -9.356  17.217  68.182  1.00  0.00    -0.274 C  
HETATM    2  C   UNL     1      -9.926  16.330  69.310  1.00  0.00    -0.259 C  
HETATM    3  N   UNL     1     -10.820  15.379  68.605  1.00  0.00    -0.249 NA 
HETATM    4  H   UNL     1      -8.152  18.604  69.196  1.00  0.00     0.000 HD 
HETATM    5  C   UNL     1     -10.966  15.803  67.191  1.00  0.00    -0.244 C  
HETATM    6  C   UNL     1     -10.532  17.268  67.199  1.00  0.00    -0.297 C  
HETATM    7  N   UNL     1      -8.903  18.584  68.506  1.00  0.00    -0.327 NA 
HETATM    8  O   UNL     1     -10.089  17.774  65.940  1.00  0.00    -0.526 OA 
HETATM    9  C   UNL     1      -8.533  19.236  67.224  1.00  0.00    -0.287 C  
HETATM   10  C   UNL     1      -9.606  19.120  66.113  1.00  0.00    -0.280 C  
ENDROOT
BRANCH   3  11
HETATM   11  C   UNL     1     -11.146  14.097  69.047  1.00  0.00    -0.263 A  
HETATM   12  C   UNL     1     -11.833  11.545  70.110  1.00  0.00    -0.440 A  
HETATM   13  C   UNL     1     -12.196  10.260  70.753  1.00  0.00    -0.350 C  
HETATM   14  C   UNL     1     -12.504  12.682  70.535  1.00  0.00    -0.273 A  
HETATM   15  C   UNL     1     -11.477   9.043  70.353  1.00  0.00    -0.202 C  
HETATM   16  C   UNL     1     -12.171  13.916  70.001  1.00  0.00    -0.344 A  
HETATM   17  O   UNL     1     -13.060  10.198  71.625  1.00  0.00    -0.387 OA 
HETATM   18  C   UNL     1     -10.558   9.187  69.392  1.00  0.00    -0.223 C  
HETATM   19  C   UNL     1     -11.755   7.699  70.901  1.00  0.00    -0.271 C  
HETATM   20  F   UNL     1     -12.890  14.952  70.456  1.00  0.00    -0.368 F  
HETATM   21  N   UNL     1     -10.241  10.356  68.711  1.00  0.00    -0.177 NA 
HETATM   22  O   UNL     1     -11.198   6.686  70.506  1.00  0.00    -0.285 OA 
HETATM   23  O   UNL     1     -12.695   7.673  71.869  1.00  0.00    -0.312 OA 
HETATM   24  N   UNL     1      -8.260  13.143  67.271  1.00  0.00    -0.184 NA 
HETATM   25  C   UNL     1     -10.827  11.604  69.121  1.00  0.00    -0.184 A  
HETATM   26  C   UNL     1     -10.454  12.903  68.643  1.00  0.00    -0.231 A  
HETATM   27  C   UNL     1      -9.247  13.033  67.874  1.00  0.00    -0.208 C  
BRANCH  21  28
HETATM   28  C   UNL     1      -9.545  10.156  67.416  1.00  0.00    -0.154 C  
HETATM   29  C   UNL     1      -9.639   8.831  66.679  1.00  0.00    -0.283 C  
HETATM   30  C   UNL     1     -10.278  10.050  66.100  1.00  0.00    -0.283 C  
ENDBRANCH  21  28
ENDBRANCH   3  11
TORSDOF 2
ENDMDL
MODEL        6
REMARK 921   NORMALIZED FREE ENERGY PREDICTED BY IDOCK:   -7.19 KCAL/MOL
REMARK 922        TOTAL FREE ENERGY PREDICTED BY IDOCK:   -8.81 KCAL/MOL
REMARK 923 INTER-LIGAND FREE ENERGY PREDICTED BY IDOCK:   -7.99 KCAL/MOL
REMARK 924 INTRA-LIGAND FREE ENERGY PREDICTED BY IDOCK:   -0.82 KCAL/MOL
REMARK 927      BINDING AFFINITY PREDICTED BY RF-SCORE:    0.00 PKD
ROOT
HETATM    1  C   UNL     1      -8.889   5.982  67.855  1.00  0.00    -0.110 C  
HETATM    2  C   UNL     1      -8.756   7.429  68.378  1.00  0.00    -0.123 C  
HETATM    3  N   UNL     1     -10.092   8.025  68.136  1.00  0.00    -0.190 NA 
HETATM    4  H   UNL     1      -6.975   5.171  68.134  1.00  0.00     0.000 HD 
HETATM    5  C   UNL     1     -10.902   7.091  67.316  1.00  0.00    -0.333 C  
HETATM    6  C   UNL     1      -9.867   6.159  66.688  1.00  0.00    -0.159 C  
HETATM    7  N   UNL     1      -7.678   5.270  67.402  1.00  0.00    -0.095 NA 
HETATM    8  O   UNL     1     -10.368   4.887  66.278  1.00  0.00    -0.255 OA 
HETATM    9  C   UNL     1      -8.122   3.969  66.841  1.00  0.00    -0.097 C  
HETATM   10  C   UNL     1      -9.274   4.074  65.812  1.00  0.00    -0.151 C  
ENDROOT
BRANCH   3  11
HETATM   11  C   UNL     1     -10.655   9.072  68.866  1.00  0.00    -0.180 A  
HETATM   12  C   UNL     1     -11.935  11.099  70.405  1.00  0.00    -0.469 A  
HETATM   13  C   UNL     1     -12.674  12.089  71.224  1.00  0.00    -0.279 C  
HETATM   14  C   UNL     1     -11.893   9.793  70.869  1.00  0.00    -0.420 A  
HETATM   15  C   UNL     1     -12.770  13.473  70.740  1.00  0.00    -0.316 C  
HETATM   16  C   UNL     1     -11.257   8.818  70.119  1.00  0.00    -0.152 A  
HETATM   17  O   UNL     1     -13.226  11.771  72.274  1.00  0.00    -0.438 OA 
HETATM   18  C   UNL     1     -12.136  13.746  69.595  1.00  0.00    -0.336 C  
HETATM   19  C   UNL     1     -13.458  14.558  71.469  1.00  0.00    -0.374 C  
HETATM   20  F   UNL     1     -11.248   7.590  70.659  1.00  0.00    -0.254 F  
HETATM   21  N   UNL     1     -11.370  12.868  68.838  1.00  0.00    -0.271 NA 
HETATM   22  O   UNL     1     -13.468  15.720  71.090  1.00  0.00    -0.575 OA 
HETATM   23  O   UNL     1     -14.069  14.168  72.608  1.00  0.00    -0.617 OA 
HETATM   24  N   UNL     1     -10.098  10.938  65.934  1.00  0.00    -0.243 NA 
HETATM   25  C   UNL     1     -11.319  11.474  69.191  1.00  0.00    -0.286 A  
HETATM   26  C   UNL     1     -10.734  10.430  68.402  1.00  0.00    -0.263 A  
HETATM   27  C   UNL     1     -10.371  10.715  67.042  1.00  0.00    -0.231 C  
BRANCH  21  28
HETATM   28  C   UNL     1     -10.425  13.516  67.895  1.00  0.00    -0.250 C  
HETATM   29  C   UNL     1     -10.896  14.607  66.949  1.00  0.00    -0.305 C  
HETATM   30  C   UNL     1      -9.954  14.941  68.058  1.00  0.00    -0.220 C  
ENDBRANCH  21  28
ENDBRANCH   3  11
TORSDOF 2
ENDMDL
MODEL        7
REMARK 921   NORMALIZED FREE ENERGY PREDICTED BY IDOCK:   -7.16 KCAL/MOL
REMARK 922        TOTAL FREE ENERGY PREDICTED BY IDOCK:   -8.77 KCAL/MOL
REMARK 923 INTER-LIGAND FREE ENERGY PREDICTED BY IDOCK:   -8.12 KCAL/MOL
REMARK 924 INTRA-LIGAND FREE ENERGY PREDICTED BY IDOCK:   -0.65 KCAL/MOL
REMARK 927      BINDING AFFINITY PREDICTED BY RF-SCORE:    0.00 PKD
ROOT
HETATM    1  C   UNL     1     -11.005   6.712  72.100  1.00  0.00    -0.245 C  
HETATM    2  C   UNL     1     -11.906   7.630  71.245  1.00  0.00    -0.292 C  
HETATM    3  N   UNL     1     -11.104   8.865  71.074  1.00  0.00    -0.258 NA 
HETATM    4  H   UNL     1     -12.177   4.998  72.399  1.00  0.00     0.000 HD 
HETATM    5  C   UNL     1      -9.909   8.797  71.950  1.00  0.00    -0.324 C  
HETATM    6  C   UNL     1     -10.269   7.727  72.981  1.00  0.00    -0.330 C  
HETATM    7  N   UNL     1     -11.633   5.671  72.938  1.00  0.00    -0.247 NA 
HETATM    8  O   UNL     1      -9.154   7.101  73.615  1.00  0.00    -0.155 OA 
HETATM    9  C   UNL     1     -10.550   5.041  73.734  1.00  0.00    -0.279 C  
HETATM   10  C   UNL     1      -9.629   6.043  74.471  1.00  0.00    -0.227 C  
ENDROOT
BRANCH   3  11
HETATM   11  C   UNL     1     -11.205   9.753  70.002  1.00  0.00    -0.251 A  
HETATM   12  C   UNL     1     -11.572  11.609  67.873  1.00  0.00    -0.369 A  
HETATM   13  C   UNL     1     -11.855  12.592  66.800  1.00  0.00    -0.346 C  
HETATM   14  C   UNL     1     -12.024  11.913  69.149  1.00  0.00    -0.336 A  
HETATM   15  C   UNL     1     -11.424  12.282  65.430  1.00  0.00    -0.402 C  
HETATM   16  C   UNL     1     -11.828  11.008  70.180  1.00  0.00    -0.357 A  
HETATM   17  O   UNL     1     -12.461  13.636  67.027  1.00  0.00    -0.291 OA 
HETATM   18  C   UNL     1     -10.762  11.133  65.262  1.00  0.00    -0.203 C  
HETATM   19  C   UNL     1     -11.627  13.182  64.276  1.00  0.00    -0.392 C  
HETATM   20  F   UNL     1     -12.278  11.399  71.381  1.00  0.00    -0.389 F  
HETATM   21  N   UNL     1     -10.410  10.223  66.251  1.00  0.00    -0.215 NA 
HETATM   22  O   UNL     1     -11.199  12.944  63.156  1.00  0.00    -0.226 OA 
HETATM   23  O   UNL     1     -12.313  14.310  64.558  1.00  0.00    -0.539 OA 
HETATM   24  N   UNL     1     -10.045   7.027  68.102  1.00  0.00    -0.162 NA 
HETATM   25  C   UNL     1     -10.889  10.405  67.595  1.00  0.00    -0.306 A  
HETATM   26  C   UNL     1     -10.768   9.459  68.665  1.00  0.00    -0.196 A  
HETATM   27  C   UNL     1     -10.356   8.118  68.355  1.00  0.00    -0.199 C  
BRANCH  21  28
HETATM   28  C   UNL     1      -9.311   9.295  65.885  1.00  0.00    -0.236 C  
HETATM   29  C   UNL     1      -8.680   9.344  64.504  1.00  0.00    -0.233 C  
HETATM   30  C   UNL     1      -7.883   9.749  65.700  1.00  0.00    -0.114 C  
ENDBRANCH  21  28
ENDBRANCH   3  11
TORSDOF 2
ENDMDL
MODEL        8
REMARK 921   NORMALIZED FREE ENERGY PREDICTED BY IDOCK:   -7.13 KCAL/MOL
REMARK 922        TOTAL FREE ENERGY PREDICTED BY IDOCK:   -8.74 KCAL/MOL
REMARK 923 INTER-LIGAND FREE ENERGY PREDICTED BY IDOCK:   -7.98 KCAL/MOL
REMARK 924 INTRA-LIGAND FREE ENERGY PREDICTED BY IDOCK:   -0.76 KCAL/MOL
REMARK 927      BINDING AFFINITY PREDICTED BY RF-SCORE:    0.00 PKD
ROOT
HETATM    1  C   UNL     1      -8.658  10.117  63.976  1.00  0.00    -0.192 C  
HETATM    2  C   UNL     1      -9.949  10.298  64.805  1.00  0.00    -0.321 C  
HETATM    3  N   UNL     1      -9.467  10.767  66.126  1.00  0.00    -0.181 NA 
HETATM    4  H   UNL     1      -9.345   9.384  62.134  1.00  0.00     0.000 HD 
HETATM    5  C   UNL     1      -7.988  10.655  66.175  1.00  0.00    -0.151 C  
HETATM    6  C   UNL     1      -7.656   9.676  65.049  1.00  0.00    -0.116 C  
HETATM    7  N   UNL     1      -8.657   9.159  62.853  1.00  0.00    -0.213 NA 
HETATM    8  O   UNL     1      -6.327   9.771  64.538  1.00  0.00    -0.097 OA 
HETATM    9  C   UNL     1      -7.269   9.100  62.332  1.00  0.00    -0.096 C  
HETATM   10  C   UNL     1      -6.185   8.880  63.416  1.00  0.00    -0.089 C  
ENDROOT
BRANCH   3  11
HETATM   11  C   UNL     1     -10.194  11.553  67.020  1.00  0.00    -0.214 A  
HETATM   12  C   UNL     1     -11.564  13.290  68.815  1.00  0.00    -0.350 A  
HETATM   13  C   UNL     1     -12.206  14.261  69.732  1.00  0.00    -0.339 C  
HETATM   14  C   UNL     1     -11.042  13.783  67.628  1.00  0.00    -0.292 A  
HETATM   15  C   UNL     1     -12.734  13.777  71.014  1.00  0.00    -0.416 C  
HETATM   16  C   UNL     1     -10.389  12.927  66.757  1.00  0.00    -0.245 A  
HETATM   17  O   UNL     1     -12.279  15.456  69.455  1.00  0.00    -0.313 OA 
HETATM   18  C   UNL     1     -12.627  12.464  71.242  1.00  0.00    -0.230 C  
HETATM   19  C   UNL     1     -13.413  14.636  72.007  1.00  0.00    -0.380 C  
HETATM   20  F   UNL     1      -9.939  13.491  65.626  1.00  0.00    -0.280 F  
HETATM   21  N   UNL     1     -12.103  11.510  70.378  1.00  0.00    -0.372 NA 
HETATM   22  O   UNL     1     -13.911  14.206  73.037  1.00  0.00    -0.567 OA 
HETATM   23  O   UNL     1     -13.457  15.945  71.678  1.00  0.00    -0.422 OA 
HETATM   24  N   UNL     1     -10.036   8.710  69.090  1.00  0.00    -0.186 NA 
HETATM   25  C   UNL     1     -11.472  11.922  69.153  1.00  0.00    -0.296 A  
HETATM   26  C   UNL     1     -10.727  11.077  68.267  1.00  0.00    -0.235 A  
HETATM   27  C   UNL     1     -10.356   9.764  68.718  1.00  0.00    -0.208 C  
BRANCH  21  28
HETATM   28  C   UNL     1     -12.515  10.113  70.666  1.00  0.00    -0.284 C  
HETATM   29  C   UNL     1     -12.078   9.422  71.946  1.00  0.00    -0.427 C  
HETATM   30  C   UNL     1     -13.517   9.759  71.737  1.00  0.00    -0.463 C  
ENDBRANCH  21  28
ENDBRANCH   3  11
TORSDOF 2
ENDMDL
MODEL        9
REMARK 921   NORMALIZED FREE ENERGY PREDICTED BY IDOCK:   -7.12 KCAL/MOL
REMARK 922        TOTAL FREE ENERGY PREDICTED BY IDOCK:   -8.73 KCAL/MOL
REMARK 923 INTER-LIGAND FREE ENERGY PREDICTED BY IDOCK:   -7.88 KCAL/MOL
REMARK 924 INTRA-LIGAND FREE ENERGY PREDICTED BY IDOCK:   -0.85 KCAL/MOL
REMARK 927      BINDING AFFINITY PREDICTED BY RF-SCORE:    0.00 PKD
ROOT
HETATM    1  C   UNL     1      -7.585   9.678  65.032  1.00  0.00    -0.116 C  
HETATM    2  C   UNL     1      -7.756  10.748  66.132  1.00  0.00    -0.149 C  
HETATM    3  N   UNL     1      -9.214  11.019  66.150  1.00  0.00    -0.183 NA 
HETATM    4  H   UNL     1      -5.513   9.356  64.964  1.00  0.00     0.000 HD 
HETATM    5  C   UNL     1      -9.850  10.343  64.993  1.00  0.00    -0.319 C  
HETATM    6  C   UNL     1      -8.686  10.070  64.040  1.00  0.00    -0.208 C  
HETATM    7  N   UNL     1      -6.288   9.568  64.336  1.00  0.00    -0.088 NA 
HETATM    8  O   UNL     1      -8.902   9.008  63.111  1.00  0.00    -0.163 OA 
HETATM    9  C   UNL     1      -6.456   8.561  63.259  1.00  0.00    -0.086 C  
HETATM   10  C   UNL     1      -7.695   8.785  62.357  1.00  0.00    -0.117 C  
ENDROOT
BRANCH   3  11
HETATM   11  C   UNL     1      -9.939  11.472  67.252  1.00  0.00    -0.191 A  
HETATM   12  C   UNL     1     -11.522  12.253  69.488  1.00  0.00    -0.318 A  
HETATM   13  C   UNL     1     -12.403  12.580  70.634  1.00  0.00    -0.282 C  
HETATM   14  C   UNL     1     -11.185  10.920  69.303  1.00  0.00    -0.327 A  
HETATM   15  C   UNL     1     -12.810  13.977  70.835  1.00  0.00    -0.389 C  
HETATM   16  C   UNL     1     -10.404  10.554  68.220  1.00  0.00    -0.168 A  
HETATM   17  O   UNL     1     -12.817  11.709  71.396  1.00  0.00    -0.409 OA 
HETATM   18  C   UNL     1     -12.312  14.869  69.973  1.00  0.00    -0.312 C  
HETATM   19  C   UNL     1     -13.666  14.438  71.948  1.00  0.00    -0.431 C  
HETATM   20  F   UNL     1     -10.111   9.248  68.137  1.00  0.00    -0.175 F  
HETATM   21  N   UNL     1     -11.425  14.617  68.934  1.00  0.00    -0.281 NA 
HETATM   22  O   UNL     1     -13.937  15.613  72.143  1.00  0.00    -0.499 OA 
HETATM   23  O   UNL     1     -14.118  13.452  72.752  1.00  0.00    -0.715 OA 
HETATM   24  N   UNL     1      -9.947  14.542  65.530  1.00  0.00    -0.353 NA 
HETATM   25  C   UNL     1     -11.067  13.261  68.611  1.00  0.00    -0.268 A  
HETATM   26  C   UNL     1     -10.323  12.842  67.459  1.00  0.00    -0.219 A  
HETATM   27  C   UNL     1     -10.105  13.786  66.399  1.00  0.00    -0.295 C  
BRANCH  21  28
HETATM   28  C   UNL     1     -10.689  15.806  68.437  1.00  0.00    -0.281 C  
HETATM   29  C   UNL     1     -10.532  17.042  69.306  1.00  0.00    -0.293 C  
HETATM   30  C   UNL     1      -9.336  16.213  68.970  1.00  0.00    -0.248 C  
ENDBRANCH  21  28
ENDBRANCH   3  11
TORSDOF 2
ENDMDL
MODEL       10
REMARK 921   NORMALIZED FREE ENERGY PREDICTED BY IDOCK:   -7.09 KCAL/MOL
REMARK 922        TOTAL FREE ENERGY PREDICTED BY IDOCK:   -8.70 KCAL/MOL
REMARK 923 INTER-LIGAND FREE ENERGY PREDICTED BY IDOCK:   -8.16 KCAL/MOL
REMARK 924 INTRA-LIGAND FREE ENERGY PREDICTED BY IDOCK:   -0.54 KCAL/MOL
REMARK 927      BINDING AFFINITY PREDICTED BY RF-SCORE:    0.00 PKD
ROOT
HETATM    1  C   UNL     1     -10.362  14.508  67.132  1.00  0.00    -0.265 C  
HETATM    2  C   UNL     1     -10.546  13.862  68.522  1.00  0.00    -0.252 C  
HETATM    3  N   UNL     1     -11.406  12.682  68.262  1.00  0.00    -0.272 NA 
HETATM    4  H   UNL     1      -9.207  16.215  67.523  1.00  0.00     0.000 HD 
HETATM    5  C   UNL     1     -11.900  12.737  66.864  1.00  0.00    -0.371 C  
HETATM    6  C   UNL     1     -11.706  14.199  66.463  1.00  0.00    -0.397 C  
HETATM    7  N   UNL     1     -10.070  15.952  67.047  1.00  0.00    -0.262 NA 
HETATM    8  O   UNL     1     -11.612  14.432  65.057  1.00  0.00    -0.343 OA 
HETATM    9  C   UNL     1     -10.074  16.313  65.607  1.00  0.00    -0.312 C  
HETATM   10  C   UNL     1     -11.318  15.823  64.826  1.00  0.00    -0.314 C  
ENDROOT
BRANCH   3  11
HETATM   11  C   UNL     1     -11.432  11.515  69.026  1.00  0.00    -0.291 A  
HETATM   12  C   UNL     1     -11.461   9.233  70.731  1.00  0.00    -0.351 A  
HETATM   13  C   UNL     1     -11.456   8.107  71.694  1.00  0.00    -0.274 C  
HETATM   14  C   UNL     1     -12.072  10.412  71.132  1.00  0.00    -0.487 A  
HETATM   15  C   UNL     1     -10.782   6.858  71.315  1.00  0.00    -0.249 C  
HETATM   16  C   UNL     1     -12.064  11.511  70.290  1.00  0.00    -0.359 A  
HETATM   17  O   UNL     1     -11.975   8.206  72.803  1.00  0.00    -0.365 OA 
HETATM   18  C   UNL     1     -10.249   6.821  70.089  1.00  0.00    -0.195 C  
HETATM   19  C   UNL     1     -10.722   5.656  72.173  1.00  0.00    -0.234 C  
HETATM   20  F   UNL     1     -12.699  12.597  70.754  1.00  0.00    -0.371 F  
HETATM   21  N   UNL     1     -10.297   7.824  69.130  1.00  0.00    -0.213 NA 
HETATM   22  O   UNL     1     -10.221   4.601  71.815  1.00  0.00    -0.193 OA 
HETATM   23  O   UNL     1     -11.286   5.809  73.390  1.00  0.00    -0.220 OA 
HETATM   24  N   UNL     1      -9.202  10.298  66.590  1.00  0.00    -0.153 NA 
HETATM   25  C   UNL     1     -10.845   9.111  69.466  1.00  0.00    -0.180 A  
HETATM   26  C   UNL     1     -10.788  10.287  68.649  1.00  0.00    -0.272 A  
HETATM   27  C   UNL     1      -9.920  10.288  67.504  1.00  0.00    -0.189 C  
BRANCH  21  28
HETATM   28  C   UNL     1     -10.046   7.371  67.739  1.00  0.00    -0.184 C  
HETATM   29  C   UNL     1      -9.746   5.913  67.438  1.00  0.00    -0.126 C  
HETATM   30  C   UNL     1     -11.024   6.522  66.964  1.00  0.00    -0.466 C  
ENDBRANCH  21  28
ENDBRANCH   3  11
TORSDOF 2
ENDMDL
MODEL       11
REMARK 921   NORMALIZED FREE ENERGY PREDICTED BY IDOCK:   -7.00 KCAL/MOL
REMARK 922        TOTAL FREE ENERGY PREDICTED BY IDOCK:   -8.60 KCAL/MOL
REMARK 923 INTER-LIGAND FREE ENERGY PREDICTED BY IDOCK:   -7.91 KCAL/MOL
REMARK 924 INTRA-LIGAND FREE ENERGY PREDICTED BY IDOCK:   -0.69 KCAL/MOL
REMARK 927      BINDING AFFINITY PREDICTED BY RF-SCORE:    0.00 PKD
ROOT
HETATM    1  C   UNL     1     -10.719  16.400  66.782  1.00  0.00    -0.180 C  
HETATM    2  C   UNL     1     -10.738  14.859  66.700  1.00  0.00    -0.312 C  
HETATM    3  N   UNL     1     -10.398  14.419  68.075  1.00  0.00    -0.225 NA 
HETATM    4  H   UNL     1     -11.128  17.011  64.817  1.00  0.00     0.000 HD 
HETATM    5  C   UNL     1      -9.975  15.596  68.873  1.00  0.00    -0.215 C  
HETATM    6  C   UNL     1      -9.619  16.646  67.820  1.00  0.00    -0.236 C  
HETATM    7  N   UNL     1     -10.448  17.179  65.558  1.00  0.00    -0.619 NA 
HETATM    8  O   UNL     1      -9.673  17.998  68.274  1.00  0.00    -0.298 OA 
HETATM    9  C   UNL     1     -10.364  18.606  65.959  1.00  0.00    -0.399 C  
HETATM   10  C   UNL     1      -9.429  18.881  67.162  1.00  0.00    -0.304 C  
ENDROOT
BRANCH   3  11
HETATM   11  C   UNL     1     -10.784  13.211  68.657  1.00  0.00    -0.250 A  
HETATM   12  C   UNL     1     -11.601  10.834  69.995  1.00  0.00    -0.417 A  
HETATM   13  C   UNL     1     -12.035   9.650  70.776  1.00  0.00    -0.277 C  
HETATM   14  C   UNL     1     -12.261  12.030  70.233  1.00  0.00    -0.348 A  
HETATM   15  C   UNL     1     -11.331   8.377  70.576  1.00  0.00    -0.228 C  
HETATM   16  C   UNL     1     -11.864  13.178  69.567  1.00  0.00    -0.322 A  
HETATM   17  O   UNL     1     -12.946   9.720  71.598  1.00  0.00    -0.356 OA 
HETATM   18  C   UNL     1     -10.358   8.375  69.658  1.00  0.00    -0.218 C  
HETATM   19  C   UNL     1     -11.677   7.121  71.273  1.00  0.00    -0.306 C  
HETATM   20  F   UNL     1     -12.575  14.280  69.844  1.00  0.00    -0.362 F  
HETATM   21  N   UNL     1      -9.972   9.440  68.853  1.00  0.00    -0.174 NA 
HETATM   22  O   UNL     1     -11.129   6.053  71.044  1.00  0.00    -0.288 OA 
HETATM   23  O   UNL     1     -12.668   7.241  72.183  1.00  0.00    -0.222 OA 
HETATM   24  N   UNL     1      -7.836  11.974  67.184  1.00  0.00    -0.168 NA 
HETATM   25  C   UNL     1     -10.542  10.743  69.066  1.00  0.00    -0.219 A  
HETATM   26  C   UNL     1     -10.106  11.961  68.448  1.00  0.00    -0.206 A  
HETATM   27  C   UNL     1      -8.857  11.965  67.739  1.00  0.00    -0.166 C  
BRANCH  21  28
HETATM   28  C   UNL     1      -9.213   9.059  67.635  1.00  0.00    -0.136 C  
HETATM   29  C   UNL     1      -8.898   7.603  67.339  1.00  0.00    -0.124 C  
HETATM   30  C   UNL     1      -9.848   8.352  66.462  1.00  0.00    -0.338 C  
ENDBRANCH  21  28
ENDBRANCH   3  11
TORSDOF 2
ENDMDL
MODEL       12
REMARK 921   NORMALIZED FREE ENERGY PREDICTED BY IDOCK:   -6.89 KCAL/MOL
REMARK 922        TOTAL FREE ENERGY PREDICTED BY IDOCK:   -8.47 KCAL/MOL
REMARK 923 INTER-LIGAND FREE ENERGY PREDICTED BY IDOCK:   -7.82 KCAL/MOL
REMARK 924 INTRA-LIGAND FREE ENERGY PREDICTED BY IDOCK:   -0.65 KCAL/MOL
REMARK 927      BINDING AFFINITY PREDICTED BY RF-SCORE:    0.00 PKD
ROOT
HETATM    1  C   UNL     1     -11.709  13.259  65.056  1.00  0.00    -0.333 C  
HETATM    2  C   UNL     1     -11.495  11.740  64.886  1.00  0.00    -0.203 C  
HETATM    3  N   UNL     1     -10.380  11.425  65.811  1.00  0.00    -0.247 NA 
HETATM    4  H   UNL     1     -13.237  13.706  63.690  1.00  0.00     0.000 HD 
HETATM    5  C   UNL     1      -9.804  12.691  66.328  1.00  0.00    -0.262 C  
HETATM    6  C   UNL     1     -10.283  13.747  65.333  1.00  0.00    -0.326 C  
HETATM    7  N   UNL     1     -12.304  14.028  63.945  1.00  0.00    -0.707 NA 
HETATM    8  O   UNL     1     -10.317  15.082  65.839  1.00  0.00    -0.277 OA 
HETATM    9  C   UNL     1     -12.268  15.459  64.337  1.00  0.00    -0.151 C  
HETATM   10  C   UNL     1     -10.890  15.951  64.844  1.00  0.00    -0.400 C  
ENDROOT
BRANCH   3  11
HETATM   11  C   UNL     1     -10.157  10.190  66.419  1.00  0.00    -0.236 A  
HETATM   12  C   UNL     1      -9.736   7.591  67.506  1.00  0.00    -0.190 A  
HETATM   13  C   UNL     1      -9.543   6.200  67.983  1.00  0.00    -0.115 C  
HETATM   14  C   UNL     1      -9.289   7.894  66.228  1.00  0.00    -0.225 A  
HETATM   15  C   UNL     1     -10.041   5.837  69.316  1.00  0.00    -0.268 C  
HETATM   16  C   UNL     1      -9.487   9.165  65.715  1.00  0.00    -0.254 A  
HETATM   17  O   UNL     1      -9.005   5.348  67.280  1.00  0.00    -0.113 OA 
HETATM   18  C   UNL     1     -10.606   6.819  70.026  1.00  0.00    -0.220 C  
HETATM   19  C   UNL     1      -9.895   4.495  69.917  1.00  0.00    -0.227 C  
HETATM   20  F   UNL     1      -9.001   9.370  64.483  1.00  0.00    -0.213 F  
HETATM   21  N   UNL     1     -10.738   8.149  69.648  1.00  0.00    -0.222 NA 
HETATM   22  O   UNL     1     -10.249   4.227  71.055  1.00  0.00    -0.139 OA 
HETATM   23  O   UNL     1      -9.317   3.580  69.109  1.00  0.00    -0.150 OA 
HETATM   24  N   UNL     1     -12.271  11.453  68.935  1.00  0.00    -0.464 NA 
HETATM   25  C   UNL     1     -10.372   8.556  68.317  1.00  0.00    -0.201 A  
HETATM   26  C   UNL     1     -10.629   9.838  67.731  1.00  0.00    -0.320 A  
HETATM   27  C   UNL     1     -11.527  10.735  68.403  1.00  0.00    -0.288 C  
BRANCH  21  28
HETATM   28  C   UNL     1     -10.970   9.097  70.766  1.00  0.00    -0.270 C  
HETATM   29  C   UNL     1     -12.181   8.949  71.672  1.00  0.00    -0.409 C  
HETATM   30  C   UNL     1     -10.811   8.708  72.216  1.00  0.00    -0.392 C  
ENDBRANCH  21  28
ENDBRANCH   3  11
TORSDOF 2
ENDMDL
MODEL       13
REMARK 921   NORMALIZED FREE ENERGY PREDICTED BY IDOCK:   -6.88 KCAL/MOL
REMARK 922        TOTAL FREE ENERGY PREDICTED BY IDOCK:   -8.46 KCAL/MOL
REMARK 923 INTER-LIGAND FREE ENERGY PREDICTED BY IDOCK:   -7.77 KCAL/MOL
REMARK 924 INTRA-LIGAND FREE ENERGY PREDICTED BY IDOCK:   -0.69 KCAL/MOL
REMARK 927      BINDING AFFINITY PREDICTED BY RF-SCORE:    0.00 PKD
ROOT
HETATM    1  C   UNL     1      -9.498   6.616  66.539  1.00  0.00    -0.152 C  
HETATM    2  C   UNL     1     -10.644   7.108  67.449  1.00  0.00    -0.302 C  
HETATM    3  N   UNL     1      -9.974   8.001  68.424  1.00  0.00    -0.179 NA 
HETATM    4  H   UNL     1     -10.444   5.297  65.210  1.00  0.00     0.000 HD 
HETATM    5  C   UNL     1      -8.504   7.877  68.269  1.00  0.00    -0.124 C  
HETATM    6  C   UNL     1      -8.322   6.557  67.521  1.00  0.00    -0.121 C  
HETATM    7  N   UNL     1      -9.643   5.324  65.840  1.00  0.00    -0.150 NA 
HETATM    8  O   UNL     1      -7.095   6.434  66.802  1.00  0.00    -0.069 OA 
HETATM    9  C   UNL     1      -8.354   5.052  65.155  1.00  0.00    -0.138 C  
HETATM   10  C   UNL     1      -7.104   5.201  66.057  1.00  0.00    -0.072 C  
ENDROOT
BRANCH   3  11
HETATM   11  C   UNL     1     -10.576   9.069  69.090  1.00  0.00    -0.203 A  
HETATM   12  C   UNL     1     -11.938  11.142  70.491  1.00  0.00    -0.475 A  
HETATM   13  C   UNL     1     -12.722  12.156  71.236  1.00  0.00    -0.261 C  
HETATM   14  C   UNL     1     -11.933   9.848  70.991  1.00  0.00    -0.456 A  
HETATM   15  C   UNL     1     -12.780  13.527  70.710  1.00  0.00    -0.316 C  
HETATM   16  C   UNL     1     -11.256   8.851  70.309  1.00  0.00    -0.197 A  
HETATM   17  O   UNL     1     -13.340  11.869  72.258  1.00  0.00    -0.471 OA 
HETATM   18  C   UNL     1     -12.075  13.766  69.600  1.00  0.00    -0.336 C  
HETATM   19  C   UNL     1     -13.507  14.634  71.365  1.00  0.00    -0.392 C  
HETATM   20  F   UNL     1     -11.287   7.639  70.881  1.00  0.00    -0.258 F  
HETATM   21  N   UNL     1     -11.268  12.866  68.916  1.00  0.00    -0.266 NA 
HETATM   22  O   UNL     1     -13.487  15.785  70.956  1.00  0.00    -0.581 OA 
HETATM   23  O   UNL     1     -14.190  14.277  72.474  1.00  0.00    -0.568 OA 
HETATM   24  N   UNL     1      -9.828  10.854  66.150  1.00  0.00    -0.214 NA 
HETATM   25  C   UNL     1     -11.247  11.482  69.308  1.00  0.00    -0.272 A  
HETATM   26  C   UNL     1     -10.619  10.414  68.586  1.00  0.00    -0.234 A  
HETATM   27  C   UNL     1     -10.170  10.662  67.244  1.00  0.00    -0.208 C  
BRANCH  21  28
HETATM   28  C   UNL     1     -10.262  13.485  68.017  1.00  0.00    -0.243 C  
HETATM   29  C   UNL     1     -10.694  14.378  66.866  1.00  0.00    -0.292 C  
HETATM   30  C   UNL     1      -9.956  14.963  68.025  1.00  0.00    -0.220 C  
ENDBRANCH  21  28
ENDBRANCH   3  11
TORSDOF 2
ENDMDL
MODEL       14
REMARK 921   NORMALIZED FREE ENERGY PREDICTED BY IDOCK:   -6.87 KCAL/MOL
REMARK 922        TOTAL FREE ENERGY PREDICTED BY IDOCK:   -8.45 KCAL/MOL
REMARK 923 INTER-LIGAND FREE ENERGY PREDICTED BY IDOCK:   -7.77 KCAL/MOL
REMARK 924 INTRA-LIGAND FREE ENERGY PREDICTED BY IDOCK:   -0.68 KCAL/MOL
REMARK 927      BINDING AFFINITY PREDICTED BY RF-SCORE:    0.00 PKD
ROOT
HETATM    1  C   UNL     1     -10.459  13.954  65.757  1.00  0.00    -0.307 C  
HETATM    2  C   UNL     1     -10.061  12.989  66.894  1.00  0.00    -0.243 C  
HETATM    3  N   UNL     1     -10.926  11.803  66.682  1.00  0.00    -0.281 NA 
HETATM    4  H   UNL     1      -9.283  15.655  66.110  1.00  0.00     0.000 HD 
HETATM    5  C   UNL     1     -11.936  12.116  65.642  1.00  0.00    -0.208 C  
HETATM    6  C   UNL     1     -11.951  13.644  65.590  1.00  0.00    -0.395 C  
HETATM    7  N   UNL     1     -10.258  15.404  65.945  1.00  0.00    -0.317 NA 
HETATM    8  O   UNL     1     -12.429  14.202  64.367  1.00  0.00    -0.626 OA 
HETATM    9  C   UNL     1     -10.842  16.083  64.761  1.00  0.00    -0.294 C  
HETATM   10  C   UNL     1     -12.283  15.635  64.411  1.00  0.00    -0.016 C  
ENDROOT
BRANCH   3  11
HETATM   11  C   UNL     1     -10.619  10.498  67.068  1.00  0.00    -0.253 A  
HETATM   12  C   UNL     1     -10.056   7.779  67.701  1.00  0.00    -0.254 A  
HETATM   13  C   UNL     1      -9.804   6.338  67.944  1.00  0.00    -0.124 C  
HETATM   14  C   UNL     1      -9.837   8.256  66.417  1.00  0.00    -0.283 A  
HETATM   15  C   UNL     1     -10.064   5.793  69.282  1.00  0.00    -0.268 C  
HETATM   16  C   UNL     1     -10.102   9.584  66.124  1.00  0.00    -0.256 A  
HETATM   17  O   UNL     1      -9.413   5.594  67.048  1.00  0.00    -0.120 OA 
HETATM   18  C   UNL     1     -10.478   6.665  70.208  1.00  0.00    -0.209 C  
HETATM   19  C   UNL     1      -9.836   4.383  69.660  1.00  0.00    -0.202 C  
HETATM   20  F   UNL     1      -9.837   9.959  64.864  1.00  0.00    -0.348 F  
HETATM   21  N   UNL     1     -10.653   8.033  70.043  1.00  0.00    -0.239 NA 
HETATM   22  O   UNL     1      -9.988   3.959  70.796  1.00  0.00    -0.179 OA 
HETATM   23  O   UNL     1      -9.425   3.591  68.647  1.00  0.00    -0.167 OA 
HETATM   24  N   UNL     1     -12.234  11.391  70.066  1.00  0.00    -0.311 NA 
HETATM   25  C   UNL     1     -10.521   8.619  68.735  1.00  0.00    -0.185 A  
HETATM   26  C   UNL     1     -10.857   9.968  68.383  1.00  0.00    -0.277 A  
HETATM   27  C   UNL     1     -11.607  10.758  69.319  1.00  0.00    -0.305 C  
BRANCH  21  28
HETATM   28  C   UNL     1     -10.668   8.818  71.302  1.00  0.00    -0.269 C  
HETATM   29  C   UNL     1     -11.796   8.654  72.306  1.00  0.00    -0.436 C  
HETATM   30  C   UNL     1     -10.417   8.199  72.656  1.00  0.00    -0.401 C  
ENDBRANCH  21  28
ENDBRANCH   3  11
TORSDOF 2
ENDMDL
MODEL       15
REMARK 921   NORMALIZED FREE ENERGY PREDICTED BY IDOCK:   -6.84 KCAL/MOL
REMARK 922        TOTAL FREE ENERGY PREDICTED BY IDOCK:   -8.42 KCAL/MOL
REMARK 923 INTER-LIGAND FREE ENERGY PREDICTED BY IDOCK:   -7.89 KCAL/MOL
REMARK 924 INTRA-LIGAND FREE ENERGY PREDICTED BY IDOCK:   -0.53 KCAL/MOL
REMARK 927      BINDING AFFINITY PREDICTED BY RF-SCORE:    0.00 PKD
ROOT
HETATM    1  C   UNL     1      -8.807   8.687  66.041  1.00  0.00    -0.178 C  
HETATM    2  C   UNL     1      -8.955   9.948  65.161  1.00  0.00    -0.198 C  
HETATM    3  N   UNL     1     -10.094  10.680  65.767  1.00  0.00    -0.256 NA 
HETATM    4  H   UNL     1      -7.243   7.624  65.132  1.00  0.00     0.000 HD 
HETATM    5  C   UNL     1     -10.739   9.819  66.788  1.00  0.00    -0.073 C  
HETATM    6  C   UNL     1     -10.261   8.410  66.438  1.00  0.00    -0.098 C  
HETATM    7  N   UNL     1      -8.198   7.476  65.458  1.00  0.00    -0.131 NA 
HETATM    8  O   UNL     1     -10.300   7.474  67.515  1.00  0.00    -0.207 OA 
HETATM    9  C   UNL     1      -8.305   6.401  66.476  1.00  0.00    -0.115 C  
HETATM   10  C   UNL     1      -9.721   6.229  67.081  1.00  0.00    -0.139 C  
ENDROOT
BRANCH   3  11
HETATM   11  C   UNL     1     -10.293  12.059  65.706  1.00  0.00    -0.254 A  
HETATM   12  C   UNL     1     -10.644  14.871  65.416  1.00  0.00    -0.391 A  
HETATM   13  C   UNL     1     -10.788  16.326  65.173  1.00  0.00    -0.318 C  
HETATM   14  C   UNL     1     -10.967  14.016  64.373  1.00  0.00    -0.280 A  
HETATM   15  C   UNL     1     -10.416  17.260  66.244  1.00  0.00    -0.268 C  
HETATM   16  C   UNL     1     -10.805  12.650  64.530  1.00  0.00    -0.336 A  
HETATM   17  O   UNL     1     -11.182  16.763  64.094  1.00  0.00    -1.155 OA 
HETATM   18  C   UNL     1     -10.005  16.711  67.393  1.00  0.00    -0.265 C  
HETATM   19  C   UNL     1     -10.531  18.729  66.139  1.00  0.00    -0.446 C  
HETATM   20  F   UNL     1     -11.166  11.903  63.476  1.00  0.00    -0.397 F  
HETATM   21  N   UNL     1      -9.928  15.356  67.687  1.00  0.00    -0.225 NA 
HETATM   22  O   UNL     1     -10.286  19.490  67.063  1.00  0.00    -0.390 OA 
HETATM   23  O   UNL     1     -10.948  19.173  64.934  1.00  0.00    -0.317 OA 
HETATM   24  N   UNL     1      -8.567  12.079  68.774  1.00  0.00     0.001 NA 
HETATM   25  C   UNL     1     -10.173  14.384  66.655  1.00  0.00    -0.277 A  
HETATM   26  C   UNL     1      -9.946  12.972  66.761  1.00  0.00    -0.245 A  
HETATM   27  C   UNL     1      -9.195  12.478  67.881  1.00  0.00    -0.200 C  
BRANCH  21  28
HETATM   28  C   UNL     1      -9.891  15.032  69.135  1.00  0.00    -0.223 C  
HETATM   29  C   UNL     1     -10.573  15.931  70.151  1.00  0.00    -0.302 C  
HETATM   30  C   UNL     1     -11.103  14.558  69.900  1.00  0.00    -0.204 C  
ENDBRANCH  21  28
ENDBRANCH   3  11
TORSDOF 2
ENDMDL
MODEL       16
REMARK 921   NORMALIZED FREE ENERGY PREDICTED BY IDOCK:   -6.69 KCAL/MOL
REMARK 922        TOTAL FREE ENERGY PREDICTED BY IDOCK:   -8.24 KCAL/MOL
REMARK 923 INTER-LIGAND FREE ENERGY PREDICTED BY IDOCK:   -7.39 KCAL/MOL
REMARK 924 INTRA-LIGAND FREE ENERGY PREDICTED BY IDOCK:   -0.85 KCAL/MOL
REMARK 927      BINDING AFFINITY PREDICTED BY RF-SCORE:    0.00 PKD
ROOT
HETATM    1  C   UNL     1      -8.716   8.023  70.439  1.00  0.00    -0.136 C  
HETATM    2  C   UNL     1      -9.175   9.493  70.329  1.00  0.00    -0.258 C  
HETATM    3  N   UNL     1      -8.823   9.879  68.941  1.00  0.00    -0.138 NA 
HETATM    4  H   UNL     1      -9.151   7.511  72.427  1.00  0.00     0.000 HD 
HETATM    5  C   UNL     1      -8.002   8.806  68.330  1.00  0.00    -0.106 C  
HETATM    6  C   UNL     1      -7.484   8.010  69.528  1.00  0.00    -0.092 C  
HETATM    7  N   UNL     1      -8.373   7.478  71.768  1.00  0.00    -0.105 NA 
HETATM    8  O   UNL     1      -7.107   6.664  69.241  1.00  0.00    -0.078 OA 
HETATM    9  C   UNL     1      -7.850   6.106  71.553  1.00  0.00    -0.102 C  
HETATM   10  C   UNL     1      -6.748   6.001  70.469  1.00  0.00    -0.053 C  
ENDROOT
BRANCH   3  11
HETATM   11  C   UNL     1      -9.466  10.861  68.187  1.00  0.00    -0.165 A  
HETATM   12  C   UNL     1     -10.822  12.739  66.529  1.00  0.00    -0.280 A  
HETATM   13  C   UNL     1     -11.543  13.643  65.602  1.00  0.00    -0.328 C  
HETATM   14  C   UNL     1     -11.344  11.468  66.715  1.00  0.00    -0.309 A  
HETATM   15  C   UNL     1     -10.994  14.982  65.353  1.00  0.00    -0.380 C  
HETATM   16  C   UNL     1     -10.684  10.567  67.534  1.00  0.00    -0.276 A  
HETATM   17  O   UNL     1     -12.566  13.286  65.022  1.00  0.00    -0.538 OA 
HETATM   18  C   UNL     1      -9.884  15.303  66.028  1.00  0.00    -0.328 C  
HETATM   19  C   UNL     1     -11.625  15.985  64.469  1.00  0.00    -0.205 C  
HETATM   20  F   UNL     1     -11.277   9.372  67.670  1.00  0.00    -0.281 F  
HETATM   21  N   UNL     1      -9.222  14.516  66.961  1.00  0.00    -0.229 NA 
HETATM   22  O   UNL     1     -11.196  17.120  64.329  1.00  0.00    -1.126 OA 
HETATM   23  O   UNL     1     -12.735  15.551  63.834  1.00  0.00    -0.665 OA 
HETATM   24  N   UNL     1      -6.501  12.687  68.700  1.00  0.00    -0.073 NA 
HETATM   25  C   UNL     1      -9.638  13.156  67.176  1.00  0.00    -0.235 A  
HETATM   26  C   UNL     1      -8.939  12.178  67.957  1.00  0.00    -0.189 A  
HETATM   27  C   UNL     1      -7.596  12.465  68.378  1.00  0.00    -0.129 C  
BRANCH  21  28
HETATM   28  C   UNL     1      -8.319  15.258  67.876  1.00  0.00    -0.148 C  
HETATM   29  C   UNL     1      -8.332  16.776  67.918  1.00  0.00    -0.196 C  
HETATM   30  C   UNL     1      -8.817  15.997  69.095  1.00  0.00    -0.245 C  
ENDBRANCH  21  28
ENDBRANCH   3  11
TORSDOF 2
ENDMDL
MODEL       17
REMARK 921   NORMALIZED FREE ENERGY PREDICTED BY IDOCK:   -6.59 KCAL/MOL
REMARK 922        TOTAL FREE ENERGY PREDICTED BY IDOCK:   -8.14 KCAL/MOL
REMARK 923 INTER-LIGAND FREE ENERGY PREDICTED BY IDOCK:   -7.44 KCAL/MOL
REMARK 924 INTRA-LIGAND FREE ENERGY PREDICTED BY IDOCK:   -0.69 KCAL/MOL
REMARK 927      BINDING AFFINITY PREDICTED BY RF-SCORE:    0.00 PKD
ROOT
HETATM    1  C   UNL     1     -11.475   6.295  72.323  1.00  0.00    -0.306 C  
HETATM    2  C   UNL     1     -12.248   7.447  71.646  1.00  0.00    -0.330 C  
HETATM    3  N   UNL     1     -11.348   8.617  71.784  1.00  0.00    -0.299 NA 
HETATM    4  H   UNL     1     -12.787   4.664  72.188  1.00  0.00     0.000 HD 
HETATM    5  C   UNL     1     -10.220   8.262  72.680  1.00  0.00    -0.298 C  
HETATM    6  C   UNL     1     -10.724   7.033  73.436  1.00  0.00    -0.345 C  
HETATM    7  N   UNL     1     -12.231   5.158  72.885  1.00  0.00     0.039 NA 
HETATM    8  O   UNL     1      -9.701   6.193  73.971  1.00  0.00    -0.161 OA 
HETATM    9  C   UNL     1     -11.251   4.282  73.575  1.00  0.00    -0.272 C  
HETATM   10  C   UNL     1     -10.307   5.023  74.555  1.00  0.00    -0.278 C  
ENDROOT
BRANCH   3  11
HETATM   11  C   UNL     1     -11.314   9.717  70.926  1.00  0.00    -0.365 A  
HETATM   12  C   UNL     1     -11.419  11.977  69.195  1.00  0.00    -0.357 A  
HETATM   13  C   UNL     1     -11.573  13.152  68.305  1.00  0.00    -0.335 C  
HETATM   14  C   UNL     1     -12.212  11.931  70.333  1.00  0.00    -0.399 A  
HETATM   15  C   UNL     1     -10.777  13.212  67.073  1.00  0.00    -0.270 C  
HETATM   16  C   UNL     1     -12.143  10.834  71.174  1.00  0.00    -0.309 A  
HETATM   17  O   UNL     1     -12.367  14.054  68.562  1.00  0.00    -0.265 OA 
HETATM   18  C   UNL     1      -9.928  12.199  66.866  1.00  0.00    -0.204 C  
HETATM   19  C   UNL     1     -10.821  14.334  66.112  1.00  0.00    -0.310 C  
HETATM   20  F   UNL     1     -12.929  10.890  72.259  1.00  0.00    -0.541 F  
HETATM   21  N   UNL     1      -9.698  11.120  67.710  1.00  0.00    -0.169 NA 
HETATM   22  O   UNL     1     -10.099  14.403  65.128  1.00  0.00    -0.382 OA 
HETATM   23  O   UNL     1     -11.717  15.296  66.416  1.00  0.00    -0.108 OA 
HETATM   24  N   UNL     1      -9.324   7.628  68.909  1.00  0.00    -0.146 NA 
HETATM   25  C   UNL     1     -10.516  10.939  68.880  1.00  0.00    -0.203 A  
HETATM   26  C   UNL     1     -10.521   9.784  69.729  1.00  0.00    -0.278 A  
HETATM   27  C   UNL     1      -9.849   8.597  69.281  1.00  0.00    -0.188 C  
BRANCH  21  28
HETATM   28  C   UNL     1      -8.416  10.409  67.480  1.00  0.00    -0.115 C  
HETATM   29  C   UNL     1      -8.140   9.710  66.160  1.00  0.00    -0.108 C  
HETATM   30  C   UNL     1      -7.352  10.921  66.539  1.00  0.00    -0.142 C  
ENDBRANCH  21  28
ENDBRANCH   3  11
TORSDOF 2
ENDMDL
MODEL       18
REMARK 921   NORMALIZED FREE ENERGY PREDICTED BY IDOCK:   -6.59 KCAL/MOL
REMARK 922        TOTAL FREE ENERGY PREDICTED BY IDOCK:   -8.14 KCAL/MOL
REMARK 923 INTER-LIGAND FREE ENERGY PREDICTED BY IDOCK:   -7.40 KCAL/MOL
REMARK 924 INTRA-LIGAND FREE ENERGY PREDICTED BY IDOCK:   -0.74 KCAL/MOL
REMARK 927      BINDING AFFINITY PREDICTED BY RF-SCORE:    0.00 PKD
ROOT
HETATM    1  C   UNL     1      -7.835  18.965  66.387  1.00  0.00    -0.280 C  
HETATM    2  C   UNL     1      -8.994  17.945  66.412  1.00  0.00    -0.227 C  
HETATM    3  N   UNL     1      -8.640  17.023  67.519  1.00  0.00    -0.203 NA 
HETATM    4  H   UNL     1      -8.307  20.218  64.772  1.00  0.00     0.000 HD 
HETATM    5  C   UNL     1      -7.261  17.317  67.977  1.00  0.00    -0.190 C  
HETATM    6  C   UNL     1      -6.646  18.098  66.816  1.00  0.00    -0.185 C  
HETATM    7  N   UNL     1      -7.526  19.666  65.125  1.00  0.00    -0.247 NA 
HETATM    8  O   UNL     1      -5.541  18.931  67.166  1.00  0.00    -0.146 OA 
HETATM    9  C   UNL     1      -6.303  20.472  65.363  1.00  0.00    -0.260 C  
HETATM   10  C   UNL     1      -5.134  19.690  66.011  1.00  0.00    -0.159 C  
ENDROOT
BRANCH   3  11
HETATM   11  C   UNL     1      -9.549  16.288  68.281  1.00  0.00    -0.218 A  
HETATM   12  C   UNL     1     -11.368  14.897  69.974  1.00  0.00    -0.310 A  
HETATM   13  C   UNL     1     -12.287  14.233  70.929  1.00  0.00    -0.359 C  
HETATM   14  C   UNL     1     -11.280  16.280  70.033  1.00  0.00    -0.324 A  
HETATM   15  C   UNL     1     -12.375  12.767  70.920  1.00  0.00    -0.356 C  
HETATM   16  C   UNL     1     -10.401  16.947  69.195  1.00  0.00    -0.319 A  
HETATM   17  O   UNL     1     -12.949  14.877  71.739  1.00  0.00    -0.304 OA 
HETATM   18  C   UNL     1     -11.633  12.134  70.004  1.00  0.00    -0.171 C  
HETATM   19  C   UNL     1     -13.264  11.985  71.804  1.00  0.00    -0.317 C  
HETATM   20  F   UNL     1     -10.402  18.283  69.307  1.00  0.00    -0.371 F  
HETATM   21  N   UNL     1     -10.819  12.720  69.043  1.00  0.00    -0.194 NA 
HETATM   22  O   UNL     1     -13.380  10.770  71.735  1.00  0.00    -0.395 OA 
HETATM   23  O   UNL     1     -13.961  12.725  72.693  1.00  0.00    -0.503 OA 
HETATM   24  N   UNL     1      -7.829  13.502  66.989  1.00  0.00     0.006 NA 
HETATM   25  C   UNL     1     -10.601  14.142  69.060  1.00  0.00    -0.213 A  
HETATM   26  C   UNL     1      -9.648  14.855  68.260  1.00  0.00    -0.214 A  
HETATM   27  C   UNL     1      -8.651  14.106  67.547  1.00  0.00    -0.191 C  
BRANCH  21  28
HETATM   28  C   UNL     1     -10.483  11.847  67.891  1.00  0.00    -0.204 C  
HETATM   29  C   UNL     1      -9.671  10.579  68.089  1.00  0.00    -0.166 C  
HETATM   30  C   UNL     1     -11.106  10.487  67.685  1.00  0.00    -0.375 C  
ENDBRANCH  21  28
ENDBRANCH   3  11
TORSDOF 2
ENDMDL
MODEL       19
REMARK 921   NORMALIZED FREE ENERGY PREDICTED BY IDOCK:   -6.58 KCAL/MOL
REMARK 922        TOTAL FREE ENERGY PREDICTED BY IDOCK:   -8.13 KCAL/MOL
REMARK 923 INTER-LIGAND FREE ENERGY PREDICTED BY IDOCK:   -7.39 KCAL/MOL
REMARK 924 INTRA-LIGAND FREE ENERGY PREDICTED BY IDOCK:   -0.74 KCAL/MOL
REMARK 927      BINDING AFFINITY PREDICTED BY RF-SCORE:    0.00 PKD
ROOT
HETATM    1  C   UNL     1      -9.587   5.974  70.512  1.00  0.00    -0.169 C  
HETATM    2  C   UNL     1     -10.670   7.022  70.173  1.00  0.00    -0.240 C  
HETATM    3  N   UNL     1      -9.901   8.258  69.891  1.00  0.00    -0.184 NA 
HETATM    4  H   UNL     1     -10.688   4.251  70.982  1.00  0.00     0.000 HD 
HETATM    5  C   UNL     1      -8.479   8.043  70.258  1.00  0.00    -0.127 C  
HETATM    6  C   UNL     1      -8.519   6.836  71.195  1.00  0.00    -0.125 C  
HETATM    7  N   UNL     1      -9.944   4.829  71.373  1.00  0.00    -0.189 NA 
HETATM    8  O   UNL     1      -7.297   6.106  71.292  1.00  0.00    -0.077 OA 
HETATM    9  C   UNL     1      -8.694   4.072  71.631  1.00  0.00    -0.106 C  
HETATM   10  C   UNL     1      -7.505   4.940  72.112  1.00  0.00    -0.088 C  
ENDROOT
BRANCH   3  11
HETATM   11  C   UNL     1     -10.317   9.297  69.058  1.00  0.00    -0.214 A  
HETATM   12  C   UNL     1     -11.310  11.435  67.459  1.00  0.00    -0.362 A  
HETATM   13  C   UNL     1     -11.909  12.547  66.684  1.00  0.00    -0.352 C  
HETATM   14  C   UNL     1     -11.452  11.470  68.838  1.00  0.00    -0.352 A  
HETATM   15  C   UNL     1     -11.810  12.519  65.219  1.00  0.00    -0.461 C  
HETATM   16  C   UNL     1     -10.954  10.432  69.607  1.00  0.00    -0.277 A  
HETATM   17  O   UNL     1     -12.505  13.469  67.237  1.00  0.00    -0.215 OA 
HETATM   18  C   UNL     1     -11.139  11.490  64.690  1.00  0.00    -0.250 C  
HETATM   19  C   UNL     1     -12.345  13.574  64.333  1.00  0.00    -0.337 C  
HETATM   20  F   UNL     1     -11.118  10.566  70.931  1.00  0.00    -0.371 F  
HETATM   21  N   UNL     1     -10.499  10.470  65.382  1.00  0.00    -0.206 NA 
HETATM   22  O   UNL     1     -12.192  13.573  63.120  1.00  0.00    -0.608 OA 
HETATM   23  O   UNL     1     -13.009  14.559  64.973  1.00  0.00    -0.564 OA 
HETATM   24  N   UNL     1      -9.493   7.066  66.463  1.00  0.00    -0.167 NA 
HETATM   25  C   UNL     1     -10.643  10.373  66.810  1.00  0.00    -0.205 A  
HETATM   26  C   UNL     1     -10.204   9.279  67.625  1.00  0.00    -0.285 A  
HETATM   27  C   UNL     1      -9.799   8.060  66.982  1.00  0.00    -0.227 C  
BRANCH  21  28
HETATM   28  C   UNL     1      -9.468   9.738  64.604  1.00  0.00    -0.229 C  
HETATM   29  C   UNL     1      -8.944  10.295  63.292  1.00  0.00    -0.253 C  
HETATM   30  C   UNL     1      -8.042  10.217  64.480  1.00  0.00    -0.150 C  
ENDBRANCH  21  28
ENDBRANCH   3  11
TORSDOF 2
ENDMDL
MODEL       20
REMARK 921   NORMALIZED FREE ENERGY PREDICTED BY IDOCK:   -6.53 KCAL/MOL
REMARK 922        TOTAL FREE ENERGY PREDICTED BY IDOCK:   -8.07 KCAL/MOL
REMARK 923 INTER-LIGAND FREE ENERGY PREDICTED BY IDOCK:   -7.36 KCAL/MOL
REMARK 924 INTRA-LIGAND FREE ENERGY PREDICTED BY IDOCK:   -0.71 KCAL/MOL
REMARK 927      BINDING AFFINITY PREDICTED BY RF-SCORE:    0.00 PKD
ROOT
HETATM    1  C   UNL     1      -9.870   5.981  67.423  1.00  0.00    -0.131 C  
HETATM    2  C   UNL     1     -11.052   6.752  68.051  1.00  0.00    -0.158 C  
HETATM    3  N   UNL     1     -10.429   7.545  69.138  1.00  0.00    -0.216 NA 
HETATM    4  H   UNL     1     -10.772   4.808  65.936  1.00  0.00     0.000 HD 
HETATM    5  C   UNL     1      -9.021   7.113  69.312  1.00  0.00    -0.138 C  
HETATM    6  C   UNL     1      -8.971   5.741  68.640  1.00  0.00    -0.112 C  
HETATM    7  N   UNL     1     -10.136   4.707  66.726  1.00  0.00    -0.224 NA 
HETATM    8  O   UNL     1      -7.674   5.326  68.210  1.00  0.00    -0.079 OA 
HETATM    9  C   UNL     1      -8.820   4.136  66.346  1.00  0.00    -0.118 C  
HETATM   10  C   UNL     1      -7.788   4.079  67.499  1.00  0.00    -0.090 C  
ENDROOT
BRANCH   3  11
HETATM   11  C   UNL     1     -10.917   8.752  69.640  1.00  0.00    -0.105 A  
HETATM   12  C   UNL     1     -12.055  11.128  70.722  1.00  0.00    -0.458 A  
HETATM   13  C   UNL     1     -12.728  12.312  71.309  1.00  0.00    -0.251 C  
HETATM   14  C   UNL     1     -12.175   9.925  71.402  1.00  0.00    -0.499 A  
HETATM   15  C   UNL     1     -12.652  13.592  70.594  1.00  0.00    -0.366 C  
HETATM   16  C   UNL     1     -11.606   8.778  70.873  1.00  0.00    -0.277 A  
HETATM   17  O   UNL     1     -13.364  12.236  72.357  1.00  0.00    -0.453 OA 
HETATM   18  C   UNL     1     -11.935  13.600  69.465  1.00  0.00    -0.341 C  
HETATM   19  C   UNL     1     -13.260  14.848  71.079  1.00  0.00    -0.399 C  
HETATM   20  F   UNL     1     -11.754   7.669  71.612  1.00  0.00    -0.260 F  
HETATM   21  N   UNL     1     -11.227  12.535  68.922  1.00  0.00    -0.265 NA 
HETATM   22  O   UNL     1     -13.128  15.921  70.509  1.00  0.00    -0.421 OA 
HETATM   23  O   UNL     1     -13.967  14.723  72.222  1.00  0.00    -0.429 OA 
HETATM   24  N   UNL     1     -10.015  10.015  66.481  1.00  0.00    -0.214 NA 
HETATM   25  C   UNL     1     -11.341  11.226  69.508  1.00  0.00    -0.294 A  
HETATM   26  C   UNL     1     -10.828  10.009  68.949  1.00  0.00    -0.250 A  
HETATM   27  C   UNL     1     -10.367  10.016  67.589  1.00  0.00    -0.224 C  
BRANCH  21  28
HETATM   28  C   UNL     1     -10.171  12.916  67.951  1.00  0.00    -0.233 C  
HETATM   29  C   UNL     1      -9.733  14.363  67.808  1.00  0.00    -0.221 C  
HETATM   30  C   UNL     1      -8.789  13.353  68.374  1.00  0.00    -0.133 C  
ENDBRANCH  21  28
ENDBRANCH   3  11
TORSDOF 2
ENDMDL
MODEL       21
REMARK 921   NORMALIZED FREE ENERGY PREDICTED BY IDOCK:   -6.53 KCAL/MOL
REMARK 922        TOTAL FREE ENERGY PREDICTED BY IDOCK:   -8.07 KCAL/MOL
REMARK 923 INTER-LIGAND FREE ENERGY PREDICTED BY IDOCK:   -7.34 KCAL/MOL
REMARK 924 INTRA-LIGAND FREE ENERGY PREDICTED BY IDOCK:   -0.73 KCAL/MOL
REMARK 927      BINDING AFFINITY PREDICTED BY RF-SCORE:    0.00 PKD
ROOT
HETATM    1  C   UNL     1     -10.249   7.970  70.933  1.00  0.00    -0.192 C  
HETATM    2  C   UNL     1      -9.515   9.328  70.941  1.00  0.00    -0.261 C  
HETATM    3  N   UNL     1      -9.074   9.509  69.537  1.00  0.00    -0.172 NA 
HETATM    4  H   UNL     1     -10.804   7.689  72.937  1.00  0.00     0.000 HD 
HETATM    5  C   UNL     1      -9.313   8.254  68.785  1.00  0.00    -0.143 C  
HETATM    6  C   UNL     1      -9.457   7.193  69.875  1.00  0.00    -0.153 C  
HETATM    7  N   UNL     1     -10.327   7.191  72.185  1.00  0.00    -0.194 NA 
HETATM    8  O   UNL     1     -10.182   6.024  69.489  1.00  0.00    -0.177 OA 
HETATM    9  C   UNL     1     -10.964   5.893  71.851  1.00  0.00    -0.266 C  
HETATM   10  C   UNL     1     -10.340   5.165  70.635  1.00  0.00    -0.235 C  
ENDROOT
BRANCH   3  11
HETATM   11  C   UNL     1      -8.856  10.736  68.909  1.00  0.00    -0.150 A  
HETATM   12  C   UNL     1      -8.287  13.274  67.748  1.00  0.00    -0.171 A  
HETATM   13  C   UNL     1      -7.927  14.611  67.219  1.00  0.00    -0.197 C  
HETATM   14  C   UNL     1      -7.258  12.485  68.240  1.00  0.00    -0.111 A  
HETATM   15  C   UNL     1      -8.999  15.487  66.727  1.00  0.00    -0.295 C  
HETATM   16  C   UNL     1      -7.545  11.247  68.790  1.00  0.00    -0.130 A  
HETATM   17  O   UNL     1      -6.764  15.007  67.209  1.00  0.00    -0.278 OA 
HETATM   18  C   UNL     1     -10.237  14.984  66.760  1.00  0.00    -0.260 C  
HETATM   19  C   UNL     1      -8.773  16.831  66.157  1.00  0.00    -0.264 C  
HETATM   20  F   UNL     1      -6.483  10.547  69.217  1.00  0.00    -0.043 F  
HETATM   21  N   UNL     1     -10.608  13.711  67.176  1.00  0.00    -0.271 NA 
HETATM   22  O   UNL     1      -9.666  17.519  65.686  1.00  0.00    -0.532 OA 
HETATM   23  O   UNL     1      -7.486  17.241  66.181  1.00  0.00    -0.300 OA 
HETATM   24  N   UNL     1     -12.366  10.992  68.989  1.00  0.00    -0.433 NA 
HETATM   25  C   UNL     1      -9.630  12.839  67.769  1.00  0.00    -0.204 A  
HETATM   26  C   UNL     1      -9.903  11.586  68.412  1.00  0.00    -0.204 A  
HETATM   27  C   UNL     1     -11.266  11.253  68.719  1.00  0.00    -0.250 C  
BRANCH  21  28
HETATM   28  C   UNL     1     -11.934  13.256  66.690  1.00  0.00    -0.388 C  
HETATM   29  C   UNL     1     -12.660  14.011  65.589  1.00  0.00    -0.542 C  
HETATM   30  C   UNL     1     -12.139  12.636  65.329  1.00  0.00    -0.519 C  
ENDBRANCH  21  28
ENDBRANCH   3  11
TORSDOF 2
ENDMDL
MODEL       22
REMARK 921   NORMALIZED FREE ENERGY PREDICTED BY IDOCK:   -6.52 KCAL/MOL
REMARK 922        TOTAL FREE ENERGY PREDICTED BY IDOCK:   -8.06 KCAL/MOL
REMARK 923 INTER-LIGAND FREE ENERGY PREDICTED BY IDOCK:   -7.46 KCAL/MOL
REMARK 924 INTRA-LIGAND FREE ENERGY PREDICTED BY IDOCK:   -0.60 KCAL/MOL
REMARK 927      BINDING AFFINITY PREDICTED BY RF-SCORE:    0.00 PKD
ROOT
HETATM    1  C   UNL     1      -7.976   6.745  66.928  1.00  0.00    -0.109 C  
HETATM    2  C   UNL     1      -8.200   8.269  67.036  1.00  0.00    -0.104 C  
HETATM    3  N   UNL     1      -9.672   8.411  67.142  1.00  0.00    -0.173 NA 
HETATM    4  H   UNL     1      -5.898   6.559  66.705  1.00  0.00     0.000 HD 
HETATM    5  C   UNL     1     -10.309   7.098  66.881  1.00  0.00    -0.279 C  
HETATM    6  C   UNL     1      -9.225   6.299  66.160  1.00  0.00    -0.120 C  
HETATM    7  N   UNL     1      -6.759   6.246  66.257  1.00  0.00    -0.055 NA 
HETATM    8  O   UNL     1      -9.364   4.880  66.242  1.00  0.00    -0.133 OA 
HETATM    9  C   UNL     1      -6.875   4.768  66.187  1.00  0.00    -0.058 C  
HETATM   10  C   UNL     1      -8.223   4.256  65.622  1.00  0.00    -0.109 C  
ENDROOT
BRANCH   3  11
HETATM   11  C   UNL     1     -10.340   9.464  67.768  1.00  0.00    -0.238 A  
HETATM   12  C   UNL     1     -11.581  11.723  68.981  1.00  0.00    -0.372 A  
HETATM   13  C   UNL     1     -12.152  12.954  69.578  1.00  0.00    -0.214 C  
HETATM   14  C   UNL     1     -11.040  11.824  67.708  1.00  0.00    -0.302 A  
HETATM   15  C   UNL     1     -12.698  12.889  70.940  1.00  0.00    -0.291 C  
HETATM   16  C   UNL     1     -10.450  10.716  67.122  1.00  0.00    -0.245 A  
HETATM   17  O   UNL     1     -12.152  14.022  68.971  1.00  0.00    -0.346 OA 
HETATM   18  C   UNL     1     -12.672  11.691  71.533  1.00  0.00    -0.318 C  
HETATM   19  C   UNL     1     -13.312  14.036  71.640  1.00  0.00    -0.367 C  
HETATM   20  F   UNL     1      -9.976  10.904  65.882  1.00  0.00    -0.242 F  
HETATM   21  N   UNL     1     -12.217  10.499  70.982  1.00  0.00    -0.368 NA 
HETATM   22  O   UNL     1     -13.827  13.949  72.745  1.00  0.00    -0.701 OA 
HETATM   23  O   UNL     1     -13.277  15.197  70.952  1.00  0.00    -0.425 OA 
HETATM   24  N   UNL     1     -10.342   7.324  70.563  1.00  0.00    -0.204 NA 
HETATM   25  C   UNL     1     -11.572  10.505  69.695  1.00  0.00    -0.271 A  
HETATM   26  C   UNL     1     -10.890   9.397  69.094  1.00  0.00    -0.176 A  
HETATM   27  C   UNL     1     -10.598   8.246  69.903  1.00  0.00    -0.232 C  
BRANCH  21  28
HETATM   28  C   UNL     1     -12.713   9.271  71.651  1.00  0.00    -0.364 C  
HETATM   29  C   UNL     1     -13.819   9.345  72.689  1.00  0.00    -0.305 C  
HETATM   30  C   UNL     1     -14.076   8.682  71.376  1.00  0.00    -0.337 C  
ENDBRANCH  21  28
ENDBRANCH   3  11
TORSDOF 2
ENDMDL
MODEL       23
REMARK 921   NORMALIZED FREE ENERGY PREDICTED BY IDOCK:   -6.43 KCAL/MOL
REMARK 922        TOTAL FREE ENERGY PREDICTED BY IDOCK:   -7.96 KCAL/MOL
REMARK 923 INTER-LIGAND FREE ENERGY PREDICTED BY IDOCK:   -7.28 KCAL/MOL
REMARK 924 INTRA-LIGAND FREE ENERGY PREDICTED BY IDOCK:   -0.69 KCAL/MOL
REMARK 927      BINDING AFFINITY PREDICTED BY RF-SCORE:    0.00 PKD
ROOT
HETATM    1  C   UNL     1     -10.162  14.532  67.262  1.00  0.00    -0.255 C  
HETATM    2  C   UNL     1     -10.311  13.905  68.665  1.00  0.00    -0.237 C  
HETATM    3  N   UNL     1     -11.135  12.694  68.435  1.00  0.00    -0.249 NA 
HETATM    4  H   UNL     1      -9.059  16.282  67.611  1.00  0.00     0.000 HD 
HETATM    5  C   UNL     1     -11.645  12.709  67.042  1.00  0.00    -0.365 C  
HETATM    6  C   UNL     1     -11.502  14.169  66.613  1.00  0.00    -0.366 C  
HETATM    7  N   UNL     1      -9.917  15.984  67.149  1.00  0.00    -0.244 NA 
HETATM    8  O   UNL     1     -11.430  14.380  65.203  1.00  0.00    -0.334 OA 
HETATM    9  C   UNL     1      -9.948  16.319  65.703  1.00  0.00    -0.274 C  
HETATM   10  C   UNL     1     -11.184  15.775  64.944  1.00  0.00    -0.350 C  
ENDROOT
BRANCH   3  11
HETATM   11  C   UNL     1     -11.116  11.541  69.220  1.00  0.00    -0.246 A  
HETATM   12  C   UNL     1     -11.102   9.289  70.964  1.00  0.00    -0.396 A  
HETATM   13  C   UNL     1     -11.103   8.181  71.948  1.00  0.00    -0.285 C  
HETATM   14  C   UNL     1     -11.988  10.334  71.181  1.00  0.00    -0.472 A  
HETATM   15  C   UNL     1     -10.150   7.078  71.768  1.00  0.00    -0.198 C  
HETATM   16  C   UNL     1     -11.995  11.418  70.319  1.00  0.00    -0.373 A  
HETATM   17  O   UNL     1     -11.860   8.181  72.916  1.00  0.00    -0.352 OA 
HETATM   18  C   UNL     1      -9.366   7.141  70.687  1.00  0.00    -0.158 C  
HETATM   19  C   UNL     1     -10.063   5.905  72.664  1.00  0.00    -0.179 C  
HETATM   20  F   UNL     1     -12.901  12.368  70.595  1.00  0.00    -0.277 F  
HETATM   21  N   UNL     1      -9.386   8.121  69.702  1.00  0.00    -0.159 NA 
HETATM   22  O   UNL     1      -9.314   4.961  72.461  1.00  0.00    -0.133 OA 
HETATM   23  O   UNL     1     -10.894   5.949  73.727  1.00  0.00    -0.245 OA 
HETATM   24  N   UNL     1      -8.230  10.759  67.363  1.00  0.00    -0.115 NA 
HETATM   25  C   UNL     1     -10.216   9.284  69.865  1.00  0.00    -0.214 A  
HETATM   26  C   UNL     1     -10.195  10.453  69.034  1.00  0.00    -0.233 A  
HETATM   27  C   UNL     1      -9.115  10.616  68.102  1.00  0.00    -0.148 C  
BRANCH  21  28
HETATM   28  C   UNL     1      -8.762   7.725  68.414  1.00  0.00    -0.127 C  
HETATM   29  C   UNL     1      -8.691   6.265  68.002  1.00  0.00    -0.114 C  
HETATM   30  C   UNL     1      -9.561   7.211  67.241  1.00  0.00    -0.179 C  
ENDBRANCH  21  28
ENDBRANCH   3  11
TORSDOF 2
ENDMDL
MODEL       24
REMARK 921   NORMALIZED FREE ENERGY PREDICTED BY IDOCK:   -6.42 KCAL/MOL
REMARK 922        TOTAL FREE ENERGY PREDICTED BY IDOCK:   -7.95 KCAL/MOL
REMARK 923 INTER-LIGAND FREE ENERGY PREDICTED BY IDOCK:   -7.11 KCAL/MOL
REMARK 924 INTRA-LIGAND FREE ENERGY PREDICTED BY IDOCK:   -0.84 KCAL/MOL
REMARK 927      BINDING AFFINITY PREDICTED BY RF-SCORE:    0.00 PKD
ROOT
HETATM    1  C   UNL     1      -9.687   6.826  70.630  1.00  0.00    -0.172 C  
HETATM    2  C   UNL     1      -9.843   7.766  69.415  1.00  0.00    -0.176 C  
HETATM    3  N   UNL     1      -9.779   9.127  70.000  1.00  0.00    -0.183 NA 
HETATM    4  H   UNL     1      -9.854   4.905  69.803  1.00  0.00     0.000 HD 
HETATM    5  C   UNL     1      -9.816   9.025  71.479  1.00  0.00    -0.310 C  
HETATM    6  C   UNL     1     -10.380   7.628  71.738  1.00  0.00    -0.197 C  
HETATM    7  N   UNL     1     -10.250   5.463  70.559  1.00  0.00    -0.236 NA 
HETATM    8  O   UNL     1     -10.057   7.073  73.013  1.00  0.00    -0.179 OA 
HETATM    9  C   UNL     1     -10.067   4.846  71.896  1.00  0.00    -0.199 C  
HETATM   10  C   UNL     1     -10.549   5.721  73.079  1.00  0.00    -0.242 C  
ENDROOT
BRANCH   3  11
HETATM   11  C   UNL     1      -9.349  10.274  69.333  1.00  0.00    -0.199 A  
HETATM   12  C   UNL     1      -8.348  12.637  68.096  1.00  0.00    -0.175 A  
HETATM   13  C   UNL     1      -7.764  13.876  67.530  1.00  0.00    -0.179 C  
HETATM   14  C   UNL     1      -7.474  11.726  68.669  1.00  0.00    -0.120 A  
HETATM   15  C   UNL     1      -8.667  14.880  66.951  1.00  0.00    -0.276 C  
HETATM   16  C   UNL     1      -7.970  10.573  69.256  1.00  0.00    -0.154 A  
HETATM   17  O   UNL     1      -6.555  14.090  67.560  1.00  0.00    -0.219 OA 
HETATM   18  C   UNL     1      -9.969  14.573  66.944  1.00  0.00    -0.259 C  
HETATM   19  C   UNL     1      -8.214  16.145  66.337  1.00  0.00    -0.301 C  
HETATM   20  F   UNL     1      -7.048   9.742  69.762  1.00  0.00    -0.056 F  
HETATM   21  N   UNL     1     -10.548  13.394  67.395  1.00  0.00    -0.250 NA 
HETATM   22  O   UNL     1      -8.970  16.937  65.795  1.00  0.00    -0.524 OA 
HETATM   23  O   UNL     1      -6.882  16.355  66.406  1.00  0.00    -0.179 OA 
HETATM   24  N   UNL     1     -12.777  11.064  69.232  1.00  0.00    -0.147 NA 
HETATM   25  C   UNL     1      -9.741  12.412  68.070  1.00  0.00    -0.210 A  
HETATM   26  C   UNL     1     -10.230  11.248  68.750  1.00  0.00    -0.215 A  
HETATM   27  C   UNL     1     -11.640  11.141  69.005  1.00  0.00    -0.324 C  
BRANCH  21  28
HETATM   28  C   UNL     1     -11.907  13.122  66.865  1.00  0.00    -0.386 C  
HETATM   29  C   UNL     1     -12.525  14.024  65.810  1.00  0.00    -0.523 C  
HETATM   30  C   UNL     1     -12.155  12.620  65.462  1.00  0.00    -0.515 C  
ENDBRANCH  21  28
ENDBRANCH   3  11
TORSDOF 2
ENDMDL
MODEL       25
REMARK 921   NORMALIZED FREE ENERGY PREDICTED BY IDOCK:   -6.37 KCAL/MOL
REMARK 922        TOTAL FREE ENERGY PREDICTED BY IDOCK:   -7.89 KCAL/MOL
REMARK 923 INTER-LIGAND FREE ENERGY PREDICTED BY IDOCK:   -7.16 KCAL/MOL
REMARK 924 INTRA-LIGAND FREE ENERGY PREDICTED BY IDOCK:   -0.73 KCAL/MOL
REMARK 927      BINDING AFFINITY PREDICTED BY RF-SCORE:    0.00 PKD
ROOT
HETATM    1  C   UNL     1     -10.563   8.513  69.872  1.00  0.00    -0.228 C  
HETATM    2  C   UNL     1      -9.724   9.781  70.142  1.00  0.00    -0.248 C  
HETATM    3  N   UNL     1      -9.025  10.032  68.859  1.00  0.00    -0.143 NA 
HETATM    4  H   UNL     1     -11.489   8.123  71.714  1.00  0.00     0.000 HD 
HETATM    5  C   UNL     1      -9.237   8.877  67.953  1.00  0.00    -0.138 C  
HETATM    6  C   UNL     1      -9.667   7.749  68.890  1.00  0.00    -0.160 C  
HETATM    7  N   UNL     1     -10.932   7.644  71.007  1.00  0.00    -0.244 NA 
HETATM    8  O   UNL     1     -10.412   6.700  68.271  1.00  0.00    -0.174 OA 
HETATM    9  C   UNL     1     -11.612   6.452  70.440  1.00  0.00    -0.373 C  
HETATM   10  C   UNL     1     -10.848   5.769  69.280  1.00  0.00    -0.303 C  
ENDROOT
BRANCH   3  11
HETATM   11  C   UNL     1      -8.591  11.278  68.405  1.00  0.00    -0.155 A  
HETATM   12  C   UNL     1      -7.603  13.833  67.623  1.00  0.00    -0.189 A  
HETATM   13  C   UNL     1      -7.040  15.166  67.303  1.00  0.00    -0.126 C  
HETATM   14  C   UNL     1      -6.757  12.911  68.222  1.00  0.00    -0.093 A  
HETATM   15  C   UNL     1      -7.920  16.178  66.705  1.00  0.00    -0.305 C  
HETATM   16  C   UNL     1      -7.245  11.667  68.585  1.00  0.00    -0.104 A  
HETATM   17  O   UNL     1      -5.870  15.447  67.551  1.00  0.00    -0.274 OA 
HETATM   18  C   UNL     1      -9.178  15.797  66.455  1.00  0.00    -0.312 C  
HETATM   19  C   UNL     1      -7.480  17.535  66.320  1.00  0.00    -0.319 C  
HETATM   20  F   UNL     1      -6.348  10.835  69.135  1.00  0.00    -0.046 F  
HETATM   21  N   UNL     1      -9.723  14.538  66.668  1.00  0.00    -0.261 NA 
HETATM   22  O   UNL     1      -8.205  18.342  65.758  1.00  0.00    -0.503 OA 
HETATM   23  O   UNL     1      -6.195  17.814  66.626  1.00  0.00    -0.145 OA 
HETATM   24  N   UNL     1     -12.016  11.867  67.846  1.00  0.00    -0.577 NA 
HETATM   25  C   UNL     1      -8.954  13.530  67.348  1.00  0.00    -0.219 A  
HETATM   26  C   UNL     1      -9.448  12.263  67.803  1.00  0.00    -0.197 A  
HETATM   27  C   UNL     1     -10.867  12.040  67.815  1.00  0.00    -0.215 C  
BRANCH  21  28
HETATM   28  C   UNL     1     -10.961  14.254  65.899  1.00  0.00    -0.304 C  
HETATM   29  C   UNL     1     -11.390  15.158  64.757  1.00  0.00    -0.399 C  
HETATM   30  C   UNL     1     -10.943  13.761  64.472  1.00  0.00    -0.399 C  
ENDBRANCH  21  28
ENDBRANCH   3  11
TORSDOF 2
ENDMDL
MODEL       26
REMARK 921   NORMALIZED FREE ENERGY PREDICTED BY IDOCK:   -6.36 KCAL/MOL
REMARK 922        TOTAL FREE ENERGY PREDICTED BY IDOCK:   -7.88 KCAL/MOL
REMARK 923 INTER-LIGAND FREE ENERGY PREDICTED BY IDOCK:   -7.23 KCAL/MOL
REMARK 924 INTRA-LIGAND FREE ENERGY PREDICTED BY IDOCK:   -0.65 KCAL/MOL
REMARK 927      BINDING AFFINITY PREDICTED BY RF-SCORE:    0.00 PKD
ROOT
HETATM    1  C   UNL     1      -9.650   8.157  70.078  1.00  0.00    -0.171 C  
HETATM    2  C   UNL     1      -9.179   9.623  70.200  1.00  0.00    -0.246 C  
HETATM    3  N   UNL     1      -8.717   9.969  68.834  1.00  0.00    -0.138 NA 
HETATM    4  H   UNL     1     -10.231   7.654  72.030  1.00  0.00     0.000 HD 
HETATM    5  C   UNL     1      -8.689   8.741  68.003  1.00  0.00    -0.141 C  
HETATM    6  C   UNL     1      -8.684   7.605  69.025  1.00  0.00    -0.136 C  
HETATM    7  N   UNL     1      -9.639   7.300  71.280  1.00  0.00    -0.163 NA 
HETATM    8  O   UNL     1      -9.163   6.352  68.537  1.00  0.00    -0.126 OA 
HETATM    9  C   UNL     1     -10.011   5.931  70.842  1.00  0.00    -0.187 C  
HETATM   10  C   UNL     1      -9.211   5.407  69.624  1.00  0.00    -0.118 C  
ENDROOT
BRANCH   3  11
HETATM   11  C   UNL     1      -8.701  11.252  68.287  1.00  0.00    -0.158 A  
HETATM   12  C   UNL     1      -8.545  13.916  67.289  1.00  0.00    -0.221 A  
HETATM   13  C   UNL     1      -8.400  15.322  66.843  1.00  0.00    -0.243 C  
HETATM   14  C   UNL     1      -7.395  13.254  67.694  1.00  0.00    -0.164 A  
HETATM   15  C   UNL     1      -9.603  16.063  66.444  1.00  0.00    -0.309 C  
HETATM   16  C   UNL     1      -7.481  11.954  68.165  1.00  0.00    -0.100 A  
HETATM   17  O   UNL     1      -7.306  15.882  66.827  1.00  0.00    -0.203 OA 
HETATM   18  C   UNL     1     -10.756  15.385  66.478  1.00  0.00    -0.308 C  
HETATM   19  C   UNL     1      -9.594  17.460  65.963  1.00  0.00    -0.118 C  
HETATM   20  F   UNL     1      -6.315  11.390  68.511  1.00  0.00    -0.046 F  
HETATM   21  N   UNL     1     -10.925  14.048  66.816  1.00  0.00    -0.294 NA 
HETATM   22  O   UNL     1     -10.594  18.040  65.566  1.00  0.00    -0.639 OA 
HETATM   23  O   UNL     1      -8.379  18.049  65.977  1.00  0.00    -0.494 OA 
HETATM   24  N   UNL     1     -12.206  10.992  68.487  1.00  0.00    -0.522 NA 
HETATM   25  C   UNL     1      -9.810  13.290  67.318  1.00  0.00    -0.233 A  
HETATM   26  C   UNL     1      -9.877  11.972  67.880  1.00  0.00    -0.196 A  
HETATM   27  C   UNL     1     -11.165  11.426  68.204  1.00  0.00    -0.278 C  
BRANCH  21  28
HETATM   28  C   UNL     1     -12.191  13.438  66.339  1.00  0.00    -0.376 C  
HETATM   29  C   UNL     1     -12.909  13.991  65.119  1.00  0.00    -0.368 C  
HETATM   30  C   UNL     1     -12.283  12.636  65.063  1.00  0.00    -0.535 C  
ENDBRANCH  21  28
ENDBRANCH   3  11
TORSDOF 2
ENDMDL
MODEL       27
REMARK 921   NORMALIZED FREE ENERGY PREDICTED BY IDOCK:   -6.35 KCAL/MOL
REMARK 922        TOTAL FREE ENERGY PREDICTED BY IDOCK:   -7.87 KCAL/MOL
REMARK 923 INTER-LIGAND FREE ENERGY PREDICTED BY IDOCK:   -7.04 KCAL/MOL
REMARK 924 INTRA-LIGAND FREE ENERGY PREDICTED BY IDOCK:   -0.82 KCAL/MOL
REMARK 927      BINDING AFFINITY PREDICTED BY RF-SCORE:    0.00 PKD
ROOT
HETATM    1  C   UNL     1      -9.151  17.459  68.172  1.00  0.00    -0.267 C  
HETATM    2  C   UNL     1      -9.004  16.067  68.825  1.00  0.00    -0.226 C  
HETATM    3  N   UNL     1     -10.041  15.243  68.159  1.00  0.00    -0.227 NA 
HETATM    4  H   UNL     1      -7.731  18.634  69.173  1.00  0.00     0.000 HD 
HETATM    5  C   UNL     1     -10.907  16.122  67.335  1.00  0.00    -0.265 C  
HETATM    6  C   UNL     1     -10.658  17.519  67.901  1.00  0.00    -0.390 C  
HETATM    7  N   UNL     1      -8.720  18.652  68.926  1.00  0.00    -0.236 NA 
HETATM    8  O   UNL     1     -10.947  18.593  67.006  1.00  0.00    -0.320 OA 
HETATM    9  C   UNL     1      -9.096  19.838  68.116  1.00  0.00    -0.314 C  
HETATM   10  C   UNL     1     -10.563  19.838  67.621  1.00  0.00    -0.391 C  
ENDROOT
BRANCH   3  11
HETATM   11  C   UNL     1      -9.989  13.860  67.988  1.00  0.00    -0.241 A  
HETATM   12  C   UNL     1      -9.890  11.061  67.465  1.00  0.00    -0.190 A  
HETATM   13  C   UNL     1      -9.850   9.626  67.096  1.00  0.00    -0.186 C  
HETATM   14  C   UNL     1      -9.203  11.948  66.649  1.00  0.00    -0.206 A  
HETATM   15  C   UNL     1     -10.599   8.666  67.917  1.00  0.00    -0.223 C  
HETATM   16  C   UNL     1      -9.247  13.306  66.921  1.00  0.00    -0.241 A  
HETATM   17  O   UNL     1      -9.231   9.232  66.111  1.00  0.00    -0.166 OA 
HETATM   18  C   UNL     1     -11.240   9.167  68.978  1.00  0.00     0.216 C  
HETATM   19  C   UNL     1     -10.625   7.209  67.670  1.00  0.00    -0.248 C  
HETATM   20  F   UNL     1      -8.534  14.082  66.092  1.00  0.00     0.135 F  
HETATM   21  N   UNL     1     -11.241  10.489  69.402  1.00  0.00    -0.251 NA 
HETATM   22  O   UNL     1     -11.194   6.415  68.404  1.00  0.00    -0.320 OA 
HETATM   23  O   UNL     1      -9.951   6.816  66.569  1.00  0.00    -0.158 OA 
HETATM   24  N   UNL     1     -12.469  13.820  70.485  1.00  0.00    -0.347 NA 
HETATM   25  C   UNL     1     -10.620  11.502  68.591  1.00  0.00    -0.208 A  
HETATM   26  C   UNL     1     -10.707  12.917  68.802  1.00  0.00    -0.249 A  
HETATM   27  C   UNL     1     -11.673  13.415  69.742  1.00  0.00    -0.286 C  
BRANCH  21  28
HETATM   28  C   UNL     1     -11.632  10.692  70.819  1.00  0.00    -0.292 C  
HETATM   29  C   UNL     1     -13.018  10.308  71.306  1.00  0.00    -0.517 C  
HETATM   30  C   UNL     1     -11.825   9.549  71.787  1.00  0.00    -0.430 C  
ENDBRANCH  21  28
ENDBRANCH   3  11
TORSDOF 2
ENDMDL
MODEL       28
REMARK 921   NORMALIZED FREE ENERGY PREDICTED BY IDOCK:   -6.28 KCAL/MOL
REMARK 922        TOTAL FREE ENERGY PREDICTED BY IDOCK:   -7.79 KCAL/MOL
REMARK 923 INTER-LIGAND FREE ENERGY PREDICTED BY IDOCK:   -7.09 KCAL/MOL
REMARK 924 INTRA-LIGAND FREE ENERGY PREDICTED BY IDOCK:   -0.70 KCAL/MOL
REMARK 927      BINDING AFFINITY PREDICTED BY RF-SCORE:    0.00 PKD
ROOT
HETATM    1  C   UNL     1      -8.510   8.103  69.992  1.00  0.00    -0.128 C  
HETATM    2  C   UNL     1      -8.799   9.615  70.117  1.00  0.00    -0.231 C  
HETATM    3  N   UNL     1      -7.991  10.227  69.035  1.00  0.00    -0.114 NA 
HETATM    4  H   UNL     1      -9.599   7.253  71.572  1.00  0.00     0.000 HD 
HETATM    5  C   UNL     1      -7.099   9.198  68.449  1.00  0.00    -0.073 C  
HETATM    6  C   UNL     1      -7.055   8.100  69.512  1.00  0.00    -0.051 C  
HETATM    7  N   UNL     1      -8.655   7.245  71.185  1.00  0.00    -0.130 NA 
HETATM    8  O   UNL     1      -6.706   6.804  69.027  1.00  0.00    -0.055 OA 
HETATM    9  C   UNL     1      -8.194   5.887  70.803  1.00  0.00    -0.124 C  
HETATM   10  C   UNL     1      -6.813   5.851  70.103  1.00  0.00    -0.053 C  
ENDROOT
BRANCH   3  11
HETATM   11  C   UNL     1      -8.282  11.430  68.391  1.00  0.00    -0.151 A  
HETATM   12  C   UNL     1      -8.861  13.967  67.232  1.00  0.00    -0.225 A  
HETATM   13  C   UNL     1      -9.158  15.326  66.720  1.00  0.00    -0.256 C  
HETATM   14  C   UNL     1      -7.900  13.857  68.227  1.00  0.00    -0.146 A  
HETATM   15  C   UNL     1     -10.198  15.481  65.694  1.00  0.00    -0.403 C  
HETATM   16  C   UNL     1      -7.617  12.617  68.774  1.00  0.00    -0.022 A  
HETATM   17  O   UNL     1      -8.577  16.318  67.153  1.00  0.00    -0.169 OA 
HETATM   18  C   UNL     1     -10.779  14.356  65.265  1.00  0.00    -0.375 C  
HETATM   19  C   UNL     1     -10.576  16.774  65.088  1.00  0.00    -0.114 C  
HETATM   20  F   UNL     1      -6.659  12.607  69.712  1.00  0.00    -0.116 F  
HETATM   21  N   UNL     1     -10.477  13.059  65.661  1.00  0.00    -0.275 NA 
HETATM   22  O   UNL     1     -11.392  16.878  64.184  1.00  0.00    -1.208 OA 
HETATM   23  O   UNL     1      -9.932  17.844  65.602  1.00  0.00    -0.539 OA 
HETATM   24  N   UNL     1     -10.897   9.593  66.917  1.00  0.00    -0.113 NA 
HETATM   25  C   UNL     1      -9.548  12.837  66.737  1.00  0.00    -0.244 A  
HETATM   26  C   UNL     1      -9.287  11.580  67.374  1.00  0.00    -0.168 A  
HETATM   27  C   UNL     1     -10.170  10.478  67.112  1.00  0.00    -0.223 C  
BRANCH  21  28
HETATM   28  C   UNL     1     -10.925  11.998  64.725  1.00  0.00    -0.311 C  
HETATM   29  C   UNL     1     -11.729  12.346  63.484  1.00  0.00    -0.592 C  
HETATM   30  C   UNL     1     -10.337  11.823  63.345  1.00  0.00    -0.481 C  
ENDBRANCH  21  28
ENDBRANCH   3  11
TORSDOF 2
ENDMDL
MODEL       29
REMARK 921   NORMALIZED FREE ENERGY PREDICTED BY IDOCK:   -6.28 KCAL/MOL
REMARK 922        TOTAL FREE ENERGY PREDICTED BY IDOCK:   -7.79 KCAL/MOL
REMARK 923 INTER-LIGAND FREE ENERGY PREDICTED BY IDOCK:   -7.12 KCAL/MOL
REMARK 924 INTRA-LIGAND FREE ENERGY PREDICTED BY IDOCK:   -0.67 KCAL/MOL
REMARK 927      BINDING AFFINITY PREDICTED BY RF-SCORE:    0.00 PKD
ROOT
HETATM    1  C   UNL     1      -9.339   5.688  66.088  1.00  0.00    -0.153 C  
HETATM    2  C   UNL     1     -10.509   6.183  66.966  1.00  0.00    -0.277 C  
HETATM    3  N   UNL     1      -9.846   6.906  68.078  1.00  0.00    -0.136 NA 
HETATM    4  H   UNL     1     -10.283   4.604  64.560  1.00  0.00     0.000 HD 
HETATM    5  C   UNL     1      -8.384   6.670  68.010  1.00  0.00    -0.117 C  
HETATM    6  C   UNL     1      -8.251   5.424  67.135  1.00  0.00    -0.104 C  
HETATM    7  N   UNL     1      -9.534   4.494  65.242  1.00  0.00    -0.165 NA 
HETATM    8  O   UNL     1      -6.987   5.269  66.491  1.00  0.00    -0.061 OA 
HETATM    9  C   UNL     1      -8.222   4.183  64.621  1.00  0.00    -0.098 C  
HETATM   10  C   UNL     1      -7.037   4.126  65.616  1.00  0.00    -0.063 C  
ENDROOT
BRANCH   3  11
HETATM   11  C   UNL     1     -10.410   7.948  68.815  1.00  0.00    -0.203 A  
HETATM   12  C   UNL     1     -11.695   9.967  70.359  1.00  0.00    -0.365 A  
HETATM   13  C   UNL     1     -12.440  10.954  71.177  1.00  0.00    -0.405 C  
HETATM   14  C   UNL     1     -11.704   8.648  70.789  1.00  0.00    -0.239 A  
HETATM   15  C   UNL     1     -12.482  12.352  70.728  1.00  0.00    -0.356 C  
HETATM   16  C   UNL     1     -11.065   7.677  70.037  1.00  0.00    -0.191 A  
HETATM   17  O   UNL     1     -13.038  10.624  72.198  1.00  0.00    -0.460 OA 
HETATM   18  C   UNL     1     -11.799  12.638  69.614  1.00  0.00    -0.311 C  
HETATM   19  C   UNL     1     -13.171  13.436  71.460  1.00  0.00    -0.312 C  
HETATM   20  F   UNL     1     -11.107   6.436  70.544  1.00  0.00    -0.287 F  
HETATM   21  N   UNL     1     -11.029  11.761  68.862  1.00  0.00    -0.229 NA 
HETATM   22  O   UNL     1     -13.137  14.607  71.112  1.00  0.00    -0.336 OA 
HETATM   23  O   UNL     1     -13.833  13.032  72.565  1.00  0.00    -0.625 OA 
HETATM   24  N   UNL     1      -9.697   9.875  65.957  1.00  0.00    -0.228 NA 
HETATM   25  C   UNL     1     -11.026  10.358  69.179  1.00  0.00    -0.241 A  
HETATM   26  C   UNL     1     -10.437   9.319  68.385  1.00  0.00    -0.246 A  
HETATM   27  C   UNL     1     -10.017   9.630  67.047  1.00  0.00    -0.206 C  
BRANCH  21  28
HETATM   28  C   UNL     1     -10.032  12.409  67.973  1.00  0.00    -0.207 C  
HETATM   29  C   UNL     1     -10.478  13.248  66.788  1.00  0.00    -0.270 C  
HETATM   30  C   UNL     1      -9.803  13.901  67.949  1.00  0.00    -0.228 C  
ENDBRANCH  21  28
ENDBRANCH   3  11
TORSDOF 2
ENDMDL
MODEL       30
REMARK 921   NORMALIZED FREE ENERGY PREDICTED BY IDOCK:   -6.27 KCAL/MOL
REMARK 922        TOTAL FREE ENERGY PREDICTED BY IDOCK:   -7.78 KCAL/MOL
REMARK 923 INTER-LIGAND FREE ENERGY PREDICTED BY IDOCK:   -6.97 KCAL/MOL
REMARK 924 INTRA-LIGAND FREE ENERGY PREDICTED BY IDOCK:   -0.81 KCAL/MOL
REMARK 927      BINDING AFFINITY PREDICTED BY RF-SCORE:    0.00 PKD
ROOT
HETATM    1  C   UNL     1      -9.268   4.967  65.982  1.00  0.00    -0.153 C  
HETATM    2  C   UNL     1     -10.454   5.725  66.617  1.00  0.00    -0.268 C  
HETATM    3  N   UNL     1      -9.817   6.648  67.587  1.00  0.00    -0.123 NA 
HETATM    4  H   UNL     1     -10.185   3.615  64.666  1.00  0.00     0.000 HD 
HETATM    5  C   UNL     1      -8.376   6.313  67.705  1.00  0.00    -0.117 C  
HETATM    6  C   UNL     1      -8.283   4.890  67.154  1.00  0.00    -0.106 C  
HETATM    7  N   UNL     1      -9.497   3.622  65.419  1.00  0.00    -0.158 NA 
HETATM    8  O   UNL     1      -6.992   4.510  66.677  1.00  0.00    -0.060 OA 
HETATM    9  C   UNL     1      -8.174   3.092  65.004  1.00  0.00    -0.094 C  
HETATM   10  C   UNL     1      -7.072   3.199  66.087  1.00  0.00    -0.058 C  
ENDROOT
BRANCH   3  11
HETATM   11  C   UNL     1     -10.346   7.866  68.012  1.00  0.00    -0.209 A  
HETATM   12  C   UNL     1     -11.294  10.436  68.795  1.00  0.00    -0.275 A  
HETATM   13  C   UNL     1     -11.708  11.812  69.157  1.00  0.00    -0.325 C  
HETATM   14  C   UNL     1     -10.789  10.237  67.519  1.00  0.00    -0.355 A  
HETATM   15  C   UNL     1     -12.211  12.063  70.514  1.00  0.00    -0.414 C  
HETATM   16  C   UNL     1     -10.343   8.981  67.144  1.00  0.00    -0.272 A  
HETATM   17  O   UNL     1     -11.614  12.743  68.360  1.00  0.00    -0.281 OA 
HETATM   18  C   UNL     1     -12.295  11.000  71.321  1.00  0.00    -0.321 C  
HETATM   19  C   UNL     1     -12.674  13.382  70.994  1.00  0.00    -0.307 C  
HETATM   20  F   UNL     1      -9.893   8.881  65.885  1.00  0.00    -0.320 F  
HETATM   21  N   UNL     1     -11.990   9.684  70.998  1.00  0.00    -0.322 NA 
HETATM   22  O   UNL     1     -13.157  13.560  72.102  1.00  0.00    -0.384 OA 
HETATM   23  O   UNL     1     -12.538  14.383  70.099  1.00  0.00    -0.345 OA 
HETATM   24  N   UNL     1     -10.483   6.297  71.160  1.00  0.00    -0.216 NA 
HETATM   25  C   UNL     1     -11.392   9.379  69.726  1.00  0.00    -0.042 A  
HETATM   26  C   UNL     1     -10.854   8.109  69.335  1.00  0.00    -0.096 A  
HETATM   27  C   UNL     1     -10.661   7.103  70.342  1.00  0.00    -0.224 C  
BRANCH  21  28
HETATM   28  C   UNL     1     -12.592   8.665  71.894  1.00  0.00    -0.359 C  
HETATM   29  C   UNL     1     -13.794   9.003  72.758  1.00  0.00    -0.292 C  
HETATM   30  C   UNL     1     -13.939   8.037  71.629  1.00  0.00    -0.474 C  
ENDBRANCH  21  28
ENDBRANCH   3  11
TORSDOF 2
ENDMDL
MODEL       31
REMARK 921   NORMALIZED FREE ENERGY PREDICTED BY IDOCK:   -6.20 KCAL/MOL
REMARK 922        TOTAL FREE ENERGY PREDICTED BY IDOCK:   -7.70 KCAL/MOL
REMARK 923 INTER-LIGAND FREE ENERGY PREDICTED BY IDOCK:   -7.47 KCAL/MOL
REMARK 924 INTRA-LIGAND FREE ENERGY PREDICTED BY IDOCK:   -0.23 KCAL/MOL
REMARK 927      BINDING AFFINITY PREDICTED BY RF-SCORE:    0.00 PKD
ROOT
HETATM    1  C   UNL     1     -12.547  13.706  71.836  1.00  0.00    -0.153 C  
HETATM    2  C   UNL     1     -12.813  12.779  70.630  1.00  0.00     0.042 C  
HETATM    3  N   UNL     1     -11.693  13.064  69.701  1.00  0.00    -0.305 NA 
HETATM    4  H   UNL     1     -14.175  13.349  73.110  1.00  0.00     0.000 HD 
HETATM    5  C   UNL     1     -10.937  14.241  70.194  1.00  0.00     0.128 C  
HETATM    6  C   UNL     1     -11.906  14.923  71.159  1.00  0.00    -0.337 C  
HETATM    7  N   UNL     1     -13.684  14.130  72.677  1.00  0.00    -0.640 NA 
HETATM    8  O   UNL     1     -11.293  15.757  72.143  1.00  0.00    -0.371 OA 
HETATM    9  C   UNL     1     -13.156  15.105  73.663  1.00  0.00    -0.236 C  
HETATM   10  C   UNL     1     -12.302  16.242  73.048  1.00  0.00    -0.485 C  
ENDROOT
BRANCH   3  11
HETATM   11  C   UNL     1     -11.174  12.173  68.761  1.00  0.00    -0.264 A  
HETATM   12  C   UNL     1      -9.987  10.315  66.958  1.00  0.00    -0.249 A  
HETATM   13  C   UNL     1      -9.295   9.335  66.087  1.00  0.00    -0.212 C  
HETATM   14  C   UNL     1     -10.039  10.034  68.316  1.00  0.00    -0.182 A  
HETATM   15  C   UNL     1      -9.188   9.622  64.650  1.00  0.00    -0.293 C  
HETATM   16  C   UNL     1     -10.631  10.938  69.181  1.00  0.00    -0.220 A  
HETATM   17  O   UNL     1      -8.792   8.311  66.543  1.00  0.00    -0.135 OA 
HETATM   18  C   UNL     1      -9.768  10.749  64.226  1.00  0.00    -0.302 C  
HETATM   19  C   UNL     1      -8.543   8.721  63.672  1.00  0.00    -0.041 C  
HETATM   20  F   UNL     1     -10.656  10.570  70.470  1.00  0.00    -0.313 F  
HETATM   21  N   UNL     1     -10.489  11.654  64.994  1.00  0.00    -0.273 NA 
HETATM   22  O   UNL     1      -8.525   8.939  62.470  1.00  0.00    -0.193 OA 
HETATM   23  O   UNL     1      -7.985   7.616  64.212  1.00  0.00    -0.134 OA 
HETATM   24  N   UNL     1     -11.606  14.850  66.516  1.00  0.00    -0.304 NA 
HETATM   25  C   UNL     1     -10.546  11.495  66.423  1.00  0.00    -0.259 A  
HETATM   26  C   UNL     1     -11.084  12.445  67.353  1.00  0.00    -0.320 A  
HETATM   27  C   UNL     1     -11.384  13.771  66.887  1.00  0.00    -0.328 C  
BRANCH  21  28
HETATM   28  C   UNL     1     -11.394  12.546  64.226  1.00  0.00    -0.361 C  
HETATM   29  C   UNL     1     -12.235  12.002  63.084  1.00  0.00    -0.365 C  
HETATM   30  C   UNL     1     -12.898  12.477  64.335  1.00  0.00    -0.366 C  
ENDBRANCH  21  28
ENDBRANCH   3  11
TORSDOF 2
ENDMDL
MODEL       32
REMARK 921   NORMALIZED FREE ENERGY PREDICTED BY IDOCK:   -6.11 KCAL/MOL
REMARK 922        TOTAL FREE ENERGY PREDICTED BY IDOCK:   -7.60 KCAL/MOL
REMARK 923 INTER-LIGAND FREE ENERGY PREDICTED BY IDOCK:   -6.84 KCAL/MOL
REMARK 924 INTRA-LIGAND FREE ENERGY PREDICTED BY IDOCK:   -0.76 KCAL/MOL
REMARK 927      BINDING AFFINITY PREDICTED BY RF-SCORE:    0.00 PKD
ROOT
HETATM    1  C   UNL     1      -9.516   5.229  72.746  1.00  0.00    -0.142 C  
HETATM    2  C   UNL     1      -9.174   6.202  71.596  1.00  0.00    -0.145 C  
HETATM    3  N   UNL     1     -10.491   6.727  71.163  1.00  0.00    -0.213 NA 
HETATM    4  H   UNL     1      -7.654   4.437  73.301  1.00  0.00     0.000 HD 
HETATM    5  C   UNL     1     -11.568   5.959  71.836  1.00  0.00    -0.192 C  
HETATM    6  C   UNL     1     -10.873   4.678  72.297  1.00  0.00    -0.015 C  
HETATM    7  N   UNL     1      -8.588   4.120  73.045  1.00  0.00    -0.099 NA 
HETATM    8  O   UNL     1     -11.507   4.006  73.385  1.00  0.00    -0.238 OA 
HETATM    9  C   UNL     1      -9.229   3.287  74.093  1.00  0.00    -0.088 C  
HETATM   10  C   UNL     1     -10.694   2.887  73.789  1.00  0.00    -0.197 C  
ENDROOT
BRANCH   3  11
HETATM   11  C   UNL     1     -10.710   7.967  70.562  1.00  0.00    -0.229 A  
HETATM   12  C   UNL     1     -11.297  10.519  69.442  1.00  0.00    -0.331 A  
HETATM   13  C   UNL     1     -11.684  11.851  68.917  1.00  0.00    -0.323 C  
HETATM   14  C   UNL     1     -11.445  10.304  70.805  1.00  0.00    -0.438 A  
HETATM   15  C   UNL     1     -11.577  12.097  67.474  1.00  0.00    -0.413 C  
HETATM   16  C   UNL     1     -11.144   9.063  71.341  1.00  0.00    -0.329 A  
HETATM   17  O   UNL     1     -12.114  12.733  69.656  1.00  0.00    -0.289 OA 
HETATM   18  C   UNL     1     -11.091  11.094  66.735  1.00  0.00    -0.214 C  
HETATM   19  C   UNL     1     -11.910  13.383  66.827  1.00  0.00    -0.403 C  
HETATM   20  F   UNL     1     -11.295   8.958  72.669  1.00  0.00    -0.358 F  
HETATM   21  N   UNL     1     -10.647   9.861  67.196  1.00  0.00    -0.244 NA 
HETATM   22  O   UNL     1     -11.747  13.597  65.635  1.00  0.00    -0.322 OA 
HETATM   23  O   UNL     1     -12.398  14.322  67.665  1.00  0.00    -0.265 OA 
HETATM   24  N   UNL     1     -10.264   6.187  67.558  1.00  0.00    -0.156 NA 
HETATM   25  C   UNL     1     -10.820   9.509  68.580  1.00  0.00    -0.132 A  
HETATM   26  C   UNL     1     -10.588   8.214  69.152  1.00  0.00    -0.179 A  
HETATM   27  C   UNL     1     -10.397   7.096  68.270  1.00  0.00    -0.195 C  
BRANCH  21  28
HETATM   28  C   UNL     1      -9.753   9.130  66.264  1.00  0.00    -0.274 C  
HETATM   29  C   UNL     1      -9.215   9.805  65.014  1.00  0.00    -0.307 C  
HETATM   30  C   UNL     1      -8.283   9.444  66.123  1.00  0.00    -0.111 C  
ENDBRANCH  21  28
ENDBRANCH   3  11
TORSDOF 2
ENDMDL
MODEL       33
REMARK 921   NORMALIZED FREE ENERGY PREDICTED BY IDOCK:   -6.06 KCAL/MOL
REMARK 922        TOTAL FREE ENERGY PREDICTED BY IDOCK:   -7.54 KCAL/MOL
REMARK 923 INTER-LIGAND FREE ENERGY PREDICTED BY IDOCK:   -6.77 KCAL/MOL
REMARK 924 INTRA-LIGAND FREE ENERGY PREDICTED BY IDOCK:   -0.78 KCAL/MOL
REMARK 927      BINDING AFFINITY PREDICTED BY RF-SCORE:    0.00 PKD
ROOT
HETATM    1  C   UNL     1     -10.228   9.689  67.334  1.00  0.00    -0.227 C  
HETATM    2  C   UNL     1     -10.057  11.061  68.021  1.00  0.00    -0.179 C  
HETATM    3  N   UNL     1      -9.328  11.878  67.022  1.00  0.00    -0.183 NA 
HETATM    4  H   UNL     1     -11.194   8.520  68.784  1.00  0.00     0.000 HD 
HETATM    5  C   UNL     1      -8.883  11.004  65.909  1.00  0.00    -0.195 C  
HETATM    6  C   UNL     1      -8.947   9.596  66.498  1.00  0.00    -0.147 C  
HETATM    7  N   UNL     1     -10.380   8.483  68.172  1.00  0.00    -0.212 NA 
HETATM    8  O   UNL     1      -9.069   8.545  65.540  1.00  0.00    -0.175 OA 
HETATM    9  C   UNL     1     -10.393   7.315  67.255  1.00  0.00    -0.279 C  
HETATM   10  C   UNL     1      -9.233   7.291  66.230  1.00  0.00    -0.130 C  
ENDROOT
BRANCH   3  11
HETATM   11  C   UNL     1      -9.389  13.268  66.913  1.00  0.00    -0.244 A  
HETATM   12  C   UNL     1      -9.564  16.084  66.523  1.00  0.00    -0.283 A  
HETATM   13  C   UNL     1      -9.678  17.532  66.225  1.00  0.00    -0.258 C  
HETATM   14  C   UNL     1     -10.512  15.241  65.961  1.00  0.00    -0.328 A  
HETATM   15  C   UNL     1      -8.667  18.446  66.772  1.00  0.00    -0.284 C  
HETATM   16  C   UNL     1     -10.425  13.875  66.168  1.00  0.00    -0.297 A  
HETATM   17  O   UNL     1     -10.577  17.973  65.513  1.00  0.00    -0.639 OA 
HETATM   18  C   UNL     1      -7.726  17.894  67.546  1.00  0.00    -0.211 C  
HETATM   19  C   UNL     1      -8.677  19.909  66.567  1.00  0.00    -0.350 C  
HETATM   20  F   UNL     1     -11.398  13.144  65.605  1.00  0.00    -0.305 F  
HETATM   21  N   UNL     1      -7.627  16.558  67.912  1.00  0.00    -0.149 NA 
HETATM   22  O   UNL     1      -7.871  20.665  67.089  1.00  0.00    -0.326 OA 
HETATM   23  O   UNL     1      -9.666  20.355  65.764  1.00  0.00    -0.257 OA 
HETATM   24  N   UNL     1      -6.219  13.165  68.440  1.00  0.00    -0.076 NA 
HETATM   25  C   UNL     1      -8.516  15.588  67.329  1.00  0.00    -0.193 A  
HETATM   26  C   UNL     1      -8.410  14.165  67.463  1.00  0.00    -0.194 A  
HETATM   27  C   UNL     1      -7.203  13.613  68.015  1.00  0.00    -0.130 C  
BRANCH  21  28
HETATM   28  C   UNL     1      -6.794  16.298  69.112  1.00  0.00    -0.202 C  
HETATM   29  C   UNL     1      -5.293  16.526  69.080  1.00  0.00    -0.128 C  
HETATM   30  C   UNL     1      -6.160  17.402  69.924  1.00  0.00    -0.187 C  
ENDBRANCH  21  28
ENDBRANCH   3  11
TORSDOF 2
ENDMDL
MODEL       34
REMARK 921   NORMALIZED FREE ENERGY PREDICTED BY IDOCK:   -6.05 KCAL/MOL
REMARK 922        TOTAL FREE ENERGY PREDICTED BY IDOCK:   -7.54 KCAL/MOL
REMARK 923 INTER-LIGAND FREE ENERGY PREDICTED BY IDOCK:   -6.86 KCAL/MOL
REMARK 924 INTRA-LIGAND FREE ENERGY PREDICTED BY IDOCK:   -0.68 KCAL/MOL
REMARK 927      BINDING AFFINITY PREDICTED BY RF-SCORE:    0.00 PKD
ROOT
HETATM    1  C   UNL     1      -9.895  17.351  66.687  1.00  0.00    -0.297 C  
HETATM    2  C   UNL     1      -9.344  15.974  66.257  1.00  0.00    -0.322 C  
HETATM    3  N   UNL     1      -8.904  15.348  67.527  1.00  0.00    -0.176 NA 
HETATM    4  H   UNL     1     -10.445  18.257  64.876  1.00  0.00     0.000 HD 
HETATM    5  C   UNL     1      -8.964  16.355  68.614  1.00  0.00    -0.233 C  
HETATM    6  C   UNL     1      -8.989  17.693  67.875  1.00  0.00    -0.250 C  
HETATM    7  N   UNL     1      -9.895  18.458  65.710  1.00  0.00    -0.466 NA 
HETATM    8  O   UNL     1      -9.548  18.780  68.613  1.00  0.00    -0.353 OA 
HETATM    9  C   UNL     1     -10.351  19.673  66.430  1.00  0.00    -0.504 C  
HETATM   10  C   UNL     1      -9.614  19.943  67.766  1.00  0.00    -0.378 C  
ENDROOT
BRANCH   3  11
HETATM   11  C   UNL     1      -8.836  13.976  67.772  1.00  0.00    -0.187 A  
HETATM   12  C   UNL     1      -8.580  11.163  68.139  1.00  0.00    -0.140 A  
HETATM   13  C   UNL     1      -8.387   9.697  68.251  1.00  0.00    -0.117 C  
HETATM   14  C   UNL     1      -7.466  11.931  67.834  1.00  0.00    -0.114 A  
HETATM   15  C   UNL     1      -9.554   8.852  68.535  1.00  0.00    -0.165 C  
HETATM   16  C   UNL     1      -7.600  13.300  67.670  1.00  0.00    -0.170 A  
HETATM   17  O   UNL     1      -7.285   9.179  68.085  1.00  0.00    -0.077 OA 
HETATM   18  C   UNL     1     -10.717   9.488  68.713  1.00  0.00    -0.190 C  
HETATM   19  C   UNL     1      -9.494   7.384  68.691  1.00  0.00    -0.139 C  
HETATM   20  F   UNL     1      -6.465  13.960  67.400  1.00  0.00    -0.179 F  
HETATM   21  N   UNL     1     -10.927  10.861  68.693  1.00  0.00    -0.208 NA 
HETATM   22  O   UNL     1     -10.460   6.702  68.999  1.00  0.00    -0.185 OA 
HETATM   23  O   UNL     1      -8.272   6.848  68.483  1.00  0.00    -0.119 OA 
HETATM   24  N   UNL     1     -12.350  14.174  67.816  1.00  0.00    -0.154 NA 
HETATM   25  C   UNL     1      -9.855  11.743  68.316  1.00  0.00    -0.198 A  
HETATM   26  C   UNL     1      -9.975  13.150  68.067  1.00  0.00    -0.233 A  
HETATM   27  C   UNL     1     -11.288  13.718  67.941  1.00  0.00    -0.299 C  
BRANCH  21  28
HETATM   28  C   UNL     1     -12.174  11.313  69.359  1.00  0.00    -0.247 C  
HETATM   29  C   UNL     1     -12.799  10.494  70.474  1.00  0.00    -0.339 C  
HETATM   30  C   UNL     1     -12.203  11.829  70.777  1.00  0.00    -0.424 C  
ENDBRANCH  21  28
ENDBRANCH   3  11
TORSDOF 2
ENDMDL
MODEL       35
REMARK 921   NORMALIZED FREE ENERGY PREDICTED BY IDOCK:   -6.05 KCAL/MOL
REMARK 922        TOTAL FREE ENERGY PREDICTED BY IDOCK:   -7.54 KCAL/MOL
REMARK 923 INTER-LIGAND FREE ENERGY PREDICTED BY IDOCK:   -6.81 KCAL/MOL
REMARK 924 INTRA-LIGAND FREE ENERGY PREDICTED BY IDOCK:   -0.72 KCAL/MOL
REMARK 927      BINDING AFFINITY PREDICTED BY RF-SCORE:    0.00 PKD
ROOT
HETATM    1  C   UNL     1      -7.317  18.948  66.088  1.00  0.00    -0.266 C  
HETATM    2  C   UNL     1      -7.589  17.438  65.914  1.00  0.00    -0.071 C  
HETATM    3  N   UNL     1      -7.501  16.894  67.290  1.00  0.00    -0.156 NA 
HETATM    4  H   UNL     1      -7.371  19.695  64.128  1.00  0.00     0.000 HD 
HETATM    5  C   UNL     1      -6.984  17.946  68.199  1.00  0.00    -0.218 C  
HETATM    6  C   UNL     1      -6.327  18.955  67.257  1.00  0.00    -0.187 C  
HETATM    7  N   UNL     1      -6.768  19.712  64.950  1.00  0.00    -0.388 NA 
HETATM    8  O   UNL     1      -6.204  20.277  67.780  1.00  0.00    -0.213 OA 
HETATM    9  C   UNL     1      -6.491  21.085  65.441  1.00  0.00    -0.090 C  
HETATM   10  C   UNL     1      -5.677  21.144  66.757  1.00  0.00    -0.261 C  
ENDROOT
BRANCH   3  11
HETATM   11  C   UNL     1      -8.156  15.752  67.753  1.00  0.00    -0.144 A  
HETATM   12  C   UNL     1      -9.434  13.336  68.555  1.00  0.00    -0.113 A  
HETATM   13  C   UNL     1     -10.066  12.037  68.888  1.00  0.00    -0.015 C  
HETATM   14  C   UNL     1      -8.167  13.302  67.991  1.00  0.00    -0.162 A  
HETATM   15  C   UNL     1     -11.423  12.037  69.450  1.00  0.00    -0.361 C  
HETATM   16  C   UNL     1      -7.550  14.484  67.617  1.00  0.00    -0.182 A  
HETATM   17  O   UNL     1      -9.493  10.970  68.679  1.00  0.00    -0.184 OA 
HETATM   18  C   UNL     1     -11.978  13.236  69.659  1.00  0.00    -0.314 C  
HETATM   19  C   UNL     1     -12.156  10.816  69.843  1.00  0.00    -0.337 C  
HETATM   20  F   UNL     1      -6.318  14.352  67.103  1.00  0.00    -0.074 F  
HETATM   21  N   UNL     1     -11.392  14.475  69.433  1.00  0.00    -0.266 NA 
HETATM   22  O   UNL     1     -13.255  10.835  70.376  1.00  0.00    -0.158 OA 
HETATM   23  O   UNL     1     -11.504   9.663  69.581  1.00  0.00    -0.142 OA 
HETATM   24  N   UNL     1     -10.883  17.935  68.191  1.00  0.00    -0.262 NA 
HETATM   25  C   UNL     1     -10.110  14.553  68.785  1.00  0.00    -0.239 A  
HETATM   26  C   UNL     1      -9.477  15.753  68.319  1.00  0.00    -0.200 A  
HETATM   27  C   UNL     1     -10.252  16.961  68.260  1.00  0.00    -0.318 C  
BRANCH  21  28
HETATM   28  C   UNL     1     -12.021  15.606  70.160  1.00  0.00    -0.367 C  
HETATM   29  C   UNL     1     -13.040  15.353  71.257  1.00  0.00    -0.564 C  
HETATM   30  C   UNL     1     -11.706  15.929  71.601  1.00  0.00    -0.563 C  
ENDBRANCH  21  28
ENDBRANCH   3  11
TORSDOF 2
ENDMDL
MODEL       36
REMARK 921   NORMALIZED FREE ENERGY PREDICTED BY IDOCK:   -6.04 KCAL/MOL
REMARK 922        TOTAL FREE ENERGY PREDICTED BY IDOCK:   -7.53 KCAL/MOL
REMARK 923 INTER-LIGAND FREE ENERGY PREDICTED BY IDOCK:   -6.74 KCAL/MOL
REMARK 924 INTRA-LIGAND FREE ENERGY PREDICTED BY IDOCK:   -0.79 KCAL/MOL
REMARK 927      BINDING AFFINITY PREDICTED BY RF-SCORE:    0.00 PKD
ROOT
HETATM    1  C   UNL     1     -11.717  13.176  65.831  1.00  0.00    -0.384 C  
HETATM    2  C   UNL     1     -11.410  11.721  66.250  1.00  0.00    -0.287 C  
HETATM    3  N   UNL     1     -10.672  11.861  67.528  1.00  0.00    -0.217 NA 
HETATM    4  H   UNL     1     -12.695  12.969  63.987  1.00  0.00     0.000 HD 
HETATM    5  C   UNL     1     -10.348  13.292  67.751  1.00  0.00    -0.233 C  
HETATM    6  C   UNL     1     -10.488  13.921  66.365  1.00  0.00    -0.284 C  
HETATM    7  N   UNL     1     -11.917  13.481  64.401  1.00  0.00    -0.403 NA 
HETATM    8  O   UNL     1     -10.736  15.327  66.363  1.00  0.00    -0.309 OA 
HETATM    9  C   UNL     1     -12.062  14.954  64.287  1.00  0.00    -0.353 C  
HETATM   10  C   UNL     1     -10.958  15.766  65.009  1.00  0.00    -0.417 C  
ENDROOT
BRANCH   3  11
HETATM   11  C   UNL     1     -10.633  10.911  68.549  1.00  0.00    -0.190 A  
HETATM   12  C   UNL     1     -10.606   9.097  70.745  1.00  0.00    -0.324 A  
HETATM   13  C   UNL     1     -10.615   8.230  71.947  1.00  0.00    -0.282 C  
HETATM   14  C   UNL     1     -11.605  10.054  70.643  1.00  0.00    -0.422 A  
HETATM   15  C   UNL     1      -9.549   7.232  72.104  1.00  0.00    -0.162 C  
HETATM   16  C   UNL     1     -11.616  10.922  69.564  1.00  0.00    -0.313 A  
HETATM   17  O   UNL     1     -11.473   8.347  72.819  1.00  0.00    -0.350 OA 
HETATM   18  C   UNL     1      -8.657   7.156  71.111  1.00  0.00    -0.129 C  
HETATM   19  C   UNL     1      -9.453   6.295  73.243  1.00  0.00    -0.138 C  
HETATM   20  F   UNL     1     -12.632  11.797  69.539  1.00  0.00    -0.191 F  
HETATM   21  N   UNL     1      -8.656   7.895  69.935  1.00  0.00    -0.138 NA 
HETATM   22  O   UNL     1      -8.602   5.422  73.324  1.00  0.00    -0.117 OA 
HETATM   23  O   UNL     1     -10.401   6.466  74.190  1.00  0.00    -0.319 OA 
HETATM   24  N   UNL     1      -7.495  10.094  67.180  1.00  0.00    -0.091 NA 
HETATM   25  C   UNL     1      -9.605   8.962  69.759  1.00  0.00    -0.171 A  
HETATM   26  C   UNL     1      -9.600   9.923  68.694  1.00  0.00    -0.159 A  
HETATM   27  C   UNL     1      -8.441  10.008  67.850  1.00  0.00    -0.118 C  
BRANCH  21  28
HETATM   28  C   UNL     1      -7.856   7.311  68.829  1.00  0.00    -0.121 C  
HETATM   29  C   UNL     1      -6.348   7.176  68.949  1.00  0.00    -0.032 C  
HETATM   30  C   UNL     1      -7.204   5.953  68.920  1.00  0.00    -0.082 C  
ENDBRANCH  21  28
ENDBRANCH   3  11
TORSDOF 2
ENDMDL
MODEL       37
REMARK 921   NORMALIZED FREE ENERGY PREDICTED BY IDOCK:   -6.02 KCAL/MOL
REMARK 922        TOTAL FREE ENERGY PREDICTED BY IDOCK:   -7.49 KCAL/MOL
REMARK 923 INTER-LIGAND FREE ENERGY PREDICTED BY IDOCK:   -7.93 KCAL/MOL
REMARK 924 INTRA-LIGAND FREE ENERGY PREDICTED BY IDOCK:    0.43 KCAL/MOL
REMARK 927      BINDING AFFINITY PREDICTED BY RF-SCORE:    0.00 PKD
ROOT
HETATM    1  C   UNL     1      -9.102  17.236  66.842  1.00  0.00    -0.236 C  
HETATM    2  C   UNL     1     -10.147  16.102  66.921  1.00  0.00    -0.272 C  
HETATM    3  N   UNL     1      -9.370  14.925  67.380  1.00  0.00    -0.196 NA 
HETATM    4  H   UNL     1     -10.196  18.875  66.122  1.00  0.00     0.000 HD 
HETATM    5  C   UNL     1      -7.924  15.256  67.355  1.00  0.00    -0.186 C  
HETATM    6  C   UNL     1      -7.840  16.470  66.431  1.00  0.00    -0.289 C  
HETATM    7  N   UNL     1      -9.338  18.363  65.918  1.00  0.00    -0.456 NA 
HETATM    8  O   UNL     1      -6.690  17.294  66.621  1.00  0.00    -0.186 OA 
HETATM    9  C   UNL     1      -8.126  19.219  65.958  1.00  0.00    -0.221 C  
HETATM   10  C   UNL     1      -6.792  18.454  65.772  1.00  0.00    -0.275 C  
ENDROOT
BRANCH   3  11
HETATM   11  C   UNL     1      -9.886  13.844  68.095  1.00  0.00    -0.240 A  
HETATM   12  C   UNL     1     -10.925  11.540  69.408  1.00  0.00    -0.233 A  
HETATM   13  C   UNL     1     -11.461  10.293  70.004  1.00  0.00    -0.296 C  
HETATM   14  C   UNL     1      -9.887  11.415  68.496  1.00  0.00    -0.200 A  
HETATM   15  C   UNL     1     -12.586  10.388  70.943  1.00  0.00    -0.478 C  
HETATM   16  C   UNL     1      -9.381  12.544  67.873  1.00  0.00    -0.200 A  
HETATM   17  O   UNL     1     -11.005   9.191  69.708  1.00  0.00    -0.233 OA 
HETATM   18  C   UNL     1     -13.022  11.620  71.224  1.00  0.00    -0.269 C  
HETATM   19  C   UNL     1     -13.199   9.226  71.621  1.00  0.00    -0.388 C  
HETATM   20  F   UNL     1      -8.365  12.326  67.026  1.00  0.00    -0.163 F  
HETATM   21  N   UNL     1     -12.499  12.816  70.748  1.00  0.00    -0.322 NA 
HETATM   22  O   UNL     1     -14.086   9.327  72.455  1.00  0.00    -0.436 OA 
HETATM   23  O   UNL     1     -12.686   8.031  71.257  1.00  0.00    -0.296 OA 
HETATM   24  N   UNL     1     -12.298  16.170  69.173  1.00  0.00     0.116 NA 
HETATM   25  C   UNL     1     -11.469  12.798  69.744  1.00  0.00    -0.129 A  
HETATM   26  C   UNL     1     -10.975  13.938  69.028  1.00  0.00    -0.281 A  
HETATM   27  C   UNL     1     -11.700  15.175  69.119  1.00  0.00    -0.325 C  
BRANCH  21  28
HETATM   28  C   UNL     1     -12.851  14.015  71.549  1.00  0.00    -0.362 C  
HETATM   29  C   UNL     1     -14.286  14.273  71.973  1.00  0.00    -0.629 C  
HETATM   30  C   UNL     1     -13.256  13.940  73.001  1.00  0.00    -0.245 C  
ENDBRANCH  21  28
ENDBRANCH   3  11
TORSDOF 2
ENDMDL
MODEL       38
REMARK 921   NORMALIZED FREE ENERGY PREDICTED BY IDOCK:   -6.00 KCAL/MOL
REMARK 922        TOTAL FREE ENERGY PREDICTED BY IDOCK:   -7.48 KCAL/MOL
REMARK 923 INTER-LIGAND FREE ENERGY PREDICTED BY IDOCK:   -6.74 KCAL/MOL
REMARK 924 INTRA-LIGAND FREE ENERGY PREDICTED BY IDOCK:   -0.74 KCAL/MOL
REMARK 927      BINDING AFFINITY PREDICTED BY RF-SCORE:    0.00 PKD
ROOT
HETATM    1  C   UNL     1      -8.177   4.628  70.840  1.00  0.00    -0.089 C  
HETATM    2  C   UNL     1      -7.979   5.736  69.783  1.00  0.00    -0.100 C  
HETATM    3  N   UNL     1      -9.347   5.998  69.273  1.00  0.00    -0.132 NA 
HETATM    4  H   UNL     1      -6.230   4.213  71.501  1.00  0.00     0.000 HD 
HETATM    5  C   UNL     1     -10.272   4.969  69.806  1.00  0.00    -0.266 C  
HETATM    6  C   UNL     1      -9.347   3.835  70.247  1.00  0.00    -0.168 C  
HETATM    7  N   UNL     1      -7.052   3.724  71.149  1.00  0.00    -0.032 NA 
HETATM    8  O   UNL     1      -9.891   2.961  71.236  1.00  0.00    -0.156 OA 
HETATM    9  C   UNL     1      -7.565   2.695  72.088  1.00  0.00    -0.052 C  
HETATM   10  C   UNL     1      -8.882   2.015  71.639  1.00  0.00    -0.069 C  
ENDROOT
BRANCH   3  11
HETATM   11  C   UNL     1      -9.791   7.205  68.732  1.00  0.00    -0.158 A  
HETATM   12  C   UNL     1     -10.565   9.659  67.510  1.00  0.00    -0.339 A  
HETATM   13  C   UNL     1     -10.887  10.928  66.815  1.00  0.00    -0.224 C  
HETATM   14  C   UNL     1     -10.114   8.603  66.731  1.00  0.00    -0.366 A  
HETATM   15  C   UNL     1     -11.330  12.077  67.615  1.00  0.00    -0.375 C  
HETATM   16  C   UNL     1      -9.753   7.410  67.335  1.00  0.00    -0.153 A  
HETATM   17  O   UNL     1     -10.766  11.044  65.597  1.00  0.00    -0.231 OA 
HETATM   18  C   UNL     1     -11.447  11.872  68.932  1.00  0.00    -0.301 C  
HETATM   19  C   UNL     1     -11.701  13.389  67.045  1.00  0.00    -0.381 C  
HETATM   20  F   UNL     1      -9.352   6.441  66.499  1.00  0.00    -0.146 F  
HETATM   21  N   UNL     1     -11.229  10.681  69.611  1.00  0.00    -0.267 NA 
HETATM   22  O   UNL     1     -12.136  14.313  67.716  1.00  0.00    -0.363 OA 
HETATM   23  O   UNL     1     -11.537  13.485  65.709  1.00  0.00    -0.315 OA 
HETATM   24  N   UNL     1      -9.914   8.252  72.090  1.00  0.00    -0.244 NA 
HETATM   25  C   UNL     1     -10.692   9.545  68.911  1.00  0.00    -0.195 A  
HETATM   26  C   UNL     1     -10.241   8.324  69.513  1.00  0.00    -0.210 A  
HETATM   27  C   UNL     1     -10.072   8.281  70.939  1.00  0.00    -0.190 C  
BRANCH  21  28
HETATM   28  C   UNL     1     -11.859  10.602  70.953  1.00  0.00    -0.331 C  
HETATM   29  C   UNL     1     -12.971  11.558  71.347  1.00  0.00    -0.450 C  
HETATM   30  C   UNL     1     -13.268  10.106  71.168  1.00  0.00    -0.438 C  
ENDBRANCH  21  28
ENDBRANCH   3  11
TORSDOF 2
ENDMDL
MODEL       39
REMARK 921   NORMALIZED FREE ENERGY PREDICTED BY IDOCK:   -5.96 KCAL/MOL
REMARK 922        TOTAL FREE ENERGY PREDICTED BY IDOCK:   -7.44 KCAL/MOL
REMARK 923 INTER-LIGAND FREE ENERGY PREDICTED BY IDOCK:   -7.94 KCAL/MOL
REMARK 924 INTRA-LIGAND FREE ENERGY PREDICTED BY IDOCK:    0.50 KCAL/MOL
REMARK 927      BINDING AFFINITY PREDICTED BY RF-SCORE:    0.00 PKD
ROOT
HETATM    1  C   UNL     1     -12.298  14.571  72.179  1.00  0.00    -0.260 C  
HETATM    2  C   UNL     1     -12.616  13.804  70.877  1.00  0.00    -0.356 C  
HETATM    3  N   UNL     1     -11.799  14.489  69.846  1.00  0.00    -0.298 NA 
HETATM    4  H   UNL     1     -13.513  13.643  73.616  1.00  0.00     0.000 HD 
HETATM    5  C   UNL     1     -11.212  15.721  70.427  1.00  0.00    -0.369 C  
HETATM    6  C   UNL     1     -12.075  15.995  71.658  1.00  0.00    -0.472 C  
HETATM    7  N   UNL     1     -13.294  14.576  73.268  1.00  0.00    -0.562 NA 
HETATM    8  O   UNL     1     -11.452  16.788  72.668  1.00  0.00    -0.136 OA 
HETATM    9  C   UNL     1     -12.781  15.485  74.324  1.00  0.00    -0.397 C  
HETATM   10  C   UNL     1     -12.326  16.873  73.810  1.00  0.00    -0.014 C  
ENDROOT
BRANCH   3  11
HETATM   11  C   UNL     1     -11.319  13.903  68.674  1.00  0.00    -0.278 A  
HETATM   12  C   UNL     1     -10.456  12.803  66.192  1.00  0.00    -0.284 A  
HETATM   13  C   UNL     1     -10.081  12.283  64.856  1.00  0.00    -0.250 C  
HETATM   14  C   UNL     1     -10.796  14.145  66.280  1.00  0.00    -0.300 A  
HETATM   15  C   UNL     1      -9.753  10.857  64.722  1.00  0.00    -0.323 C  
HETATM   16  C   UNL     1     -11.202  14.672  67.495  1.00  0.00    -0.333 A  
HETATM   17  O   UNL     1     -10.065  13.007  63.864  1.00  0.00    -0.365 OA 
HETATM   18  C   UNL     1      -9.782  10.133  65.846  1.00  0.00    -0.232 C  
HETATM   19  C   UNL     1      -9.344  10.218  63.454  1.00  0.00    -0.303 C  
HETATM   20  F   UNL     1     -11.487  15.983  67.487  1.00  0.00    -0.253 F  
HETATM   21  N   UNL     1     -10.054  10.597  67.127  1.00  0.00    -0.198 NA 
HETATM   22  O   UNL     1      -9.005   9.047  63.372  1.00  0.00    -0.090 OA 
HETATM   23  O   UNL     1      -9.357  11.040  62.383  1.00  0.00    -0.275 OA 
HETATM   24  N   UNL     1     -11.598  10.900  70.489  1.00  0.00    -0.328 NA 
HETATM   25  C   UNL     1     -10.487  11.955  67.321  1.00  0.00    -0.222 A  
HETATM   26  C   UNL     1     -10.981  12.512  68.546  1.00  0.00    -0.280 A  
HETATM   27  C   UNL     1     -11.310  11.621  69.624  1.00  0.00    -0.236 C  
BRANCH  21  28
HETATM   28  C   UNL     1      -9.580   9.717  68.224  1.00  0.00    -0.143 C  
HETATM   29  C   UNL     1     -10.189   8.342  68.436  1.00  0.00    -0.242 C  
HETATM   30  C   UNL     1      -8.773   8.465  67.979  1.00  0.00    -0.139 C  
ENDBRANCH  21  28
ENDBRANCH   3  11
TORSDOF 2
ENDMDL
MODEL       40
REMARK 921   NORMALIZED FREE ENERGY PREDICTED BY IDOCK:   -5.89 KCAL/MOL
REMARK 922        TOTAL FREE ENERGY PREDICTED BY IDOCK:   -7.36 KCAL/MOL
REMARK 923 INTER-LIGAND FREE ENERGY PREDICTED BY IDOCK:   -6.50 KCAL/MOL
REMARK 924 INTRA-LIGAND FREE ENERGY PREDICTED BY IDOCK:   -0.86 KCAL/MOL
REMARK 927      BINDING AFFINITY PREDICTED BY RF-SCORE:    0.00 PKD
ROOT
HETATM    1  C   UNL     1     -10.349   8.168  69.053  1.00  0.00    -0.218 C  
HETATM    2  C   UNL     1      -9.635   9.486  69.424  1.00  0.00    -0.180 C  
HETATM    3  N   UNL     1      -9.886  10.373  68.262  1.00  0.00    -0.151 NA 
HETATM    4  H   UNL     1      -9.926   6.897  70.667  1.00  0.00     0.000 HD 
HETATM    5  C   UNL     1     -10.502   9.582  67.169  1.00  0.00    -0.253 C  
HETATM    6  C   UNL     1     -10.173   8.134  67.530  1.00  0.00    -0.243 C  
HETATM    7  N   UNL     1      -9.875   6.904  69.649  1.00  0.00    -0.166 NA 
HETATM    8  O   UNL     1     -11.046   7.157  66.963  1.00  0.00    -0.345 OA 
HETATM    9  C   UNL     1     -10.652   5.807  69.020  1.00  0.00    -0.281 C  
HETATM   10  C   UNL     1     -10.694   5.856  67.472  1.00  0.00    -0.276 C  
ENDROOT
BRANCH   3  11
HETATM   11  C   UNL     1      -9.928  11.767  68.303  1.00  0.00    -0.200 A  
HETATM   12  C   UNL     1     -10.179  14.604  68.321  1.00  0.00    -0.227 A  
HETATM   13  C   UNL     1     -10.399  16.070  68.288  1.00  0.00    -0.261 C  
HETATM   14  C   UNL     1     -11.256  13.806  68.677  1.00  0.00    -0.308 A  
HETATM   15  C   UNL     1      -9.289  16.940  67.878  1.00  0.00    -0.238 C  
HETATM   16  C   UNL     1     -11.119  12.428  68.678  1.00  0.00    -0.257 A  
HETATM   17  O   UNL     1     -11.489  16.563  68.569  1.00  0.00    -0.317 OA 
HETATM   18  C   UNL     1      -8.132  16.332  67.597  1.00  0.00    -0.146 C  
HETATM   19  C   UNL     1      -9.371  18.414  67.822  1.00  0.00    -0.274 C  
HETATM   20  F   UNL     1     -12.206  11.741  69.058  1.00  0.00    -0.344 F  
HETATM   21  N   UNL     1      -7.862  14.973  67.689  1.00  0.00    -0.152 NA 
HETATM   22  O   UNL     1      -8.418  19.129  67.548  1.00  0.00    -0.281 OA 
HETATM   23  O   UNL     1     -10.588  18.919  68.117  1.00  0.00    -0.346 OA 
HETATM   24  N   UNL     1      -6.769  11.548  66.766  1.00  0.00    -0.140 NA 
HETATM   25  C   UNL     1      -8.926  14.049  67.980  1.00  0.00    -0.182 A  
HETATM   26  C   UNL     1      -8.837  12.620  67.918  1.00  0.00    -0.182 A  
HETATM   27  C   UNL     1      -7.688  12.028  67.292  1.00  0.00    -0.168 C  
BRANCH  21  28
HETATM   28  C   UNL     1      -6.421  14.625  67.771  1.00  0.00    -0.164 C  
HETATM   29  C   UNL     1      -5.389  15.674  68.145  1.00  0.00    -0.121 C  
HETATM   30  C   UNL     1      -5.672  14.544  69.079  1.00  0.00    -0.084 C  
ENDBRANCH  21  28
ENDBRANCH   3  11
TORSDOF 2
ENDMDL
MODEL       41
REMARK 921   NORMALIZED FREE ENERGY PREDICTED BY IDOCK:   -5.89 KCAL/MOL
REMARK 922        TOTAL FREE ENERGY PREDICTED BY IDOCK:   -7.35 KCAL/MOL
REMARK 923 INTER-LIGAND FREE ENERGY PREDICTED BY IDOCK:   -6.52 KCAL/MOL
REMARK 924 INTRA-LIGAND FREE ENERGY PREDICTED BY IDOCK:   -0.84 KCAL/MOL
REMARK 927      BINDING AFFINITY PREDICTED BY RF-SCORE:    0.00 PKD
ROOT
HETATM    1  C   UNL     1     -10.587   7.882  70.762  1.00  0.00    -0.214 C  
HETATM    2  C   UNL     1      -9.993   9.307  70.741  1.00  0.00    -0.290 C  
HETATM    3  N   UNL     1      -9.954   9.661  69.302  1.00  0.00    -0.180 NA 
HETATM    4  H   UNL     1     -10.569   7.362  72.794  1.00  0.00     0.000 HD 
HETATM    5  C   UNL     1     -10.277   8.460  68.494  1.00  0.00    -0.201 C  
HETATM    6  C   UNL     1     -10.040   7.295  69.456  1.00  0.00    -0.182 C  
HETATM    7  N   UNL     1     -10.268   6.990  71.894  1.00  0.00    -0.188 NA 
HETATM    8  O   UNL     1     -10.740   6.094  69.133  1.00  0.00    -0.245 OA 
HETATM    9  C   UNL     1     -10.860   5.664  71.584  1.00  0.00    -0.237 C  
HETATM   10  C   UNL     1     -10.519   5.123  70.174  1.00  0.00    -0.235 C  
ENDROOT
BRANCH   3  11
HETATM   11  C   UNL     1     -10.012  10.956  68.786  1.00  0.00    -0.195 A  
HETATM   12  C   UNL     1     -10.265  13.547  67.629  1.00  0.00    -0.239 A  
HETATM   13  C   UNL     1     -10.468  14.858  66.968  1.00  0.00    -0.272 C  
HETATM   14  C   UNL     1     -11.397  12.802  67.928  1.00  0.00    -0.339 A  
HETATM   15  C   UNL     1      -9.288  15.653  66.603  1.00  0.00    -0.291 C  
HETATM   16  C   UNL     1     -11.262  11.550  68.503  1.00  0.00    -0.258 A  
HETATM   17  O   UNL     1     -11.592  15.275  66.698  1.00  0.00    -0.205 OA 
HETATM   18  C   UNL     1      -8.100  15.139  66.937  1.00  0.00    -0.159 C  
HETATM   19  C   UNL     1      -9.353  16.982  65.959  1.00  0.00    -0.152 C  
HETATM   20  F   UNL     1     -12.412  10.916  68.777  1.00  0.00    -0.311 F  
HETATM   21  N   UNL     1      -7.870  13.954  67.623  1.00  0.00    -0.164 NA 
HETATM   22  O   UNL     1      -8.365  17.663  65.727  1.00  0.00    -0.537 OA 
HETATM   23  O   UNL     1     -10.601  17.399  65.660  1.00  0.00    -0.534 OA 
HETATM   24  N   UNL     1      -6.525  10.599  68.468  1.00  0.00    -0.054 NA 
HETATM   25  C   UNL     1      -8.968  13.072  67.919  1.00  0.00    -0.200 A  
HETATM   26  C   UNL     1      -8.858  11.742  68.444  1.00  0.00    -0.161 A  
HETATM   27  C   UNL     1      -7.566  11.116  68.468  1.00  0.00    -0.120 C  
BRANCH  21  28
HETATM   28  C   UNL     1      -6.532  13.848  68.258  1.00  0.00    -0.111 C  
HETATM   29  C   UNL     1      -5.612  15.054  68.337  1.00  0.00    -0.108 C  
HETATM   30  C   UNL     1      -6.203  14.486  69.586  1.00  0.00    -0.133 C  
ENDBRANCH  21  28
ENDBRANCH   3  11
TORSDOF 2
ENDMDL
MODEL       42
REMARK 921   NORMALIZED FREE ENERGY PREDICTED BY IDOCK:   -5.85 KCAL/MOL
REMARK 922        TOTAL FREE ENERGY PREDICTED BY IDOCK:   -7.31 KCAL/MOL
REMARK 923 INTER-LIGAND FREE ENERGY PREDICTED BY IDOCK:   -6.69 KCAL/MOL
REMARK 924 INTRA-LIGAND FREE ENERGY PREDICTED BY IDOCK:   -0.61 KCAL/MOL
REMARK 927      BINDING AFFINITY PREDICTED BY RF-SCORE:    0.00 PKD
ROOT
HETATM    1  C   UNL     1     -10.245  15.305  66.042  1.00  0.00    -0.317 C  
HETATM    2  C   UNL     1     -10.223  13.819  65.622  1.00  0.00    -0.313 C  
HETATM    3  N   UNL     1      -9.275  13.189  66.572  1.00  0.00    -0.218 NA 
HETATM    4  H   UNL     1     -11.531  16.200  64.646  1.00  0.00     0.000 HD 
HETATM    5  C   UNL     1      -8.594  14.248  67.357  1.00  0.00    -0.213 C  
HETATM    6  C   UNL     1      -8.807  15.515  66.528  1.00  0.00    -0.313 C  
HETATM    7  N   UNL     1     -10.598  16.327  65.037  1.00  0.00    -0.659 NA 
HETATM    8  O   UNL     1      -8.716  16.738  67.260  1.00  0.00    -0.194 OA 
HETATM    9  C   UNL     1     -10.412  17.652  65.680  1.00  0.00    -0.144 C  
HETATM   10  C   UNL     1      -9.047  17.836  66.389  1.00  0.00    -0.234 C  
ENDROOT
BRANCH   3  11
HETATM   11  C   UNL     1      -9.294  11.851  66.968  1.00  0.00    -0.188 A  
HETATM   12  C   UNL     1      -9.328   9.075  67.604  1.00  0.00    -0.154 A  
HETATM   13  C   UNL     1      -9.348   7.611  67.837  1.00  0.00    -0.139 C  
HETATM   14  C   UNL     1      -8.530   9.545  66.571  1.00  0.00    -0.130 A  
HETATM   15  C   UNL     1     -10.212   7.078  68.897  1.00  0.00    -0.183 C  
HETATM   16  C   UNL     1      -8.511  10.899  66.279  1.00  0.00    -0.166 A  
HETATM   17  O   UNL     1      -8.682   6.841  67.149  1.00  0.00    -0.118 OA 
HETATM   18  C   UNL     1     -10.899   7.977  69.611  1.00  0.00    -0.169 C  
HETATM   19  C   UNL     1     -10.309   5.645  69.245  1.00  0.00    -0.270 C  
HETATM   20  F   UNL     1      -7.693  11.261  65.280  1.00  0.00     0.094 F  
HETATM   21  N   UNL     1     -10.851   9.359  69.475  1.00  0.00    -0.232 NA 
HETATM   22  O   UNL     1     -10.977   5.224  70.177  1.00  0.00    -0.170 OA 
HETATM   23  O   UNL     1      -9.580   4.827  68.455  1.00  0.00    -0.140 OA 
HETATM   24  N   UNL     1     -11.951  12.876  69.037  1.00  0.00    -0.283 NA 
HETATM   25  C   UNL     1     -10.110   9.947  68.391  1.00  0.00    -0.167 A  
HETATM   26  C   UNL     1     -10.127  11.331  68.017  1.00  0.00    -0.192 A  
HETATM   27  C   UNL     1     -11.128  12.188  68.591  1.00  0.00    -0.251 C  
BRANCH  21  28
HETATM   28  C   UNL     1     -11.332  10.120  70.655  1.00  0.00    -0.352 C  
HETATM   29  C   UNL     1     -12.809  10.153  71.009  1.00  0.00    -0.474 C  
HETATM   30  C   UNL     1     -11.845   9.451  71.908  1.00  0.00    -0.402 C  
ENDBRANCH  21  28
ENDBRANCH   3  11
TORSDOF 2
ENDMDL
MODEL       43
REMARK 921   NORMALIZED FREE ENERGY PREDICTED BY IDOCK:   -5.83 KCAL/MOL
REMARK 922        TOTAL FREE ENERGY PREDICTED BY IDOCK:   -7.29 KCAL/MOL
REMARK 923 INTER-LIGAND FREE ENERGY PREDICTED BY IDOCK:   -6.89 KCAL/MOL
REMARK 924 INTRA-LIGAND FREE ENERGY PREDICTED BY IDOCK:   -0.40 KCAL/MOL
REMARK 927      BINDING AFFINITY PREDICTED BY RF-SCORE:    0.00 PKD
ROOT
HETATM    1  C   UNL     1     -10.081   7.134  67.179  1.00  0.00    -0.225 C  
HETATM    2  C   UNL     1     -10.718   8.498  66.837  1.00  0.00    -0.086 C  
HETATM    3  N   UNL     1     -10.293   9.385  67.947  1.00  0.00    -0.212 NA 
HETATM    4  H   UNL     1     -10.749   5.870  65.643  1.00  0.00     0.000 HD 
HETATM    5  C   UNL     1      -9.646   8.568  69.003  1.00  0.00    -0.167 C  
HETATM    6  C   UNL     1     -10.121   7.145  68.711  1.00  0.00    -0.173 C  
HETATM    7  N   UNL     1     -10.708   5.901  66.662  1.00  0.00    -0.286 NA 
HETATM    8  O   UNL     1      -9.282   6.111  69.225  1.00  0.00    -0.131 OA 
HETATM    9  C   UNL     1      -9.967   4.757  67.250  1.00  0.00    -0.174 C  
HETATM   10  C   UNL     1      -9.781   4.833  68.785  1.00  0.00    -0.167 C  
ENDROOT
BRANCH   3  11
HETATM   11  C   UNL     1     -10.143  10.769  67.864  1.00  0.00    -0.172 A  
HETATM   12  C   UNL     1      -9.665  13.570  67.661  1.00  0.00    -0.229 A  
HETATM   13  C   UNL     1      -9.320  15.007  67.541  1.00  0.00    -0.195 C  
HETATM   14  C   UNL     1      -9.043  12.691  66.786  1.00  0.00    -0.214 A  
HETATM   15  C   UNL     1      -9.931  15.959  68.477  1.00  0.00    -0.216 C  
HETATM   16  C   UNL     1      -9.293  11.332  66.886  1.00  0.00    -0.177 A  
HETATM   17  O   UNL     1      -8.519  15.408  66.700  1.00  0.00    -0.259 OA 
HETATM   18  C   UNL     1     -10.800  15.450  69.358  1.00  0.00    -0.263 C  
HETATM   19  C   UNL     1      -9.688  17.416  68.453  1.00  0.00    -0.304 C  
HETATM   20  F   UNL     1      -8.666  10.564  65.984  1.00  0.00    -0.144 F  
HETATM   21  N   UNL     1     -11.208  14.126  69.454  1.00  0.00    -0.262 NA 
HETATM   22  O   UNL     1     -10.259  18.204  69.191  1.00  0.00    -0.344 OA 
HETATM   23  O   UNL     1      -8.789  17.818  67.529  1.00  0.00    -0.240 OA 
HETATM   24  N   UNL     1     -11.948  10.783  70.887  1.00  0.00    -0.339 NA 
HETATM   25  C   UNL     1     -10.574  13.120  68.643  1.00  0.00    -0.239 A  
HETATM   26  C   UNL     1     -10.755  11.704  68.769  1.00  0.00    -0.254 A  
HETATM   27  C   UNL     1     -11.425  11.196  69.934  1.00  0.00    -0.306 C  
BRANCH  21  28
HETATM   28  C   UNL     1     -12.484  13.916  70.182  1.00  0.00    -0.292 C  
HETATM   29  C   UNL     1     -12.562  14.111  71.686  1.00  0.00    -0.420 C  
HETATM   30  C   UNL     1     -13.284  15.050  70.776  1.00  0.00    -0.397 C  
ENDBRANCH  21  28
ENDBRANCH   3  11
TORSDOF 2
ENDMDL
MODEL       44
REMARK 921   NORMALIZED FREE ENERGY PREDICTED BY IDOCK:   -5.83 KCAL/MOL
REMARK 922        TOTAL FREE ENERGY PREDICTED BY IDOCK:   -7.29 KCAL/MOL
REMARK 923 INTER-LIGAND FREE ENERGY PREDICTED BY IDOCK:   -6.61 KCAL/MOL
REMARK 924 INTRA-LIGAND FREE ENERGY PREDICTED BY IDOCK:   -0.68 KCAL/MOL
REMARK 927      BINDING AFFINITY PREDICTED BY RF-SCORE:    0.00 PKD
ROOT
HETATM    1  C   UNL     1      -9.189   8.460  69.415  1.00  0.00    -0.154 C  
HETATM    2  C   UNL     1      -9.016   9.954  69.766  1.00  0.00    -0.221 C  
HETATM    3  N   UNL     1      -8.292  10.518  68.601  1.00  0.00    -0.124 NA 
HETATM    4  H   UNL     1     -10.147   7.658  71.100  1.00  0.00     0.000 HD 
HETATM    5  C   UNL     1      -7.852   9.411  67.718  1.00  0.00    -0.095 C  
HETATM    6  C   UNL     1      -7.912   8.176  68.617  1.00  0.00    -0.115 C  
HETATM    7  N   UNL     1      -9.335   7.480  70.509  1.00  0.00    -0.161 NA 
HETATM    8  O   UNL     1      -8.038   6.932  67.927  1.00  0.00    -0.112 OA 
HETATM    9  C   UNL     1      -9.352   6.132  69.887  1.00  0.00    -0.149 C  
HETATM   10  C   UNL     1      -8.197   5.872  68.889  1.00  0.00    -0.103 C  
ENDROOT
BRANCH   3  11
HETATM   11  C   UNL     1      -8.355  11.845  68.175  1.00  0.00    -0.161 A  
HETATM   12  C   UNL     1      -8.406  14.601  67.457  1.00  0.00    -0.203 A  
HETATM   13  C   UNL     1      -8.396  16.056  67.174  1.00  0.00    -0.199 C  
HETATM   14  C   UNL     1      -7.312  14.075  68.128  1.00  0.00    -0.128 A  
HETATM   15  C   UNL     1      -9.557  16.651  66.500  1.00  0.00    -0.292 C  
HETATM   16  C   UNL     1      -7.292  12.730  68.460  1.00  0.00    -0.115 A  
HETATM   17  O   UNL     1      -7.456  16.771  67.514  1.00  0.00    -0.149 OA 
HETATM   18  C   UNL     1     -10.537  15.809  66.152  1.00  0.00    -0.313 C  
HETATM   19  C   UNL     1      -9.664  18.081  66.143  1.00  0.00    -0.212 C  
HETATM   20  F   UNL     1      -6.183  12.309  69.086  1.00  0.00    -0.065 F  
HETATM   21  N   UNL     1     -10.552  14.432  66.330  1.00  0.00    -0.292 NA 
HETATM   22  O   UNL     1     -10.604  18.548  65.518  1.00  0.00    -0.621 OA 
HETATM   23  O   UNL     1      -8.623  18.839  66.549  1.00  0.00    -0.290 OA 
HETATM   24  N   UNL     1     -11.678  11.042  67.338  1.00  0.00    -0.500 NA 
HETATM   25  C   UNL     1      -9.500  13.794  67.077  1.00  0.00    -0.255 A  
HETATM   26  C   UNL     1      -9.483  12.424  67.500  1.00  0.00    -0.187 A  
HETATM   27  C   UNL     1     -10.694  11.657  67.398  1.00  0.00    -0.234 C  
BRANCH  21  28
HETATM   28  C   UNL     1     -11.512  13.700  65.466  1.00  0.00    -0.305 C  
HETATM   29  C   UNL     1     -13.005  13.960  65.570  1.00  0.00    -0.375 C  
HETATM   30  C   UNL     1     -12.265  14.361  64.337  1.00  0.00    -0.481 C  
ENDBRANCH  21  28
ENDBRANCH   3  11
TORSDOF 2
ENDMDL
MODEL       45
REMARK 921   NORMALIZED FREE ENERGY PREDICTED BY IDOCK:   -5.80 KCAL/MOL
REMARK 922        TOTAL FREE ENERGY PREDICTED BY IDOCK:   -7.25 KCAL/MOL
REMARK 923 INTER-LIGAND FREE ENERGY PREDICTED BY IDOCK:   -6.54 KCAL/MOL
REMARK 924 INTRA-LIGAND FREE ENERGY PREDICTED BY IDOCK:   -0.71 KCAL/MOL
REMARK 927      BINDING AFFINITY PREDICTED BY RF-SCORE:    0.00 PKD
ROOT
HETATM    1  C   UNL     1     -10.123  18.073  67.785  1.00  0.00    -0.353 C  
HETATM    2  C   UNL     1     -10.727  16.771  68.355  1.00  0.00    -0.362 C  
HETATM    3  N   UNL     1     -10.467  15.761  67.302  1.00  0.00    -0.302 NA 
HETATM    4  H   UNL     1     -10.562  19.511  69.249  1.00  0.00     0.000 HD 
HETATM    5  C   UNL     1      -9.957  16.442  66.087  1.00  0.00    -0.339 C  
HETATM    6  C   UNL     1     -10.369  17.900  66.282  1.00  0.00    -0.364 C  
HETATM    7  N   UNL     1     -10.658  19.371  68.244  1.00  0.00    -0.295 NA 
HETATM    8  O   UNL     1      -9.594  18.851  65.552  1.00  0.00    -0.199 OA 
HETATM    9  C   UNL     1      -9.988  20.425  67.442  1.00  0.00    -0.416 C  
HETATM   10  C   UNL     1     -10.012  20.181  65.913  1.00  0.00    -0.306 C  
ENDROOT
BRANCH   3  11
HETATM   11  C   UNL     1     -10.325  14.389  67.514  1.00  0.00    -0.251 A  
HETATM   12  C   UNL     1     -10.205  11.585  68.003  1.00  0.00    -0.205 A  
HETATM   13  C   UNL     1     -10.235  10.132  68.293  1.00  0.00    -0.166 C  
HETATM   14  C   UNL     1     -11.351  12.151  67.464  1.00  0.00    -0.392 A  
HETATM   15  C   UNL     1      -9.051   9.510  68.900  1.00  0.00    -0.141 C  
HETATM   16  C   UNL     1     -11.394  13.513  67.218  1.00  0.00    -0.315 A  
HETATM   17  O   UNL     1     -11.231   9.450  68.063  1.00  0.00    -0.040 OA 
HETATM   18  C   UNL     1      -8.002  10.312  69.111  1.00  0.00    -0.135 C  
HETATM   19  C   UNL     1      -8.944   8.071  69.219  1.00  0.00    -0.148 C  
HETATM   20  F   UNL     1     -12.534  13.964  66.676  1.00  0.00    -0.450 F  
HETATM   21  N   UNL     1      -7.905  11.659  68.785  1.00  0.00    -0.125 NA 
HETATM   22  O   UNL     1      -7.926   7.555  69.657  1.00  0.00    -0.119 OA 
HETATM   23  O   UNL     1     -10.063   7.358  68.972  1.00  0.00    -0.182 OA 
HETATM   24  N   UNL     1      -7.328  15.310  69.113  1.00  0.00    -0.156 NA 
HETATM   25  C   UNL     1      -9.059  12.360  68.287  1.00  0.00    -0.183 A  
HETATM   26  C   UNL     1      -9.160  13.776  68.092  1.00  0.00    -0.194 A  
HETATM   27  C   UNL     1      -8.140  14.623  68.646  1.00  0.00    -0.150 C  
BRANCH  21  28
HETATM   28  C   UNL     1      -6.520  12.184  68.699  1.00  0.00    -0.072 C  
HETATM   29  C   UNL     1      -5.338  11.239  68.564  1.00  0.00    -0.043 C  
HETATM   30  C   UNL     1      -5.704  12.138  67.430  1.00  0.00    -0.135 C  
ENDBRANCH  21  28
ENDBRANCH   3  11
TORSDOF 2
ENDMDL
MODEL       46
REMARK 921   NORMALIZED FREE ENERGY PREDICTED BY IDOCK:   -5.77 KCAL/MOL
REMARK 922        TOTAL FREE ENERGY PREDICTED BY IDOCK:   -7.22 KCAL/MOL
REMARK 923 INTER-LIGAND FREE ENERGY PREDICTED BY IDOCK:   -6.62 KCAL/MOL
REMARK 924 INTRA-LIGAND FREE ENERGY PREDICTED BY IDOCK:   -0.60 KCAL/MOL
REMARK 927      BINDING AFFINITY PREDICTED BY RF-SCORE:    0.00 PKD
ROOT
HETATM    1  C   UNL     1      -9.759  14.481  66.344  1.00  0.00    -0.296 C  
HETATM    2  C   UNL     1      -9.634  13.204  67.204  1.00  0.00    -0.235 C  
HETATM    3  N   UNL     1     -10.240  12.142  66.366  1.00  0.00    -0.216 NA 
HETATM    4  H   UNL     1      -8.965  15.989  67.568  1.00  0.00     0.000 HD 
HETATM    5  C   UNL     1     -10.895  12.764  65.189  1.00  0.00    -0.291 C  
HETATM    6  C   UNL     1     -11.072  14.227  65.596  1.00  0.00    -0.316 C  
HETATM    7  N   UNL     1      -9.800  15.795  67.016  1.00  0.00    -0.231 NA 
HETATM    8  O   UNL     1     -11.197  15.145  64.511  1.00  0.00    -0.349 OA 
HETATM    9  C   UNL     1     -10.052  16.813  65.965  1.00  0.00    -0.332 C  
HETATM   10  C   UNL     1     -11.242  16.488  65.029  1.00  0.00    -0.087 C  
ENDROOT
BRANCH   3  11
HETATM   11  C   UNL     1      -9.922  10.785  66.424  1.00  0.00    -0.216 A  
HETATM   12  C   UNL     1      -9.294   8.007  66.366  1.00  0.00    -0.259 A  
HETATM   13  C   UNL     1      -8.987   6.563  66.238  1.00  0.00    -0.156 C  
HETATM   14  C   UNL     1      -8.838   8.847  65.360  1.00  0.00    -0.234 A  
HETATM   15  C   UNL     1      -9.489   5.642  67.266  1.00  0.00    -0.115 C  
HETATM   16  C   UNL     1      -9.138  10.198  65.406  1.00  0.00    -0.188 A  
HETATM   17  O   UNL     1      -8.350   6.123  65.284  1.00  0.00    -0.145 OA 
HETATM   18  C   UNL     1     -10.165   6.195  68.278  1.00  0.00    -0.175 C  
HETATM   19  C   UNL     1      -9.237   4.186  67.267  1.00  0.00    -0.158 C  
HETATM   20  F   UNL     1      -8.635  10.934  64.404  1.00  0.00    -0.169 F  
HETATM   21  N   UNL     1     -10.409   7.548  68.475  1.00  0.00    -0.197 NA 
HETATM   22  O   UNL     1      -9.600   3.443  68.167  1.00  0.00    -0.177 OA 
HETATM   23  O   UNL     1      -8.552   3.735  66.194  1.00  0.00    -0.109 OA 
HETATM   24  N   UNL     1     -12.221  10.728  69.088  1.00  0.00    -0.386 NA 
HETATM   25  C   UNL     1     -10.041   8.498  67.459  1.00  0.00    -0.221 A  
HETATM   26  C   UNL     1     -10.399   9.886  67.439  1.00  0.00    -0.301 A  
HETATM   27  C   UNL     1     -11.397  10.353  68.360  1.00  0.00    -0.227 C  
BRANCH  21  28
HETATM   28  C   UNL     1     -10.763   7.924  69.867  1.00  0.00    -0.244 C  
HETATM   29  C   UNL     1     -11.714   7.067  70.685  1.00  0.00    -0.384 C  
HETATM   30  C   UNL     1     -10.275   7.156  71.072  1.00  0.00    -0.205 C  
ENDBRANCH  21  28
ENDBRANCH   3  11
TORSDOF 2
ENDMDL
MODEL       47
REMARK 921   NORMALIZED FREE ENERGY PREDICTED BY IDOCK:   -5.71 KCAL/MOL
REMARK 922        TOTAL FREE ENERGY PREDICTED BY IDOCK:   -7.16 KCAL/MOL
REMARK 923 INTER-LIGAND FREE ENERGY PREDICTED BY IDOCK:   -6.74 KCAL/MOL
REMARK 924 INTRA-LIGAND FREE ENERGY PREDICTED BY IDOCK:   -0.41 KCAL/MOL
REMARK 927      BINDING AFFINITY PREDICTED BY RF-SCORE:    0.00 PKD
ROOT
HETATM    1  C   UNL     1      -9.573   4.823  69.692  1.00  0.00    -0.183 C  
HETATM    2  C   UNL     1     -10.686   5.875  69.490  1.00  0.00    -0.343 C  
HETATM    3  N   UNL     1     -10.512   6.809  70.628  1.00  0.00    -0.211 NA 
HETATM    4  H   UNL     1      -9.875   3.467  68.121  1.00  0.00     0.000 HD 
HETATM    5  C   UNL     1      -9.523   6.243  71.578  1.00  0.00    -0.151 C  
HETATM    6  C   UNL     1      -9.479   4.757  71.221  1.00  0.00    -0.156 C  
HETATM    7  N   UNL     1      -9.757   3.469  69.134  1.00  0.00    -0.068 NA 
HETATM    8  O   UNL     1      -8.282   4.080  71.603  1.00  0.00    -0.079 OA 
HETATM    9  C   UNL     1      -8.606   2.651  69.588  1.00  0.00    -0.067 C  
HETATM   10  C   UNL     1      -8.325   2.727  71.110  1.00  0.00    -0.061 C  
ENDROOT
BRANCH   3  11
HETATM   11  C   UNL     1     -10.878   8.155  70.633  1.00  0.00    -0.233 A  
HETATM   12  C   UNL     1     -11.791  10.853  70.677  1.00  0.00    -0.453 A  
HETATM   13  C   UNL     1     -12.359  12.222  70.713  1.00  0.00    -0.290 C  
HETATM   14  C   UNL     1     -12.289   9.933  71.587  1.00  0.00    -0.496 A  
HETATM   15  C   UNL     1     -11.881  13.209  69.736  1.00  0.00    -0.386 C  
HETATM   16  C   UNL     1     -11.828   8.627  71.565  1.00  0.00    -0.306 A  
HETATM   17  O   UNL     1     -13.232  12.535  71.518  1.00  0.00    -0.345 OA 
HETATM   18  C   UNL     1     -10.923  12.799  68.898  1.00  0.00    -0.231 C  
HETATM   19  C   UNL     1     -12.349  14.610  69.678  1.00  0.00    -0.230 C  
HETATM   20  F   UNL     1     -12.350   7.817  72.498  1.00  0.00    -0.298 F  
HETATM   21  N   UNL     1     -10.311  11.552  68.881  1.00  0.00    -0.199 NA 
HETATM   22  O   UNL     1     -11.890  15.439  68.906  1.00  0.00    -0.349 OA 
HETATM   23  O   UNL     1     -13.322  14.912  70.564  1.00  0.00    -0.270 OA 
HETATM   24  N   UNL     1      -9.025   8.298  67.643  1.00  0.00    -0.135 NA 
HETATM   25  C   UNL     1     -10.800  10.502  69.735  1.00  0.00    -0.281 A  
HETATM   26  C   UNL     1     -10.398   9.127  69.688  1.00  0.00    -0.226 A  
HETATM   27  C   UNL     1      -9.628   8.672  68.564  1.00  0.00    -0.154 C  
BRANCH  21  28
HETATM   28  C   UNL     1      -9.000  11.507  68.185  1.00  0.00    -0.172 C  
HETATM   29  C   UNL     1      -8.891  11.855  66.711  1.00  0.00    -0.193 C  
HETATM   30  C   UNL     1      -8.271  12.750  67.734  1.00  0.00    -0.176 C  
ENDBRANCH  21  28
ENDBRANCH   3  11
TORSDOF 2
ENDMDL
MODEL       48
REMARK 921   NORMALIZED FREE ENERGY PREDICTED BY IDOCK:   -5.63 KCAL/MOL
REMARK 922        TOTAL FREE ENERGY PREDICTED BY IDOCK:   -7.06 KCAL/MOL
REMARK 923 INTER-LIGAND FREE ENERGY PREDICTED BY IDOCK:   -6.29 KCAL/MOL
REMARK 924 INTRA-LIGAND FREE ENERGY PREDICTED BY IDOCK:   -0.78 KCAL/MOL
REMARK 927      BINDING AFFINITY PREDICTED BY RF-SCORE:    0.00 PKD
ROOT
HETATM    1  C   UNL     1     -11.501  12.915  67.082  1.00  0.00    -0.336 C  
HETATM    2  C   UNL     1     -11.745  11.428  67.420  1.00  0.00    -0.089 C  
HETATM    3  N   UNL     1     -10.533  11.024  68.172  1.00  0.00    -0.180 NA 
HETATM    4  H   UNL     1     -13.187  13.455  65.955  1.00  0.00     0.000 HD 
HETATM    5  C   UNL     1      -9.526  12.111  68.095  1.00  0.00    -0.205 C  
HETATM    6  C   UNL     1      -9.980  12.949  66.900  1.00  0.00    -0.238 C  
HETATM    7  N   UNL     1     -12.169  13.500  65.903  1.00  0.00    -0.442 NA 
HETATM    8  O   UNL     1      -9.522  14.301  66.901  1.00  0.00    -0.242 OA 
HETATM    9  C   UNL     1     -11.655  14.884  65.753  1.00  0.00    -0.234 C  
HETATM   10  C   UNL     1     -10.111  15.002  65.789  1.00  0.00    -0.340 C  
ENDROOT
BRANCH   3  11
HETATM   11  C   UNL     1     -10.473  10.005  69.123  1.00  0.00    -0.219 A  
HETATM   12  C   UNL     1     -10.322   8.049  71.188  1.00  0.00    -0.229 A  
HETATM   13  C   UNL     1     -10.222   7.105  72.327  1.00  0.00    -0.190 C  
HETATM   14  C   UNL     1     -10.962   9.259  71.418  1.00  0.00    -0.429 A  
HETATM   15  C   UNL     1      -9.517   5.832  72.127  1.00  0.00    -0.164 C  
HETATM   16  C   UNL     1     -11.041  10.197  70.402  1.00  0.00    -0.324 A  
HETATM   17  O   UNL     1     -10.690   7.376  73.430  1.00  0.00    -0.379 OA 
HETATM   18  C   UNL     1      -9.043   5.603  70.898  1.00  0.00    -0.144 C  
HETATM   19  C   UNL     1      -9.365   4.798  73.172  1.00  0.00    -0.121 C  
HETATM   20  F   UNL     1     -11.697  11.325  70.711  1.00  0.00    -0.401 F  
HETATM   21  N   UNL     1      -9.181   6.425  69.787  1.00  0.00    -0.144 NA 
HETATM   22  O   UNL     1      -8.838   3.714  72.970  1.00  0.00    -0.092 OA 
HETATM   23  O   UNL     1      -9.873   5.138  74.375  1.00  0.00    -0.158 OA 
HETATM   24  N   UNL     1      -8.316   8.463  66.808  1.00  0.00    -0.108 NA 
HETATM   25  C   UNL     1      -9.765   7.732  69.930  1.00  0.00    -0.176 A  
HETATM   26  C   UNL     1      -9.797   8.752  68.923  1.00  0.00    -0.183 A  
HETATM   27  C   UNL     1      -8.988   8.586  67.748  1.00  0.00    -0.136 C  
BRANCH  21  28
HETATM   28  C   UNL     1      -8.980   5.750  68.480  1.00  0.00    -0.112 C  
HETATM   29  C   UNL     1      -7.800   4.819  68.261  1.00  0.00    -0.081 C  
HETATM   30  C   UNL     1      -9.188   4.267  68.284  1.00  0.00    -0.190 C  
ENDBRANCH  21  28
ENDBRANCH   3  11
TORSDOF 2
ENDMDL
MODEL       49
REMARK 921   NORMALIZED FREE ENERGY PREDICTED BY IDOCK:   -5.60 KCAL/MOL
REMARK 922        TOTAL FREE ENERGY PREDICTED BY IDOCK:   -7.03 KCAL/MOL
REMARK 923 INTER-LIGAND FREE ENERGY PREDICTED BY IDOCK:   -6.70 KCAL/MOL
REMARK 924 INTRA-LIGAND FREE ENERGY PREDICTED BY IDOCK:   -0.33 KCAL/MOL
REMARK 927      BINDING AFFINITY PREDICTED BY RF-SCORE:    0.00 PKD
ROOT
HETATM    1  C   UNL     1     -12.579  14.348  70.258  1.00  0.00    -0.323 C  
HETATM    2  C   UNL     1     -11.352  14.117  69.349  1.00  0.00    -0.272 C  
HETATM    3  N   UNL     1     -11.284  12.644  69.200  1.00  0.00    -0.258 NA 
HETATM    4  H   UNL     1     -12.622  16.428  70.523  1.00  0.00     0.000 HD 
HETATM    5  C   UNL     1     -12.249  12.013  70.134  1.00  0.00    -0.231 C  
HETATM    6  C   UNL     1     -12.537  13.109  71.160  1.00  0.00    -0.314 C  
HETATM    7  N   UNL     1     -12.642  15.573  71.078  1.00  0.00    -0.426 NA 
HETATM    8  O   UNL     1     -13.776  12.974  71.856  1.00  0.00    -0.378 OA 
HETATM    9  C   UNL     1     -13.849  15.463  71.934  1.00  0.00    -0.517 C  
HETATM   10  C   UNL     1     -13.972  14.123  72.702  1.00  0.00    -0.304 C  
ENDROOT
BRANCH   3  11
HETATM   11  C   UNL     1     -10.732  11.965  68.113  1.00  0.00    -0.215 A  
HETATM   12  C   UNL     1      -9.764  10.588  65.815  1.00  0.00    -0.277 A  
HETATM   13  C   UNL     1      -9.353   9.874  64.583  1.00  0.00    -0.277 C  
HETATM   14  C   UNL     1     -10.651  11.645  65.673  1.00  0.00    -0.324 A  
HETATM   15  C   UNL     1      -8.445   8.725  64.703  1.00  0.00    -0.169 C  
HETATM   16  C   UNL     1     -11.105  12.316  66.796  1.00  0.00    -0.296 A  
HETATM   17  O   UNL     1      -9.774  10.204  63.477  1.00  0.00    -0.273 OA 
HETATM   18  C   UNL     1      -8.021   8.431  65.937  1.00  0.00    -0.099 C  
HETATM   19  C   UNL     1      -7.944   7.942  63.555  1.00  0.00    -0.126 C  
HETATM   20  F   UNL     1     -11.940  13.337  66.558  1.00  0.00    -0.366 F  
HETATM   21  N   UNL     1      -8.321   9.120  67.106  1.00  0.00    -0.116 NA 
HETATM   22  O   UNL     1      -7.133   7.035  63.664  1.00  0.00    -0.054 OA 
HETATM   23  O   UNL     1      -8.443   8.321  62.358  1.00  0.00    -0.186 OA 
HETATM   24  N   UNL     1      -9.440   9.808  70.577  1.00  0.00    -0.171 NA 
HETATM   25  C   UNL     1      -9.285  10.187  67.081  1.00  0.00    -0.138 A  
HETATM   26  C   UNL     1      -9.830  10.852  68.229  1.00  0.00    -0.179 A  
HETATM   27  C   UNL     1      -9.604  10.281  69.528  1.00  0.00    -0.202 C  
BRANCH  21  28
HETATM   28  C   UNL     1      -7.383   8.880  68.231  1.00  0.00    -0.083 C  
HETATM   29  C   UNL     1      -7.212   7.489  68.817  1.00  0.00    -0.082 C  
HETATM   30  C   UNL     1      -6.086   8.124  68.069  1.00  0.00    -0.047 C  
ENDBRANCH  21  28
ENDBRANCH   3  11
TORSDOF 2
ENDMDL
MODEL       50
REMARK 921   NORMALIZED FREE ENERGY PREDICTED BY IDOCK:   -5.56 KCAL/MOL
REMARK 922        TOTAL FREE ENERGY PREDICTED BY IDOCK:   -6.99 KCAL/MOL
REMARK 923 INTER-LIGAND FREE ENERGY PREDICTED BY IDOCK:   -6.13 KCAL/MOL
REMARK 924 INTRA-LIGAND FREE ENERGY PREDICTED BY IDOCK:   -0.85 KCAL/MOL
REMARK 927      BINDING AFFINITY PREDICTED BY RF-SCORE:    0.00 PKD
ROOT
HETATM    1  C   UNL     1      -9.542  17.167  67.831  1.00  0.00    -0.266 C  
HETATM    2  C   UNL     1      -9.479  15.879  68.680  1.00  0.00    -0.214 C  
HETATM    3  N   UNL     1      -9.332  14.794  67.680  1.00  0.00    -0.193 NA 
HETATM    4  H   UNL     1      -9.824  18.688  69.249  1.00  0.00     0.000 HD 
HETATM    5  C   UNL     1      -9.527  15.354  66.320  1.00  0.00    -0.309 C  
HETATM    6  C   UNL     1     -10.255  16.675  66.567  1.00  0.00    -0.310 C  
HETATM    7  N   UNL     1     -10.233  18.352  68.378  1.00  0.00    -0.384 NA 
HETATM    8  O   UNL     1     -10.120  17.642  65.526  1.00  0.00    -0.566 OA 
HETATM    9  C   UNL     1     -10.249  19.380  67.307  1.00  0.00    -0.415 C  
HETATM   10  C   UNL     1     -10.754  18.870  65.935  1.00  0.00    -0.297 C  
ENDROOT
BRANCH   3  11
HETATM   11  C   UNL     1      -8.721  13.561  67.908  1.00  0.00    -0.183 A  
HETATM   12  C   UNL     1      -7.362  11.080  68.243  1.00  0.00    -0.088 A  
HETATM   13  C   UNL     1      -6.599   9.813  68.338  1.00  0.00    -0.056 C  
HETATM   14  C   UNL     1      -6.647  12.234  67.959  1.00  0.00    -0.076 A  
HETATM   15  C   UNL     1      -7.331   8.566  68.598  1.00  0.00    -0.088 C  
HETATM   16  C   UNL     1      -7.317  13.438  67.812  1.00  0.00    -0.157 A  
HETATM   17  O   UNL     1      -5.381   9.782  68.178  1.00  0.00    -0.039 OA 
HETATM   18  C   UNL     1      -8.652   8.680  68.771  1.00  0.00    -0.130 C  
HETATM   19  C   UNL     1      -6.689   7.243  68.736  1.00  0.00    -0.067 C  
HETATM   20  F   UNL     1      -6.541  14.502  67.563  1.00  0.00    -0.168 F  
HETATM   21  N   UNL     1      -9.394   9.854  68.765  1.00  0.00    -0.151 NA 
HETATM   22  O   UNL     1      -7.303   6.226  69.023  1.00  0.00    -0.081 OA 
HETATM   23  O   UNL     1      -5.354   7.244  68.534  1.00  0.00    -0.019 OA 
HETATM   24  N   UNL     1     -12.021  12.334  67.915  1.00  0.00    -0.480 NA 
HETATM   25  C   UNL     1      -8.764  11.098  68.412  1.00  0.00    -0.157 A  
HETATM   26  C   UNL     1      -9.436  12.343  68.180  1.00  0.00    -0.214 A  
HETATM   27  C   UNL     1     -10.866  12.339  68.046  1.00  0.00    -0.220 C  
BRANCH  21  28
HETATM   28  C   UNL     1     -10.721   9.758  69.423  1.00  0.00    -0.228 C  
HETATM   29  C   UNL     1     -11.083   8.551  70.269  1.00  0.00    -0.222 C  
HETATM   30  C   UNL     1     -10.906   9.885  70.916  1.00  0.00    -0.357 C  
ENDBRANCH  21  28
ENDBRANCH   3  11
TORSDOF 2
ENDMDL
MODEL       51
REMARK 921   NORMALIZED FREE ENERGY PREDICTED BY IDOCK:   -5.54 KCAL/MOL
REMARK 922        TOTAL FREE ENERGY PREDICTED BY IDOCK:   -6.97 KCAL/MOL
REMARK 923 INTER-LIGAND FREE ENERGY PREDICTED BY IDOCK:   -6.26 KCAL/MOL
REMARK 924 INTRA-LIGAND FREE ENERGY PREDICTED BY IDOCK:   -0.70 KCAL/MOL
REMARK 927      BINDING AFFINITY PREDICTED BY RF-SCORE:    0.00 PKD
ROOT
HETATM    1  C   UNL     1      -8.768   6.719  65.949  1.00  0.00    -0.137 C  
HETATM    2  C   UNL     1      -9.962   7.205  66.798  1.00  0.00    -0.208 C  
HETATM    3  N   UNL     1      -9.343   8.079  67.824  1.00  0.00    -0.137 NA 
HETATM    4  H   UNL     1      -9.644   5.426  64.548  1.00  0.00     0.000 HD 
HETATM    5  C   UNL     1      -7.868   7.948  67.752  1.00  0.00    -0.123 C  
HETATM    6  C   UNL     1      -7.651   6.638  66.996  1.00  0.00    -0.095 C  
HETATM    7  N   UNL     1      -8.880   5.438  65.223  1.00  0.00    -0.153 NA 
HETATM    8  O   UNL     1      -6.385   6.517  66.346  1.00  0.00    -0.039 OA 
HETATM    9  C   UNL     1      -7.556   5.167  64.610  1.00  0.00    -0.079 C  
HETATM   10  C   UNL     1      -6.359   5.295  65.584  1.00  0.00    -0.035 C  
ENDROOT
BRANCH   3  11
HETATM   11  C   UNL     1      -9.976   9.142  68.470  1.00  0.00    -0.174 A  
HETATM   12  C   UNL     1     -11.390  11.196  69.847  1.00  0.00    -0.348 A  
HETATM   13  C   UNL     1     -12.194  12.197  70.588  1.00  0.00    -0.300 C  
HETATM   14  C   UNL     1     -11.251   9.940  70.419  1.00  0.00    -0.379 A  
HETATM   15  C   UNL     1     -12.393  13.523  69.990  1.00  0.00    -0.315 C  
HETATM   16  C   UNL     1     -10.550   8.953  69.747  1.00  0.00    -0.224 A  
HETATM   17  O   UNL     1     -12.714  11.931  71.669  1.00  0.00    -0.317 OA 
HETATM   18  C   UNL     1     -11.789  13.742  68.817  1.00  0.00    -0.363 C  
HETATM   19  C   UNL     1     -13.155  14.615  70.632  1.00  0.00    -0.271 C  
HETATM   20  F   UNL     1     -10.448   7.780  70.389  1.00  0.00    -0.207 F  
HETATM   21  N   UNL     1     -10.967  12.860  68.128  1.00  0.00    -0.237 NA 
HETATM   22  O   UNL     1     -13.251  15.736  70.156  1.00  0.00    -0.158 OA 
HETATM   23  O   UNL     1     -13.728  14.281  71.808  1.00  0.00    -0.360 OA 
HETATM   24  N   UNL     1      -9.576  10.785  65.383  1.00  0.00    -0.208 NA 
HETATM   25  C   UNL     1     -10.812  11.509  68.597  1.00  0.00    -0.212 A  
HETATM   26  C   UNL     1     -10.157  10.446  67.893  1.00  0.00    -0.200 A  
HETATM   27  C   UNL     1      -9.825  10.639  66.509  1.00  0.00    -0.204 C  
BRANCH  21  28
HETATM   28  C   UNL     1     -10.077  13.492  67.121  1.00  0.00    -0.245 C  
HETATM   29  C   UNL     1     -10.648  14.370  66.022  1.00  0.00    -0.304 C  
HETATM   30  C   UNL     1      -9.799  14.975  67.090  1.00  0.00    -0.233 C  
ENDBRANCH  21  28
ENDBRANCH   3  11
TORSDOF 2
ENDMDL
MODEL       52
REMARK 921   NORMALIZED FREE ENERGY PREDICTED BY IDOCK:   -5.54 KCAL/MOL
REMARK 922        TOTAL FREE ENERGY PREDICTED BY IDOCK:   -6.96 KCAL/MOL
REMARK 923 INTER-LIGAND FREE ENERGY PREDICTED BY IDOCK:   -6.59 KCAL/MOL
REMARK 924 INTRA-LIGAND FREE ENERGY PREDICTED BY IDOCK:   -0.37 KCAL/MOL
REMARK 927      BINDING AFFINITY PREDICTED BY RF-SCORE:    0.00 PKD
ROOT
HETATM    1  C   UNL     1     -11.664  13.267  69.745  1.00  0.00    -0.284 C  
HETATM    2  C   UNL     1     -12.164  12.131  70.664  1.00  0.00    -0.300 C  
HETATM    3  N   UNL     1     -11.910  10.896  69.883  1.00  0.00    -0.317 NA 
HETATM    4  H   UNL     1     -12.095  15.012  70.827  1.00  0.00     0.000 HD 
HETATM    5  C   UNL     1     -11.506  11.265  68.504  1.00  0.00    -0.306 C  
HETATM    6  C   UNL     1     -11.985  12.709  68.354  1.00  0.00    -0.221 C  
HETATM    7  N   UNL     1     -12.240  14.617  69.898  1.00  0.00    -0.319 NA 
HETATM    8  O   UNL     1     -11.303  13.470  67.357  1.00  0.00    -0.287 OA 
HETATM    9  C   UNL     1     -11.674  15.457  68.813  1.00  0.00    -0.351 C  
HETATM   10  C   UNL     1     -11.771  14.832  67.400  1.00  0.00    -0.350 C  
ENDROOT
BRANCH   3  11
HETATM   11  C   UNL     1     -11.684   9.629  70.423  1.00  0.00    -0.202 A  
HETATM   12  C   UNL     1     -11.324   7.090  71.662  1.00  0.00    -0.288 A  
HETATM   13  C   UNL     1     -11.190   5.802  72.384  1.00  0.00    -0.290 C  
HETATM   14  C   UNL     1     -12.560   7.718  71.704  1.00  0.00    -0.357 A  
HETATM   15  C   UNL     1      -9.884   5.131  72.391  1.00  0.00    -0.208 C  
HETATM   16  C   UNL     1     -12.727   8.947  71.087  1.00  0.00    -0.159 A  
HETATM   17  O   UNL     1     -12.134   5.305  72.993  1.00  0.00    -0.163 OA 
HETATM   18  C   UNL     1      -8.908   5.726  71.698  1.00  0.00    -0.136 C  
HETATM   19  C   UNL     1      -9.622   3.836  73.054  1.00  0.00    -0.120 C  
HETATM   20  F   UNL     1     -13.962   9.465  71.162  1.00  0.00    -0.407 F  
HETATM   21  N   UNL     1      -9.011   6.890  70.947  1.00  0.00    -0.149 NA 
HETATM   22  O   UNL     1      -8.550   3.255  72.990  1.00  0.00    -0.080 OA 
HETATM   23  O   UNL     1     -10.676   3.330  73.729  1.00  0.00    -0.176 OA 
HETATM   24  N   UNL     1      -8.315  10.299  69.654  1.00  0.00    -0.156 NA 
HETATM   25  C   UNL     1     -10.227   7.658  70.979  1.00  0.00    -0.194 A  
HETATM   26  C   UNL     1     -10.410   8.963  70.415  1.00  0.00    -0.240 A  
HETATM   27  C   UNL     1      -9.253   9.696  69.983  1.00  0.00    -0.241 C  
BRANCH  21  28
HETATM   28  C   UNL     1      -7.944   7.077  69.932  1.00  0.00    -0.123 C  
HETATM   29  C   UNL     1      -6.800   6.084  69.816  1.00  0.00    -0.064 C  
HETATM   30  C   UNL     1      -7.805   6.191  68.717  1.00  0.00    -0.101 C  
ENDBRANCH  21  28
ENDBRANCH   3  11
TORSDOF 2
ENDMDL
MODEL       53
REMARK 921   NORMALIZED FREE ENERGY PREDICTED BY IDOCK:   -5.52 KCAL/MOL
REMARK 922        TOTAL FREE ENERGY PREDICTED BY IDOCK:   -6.94 KCAL/MOL
REMARK 923 INTER-LIGAND FREE ENERGY PREDICTED BY IDOCK:   -6.26 KCAL/MOL
REMARK 924 INTRA-LIGAND FREE ENERGY PREDICTED BY IDOCK:   -0.69 KCAL/MOL
REMARK 927      BINDING AFFINITY PREDICTED BY RF-SCORE:    0.00 PKD
ROOT
HETATM    1  C   UNL     1     -10.240  13.207  66.003  1.00  0.00    -0.286 C  
HETATM    2  C   UNL     1      -9.828  11.720  66.063  1.00  0.00    -0.232 C  
HETATM    3  N   UNL     1      -9.135  11.589  67.367  1.00  0.00    -0.164 NA 
HETATM    4  H   UNL     1     -11.153  13.399  64.124  1.00  0.00     0.000 HD 
HETATM    5  C   UNL     1      -8.932  12.938  67.950  1.00  0.00    -0.193 C  
HETATM    6  C   UNL     1      -9.089  13.881  66.758  1.00  0.00    -0.223 C  
HETATM    7  N   UNL     1     -10.429  13.845  64.685  1.00  0.00    -0.433 NA 
HETATM    8  O   UNL     1      -9.447  15.222  67.092  1.00  0.00    -0.207 OA 
HETATM    9  C   UNL     1     -10.689  15.286  64.932  1.00  0.00    -0.400 C  
HETATM   10  C   UNL     1      -9.671  15.968  65.880  1.00  0.00    -0.343 C  
ENDROOT
BRANCH   3  11
HETATM   11  C   UNL     1      -9.046  10.419  68.122  1.00  0.00    -0.142 A  
HETATM   12  C   UNL     1      -8.781   7.955  69.526  1.00  0.00    -0.134 A  
HETATM   13  C   UNL     1      -8.603   6.633  70.174  1.00  0.00    -0.140 C  
HETATM   14  C   UNL     1      -7.748   8.414  68.722  1.00  0.00    -0.102 A  
HETATM   15  C   UNL     1      -9.694   6.101  71.000  1.00  0.00    -0.202 C  
HETATM   16  C   UNL     1      -7.883   9.620  68.054  1.00  0.00    -0.086 A  
HETATM   17  O   UNL     1      -7.581   5.970  70.013  1.00  0.00    -0.083 OA 
HETATM   18  C   UNL     1     -10.770   6.883  71.138  1.00  0.00    -0.225 C  
HETATM   19  C   UNL     1      -9.636   4.809  71.716  1.00  0.00    -0.155 C  
HETATM   20  F   UNL     1      -6.824   9.993  67.321  1.00  0.00    -0.077 F  
HETATM   21  N   UNL     1     -10.946   8.157  70.611  1.00  0.00    -0.241 NA 
HETATM   22  O   UNL     1     -10.523   4.413  72.457  1.00  0.00    -0.188 OA 
HETATM   23  O   UNL     1      -8.508   4.100  71.500  1.00  0.00    -0.090 OA 
HETATM   24  N   UNL     1     -12.451  11.016  68.785  1.00  0.00    -0.328 NA 
HETATM   25  C   UNL     1      -9.967   8.699  69.706  1.00  0.00    -0.190 A  
HETATM   26  C   UNL     1     -10.107   9.905  68.944  1.00  0.00    -0.194 A  
HETATM   27  C   UNL     1     -11.400  10.525  68.867  1.00  0.00    -0.251 C  
BRANCH  21  28
HETATM   28  C   UNL     1     -11.996   8.969  71.275  1.00  0.00    -0.312 C  
HETATM   29  C   UNL     1     -13.355   8.370  71.595  1.00  0.00    -0.361 C  
HETATM   30  C   UNL     1     -12.426   8.741  72.704  1.00  0.00    -0.270 C  
ENDBRANCH  21  28
ENDBRANCH   3  11
TORSDOF 2
ENDMDL
MODEL       54
REMARK 921   NORMALIZED FREE ENERGY PREDICTED BY IDOCK:   -5.43 KCAL/MOL
REMARK 922        TOTAL FREE ENERGY PREDICTED BY IDOCK:   -6.84 KCAL/MOL
REMARK 923 INTER-LIGAND FREE ENERGY PREDICTED BY IDOCK:   -6.04 KCAL/MOL
REMARK 924 INTRA-LIGAND FREE ENERGY PREDICTED BY IDOCK:   -0.80 KCAL/MOL
REMARK 927      BINDING AFFINITY PREDICTED BY RF-SCORE:    0.00 PKD
ROOT
HETATM    1  C   UNL     1     -11.112  11.723  66.199  1.00  0.00    -0.307 C  
HETATM    2  C   UNL     1     -11.236  10.939  67.524  1.00  0.00    -0.293 C  
HETATM    3  N   UNL     1     -10.021  10.091  67.558  1.00  0.00    -0.181 NA 
HETATM    4  H   UNL     1     -12.871  12.864  66.126  1.00  0.00     0.000 HD 
HETATM    5  C   UNL     1      -9.329  10.176  66.248  1.00  0.00    -0.172 C  
HETATM    6  C   UNL     1     -10.404  10.705  65.298  1.00  0.00    -0.251 C  
HETATM    7  N   UNL     1     -12.338  12.219  65.543  1.00  0.00    -0.566 NA 
HETATM    8  O   UNL     1      -9.908  11.355  64.128  1.00  0.00    -0.241 OA 
HETATM    9  C   UNL     1     -11.928  12.810  64.245  1.00  0.00    -0.405 C  
HETATM   10  C   UNL     1     -11.015  11.901  63.385  1.00  0.00    -0.395 C  
ENDROOT
BRANCH   3  11
HETATM   11  C   UNL     1      -9.395   9.618  68.712  1.00  0.00    -0.148 A  
HETATM   12  C   UNL     1      -7.967   8.718  71.006  1.00  0.00    -0.170 A  
HETATM   13  C   UNL     1      -7.140   8.283  72.157  1.00  0.00    -0.090 C  
HETATM   14  C   UNL     1      -7.668   9.947  70.436  1.00  0.00    -0.094 A  
HETATM   15  C   UNL     1      -7.405   6.970  72.759  1.00  0.00    -0.077 C  
HETATM   16  C   UNL     1      -8.378  10.380  69.328  1.00  0.00    -0.155 A  
HETATM   17  O   UNL     1      -6.228   8.981  72.594  1.00  0.00    -0.240 OA 
HETATM   18  C   UNL     1      -8.419   6.271  72.235  1.00  0.00    -0.115 C  
HETATM   19  C   UNL     1      -6.669   6.427  73.919  1.00  0.00    -0.074 C  
HETATM   20  F   UNL     1      -8.034  11.589  68.862  1.00  0.00    -0.138 F  
HETATM   21  N   UNL     1      -9.265   6.674  71.210  1.00  0.00    -0.155 NA 
HETATM   22  O   UNL     1      -6.948   5.365  74.454  1.00  0.00    -0.076 OA 
HETATM   23  O   UNL     1      -5.662   7.212  74.360  1.00  0.00    -0.062 OA 
HETATM   24  N   UNL     1     -11.159   6.652  68.019  1.00  0.00    -0.244 NA 
HETATM   25  C   UNL     1      -9.000   7.899  70.503  1.00  0.00    -0.145 A  
HETATM   26  C   UNL     1      -9.666   8.340  69.312  1.00  0.00    -0.177 A  
HETATM   27  C   UNL     1     -10.501   7.410  68.605  1.00  0.00    -0.189 C  
BRANCH  21  28
HETATM   28  C   UNL     1     -10.553   5.940  71.137  1.00  0.00    -0.246 C  
HETATM   29  C   UNL     1     -11.134   5.267  72.368  1.00  0.00    -0.260 C  
HETATM   30  C   UNL     1     -11.823   6.450  71.772  1.00  0.00    -0.374 C  
ENDBRANCH  21  28
ENDBRANCH   3  11
TORSDOF 2
ENDMDL
MODEL       55
REMARK 921   NORMALIZED FREE ENERGY PREDICTED BY IDOCK:   -5.42 KCAL/MOL
REMARK 922        TOTAL FREE ENERGY PREDICTED BY IDOCK:   -6.83 KCAL/MOL
REMARK 923 INTER-LIGAND FREE ENERGY PREDICTED BY IDOCK:   -6.03 KCAL/MOL
REMARK 924 INTRA-LIGAND FREE ENERGY PREDICTED BY IDOCK:   -0.80 KCAL/MOL
REMARK 927      BINDING AFFINITY PREDICTED BY RF-SCORE:    0.00 PKD
ROOT
HETATM    1  C   UNL     1      -9.865  13.881  68.033  1.00  0.00    -0.234 C  
HETATM    2  C   UNL     1      -9.227  12.553  68.495  1.00  0.00    -0.070 C  
HETATM    3  N   UNL     1     -10.284  11.541  68.256  1.00  0.00    -0.190 NA 
HETATM    4  H   UNL     1      -8.390  15.315  68.445  1.00  0.00     0.000 HD 
HETATM    5  C   UNL     1     -11.547  12.230  67.898  1.00  0.00    -0.354 C  
HETATM    6  C   UNL     1     -11.339  13.661  68.393  1.00  0.00    -0.295 C  
HETATM    7  N   UNL     1      -9.381  15.148  68.615  1.00  0.00    -0.192 NA 
HETATM    8  O   UNL     1     -12.147  14.647  67.749  1.00  0.00    -0.314 OA 
HETATM    9  C   UNL     1     -10.253  16.229  68.090  1.00  0.00    -0.258 C  
HETATM   10  C   UNL     1     -11.771  15.953  68.226  1.00  0.00    -0.186 C  
ENDROOT
BRANCH   3  11
HETATM   11  C   UNL     1     -10.065  10.186  68.003  1.00  0.00    -0.157 A  
HETATM   12  C   UNL     1      -9.697   7.443  67.330  1.00  0.00    -0.205 A  
HETATM   13  C   UNL     1      -9.557   6.033  66.896  1.00  0.00    -0.140 C  
HETATM   14  C   UNL     1      -9.543   8.425  66.363  1.00  0.00    -0.307 A  
HETATM   15  C   UNL     1      -9.753   4.967  67.887  1.00  0.00    -0.196 C  
HETATM   16  C   UNL     1      -9.711   9.757  66.704  1.00  0.00    -0.201 A  
HETATM   17  O   UNL     1      -9.309   5.740  65.728  1.00  0.00    -0.129 OA 
HETATM   18  C   UNL     1     -10.010   5.362  69.139  1.00  0.00    -0.197 C  
HETATM   19  C   UNL     1      -9.622   3.525  67.590  1.00  0.00    -0.127 C  
HETATM   20  F   UNL     1      -9.519  10.635  65.709  1.00  0.00    -0.193 F  
HETATM   21  N   UNL     1     -10.074   6.670  69.602  1.00  0.00    -0.178 NA 
HETATM   22  O   UNL     1      -9.717   2.654  68.441  1.00  0.00    -0.118 OA 
HETATM   23  O   UNL     1      -9.369   3.242  66.294  1.00  0.00    -0.164 OA 
HETATM   24  N   UNL     1     -11.339   9.743  71.254  1.00  0.00    -0.380 NA 
HETATM   25  C   UNL     1      -9.998   7.764  68.671  1.00  0.00    -0.182 A  
HETATM   26  C   UNL     1     -10.239   9.144  68.977  1.00  0.00    -0.219 A  
HETATM   27  C   UNL     1     -10.836   9.475  70.241  1.00  0.00    -0.269 C  
BRANCH  21  28
HETATM   28  C   UNL     1      -9.914   6.822  71.070  1.00  0.00    -0.182 C  
HETATM   29  C   UNL     1     -10.193   5.659  72.007  1.00  0.00    -0.252 C  
HETATM   30  C   UNL     1      -8.797   6.164  71.845  1.00  0.00    -0.137 C  
ENDBRANCH  21  28
ENDBRANCH   3  11
TORSDOF 2
ENDMDL
MODEL       56
REMARK 921   NORMALIZED FREE ENERGY PREDICTED BY IDOCK:   -5.40 KCAL/MOL
REMARK 922        TOTAL FREE ENERGY PREDICTED BY IDOCK:   -6.80 KCAL/MOL
REMARK 923 INTER-LIGAND FREE ENERGY PREDICTED BY IDOCK:   -7.92 KCAL/MOL
REMARK 924 INTRA-LIGAND FREE ENERGY PREDICTED BY IDOCK:    1.12 KCAL/MOL
REMARK 927      BINDING AFFINITY PREDICTED BY RF-SCORE:    0.00 PKD
ROOT
HETATM    1  C   UNL     1     -11.344  10.073  70.658  1.00  0.00    -0.348 C  
HETATM    2  C   UNL     1     -10.970  10.932  69.431  1.00  0.00    -0.252 C  
HETATM    3  N   UNL     1     -11.618  12.239  69.693  1.00  0.00    -0.295 NA 
HETATM    4  H   UNL     1     -10.485   8.204  70.242  1.00  0.00     0.000 HD 
HETATM    5  C   UNL     1     -12.511  12.114  70.871  1.00  0.00    -0.279 C  
HETATM    6  C   UNL     1     -12.739  10.608  71.001  1.00  0.00    -0.415 C  
HETATM    7  N   UNL     1     -11.382   8.603  70.519  1.00  0.00    -0.248 NA 
HETATM    8  O   UNL     1     -13.121  10.165  72.304  1.00  0.00    -0.405 OA 
HETATM    9  C   UNL     1     -11.891   8.057  71.802  1.00  0.00    -0.296 C  
HETATM   10  C   UNL     1     -13.191   8.726  72.313  1.00  0.00    -0.412 C  
ENDROOT
BRANCH   3  11
HETATM   11  C   UNL     1     -11.182  13.471  69.204  1.00  0.00    -0.260 A  
HETATM   12  C   UNL     1     -10.457  16.017  68.153  1.00  0.00    -0.269 A  
HETATM   13  C   UNL     1     -10.174  17.352  67.573  1.00  0.00    -0.332 C  
HETATM   14  C   UNL     1     -11.668  15.852  68.809  1.00  0.00    -0.355 A  
HETATM   15  C   UNL     1      -8.918  17.549  66.838  1.00  0.00    -0.264 C  
HETATM   16  C   UNL     1     -12.004  14.613  69.328  1.00  0.00    -0.302 A  
HETATM   17  O   UNL     1     -10.974  18.279  67.671  1.00  0.00    -0.333 OA 
HETATM   18  C   UNL     1      -8.093  16.497  66.782  1.00  0.00    -0.251 C  
HETATM   19  C   UNL     1      -8.507  18.831  66.230  1.00  0.00    -0.241 C  
HETATM   20  F   UNL     1     -13.183  14.556  69.965  1.00  0.00    -0.231 F  
HETATM   21  N   UNL     1      -8.285  15.256  67.375  1.00  0.00    -0.169 NA 
HETATM   22  O   UNL     1      -7.427  18.999  65.684  1.00  0.00    -0.466 OA 
HETATM   23  O   UNL     1      -9.419  19.821  66.340  1.00  0.00    -0.360 OA 
HETATM   24  N   UNL     1      -8.571  11.580  67.792  1.00  0.00    -0.133 NA 
HETATM   25  C   UNL     1      -9.536  14.956  68.019  1.00  0.00    -0.207 A  
HETATM   26  C   UNL     1      -9.945  13.669  68.500  1.00  0.00    -0.208 A  
HETATM   27  C   UNL     1      -9.177  12.516  68.118  1.00  0.00    -0.209 C  
BRANCH  21  28
HETATM   28  C   UNL     1      -7.052  14.449  67.549  1.00  0.00    -0.175 C  
HETATM   29  C   UNL     1      -5.700  15.121  67.711  1.00  0.00    -0.119 C  
HETATM   30  C   UNL     1      -6.301  14.373  68.856  1.00  0.00    -0.091 C  
ENDBRANCH  21  28
ENDBRANCH   3  11
TORSDOF 2
ENDMDL
MODEL       57
REMARK 921   NORMALIZED FREE ENERGY PREDICTED BY IDOCK:   -5.39 KCAL/MOL
REMARK 922        TOTAL FREE ENERGY PREDICTED BY IDOCK:   -6.80 KCAL/MOL
REMARK 923 INTER-LIGAND FREE ENERGY PREDICTED BY IDOCK:   -6.14 KCAL/MOL
REMARK 924 INTRA-LIGAND FREE ENERGY PREDICTED BY IDOCK:   -0.66 KCAL/MOL
REMARK 927      BINDING AFFINITY PREDICTED BY RF-SCORE:    0.00 PKD
ROOT
HETATM    1  C   UNL     1     -10.167   9.534  67.964  1.00  0.00    -0.201 C  
HETATM    2  C   UNL     1     -10.385  10.740  67.024  1.00  0.00    -0.228 C  
HETATM    3  N   UNL     1     -10.673  11.867  67.944  1.00  0.00    -0.197 NA 
HETATM    4  H   UNL     1      -9.835   7.931  66.652  1.00  0.00     0.000 HD 
HETATM    5  C   UNL     1     -10.850  11.342  69.320  1.00  0.00    -0.212 C  
HETATM    6  C   UNL     1     -11.130   9.854  69.113  1.00  0.00    -0.159 C  
HETATM    7  N   UNL     1     -10.419   8.173  67.451  1.00  0.00    -0.280 NA 
HETATM    8  O   UNL     1     -10.839   9.022  70.235  1.00  0.00    -0.226 OA 
HETATM    9  C   UNL     1     -10.257   7.240  68.594  1.00  0.00    -0.182 C  
HETATM   10  C   UNL     1     -11.039   7.644  69.869  1.00  0.00    -0.150 C  
ENDROOT
BRANCH   3  11
HETATM   11  C   UNL     1     -10.425  13.214  67.676  1.00  0.00    -0.221 A  
HETATM   12  C   UNL     1     -10.046  15.957  67.007  1.00  0.00    -0.268 A  
HETATM   13  C   UNL     1      -9.919  17.373  66.589  1.00  0.00    -0.308 C  
HETATM   14  C   UNL     1     -11.326  15.423  67.069  1.00  0.00    -0.175 A  
HETATM   15  C   UNL     1      -8.576  17.957  66.476  1.00  0.00    -0.279 C  
HETATM   16  C   UNL     1     -11.498  14.092  67.408  1.00  0.00    -0.348 A  
HETATM   17  O   UNL     1     -10.904  18.053  66.311  1.00  0.00    -0.189 OA 
HETATM   18  C   UNL     1      -7.554  17.159  66.804  1.00  0.00    -0.239 C  
HETATM   19  C   UNL     1      -8.312  19.358  66.090  1.00  0.00    -0.300 C  
HETATM   20  F   UNL     1     -12.771  13.673  67.464  1.00  0.00    -0.162 F  
HETATM   21  N   UNL     1      -7.634  15.854  67.273  1.00  0.00    -0.182 NA 
HETATM   22  O   UNL     1      -7.194  19.850  66.070  1.00  0.00    -0.267 OA 
HETATM   23  O   UNL     1      -9.416  20.069  65.773  1.00  0.00    -0.306 OA 
HETATM   24  N   UNL     1      -7.055  12.201  67.582  1.00  0.00    -0.111 NA 
HETATM   25  C   UNL     1      -8.905  15.182  67.308  1.00  0.00    -0.200 A  
HETATM   26  C   UNL     1      -9.111  13.790  67.582  1.00  0.00    -0.196 A  
HETATM   27  C   UNL     1      -7.972  12.915  67.594  1.00  0.00    -0.167 C  
BRANCH  21  28
HETATM   28  C   UNL     1      -6.424  15.370  67.983  1.00  0.00    -0.136 C  
HETATM   29  C   UNL     1      -5.392  16.348  68.517  1.00  0.00    -0.105 C  
HETATM   30  C   UNL     1      -6.220  15.549  69.469  1.00  0.00    -0.145 C  
ENDBRANCH  21  28
ENDBRANCH   3  11
TORSDOF 2
ENDMDL
MODEL       58
REMARK 921   NORMALIZED FREE ENERGY PREDICTED BY IDOCK:   -5.36 KCAL/MOL
REMARK 922        TOTAL FREE ENERGY PREDICTED BY IDOCK:   -6.77 KCAL/MOL
REMARK 923 INTER-LIGAND FREE ENERGY PREDICTED BY IDOCK:   -5.97 KCAL/MOL
REMARK 924 INTRA-LIGAND FREE ENERGY PREDICTED BY IDOCK:   -0.79 KCAL/MOL
REMARK 927      BINDING AFFINITY PREDICTED BY RF-SCORE:    0.00 PKD
ROOT
HETATM    1  C   UNL     1      -9.616   8.648  67.647  1.00  0.00    -0.155 C  
HETATM    2  C   UNL     1      -9.411  10.066  67.070  1.00  0.00    -0.154 C  
HETATM    3  N   UNL     1      -9.528  10.957  68.250  1.00  0.00    -0.161 NA 
HETATM    4  H   UNL     1      -9.521   7.404  65.960  1.00  0.00     0.000 HD 
HETATM    5  C   UNL     1     -10.001  10.166  69.413  1.00  0.00    -0.228 C  
HETATM    6  C   UNL     1     -10.609   8.913  68.784  1.00  0.00    -0.157 C  
HETATM    7  N   UNL     1     -10.126   7.583  66.762  1.00  0.00    -0.249 NA 
HETATM    8  O   UNL     1     -10.674   7.776  69.644  1.00  0.00    -0.243 OA 
HETATM    9  C   UNL     1     -10.342   6.382  67.606  1.00  0.00    -0.197 C  
HETATM   10  C   UNL     1     -11.158   6.643  68.897  1.00  0.00    -0.246 C  
ENDROOT
BRANCH   3  11
HETATM   11  C   UNL     1      -8.926  12.208  68.383  1.00  0.00    -0.146 A  
HETATM   12  C   UNL     1      -7.627  14.708  68.805  1.00  0.00    -0.138 A  
HETATM   13  C   UNL     1      -6.919  15.973  69.113  1.00  0.00    -0.189 C  
HETATM   14  C   UNL     1      -6.982  13.522  69.127  1.00  0.00    -0.055 A  
HETATM   15  C   UNL     1      -7.591  17.246  68.821  1.00  0.00    -0.256 C  
HETATM   16  C   UNL     1      -7.618  12.312  68.905  1.00  0.00     0.021 A  
HETATM   17  O   UNL     1      -5.804  15.977  69.628  1.00  0.00    -0.136 OA 
HETATM   18  C   UNL     1      -8.798  17.162  68.252  1.00  0.00    -0.245 C  
HETATM   19  C   UNL     1      -6.989  18.574  69.060  1.00  0.00    -0.267 C  
HETATM   20  F   UNL     1      -6.907  11.221  69.225  1.00  0.00    -0.076 F  
HETATM   21  N   UNL     1      -9.463  16.001  67.878  1.00  0.00    -0.209 NA 
HETATM   22  O   UNL     1      -7.531  19.623  68.745  1.00  0.00    -0.339 OA 
HETATM   23  O   UNL     1      -5.772  18.540  69.645  1.00  0.00    -0.221 OA 
HETATM   24  N   UNL     1     -12.124  13.433  67.569  1.00  0.00    -0.323 NA 
HETATM   25  C   UNL     1      -8.915  14.717  68.229  1.00  0.00    -0.181 A  
HETATM   26  C   UNL     1      -9.577  13.454  68.080  1.00  0.00    -0.222 A  
HETATM   27  C   UNL     1     -10.983  13.443  67.785  1.00  0.00    -0.262 C  
BRANCH  21  28
HETATM   28  C   UNL     1     -10.542  16.192  66.877  1.00  0.00    -0.283 C  
HETATM   29  C   UNL     1     -10.498  17.355  65.900  1.00  0.00    -0.256 C  
HETATM   30  C   UNL     1     -10.340  15.957  65.400  1.00  0.00    -0.399 C  
ENDBRANCH  21  28
ENDBRANCH   3  11
TORSDOF 2
ENDMDL
MODEL       59
REMARK 921   NORMALIZED FREE ENERGY PREDICTED BY IDOCK:   -5.36 KCAL/MOL
REMARK 922        TOTAL FREE ENERGY PREDICTED BY IDOCK:   -6.76 KCAL/MOL
REMARK 923 INTER-LIGAND FREE ENERGY PREDICTED BY IDOCK:   -6.01 KCAL/MOL
REMARK 924 INTRA-LIGAND FREE ENERGY PREDICTED BY IDOCK:   -0.76 KCAL/MOL
REMARK 927      BINDING AFFINITY PREDICTED BY RF-SCORE:    0.00 PKD
ROOT
HETATM    1  C   UNL     1     -11.792  13.820  65.790  1.00  0.00    -0.372 C  
HETATM    2  C   UNL     1     -11.676  12.281  65.851  1.00  0.00    -0.389 C  
HETATM    3  N   UNL     1     -10.710  12.034  66.949  1.00  0.00    -0.235 NA 
HETATM    4  H   UNL     1     -13.102  14.160  64.188  1.00  0.00     0.000 HD 
HETATM    5  C   UNL     1     -10.106  13.323  67.366  1.00  0.00    -0.233 C  
HETATM    6  C   UNL     1     -10.377  14.256  66.186  1.00  0.00    -0.299 C  
HETATM    7  N   UNL     1     -12.185  14.459  64.519  1.00  0.00    -0.533 NA 
HETATM    8  O   UNL     1     -10.369  15.648  66.503  1.00  0.00    -0.275 OA 
HETATM    9  C   UNL     1     -12.087  15.926  64.720  1.00  0.00     0.324 C  
HETATM   10  C   UNL     1     -10.747  16.402  65.335  1.00  0.00    -0.296 C  
ENDROOT
BRANCH   3  11
HETATM   11  C   UNL     1     -10.660  10.886  67.739  1.00  0.00    -0.217 A  
HETATM   12  C   UNL     1     -10.549   8.645  69.494  1.00  0.00    -0.218 A  
HETATM   13  C   UNL     1     -10.481   7.543  70.484  1.00  0.00    -0.219 C  
HETATM   14  C   UNL     1     -11.291   9.765  69.839  1.00  0.00    -0.238 A  
HETATM   15  C   UNL     1      -9.671   6.360  70.166  1.00  0.00    -0.185 C  
HETATM   16  C   UNL     1     -11.348  10.844  68.972  1.00  0.00    -0.281 A  
HETATM   17  O   UNL     1     -11.060   7.613  71.565  1.00  0.00    -0.233 OA 
HETATM   18  C   UNL     1      -9.078   6.351  68.967  1.00  0.00    -0.130 C  
HETATM   19  C   UNL     1      -9.536   5.186  71.054  1.00  0.00    -0.171 C  
HETATM   20  F   UNL     1     -12.108  11.870  69.380  1.00  0.00    -0.324 F  
HETATM   21  N   UNL     1      -9.177   7.326  67.983  1.00  0.00    -0.132 NA 
HETATM   22  O   UNL     1      -8.918   4.179  70.745  1.00  0.00    -0.086 OA 
HETATM   23  O   UNL     1     -10.170   5.306  72.240  1.00  0.00    -0.186 OA 
HETATM   24  N   UNL     1      -8.206   9.847  65.438  1.00  0.00    -0.133 NA 
HETATM   25  C   UNL     1      -9.864   8.559  68.263  1.00  0.00    -0.169 A  
HETATM   26  C   UNL     1      -9.882   9.720  67.421  1.00  0.00    -0.219 A  
HETATM   27  C   UNL     1      -8.964   9.784  66.317  1.00  0.00    -0.153 C  
BRANCH  21  28
HETATM   28  C   UNL     1      -8.816   6.874  66.616  1.00  0.00    -0.135 C  
HETATM   29  C   UNL     1      -7.813   5.753  66.409  1.00  0.00    -0.101 C  
HETATM   30  C   UNL     1      -9.248   5.542  66.053  1.00  0.00    -0.168 C  
ENDBRANCH  21  28
ENDBRANCH   3  11
TORSDOF 2
ENDMDL
MODEL       60
REMARK 921   NORMALIZED FREE ENERGY PREDICTED BY IDOCK:   -5.32 KCAL/MOL
REMARK 922        TOTAL FREE ENERGY PREDICTED BY IDOCK:   -6.72 KCAL/MOL
REMARK 923 INTER-LIGAND FREE ENERGY PREDICTED BY IDOCK:   -6.16 KCAL/MOL
REMARK 924 INTRA-LIGAND FREE ENERGY PREDICTED BY IDOCK:   -0.56 KCAL/MOL
REMARK 927      BINDING AFFINITY PREDICTED BY RF-SCORE:    0.00 PKD
ROOT
HETATM    1  C   UNL     1      -8.251   8.859  68.531  1.00  0.00    -0.116 C  
HETATM    2  C   UNL     1      -8.281  10.327  69.010  1.00  0.00    -0.139 C  
HETATM    3  N   UNL     1      -7.625  11.079  67.913  1.00  0.00    -0.093 NA 
HETATM    4  H   UNL     1      -9.112   7.796  70.121  1.00  0.00     0.000 HD 
HETATM    5  C   UNL     1      -7.032  10.119  66.949  1.00  0.00    -0.089 C  
HETATM    6  C   UNL     1      -6.939   8.815  67.740  1.00  0.00    -0.075 C  
HETATM    7  N   UNL     1      -8.278   7.778  69.535  1.00  0.00    -0.126 NA 
HETATM    8  O   UNL     1      -6.891   7.629  66.946  1.00  0.00    -0.064 OA 
HETATM    9  C   UNL     1      -8.109   6.498  68.802  1.00  0.00    -0.118 C  
HETATM   10  C   UNL     1      -6.919   6.478  67.812  1.00  0.00    -0.082 C  
ENDROOT
BRANCH   3  11
HETATM   11  C   UNL     1      -7.858  12.418  67.598  1.00  0.00    -0.163 A  
HETATM   12  C   UNL     1      -8.261  15.196  67.111  1.00  0.00    -0.251 A  
HETATM   13  C   UNL     1      -8.434  16.659  66.949  1.00  0.00    -0.215 C  
HETATM   14  C   UNL     1      -7.098  14.756  67.726  1.00  0.00    -0.191 A  
HETATM   15  C   UNL     1      -9.673  17.158  66.337  1.00  0.00    -0.307 C  
HETATM   16  C   UNL     1      -6.906  13.402  67.945  1.00  0.00    -0.144 A  
HETATM   17  O   UNL     1      -7.583  17.455  67.337  1.00  0.00    -0.184 OA 
HETATM   18  C   UNL     1     -10.548  16.233  65.930  1.00  0.00    -0.297 C  
HETATM   19  C   UNL     1      -9.961  18.588  66.100  1.00  0.00    -0.322 C  
HETATM   20  F   UNL     1      -5.743  13.072  68.524  1.00  0.00    -0.060 F  
HETATM   21  N   UNL     1     -10.392  14.854  65.994  1.00  0.00    -0.283 NA 
HETATM   22  O   UNL     1     -10.964  18.984  65.525  1.00  0.00    -0.396 OA 
HETATM   23  O   UNL     1      -9.013  19.433  66.557  1.00  0.00    -0.324 OA 
HETATM   24  N   UNL     1     -11.074  11.281  66.729  1.00  0.00    -0.278 NA 
HETATM   25  C   UNL     1      -9.255  14.293  66.675  1.00  0.00    -0.255 A  
HETATM   26  C   UNL     1      -9.062  12.906  66.984  1.00  0.00    -0.228 A  
HETATM   27  C   UNL     1     -10.171  12.006  66.831  1.00  0.00    -0.208 C  
BRANCH  21  28
HETATM   28  C   UNL     1     -11.271  14.082  65.082  1.00  0.00    -0.329 C  
HETATM   29  C   UNL     1     -12.762  13.970  65.350  1.00  0.00    -0.499 C  
HETATM   30  C   UNL     1     -12.275  14.736  64.164  1.00  0.00    -0.321 C  
ENDBRANCH  21  28
ENDBRANCH   3  11
TORSDOF 2
ENDMDL
MODEL       61
REMARK 921   NORMALIZED FREE ENERGY PREDICTED BY IDOCK:   -5.26 KCAL/MOL
REMARK 922        TOTAL FREE ENERGY PREDICTED BY IDOCK:   -6.65 KCAL/MOL
REMARK 923 INTER-LIGAND FREE ENERGY PREDICTED BY IDOCK:   -6.02 KCAL/MOL
REMARK 924 INTRA-LIGAND FREE ENERGY PREDICTED BY IDOCK:   -0.63 KCAL/MOL
REMARK 927      BINDING AFFINITY PREDICTED BY RF-SCORE:    0.00 PKD
ROOT
HETATM    1  C   UNL     1     -11.380  12.713  68.063  1.00  0.00    -0.290 C  
HETATM    2  C   UNL     1     -11.564  11.293  67.483  1.00  0.00    -0.175 C  
HETATM    3  N   UNL     1     -10.250  10.641  67.699  1.00  0.00    -0.186 NA 
HETATM    4  H   UNL     1     -13.219  13.650  67.685  1.00  0.00     0.000 HD 
HETATM    5  C   UNL     1      -9.271  11.656  68.159  1.00  0.00    -0.184 C  
HETATM    6  C   UNL     1      -9.904  12.987  67.755  1.00  0.00    -0.224 C  
HETATM    7  N   UNL     1     -12.221  13.811  67.548  1.00  0.00    -0.308 NA 
HETATM    8  O   UNL     1      -9.456  14.120  68.500  1.00  0.00    -0.210 OA 
HETATM    9  C   UNL     1     -11.740  15.063  68.184  1.00  0.00    -0.312 C  
HETATM   10  C   UNL     1     -10.209  15.280  68.098  1.00  0.00    -0.230 C  
ENDROOT
BRANCH   3  11
HETATM   11  C   UNL     1     -10.043   9.269  67.849  1.00  0.00    -0.200 A  
HETATM   12  C   UNL     1      -9.706   6.445  68.002  1.00  0.00    -0.122 A  
HETATM   13  C   UNL     1      -9.586   4.968  67.999  1.00  0.00    -0.141 C  
HETATM   14  C   UNL     1      -9.600   7.095  66.781  1.00  0.00    -0.230 A  
HETATM   15  C   UNL     1      -9.732   4.246  69.270  1.00  0.00    -0.240 C  
HETATM   16  C   UNL     1      -9.752   8.470  66.721  1.00  0.00    -0.236 A  
HETATM   17  O   UNL     1      -9.395   4.340  66.960  1.00  0.00    -0.141 OA 
HETATM   18  C   UNL     1      -9.928   4.997  70.359  1.00  0.00    -0.247 C  
HETATM   19  C   UNL     1      -9.615   2.779  69.407  1.00  0.00     0.019 C  
HETATM   20  F   UNL     1      -9.610   9.012  65.502  1.00  0.00    -0.303 F  
HETATM   21  N   UNL     1      -9.971   6.384  70.417  1.00  0.00    -0.182 NA 
HETATM   22  O   UNL     1      -9.667   2.200  70.482  1.00  0.00    -0.092 OA 
HETATM   23  O   UNL     1      -9.425   2.121  68.244  1.00  0.00    -0.204 OA 
HETATM   24  N   UNL     1     -11.157   9.825  71.141  1.00  0.00    -0.360 NA 
HETATM   25  C   UNL     1      -9.942   7.153  69.201  1.00  0.00    -0.168 A  
HETATM   26  C   UNL     1     -10.169   8.564  69.095  1.00  0.00    -0.218 A  
HETATM   27  C   UNL     1     -10.703   9.263  70.231  1.00  0.00    -0.243 C  
BRANCH  21  28
HETATM   28  C   UNL     1      -9.739   6.962  71.764  1.00  0.00    -0.159 C  
HETATM   29  C   UNL     1     -10.772   6.800  72.866  1.00  0.00    -0.291 C  
HETATM   30  C   UNL     1      -9.450   6.114  72.980  1.00  0.00    -0.142 C  
ENDBRANCH  21  28
ENDBRANCH   3  11
TORSDOF 2
ENDMDL
MODEL       62
REMARK 921   NORMALIZED FREE ENERGY PREDICTED BY IDOCK:   -5.26 KCAL/MOL
REMARK 922        TOTAL FREE ENERGY PREDICTED BY IDOCK:   -6.65 KCAL/MOL
REMARK 923 INTER-LIGAND FREE ENERGY PREDICTED BY IDOCK:   -5.98 KCAL/MOL
REMARK 924 INTRA-LIGAND FREE ENERGY PREDICTED BY IDOCK:   -0.67 KCAL/MOL
REMARK 927      BINDING AFFINITY PREDICTED BY RF-SCORE:    0.00 PKD
ROOT
HETATM    1  C   UNL     1      -8.515   6.489  72.846  1.00  0.00    -0.119 C  
HETATM    2  C   UNL     1      -8.183   7.681  71.921  1.00  0.00    -0.108 C  
HETATM    3  N   UNL     1      -8.981   7.423  70.698  1.00  0.00    -0.154 NA 
HETATM    4  H   UNL     1      -7.326   6.824  74.541  1.00  0.00     0.000 HD 
HETATM    5  C   UNL     1      -9.569   6.063  70.776  1.00  0.00    -0.169 C  
HETATM    6  C   UNL     1      -8.721   5.356  71.834  1.00  0.00    -0.135 C  
HETATM    7  N   UNL     1      -7.534   6.084  73.872  1.00  0.00    -0.092 NA 
HETATM    8  O   UNL     1      -9.354   4.246  72.471  1.00  0.00    -0.116 OA 
HETATM    9  C   UNL     1      -8.057   4.850  74.511  1.00  0.00    -0.098 C  
HETATM   10  C   UNL     1      -8.495   3.748  73.516  1.00  0.00    -0.087 C  
ENDROOT
BRANCH   3  11
HETATM   11  C   UNL     1      -9.448   8.398  69.817  1.00  0.00    -0.162 A  
HETATM   12  C   UNL     1     -10.564  10.368  68.088  1.00  0.00    -0.246 A  
HETATM   13  C   UNL     1     -11.234  11.372  67.228  1.00  0.00    -0.304 C  
HETATM   14  C   UNL     1     -10.972  10.289  69.411  1.00  0.00    -0.289 A  
HETATM   15  C   UNL     1     -10.852  11.454  65.812  1.00  0.00    -0.290 C  
HETATM   16  C   UNL     1     -10.414   9.336  70.246  1.00  0.00    -0.228 A  
HETATM   17  O   UNL     1     -12.113  12.111  67.665  1.00  0.00    -0.522 OA 
HETATM   18  C   UNL     1      -9.881  10.626  65.410  1.00  0.00    -0.267 C  
HETATM   19  C   UNL     1     -11.426  12.422  64.854  1.00  0.00    -0.332 C  
HETATM   20  F   UNL     1     -10.854   9.352  71.513  1.00  0.00    -0.366 F  
HETATM   21  N   UNL     1      -9.177   9.726  66.199  1.00  0.00    -0.166 NA 
HETATM   22  O   UNL     1     -11.047  12.527  63.697  1.00  0.00    -0.418 OA 
HETATM   23  O   UNL     1     -12.402  13.203  65.365  1.00  0.00    -0.433 OA 
HETATM   24  N   UNL     1      -7.670   6.555  67.402  1.00  0.00    -0.100 NA 
HETATM   25  C   UNL     1      -9.567   9.514  67.568  1.00  0.00    -0.144 A  
HETATM   26  C   UNL     1      -9.062   8.491  68.436  1.00  0.00    -0.139 A  
HETATM   27  C   UNL     1      -8.282   7.427  67.866  1.00  0.00    -0.120 C  
BRANCH  21  28
HETATM   28  C   UNL     1      -7.881   9.278  65.632  1.00  0.00    -0.099 C  
HETATM   29  C   UNL     1      -7.833   8.464  64.350  1.00  0.00    -0.141 C  
HETATM   30  C   UNL     1      -7.297   9.858  64.365  1.00  0.00    -0.133 C  
ENDBRANCH  21  28
ENDBRANCH   3  11
TORSDOF 2
ENDMDL
MODEL       63
REMARK 921   NORMALIZED FREE ENERGY PREDICTED BY IDOCK:   -5.26 KCAL/MOL
REMARK 922        TOTAL FREE ENERGY PREDICTED BY IDOCK:   -6.65 KCAL/MOL
REMARK 923 INTER-LIGAND FREE ENERGY PREDICTED BY IDOCK:   -5.92 KCAL/MOL
REMARK 924 INTRA-LIGAND FREE ENERGY PREDICTED BY IDOCK:   -0.73 KCAL/MOL
REMARK 927      BINDING AFFINITY PREDICTED BY RF-SCORE:    0.00 PKD
ROOT
HETATM    1  C   UNL     1      -8.480   5.221  71.773  1.00  0.00    -0.126 C  
HETATM    2  C   UNL     1      -8.043   5.905  70.459  1.00  0.00    -0.111 C  
HETATM    3  N   UNL     1      -9.315   6.161  69.743  1.00  0.00    -0.150 NA 
HETATM    4  H   UNL     1      -6.670   4.796  72.743  1.00  0.00     0.000 HD 
HETATM    5  C   UNL     1     -10.422   5.477  70.455  1.00  0.00    -0.277 C  
HETATM    6  C   UNL     1      -9.715   4.433  71.319  1.00  0.00    -0.182 C  
HETATM    7  N   UNL     1      -7.531   4.327  72.465  1.00  0.00    -0.072 NA 
HETATM    8  O   UNL     1     -10.453   3.992  72.458  1.00  0.00    -0.173 OA 
HETATM    9  C   UNL     1      -8.259   3.720  73.608  1.00  0.00    -0.087 C  
HETATM   10  C   UNL     1      -9.631   3.103  73.240  1.00  0.00    -0.101 C  
ENDROOT
BRANCH   3  11
HETATM   11  C   UNL     1      -9.530   7.180  68.815  1.00  0.00    -0.141 A  
HETATM   12  C   UNL     1      -9.838   9.194  66.824  1.00  0.00    -0.291 A  
HETATM   13  C   UNL     1      -9.920  10.202  65.741  1.00  0.00    -0.271 C  
HETATM   14  C   UNL     1      -9.563   7.885  66.456  1.00  0.00    -0.281 A  
HETATM   15  C   UNL     1     -10.171  11.604  66.100  1.00  0.00    -0.263 C  
HETATM   16  C   UNL     1      -9.429   6.912  67.432  1.00  0.00    -0.132 A  
HETATM   17  O   UNL     1      -9.756   9.896  64.562  1.00  0.00    -0.291 OA 
HETATM   18  C   UNL     1     -10.349  11.860  67.401  1.00  0.00    -0.207 C  
HETATM   19  C   UNL     1     -10.295  12.701  65.118  1.00  0.00    -0.292 C  
HETATM   20  F   UNL     1      -9.186   5.673  66.980  1.00  0.00    -0.117 F  
HETATM   21  N   UNL     1     -10.357  10.935  68.437  1.00  0.00    -0.170 NA 
HETATM   22  O   UNL     1     -10.576  13.850  65.426  1.00  0.00    -0.304 OA 
HETATM   23  O   UNL     1     -10.089  12.331  63.836  1.00  0.00    -0.364 OA 
HETATM   24  N   UNL     1      -9.537   9.268  71.650  1.00  0.00    -0.278 NA 
HETATM   25  C   UNL     1     -10.012   9.563  68.175  1.00  0.00    -0.165 A  
HETATM   26  C   UNL     1      -9.794   8.549  69.165  1.00  0.00    -0.186 A  
HETATM   27  C   UNL     1      -9.665   8.946  70.540  1.00  0.00    -0.203 C  
BRANCH  21  28
HETATM   28  C   UNL     1     -11.018  11.398  69.683  1.00  0.00    -0.110 C  
HETATM   29  C   UNL     1     -11.956  12.592  69.667  1.00  0.00    -0.352 C  
HETATM   30  C   UNL     1     -12.496  11.226  69.937  1.00  0.00    -0.220 C  
ENDBRANCH  21  28
ENDBRANCH   3  11
TORSDOF 2
ENDMDL
MODEL       64
REMARK 921   NORMALIZED FREE ENERGY PREDICTED BY IDOCK:   -5.23 KCAL/MOL
REMARK 922        TOTAL FREE ENERGY PREDICTED BY IDOCK:   -6.61 KCAL/MOL
REMARK 923 INTER-LIGAND FREE ENERGY PREDICTED BY IDOCK:   -5.91 KCAL/MOL
REMARK 924 INTRA-LIGAND FREE ENERGY PREDICTED BY IDOCK:   -0.71 KCAL/MOL
REMARK 927      BINDING AFFINITY PREDICTED BY RF-SCORE:    0.00 PKD
ROOT
HETATM    1  C   UNL     1      -9.971   5.942  72.015  1.00  0.00    -0.175 C  
HETATM    2  C   UNL     1     -10.807   6.747  70.996  1.00  0.00    -0.242 C  
HETATM    3  N   UNL     1      -9.975   7.940  70.707  1.00  0.00    -0.184 NA 
HETATM    4  H   UNL     1     -11.188   4.296  72.472  1.00  0.00     0.000 HD 
HETATM    5  C   UNL     1      -8.831   7.977  71.651  1.00  0.00    -0.139 C  
HETATM    6  C   UNL     1      -9.266   7.058  72.793  1.00  0.00    -0.135 C  
HETATM    7  N   UNL     1     -10.662   5.029  72.947  1.00  0.00    -0.225 NA 
HETATM    8  O   UNL     1      -8.198   6.510  73.566  1.00  0.00    -0.117 OA 
HETATM    9  C   UNL     1      -9.636   4.500  73.879  1.00  0.00    -0.120 C  
HETATM   10  C   UNL     1      -8.738   5.582  74.527  1.00  0.00    -0.113 C  
ENDROOT
BRANCH   3  11
HETATM   11  C   UNL     1     -10.002   8.677  69.523  1.00  0.00    -0.196 A  
HETATM   12  C   UNL     1     -10.230  10.206  67.131  1.00  0.00    -0.278 A  
HETATM   13  C   UNL     1     -10.447  11.006  65.902  1.00  0.00    -0.240 C  
HETATM   14  C   UNL     1     -10.946  10.570  68.262  1.00  0.00    -0.314 A  
HETATM   15  C   UNL     1      -9.734  10.623  64.676  1.00  0.00    -0.360 C  
HETATM   16  C   UNL     1     -10.817   9.827  69.424  1.00  0.00    -0.232 A  
HETATM   17  O   UNL     1     -11.225  11.957  65.882  1.00  0.00    -0.323 OA 
HETATM   18  C   UNL     1      -8.897   9.584  64.777  1.00  0.00    -0.207 C  
HETATM   19  C   UNL     1      -9.846  11.347  63.393  1.00  0.00    -0.396 C  
HETATM   20  F   UNL     1     -11.529  10.268  70.471  1.00  0.00    -0.304 F  
HETATM   21  N   UNL     1      -8.608   8.857  65.925  1.00  0.00    -0.148 NA 
HETATM   22  O   UNL     1      -9.191  11.060  62.402  1.00  0.00    -0.302 OA 
HETATM   23  O   UNL     1     -10.723  12.373  63.404  1.00  0.00    -0.446 OA 
HETATM   24  N   UNL     1      -8.144   5.983  68.227  1.00  0.00    -0.109 NA 
HETATM   25  C   UNL     1      -9.346   9.105  67.135  1.00  0.00    -0.143 A  
HETATM   26  C   UNL     1      -9.291   8.313  68.329  1.00  0.00    -0.138 A  
HETATM   27  C   UNL     1      -8.646   7.031  68.275  1.00  0.00    -0.129 C  
BRANCH  21  28
HETATM   28  C   UNL     1      -7.342   8.085  65.873  1.00  0.00    -0.076 C  
HETATM   29  C   UNL     1      -6.216   8.499  64.941  1.00  0.00    -0.060 C  
HETATM   30  C   UNL     1      -6.038   8.614  66.420  1.00  0.00    -0.056 C  
ENDBRANCH  21  28
ENDBRANCH   3  11
TORSDOF 2
ENDMDL
MODEL       65
REMARK 921   NORMALIZED FREE ENERGY PREDICTED BY IDOCK:   -5.21 KCAL/MOL
REMARK 922        TOTAL FREE ENERGY PREDICTED BY IDOCK:   -6.59 KCAL/MOL
REMARK 923 INTER-LIGAND FREE ENERGY PREDICTED BY IDOCK:   -7.05 KCAL/MOL
REMARK 924 INTRA-LIGAND FREE ENERGY PREDICTED BY IDOCK:    0.46 KCAL/MOL
REMARK 927      BINDING AFFINITY PREDICTED BY RF-SCORE:    0.00 PKD
ROOT
HETATM    1  C   UNL     1     -12.610  13.603  70.331  1.00  0.00    -0.227 C  
HETATM    2  C   UNL     1     -11.433  12.769  69.779  1.00  0.00    -0.129 C  
HETATM    3  N   UNL     1     -11.743  11.382  70.202  1.00  0.00    -0.331 NA 
HETATM    4  H   UNL     1     -12.125  15.572  69.792  1.00  0.00     0.000 HD 
HETATM    5  C   UNL     1     -12.894  11.403  71.138  1.00  0.00    -0.341 C  
HETATM    6  C   UNL     1     -12.948  12.851  71.623  1.00  0.00    -0.313 C  
HETATM    7  N   UNL     1     -12.401  15.036  70.615  1.00  0.00    -0.321 NA 
HETATM    8  O   UNL     1     -14.220  13.276  72.113  1.00  0.00    -0.368 OA 
HETATM    9  C   UNL     1     -13.645  15.541  71.248  1.00  0.00    -0.439 C  
HETATM   10  C   UNL     1     -14.160  14.681  72.429  1.00  0.00    -0.444 C  
ENDROOT
BRANCH   3  11
HETATM   11  C   UNL     1     -11.323  10.224  69.548  1.00  0.00    -0.241 A  
HETATM   12  C   UNL     1     -10.570   7.903  68.078  1.00  0.00    -0.194 A  
HETATM   13  C   UNL     1     -10.244   6.723  67.243  1.00  0.00    -0.210 C  
HETATM   14  C   UNL     1     -10.754   9.113  67.425  1.00  0.00    -0.247 A  
HETATM   15  C   UNL     1     -10.081   5.419  67.899  1.00  0.00    -0.215 C  
HETATM   16  C   UNL     1     -11.107  10.238  68.152  1.00  0.00    -0.264 A  
HETATM   17  O   UNL     1     -10.136   6.808  66.022  1.00  0.00     0.180 OA 
HETATM   18  C   UNL     1     -10.203   5.406  69.230  1.00  0.00    -0.245 C  
HETATM   19  C   UNL     1      -9.737   4.171  67.186  1.00  0.00    -0.186 C  
HETATM   20  F   UNL     1     -11.241  11.366  67.438  1.00  0.00    -0.287 F  
HETATM   21  N   UNL     1     -10.432   6.499  70.056  1.00  0.00    -0.200 NA 
HETATM   22  O   UNL     1      -9.533   3.108  67.754  1.00  0.00    -0.204 OA 
HETATM   23  O   UNL     1      -9.645   4.299  65.845  1.00  0.00    -0.160 OA 
HETATM   24  N   UNL     1     -11.960   8.676  72.644  1.00  0.00    -0.287 NA 
HETATM   25  C   UNL     1     -10.707   7.788  69.478  1.00  0.00    -0.198 A  
HETATM   26  C   UNL     1     -11.146   8.951  70.192  1.00  0.00    -0.217 A  
HETATM   27  C   UNL     1     -11.584   8.800  71.551  1.00  0.00    -0.303 C  
BRANCH  21  28
HETATM   28  C   UNL     1     -10.071   6.294  71.481  1.00  0.00    -0.190 C  
HETATM   29  C   UNL     1     -10.851   5.320  72.347  1.00  0.00    -0.283 C  
HETATM   30  C   UNL     1      -9.431   5.024  71.989  1.00  0.00    -0.180 C  
ENDBRANCH  21  28
ENDBRANCH   3  11
TORSDOF 2
ENDMDL
MODEL       66
REMARK 921   NORMALIZED FREE ENERGY PREDICTED BY IDOCK:   -5.10 KCAL/MOL
REMARK 922        TOTAL FREE ENERGY PREDICTED BY IDOCK:   -6.47 KCAL/MOL
REMARK 923 INTER-LIGAND FREE ENERGY PREDICTED BY IDOCK:   -5.97 KCAL/MOL
REMARK 924 INTRA-LIGAND FREE ENERGY PREDICTED BY IDOCK:   -0.50 KCAL/MOL
REMARK 927      BINDING AFFINITY PREDICTED BY RF-SCORE:    0.00 PKD
ROOT
HETATM    1  C   UNL     1      -6.470  18.643  66.771  1.00  0.00    -0.184 C  
HETATM    2  C   UNL     1      -6.184  17.145  66.529  1.00  0.00    -0.213 C  
HETATM    3  N   UNL     1      -6.589  16.490  67.796  1.00  0.00    -0.132 NA 
HETATM    4  H   UNL     1      -5.826  19.568  65.002  1.00  0.00     0.000 HD 
HETATM    5  C   UNL     1      -6.877  17.531  68.813  1.00  0.00    -0.233 C  
HETATM    6  C   UNL     1      -6.182  18.779  68.271  1.00  0.00    -0.208 C  
HETATM    7  N   UNL     1      -5.704  19.650  66.011  1.00  0.00    -0.162 NA 
HETATM    8  O   UNL     1      -6.701  20.018  68.754  1.00  0.00    -0.307 OA 
HETATM    9  C   UNL     1      -6.094  20.982  66.538  1.00  0.00    -0.276 C  
HETATM   10  C   UNL     1      -6.036  21.105  68.081  1.00  0.00    -0.288 C  
ENDROOT
BRANCH   3  11
HETATM   11  C   UNL     1      -7.024  15.171  67.922  1.00  0.00    -0.151 A  
HETATM   12  C   UNL     1      -7.743  12.425  68.164  1.00  0.00    -0.139 A  
HETATM   13  C   UNL     1      -8.021  10.973  68.276  1.00  0.00    -0.124 C  
HETATM   14  C   UNL     1      -6.594  12.902  68.777  1.00  0.00    -0.090 A  
HETATM   15  C   UNL     1      -9.210  10.430  67.605  1.00  0.00    -0.157 C  
HETATM   16  C   UNL     1      -6.261  14.242  68.664  1.00  0.00    -0.088 A  
HETATM   17  O   UNL     1      -7.270  10.219  68.889  1.00  0.00    -0.076 OA 
HETATM   18  C   UNL     1      -9.985  11.312  66.965  1.00  0.00    -0.198 C  
HETATM   19  C   UNL     1      -9.611   9.009  67.654  1.00  0.00    -0.150 C  
HETATM   20  F   UNL     1      -5.146  14.614  69.309  1.00  0.00    -0.087 F  
HETATM   21  N   UNL     1      -9.802  12.688  66.901  1.00  0.00    -0.228 NA 
HETATM   22  O   UNL     1     -10.640   8.584  67.151  1.00  0.00    -0.303 OA 
HETATM   23  O   UNL     1      -8.752   8.207  68.320  1.00  0.00    -0.132 OA 
HETATM   24  N   UNL     1      -9.416  16.109  65.517  1.00  0.00    -0.409 NA 
HETATM   25  C   UNL     1      -8.606  13.277  67.442  1.00  0.00    -0.204 A  
HETATM   26  C   UNL     1      -8.196  14.642  67.280  1.00  0.00    -0.235 A  
HETATM   27  C   UNL     1      -8.879  15.456  66.314  1.00  0.00    -0.267 C  
BRANCH  21  28
HETATM   28  C   UNL     1     -11.014  13.464  66.538  1.00  0.00    -0.290 C  
HETATM   29  C   UNL     1     -12.269  12.761  66.049  1.00  0.00    -0.380 C  
HETATM   30  C   UNL     1     -12.272  13.454  67.372  1.00  0.00    -0.262 C  
ENDBRANCH  21  28
ENDBRANCH   3  11
TORSDOF 2
ENDMDL
MODEL       67
REMARK 921   NORMALIZED FREE ENERGY PREDICTED BY IDOCK:   -5.10 KCAL/MOL
REMARK 922        TOTAL FREE ENERGY PREDICTED BY IDOCK:   -6.47 KCAL/MOL
REMARK 923 INTER-LIGAND FREE ENERGY PREDICTED BY IDOCK:   -5.94 KCAL/MOL
REMARK 924 INTRA-LIGAND FREE ENERGY PREDICTED BY IDOCK:   -0.53 KCAL/MOL
REMARK 927      BINDING AFFINITY PREDICTED BY RF-SCORE:    0.00 PKD
ROOT
HETATM    1  C   UNL     1      -9.644   5.666  67.068  1.00  0.00    -0.136 C  
HETATM    2  C   UNL     1     -10.233   7.012  67.543  1.00  0.00    -0.199 C  
HETATM    3  N   UNL     1      -9.269   8.024  67.047  1.00  0.00    -0.141 NA 
HETATM    4  H   UNL     1     -10.974   4.238  67.837  1.00  0.00     0.000 HD 
HETATM    5  C   UNL     1      -8.068   7.335  66.516  1.00  0.00    -0.114 C  
HETATM    6  C   UNL     1      -8.138   5.941  67.139  1.00  0.00    -0.102 C  
HETATM    7  N   UNL     1      -9.974   4.437  67.815  1.00  0.00    -0.091 NA 
HETATM    8  O   UNL     1      -7.425   4.927  66.431  1.00  0.00    -0.084 OA 
HETATM    9  C   UNL     1      -9.175   3.337  67.218  1.00  0.00    -0.192 C  
HETATM   10  C   UNL     1      -7.667   3.653  67.059  1.00  0.00    -0.080 C  
ENDROOT
BRANCH   3  11
HETATM   11  C   UNL     1      -9.574   9.351  66.743  1.00  0.00    -0.179 A  
HETATM   12  C   UNL     1     -10.071  12.056  65.999  1.00  0.00    -0.257 A  
HETATM   13  C   UNL     1     -10.253  13.456  65.547  1.00  0.00    -0.290 C  
HETATM   14  C   UNL     1      -9.791  11.105  65.028  1.00  0.00    -0.315 A  
HETATM   15  C   UNL     1     -10.512  14.493  66.554  1.00  0.00    -0.285 C  
HETATM   16  C   UNL     1      -9.565   9.790  65.400  1.00  0.00    -0.292 A  
HETATM   17  O   UNL     1     -10.166  13.766  64.362  1.00  0.00    -0.367 OA 
HETATM   18  C   UNL     1     -10.603  14.078  67.823  1.00  0.00    -0.242 C  
HETATM   19  C   UNL     1     -10.731  15.919  66.236  1.00  0.00    -0.261 C  
HETATM   20  F   UNL     1      -9.326   8.940  64.391  1.00  0.00    -0.092 F  
HETATM   21  N   UNL     1     -10.515  12.769  68.278  1.00  0.00    -0.235 NA 
HETATM   22  O   UNL     1     -11.017  16.758  67.078  1.00  0.00    -0.136 OA 
HETATM   23  O   UNL     1     -10.609  16.226  64.927  1.00  0.00    -0.650 OA 
HETATM   24  N   UNL     1      -9.429   9.806  70.230  1.00  0.00    -0.240 NA 
HETATM   25  C   UNL     1     -10.157  11.716  67.366  1.00  0.00    -0.198 A  
HETATM   26  C   UNL     1      -9.845  10.364  67.727  1.00  0.00    -0.193 A  
HETATM   27  C   UNL     1      -9.627  10.053  69.112  1.00  0.00    -0.210 C  
BRANCH  21  28
HETATM   28  C   UNL     1     -11.096  12.535  69.624  1.00  0.00     0.083 C  
HETATM   29  C   UNL     1     -12.146  13.475  70.191  1.00  0.00    -0.425 C  
HETATM   30  C   UNL     1     -12.519  12.074  69.831  1.00  0.00    -0.019 C  
ENDBRANCH  21  28
ENDBRANCH   3  11
TORSDOF 2
ENDMDL
MODEL       68
REMARK 921   NORMALIZED FREE ENERGY PREDICTED BY IDOCK:   -5.08 KCAL/MOL
REMARK 922        TOTAL FREE ENERGY PREDICTED BY IDOCK:   -6.45 KCAL/MOL
REMARK 923 INTER-LIGAND FREE ENERGY PREDICTED BY IDOCK:   -5.71 KCAL/MOL
REMARK 924 INTRA-LIGAND FREE ENERGY PREDICTED BY IDOCK:   -0.74 KCAL/MOL
REMARK 927      BINDING AFFINITY PREDICTED BY RF-SCORE:    0.00 PKD
ROOT
HETATM    1  C   UNL     1     -11.706  12.950  64.860  1.00  0.00    -0.348 C  
HETATM    2  C   UNL     1     -11.423  11.442  64.679  1.00  0.00    -0.020 C  
HETATM    3  N   UNL     1     -10.347  11.156  65.658  1.00  0.00    -0.249 NA 
HETATM    4  H   UNL     1     -13.176  13.359  63.421  1.00  0.00     0.000 HD 
HETATM    5  C   UNL     1      -9.850  12.434  66.224  1.00  0.00    -0.247 C  
HETATM    6  C   UNL     1     -10.317  13.488  65.221  1.00  0.00    -0.331 C  
HETATM    7  N   UNL     1     -12.271  13.713  63.730  1.00  0.00    -0.654 NA 
HETATM    8  O   UNL     1     -10.431  14.811  65.744  1.00  0.00    -0.298 OA 
HETATM    9  C   UNL     1     -12.313  15.137  64.145  1.00  0.00    -0.094 C  
HETATM   10  C   UNL     1     -10.985  15.675  64.733  1.00  0.00    -0.400 C  
ENDROOT
BRANCH   3  11
HETATM   11  C   UNL     1     -10.107   9.920  66.259  1.00  0.00    -0.241 A  
HETATM   12  C   UNL     1      -9.605   7.480  67.641  1.00  0.00    -0.171 A  
HETATM   13  C   UNL     1      -9.331   6.264  68.443  1.00  0.00    -0.113 C  
HETATM   14  C   UNL     1     -10.404   8.457  68.217  1.00  0.00    -0.244 A  
HETATM   15  C   UNL     1      -8.457   5.229  67.878  1.00  0.00    -0.101 C  
HETATM   16  C   UNL     1     -10.653   9.634  67.530  1.00  0.00    -0.277 A  
HETATM   17  O   UNL     1      -9.795   6.120  69.572  1.00  0.00    -0.152 OA 
HETATM   18  C   UNL     1      -7.997   5.451  66.641  1.00  0.00    -0.105 C  
HETATM   19  C   UNL     1      -8.121   3.964  68.563  1.00  0.00    -0.075 C  
HETATM   20  F   UNL     1     -11.455  10.507  68.156  1.00  0.00    -0.332 F  
HETATM   21  N   UNL     1      -8.290   6.538  65.828  1.00  0.00    -0.138 NA 
HETATM   22  O   UNL     1      -7.451   3.080  68.051  1.00  0.00    -0.053 OA 
HETATM   23  O   UNL     1      -8.632   3.849  69.808  1.00  0.00    -0.062 OA 
HETATM   24  N   UNL     1      -7.831   9.478  63.610  1.00  0.00    -0.124 NA 
HETATM   25  C   UNL     1      -9.052   7.641  66.352  1.00  0.00    -0.174 A  
HETATM   26  C   UNL     1      -9.265   8.899  65.698  1.00  0.00    -0.268 A  
HETATM   27  C   UNL     1      -8.481   9.213  64.537  1.00  0.00    -0.180 C  
BRANCH  21  28
HETATM   28  C   UNL     1      -8.038   6.322  64.381  1.00  0.00    -0.091 C  
HETATM   29  C   UNL     1      -6.976   5.342  63.915  1.00  0.00    -0.047 C  
HETATM   30  C   UNL     1      -8.418   5.049  63.665  1.00  0.00    -0.127 C  
ENDBRANCH  21  28
ENDBRANCH   3  11
TORSDOF 2
ENDMDL
MODEL       69
REMARK 921   NORMALIZED FREE ENERGY PREDICTED BY IDOCK:   -5.05 KCAL/MOL
REMARK 922        TOTAL FREE ENERGY PREDICTED BY IDOCK:   -6.42 KCAL/MOL
REMARK 923 INTER-LIGAND FREE ENERGY PREDICTED BY IDOCK:   -6.98 KCAL/MOL
REMARK 924 INTRA-LIGAND FREE ENERGY PREDICTED BY IDOCK:    0.56 KCAL/MOL
REMARK 927      BINDING AFFINITY PREDICTED BY RF-SCORE:    0.00 PKD
ROOT
HETATM    1  C   UNL     1     -11.610  10.307  70.840  1.00  0.00    -0.365 C  
HETATM    2  C   UNL     1     -11.285  11.255  69.665  1.00  0.00    -0.251 C  
HETATM    3  N   UNL     1     -11.953  12.527  70.032  1.00  0.00    -0.334 NA 
HETATM    4  H   UNL     1     -10.724   8.490  70.276  1.00  0.00     0.000 HD 
HETATM    5  C   UNL     1     -12.812  12.302  71.220  1.00  0.00    -0.239 C  
HETATM    6  C   UNL     1     -13.006  10.787  71.253  1.00  0.00    -0.402 C  
HETATM    7  N   UNL     1     -11.621   8.850  70.601  1.00  0.00    -0.252 NA 
HETATM    8  O   UNL     1     -13.345  10.248  72.531  1.00  0.00    -0.204 OA 
HETATM    9  C   UNL     1     -12.086   8.207  71.856  1.00  0.00    -0.323 C  
HETATM   10  C   UNL     1     -13.385   8.811  72.444  1.00  0.00    -0.399 C  
ENDROOT
BRANCH   3  11
HETATM   11  C   UNL     1     -11.555  13.799  69.618  1.00  0.00    -0.281 A  
HETATM   12  C   UNL     1     -10.830  16.461  68.911  1.00  0.00    -0.334 A  
HETATM   13  C   UNL     1     -10.509  17.879  68.619  1.00  0.00    -0.262 C  
HETATM   14  C   UNL     1     -10.852  16.074  70.243  1.00  0.00    -0.327 A  
HETATM   15  C   UNL     1     -10.517  18.330  67.222  1.00  0.00    -0.419 C  
HETATM   16  C   UNL     1     -11.193  14.773  70.574  1.00  0.00    -0.148 A  
HETATM   17  O   UNL     1     -10.266  18.681  69.517  1.00  0.00    -0.041 OA 
HETATM   18  C   UNL     1     -10.780  17.398  66.299  1.00  0.00    -0.082 C  
HETATM   19  C   UNL     1     -10.195  19.708  66.795  1.00  0.00    -0.449 C  
HETATM   20  F   UNL     1     -11.163  14.487  71.884  1.00  0.00    -0.166 F  
HETATM   21  N   UNL     1     -11.010  16.047  66.524  1.00  0.00    -0.161 NA 
HETATM   22  O   UNL     1     -10.135  20.050  65.624  1.00  0.00    -0.404 OA 
HETATM   23  O   UNL     1      -9.953  20.566  67.809  1.00  0.00    -0.395 OA 
HETATM   24  N   UNL     1     -12.633  12.710  66.449  1.00  0.00    -0.147 NA 
HETATM   25  C   UNL     1     -11.124  15.553  67.871  1.00  0.00    -0.321 A  
HETATM   26  C   UNL     1     -11.545  14.236  68.249  1.00  0.00    -0.358 A  
HETATM   27  C   UNL     1     -12.135  13.389  67.251  1.00  0.00    -0.304 C  
BRANCH  21  28
HETATM   28  C   UNL     1     -10.819  15.174  65.338  1.00  0.00    -0.381 C  
HETATM   29  C   UNL     1     -11.994  14.800  64.451  1.00  0.00    -0.433 C  
HETATM   30  C   UNL     1     -10.915  15.686  63.921  1.00  0.00     1.201 C  
ENDBRANCH  21  28
ENDBRANCH   3  11
TORSDOF 2
ENDMDL
MODEL       70
REMARK 921   NORMALIZED FREE ENERGY PREDICTED BY IDOCK:   -5.04 KCAL/MOL
REMARK 922        TOTAL FREE ENERGY PREDICTED BY IDOCK:   -6.40 KCAL/MOL
REMARK 923 INTER-LIGAND FREE ENERGY PREDICTED BY IDOCK:   -7.50 KCAL/MOL
REMARK 924 INTRA-LIGAND FREE ENERGY PREDICTED BY IDOCK:    1.10 KCAL/MOL
REMARK 927      BINDING AFFINITY PREDICTED BY RF-SCORE:    0.00 PKD
ROOT
HETATM    1  C   UNL     1     -12.326  13.372  70.830  1.00  0.00    -0.354 C  
HETATM    2  C   UNL     1     -12.908  11.961  71.061  1.00  0.00    -0.198 C  
HETATM    3  N   UNL     1     -11.978  11.063  70.336  1.00  0.00    -0.340 NA 
HETATM    4  H   UNL     1     -13.689  14.641  71.797  1.00  0.00     0.000 HD 
HETATM    5  C   UNL     1     -11.038  11.880  69.531  1.00  0.00    -0.102 C  
HETATM    6  C   UNL     1     -11.731  13.239  69.424  1.00  0.00    -0.325 C  
HETATM    7  N   UNL     1     -13.229  14.538  70.893  1.00  0.00    -0.357 NA 
HETATM    8  O   UNL     1     -10.862  14.340  69.159  1.00  0.00    -0.249 OA 
HETATM    9  C   UNL     1     -12.431  15.729  70.507  1.00  0.00    -0.332 C  
HETATM   10  C   UNL     1     -11.623  15.563  69.196  1.00  0.00    -0.362 C  
ENDROOT
BRANCH   3  11
HETATM   11  C   UNL     1     -11.738   9.724  70.648  1.00  0.00    -0.300 A  
HETATM   12  C   UNL     1     -11.224   7.040  71.452  1.00  0.00    -0.283 A  
HETATM   13  C   UNL     1     -10.938   5.678  71.962  1.00  0.00    -0.243 C  
HETATM   14  C   UNL     1     -11.965   7.884  72.267  1.00  0.00    -0.387 A  
HETATM   15  C   UNL     1     -10.123   4.774  71.140  1.00  0.00    -0.261 C  
HETATM   16  C   UNL     1     -12.220   9.182  71.860  1.00  0.00    -0.379 A  
HETATM   17  O   UNL     1     -11.342   5.305  73.061  1.00  0.00    -0.305 OA 
HETATM   18  C   UNL     1      -9.727   5.247  69.954  1.00  0.00    -0.193 C  
HETATM   19  C   UNL     1      -9.783   3.388  71.523  1.00  0.00    -0.163 C  
HETATM   20  F   UNL     1     -12.963   9.914  72.703  1.00  0.00    -0.387 F  
HETATM   21  N   UNL     1     -10.036   6.486  69.406  1.00  0.00    -0.167 NA 
HETATM   22  O   UNL     1      -9.165   2.624  70.797  1.00  0.00    -0.108 OA 
HETATM   23  O   UNL     1     -10.227   3.019  72.744  1.00  0.00    -0.144 OA 
HETATM   24  N   UNL     1      -9.624   9.822  67.835  1.00  0.00    -0.138 NA 
HETATM   25  C   UNL     1     -10.738   7.462  70.195  1.00  0.00    -0.242 A  
HETATM   26  C   UNL     1     -10.955   8.833  69.836  1.00  0.00    -0.184 A  
HETATM   27  C   UNL     1     -10.228   9.376  68.722  1.00  0.00    -0.203 C  
BRANCH  21  28
HETATM   28  C   UNL     1      -9.870   6.578  67.934  1.00  0.00    -0.123 C  
HETATM   29  C   UNL     1      -9.978   5.340  67.061  1.00  0.00    -0.214 C  
HETATM   30  C   UNL     1     -11.018   6.407  66.968  1.00  0.00    -0.463 C  
ENDBRANCH  21  28
ENDBRANCH   3  11
TORSDOF 2
ENDMDL
MODEL       71
REMARK 921   NORMALIZED FREE ENERGY PREDICTED BY IDOCK:   -4.93 KCAL/MOL
REMARK 922        TOTAL FREE ENERGY PREDICTED BY IDOCK:   -6.29 KCAL/MOL
REMARK 923 INTER-LIGAND FREE ENERGY PREDICTED BY IDOCK:   -5.43 KCAL/MOL
REMARK 924 INTRA-LIGAND FREE ENERGY PREDICTED BY IDOCK:   -0.86 KCAL/MOL
REMARK 927      BINDING AFFINITY PREDICTED BY RF-SCORE:    0.00 PKD
ROOT
HETATM    1  C   UNL     1     -10.340  16.747  66.217  1.00  0.00    -0.310 C  
HETATM    2  C   UNL     1      -9.817  15.373  65.743  1.00  0.00    -0.364 C  
HETATM    3  N   UNL     1      -9.702  14.581  66.991  1.00  0.00    -0.238 NA 
HETATM    4  H   UNL     1     -10.429  17.882  64.455  1.00  0.00     0.000 HD 
HETATM    5  C   UNL     1      -9.912  15.473  68.157  1.00  0.00    -0.217 C  
HETATM    6  C   UNL     1      -9.681  16.875  67.594  1.00  0.00    -0.249 C  
HETATM    7  N   UNL     1     -10.052  17.942  65.400  1.00  0.00    -0.244 NA 
HETATM    8  O   UNL     1     -10.298  17.931  68.331  1.00  0.00    -0.366 OA 
HETATM    9  C   UNL     1     -10.556  19.117  66.155  1.00  0.00    -0.439 C  
HETATM   10  C   UNL     1     -10.097  19.175  67.633  1.00  0.00    -0.377 C  
ENDROOT
BRANCH   3  11
HETATM   11  C   UNL     1      -9.791  13.191  67.078  1.00  0.00    -0.244 A  
HETATM   12  C   UNL     1     -10.105  10.375  67.370  1.00  0.00    -0.237 A  
HETATM   13  C   UNL     1     -10.339   8.928  67.591  1.00  0.00    -0.251 C  
HETATM   14  C   UNL     1     -11.219  11.200  67.326  1.00  0.00    -0.347 A  
HETATM   15  C   UNL     1      -9.178   8.032  67.682  1.00  0.00    -0.145 C  
HETATM   16  C   UNL     1     -11.055  12.567  67.170  1.00  0.00    -0.276 A  
HETATM   17  O   UNL     1     -11.472   8.472  67.725  1.00  0.00     0.751 OA 
HETATM   18  C   UNL     1      -7.978   8.599  67.517  1.00  0.00    -0.106 C  
HETATM   19  C   UNL     1      -9.273   6.571  67.880  1.00  0.00    -0.110 C  
HETATM   20  F   UNL     1     -12.189  13.280  67.115  1.00  0.00    -0.406 F  
HETATM   21  N   UNL     1      -7.719   9.934  67.234  1.00  0.00    -0.095 NA 
HETATM   22  O   UNL     1      -8.302   5.829  67.881  1.00  0.00    -0.104 OA 
HETATM   23  O   UNL     1     -10.532   6.109  68.042  1.00  0.00    -0.176 OA 
HETATM   24  N   UNL     1      -6.296  13.353  67.469  1.00  0.00    -0.267 NA 
HETATM   25  C   UNL     1      -8.796  10.888  67.235  1.00  0.00    -0.134 A  
HETATM   26  C   UNL     1      -8.656  12.312  67.150  1.00  0.00    -0.187 A  
HETATM   27  C   UNL     1      -7.349  12.886  67.314  1.00  0.00    -0.070 C  
BRANCH  21  28
HETATM   28  C   UNL     1      -6.379  10.202  66.655  1.00  0.00    -0.072 C  
HETATM   29  C   UNL     1      -5.512   9.065  66.142  1.00  0.00    -0.041 C  
HETATM   30  C   UNL     1      -6.079  10.059  65.182  1.00  0.00    -0.107 C  
ENDBRANCH  21  28
ENDBRANCH   3  11
TORSDOF 2
ENDMDL
MODEL       72
REMARK 921   NORMALIZED FREE ENERGY PREDICTED BY IDOCK:   -4.88 KCAL/MOL
REMARK 922        TOTAL FREE ENERGY PREDICTED BY IDOCK:   -6.23 KCAL/MOL
REMARK 923 INTER-LIGAND FREE ENERGY PREDICTED BY IDOCK:   -5.58 KCAL/MOL
REMARK 924 INTRA-LIGAND FREE ENERGY PREDICTED BY IDOCK:   -0.65 KCAL/MOL
REMARK 927      BINDING AFFINITY PREDICTED BY RF-SCORE:    0.00 PKD
ROOT
HETATM    1  C   UNL     1      -9.134  17.561  66.651  1.00  0.00    -0.269 C  
HETATM    2  C   UNL     1      -7.954  16.580  66.827  1.00  0.00    -0.255 C  
HETATM    3  N   UNL     1      -8.283  15.837  68.067  1.00  0.00    -0.139 NA 
HETATM    4  H   UNL     1      -8.624  18.656  64.936  1.00  0.00     0.000 HD 
HETATM    5  C   UNL     1      -9.450  16.475  68.723  1.00  0.00    -0.246 C  
HETATM    6  C   UNL     1      -9.502  17.872  68.106  1.00  0.00    -0.288 C  
HETATM    7  N   UNL     1      -8.919  18.813  65.900  1.00  0.00    -0.415 NA 
HETATM    8  O   UNL     1     -10.778  18.509  68.158  1.00  0.00    -0.315 OA 
HETATM    9  C   UNL     1     -10.170  19.604  66.004  1.00  0.00    -0.493 C  
HETATM   10  C   UNL     1     -10.713  19.760  67.446  1.00  0.00    -0.384 C  
ENDROOT
BRANCH   3  11
HETATM   11  C   UNL     1      -7.860  14.543  68.371  1.00  0.00    -0.135 A  
HETATM   12  C   UNL     1      -6.829  11.960  68.987  1.00  0.00    -0.105 A  
HETATM   13  C   UNL     1      -6.200  10.654  69.298  1.00  0.00    -0.050 C  
HETATM   14  C   UNL     1      -6.249  13.093  69.540  1.00  0.00    -0.116 A  
HETATM   15  C   UNL     1      -6.767   9.439  68.697  1.00  0.00    -0.053 C  
HETATM   16  C   UNL     1      -6.767  14.343  69.244  1.00  0.00    -0.126 A  
HETATM   17  O   UNL     1      -5.209  10.572  70.018  1.00  0.00    -0.037 OA 
HETATM   18  C   UNL     1      -7.851   9.606  67.932  1.00  0.00    -0.087 C  
HETATM   19  C   UNL     1      -6.249   8.077  68.940  1.00  0.00    -0.040 C  
HETATM   20  F   UNL     1      -6.155  15.375  69.843  1.00  0.00    -0.123 F  
HETATM   21  N   UNL     1      -8.514  10.800  67.678  1.00  0.00    -0.119 NA 
HETATM   22  O   UNL     1      -6.774   7.069  68.491  1.00  0.00    -0.058 OA 
HETATM   23  O   UNL     1      -5.148   8.027  69.720  1.00  0.00    -0.022 OA 
HETATM   24  N   UNL     1     -10.108  13.598  65.833  1.00  0.00    -0.305 NA 
HETATM   25  C   UNL     1      -7.958  12.042  68.144  1.00  0.00    -0.152 A  
HETATM   26  C   UNL     1      -8.424  13.352  67.797  1.00  0.00    -0.181 A  
HETATM   27  C   UNL     1      -9.364  13.486  66.720  1.00  0.00    -0.257 C  
BRANCH  21  28
HETATM   28  C   UNL     1      -9.911  10.649  67.198  1.00  0.00    -0.175 C  
HETATM   29  C   UNL     1     -10.741   9.438  67.588  1.00  0.00    -0.295 C  
HETATM   30  C   UNL     1     -11.109  10.790  68.106  1.00  0.00    -0.337 C  
ENDBRANCH  21  28
ENDBRANCH   3  11
TORSDOF 2
ENDMDL
MODEL       73
REMARK 921   NORMALIZED FREE ENERGY PREDICTED BY IDOCK:   -4.83 KCAL/MOL
REMARK 922        TOTAL FREE ENERGY PREDICTED BY IDOCK:   -6.18 KCAL/MOL
REMARK 923 INTER-LIGAND FREE ENERGY PREDICTED BY IDOCK:   -6.53 KCAL/MOL
REMARK 924 INTRA-LIGAND FREE ENERGY PREDICTED BY IDOCK:    0.36 KCAL/MOL
REMARK 927      BINDING AFFINITY PREDICTED BY RF-SCORE:    0.00 PKD
ROOT
HETATM    1  C   UNL     1     -12.539  13.379  71.765  1.00  0.00    -0.134 C  
HETATM    2  C   UNL     1     -12.722  12.248  70.730  1.00  0.00    -0.126 C  
HETATM    3  N   UNL     1     -11.605  12.447  69.775  1.00  0.00    -0.267 NA 
HETATM    4  H   UNL     1     -14.165  13.133  73.068  1.00  0.00     0.000 HD 
HETATM    5  C   UNL     1     -10.934  13.736  70.072  1.00  0.00     0.317 C  
HETATM    6  C   UNL     1     -11.962  14.505  70.900  1.00  0.00    -0.325 C  
HETATM    7  N   UNL     1     -13.716  13.862  72.514  1.00  0.00    -0.647 NA 
HETATM    8  O   UNL     1     -11.422  15.529  71.735  1.00  0.00    -0.390 OA 
HETATM    9  C   UNL     1     -13.269  15.020  73.327  1.00  0.00    -0.422 C  
HETATM   10  C   UNL     1     -12.477  16.092  72.538  1.00  0.00    -0.473 C  
ENDROOT
BRANCH   3  11
HETATM   11  C   UNL     1     -11.013  11.447  69.003  1.00  0.00    -0.236 A  
HETATM   12  C   UNL     1      -9.892   9.470  67.286  1.00  0.00    -0.228 A  
HETATM   13  C   UNL     1      -9.366   8.478  66.319  1.00  0.00    -0.224 C  
HETATM   14  C   UNL     1     -10.062  10.771  66.835  1.00  0.00    -0.255 A  
HETATM   15  C   UNL     1      -9.211   7.083  66.753  1.00  0.00    -0.181 C  
HETATM   16  C   UNL     1     -10.596  11.727  67.682  1.00  0.00    -0.205 A  
HETATM   17  O   UNL     1      -9.085   8.791  65.164  1.00  0.00    -0.159 OA 
HETATM   18  C   UNL     1      -9.527   6.821  68.026  1.00  0.00    -0.119 C  
HETATM   19  C   UNL     1      -8.680   6.003  65.896  1.00  0.00    -0.154 C  
HETATM   20  F   UNL     1     -10.700  12.960  67.166  1.00  0.00    -0.244 F  
HETATM   21  N   UNL     1      -9.951   7.733  68.984  1.00  0.00    -0.178 NA 
HETATM   22  O   UNL     1      -8.489   4.864  66.294  1.00  0.00    -0.111 OA 
HETATM   23  O   UNL     1      -8.401   6.379  64.630  1.00  0.00    -0.109 OA 
HETATM   24  N   UNL     1     -11.992   9.331  71.639  1.00  0.00    -0.354 NA 
HETATM   25  C   UNL     1     -10.227   9.093  68.604  1.00  0.00    -0.204 A  
HETATM   26  C   UNL     1     -10.845  10.086  69.433  1.00  0.00    -0.270 A  
HETATM   27  C   UNL     1     -11.468   9.670  70.659  1.00  0.00    -0.306 C  
BRANCH  21  28
HETATM   28  C   UNL     1      -9.791   7.284  70.389  1.00  0.00    -0.183 C  
HETATM   29  C   UNL     1      -9.574   5.817  70.716  1.00  0.00    -0.210 C  
HETATM   30  C   UNL     1      -8.475   6.801  70.950  1.00  0.00    -0.136 C  
ENDBRANCH  21  28
ENDBRANCH   3  11
TORSDOF 2
ENDMDL
MODEL       74
REMARK 921   NORMALIZED FREE ENERGY PREDICTED BY IDOCK:   -4.79 KCAL/MOL
REMARK 922        TOTAL FREE ENERGY PREDICTED BY IDOCK:   -6.12 KCAL/MOL
REMARK 923 INTER-LIGAND FREE ENERGY PREDICTED BY IDOCK:   -5.39 KCAL/MOL
REMARK 924 INTRA-LIGAND FREE ENERGY PREDICTED BY IDOCK:   -0.73 KCAL/MOL
REMARK 927      BINDING AFFINITY PREDICTED BY RF-SCORE:    0.00 PKD
ROOT
HETATM    1  C   UNL     1     -10.266  13.671  64.941  1.00  0.00    -0.339 C  
HETATM    2  C   UNL     1      -9.587  12.529  65.727  1.00  0.00    -0.129 C  
HETATM    3  N   UNL     1     -10.153  11.294  65.133  1.00  0.00    -0.259 NA 
HETATM    4  H   UNL     1      -9.516  15.413  65.838  1.00  0.00     0.000 HD 
HETATM    5  C   UNL     1     -11.264  11.657  64.219  1.00  0.00    -0.319 C  
HETATM    6  C   UNL     1     -11.647  13.073  64.649  1.00  0.00    -0.346 C  
HETATM    7  N   UNL     1     -10.409  14.995  65.580  1.00  0.00    -0.343 NA 
HETATM    8  O   UNL     1     -12.311  13.849  63.651  1.00  0.00    -0.696 OA 
HETATM    9  C   UNL     1     -11.202  15.842  64.655  1.00  0.00    -0.363 C  
HETATM   10  C   UNL     1     -12.511  15.186  64.147  1.00  0.00     0.029 C  
ENDROOT
BRANCH   3  11
HETATM   11  C   UNL     1      -9.522  10.051  65.098  1.00  0.00    -0.270 A  
HETATM   12  C   UNL     1      -8.290   7.494  64.860  1.00  0.00    -0.045 A  
HETATM   13  C   UNL     1      -7.688   6.156  64.644  1.00  0.00    -0.101 C  
HETATM   14  C   UNL     1      -8.265   8.382  63.795  1.00  0.00    -0.106 A  
HETATM   15  C   UNL     1      -7.733   5.178  65.739  1.00  0.00    -0.091 C  
HETATM   16  C   UNL     1      -8.856   9.628  63.926  1.00  0.00    -0.228 A  
HETATM   17  O   UNL     1      -7.182   5.844  63.569  1.00  0.00    -0.052 OA 
HETATM   18  C   UNL     1      -8.290   5.593  66.882  1.00  0.00    -0.108 C  
HETATM   19  C   UNL     1      -7.153   3.821  65.661  1.00  0.00    -0.066 C  
HETATM   20  F   UNL     1      -8.762  10.426  62.853  1.00  0.00    -0.148 F  
HETATM   21  N   UNL     1      -8.795   6.859  67.150  1.00  0.00    -0.119 NA 
HETATM   22  O   UNL     1      -7.134   3.045  66.605  1.00  0.00    -0.052 OA 
HETATM   23  O   UNL     1      -6.624   3.507  64.460  1.00  0.00    -0.034 OA 
HETATM   24  N   UNL     1     -11.128   9.551  68.190  1.00  0.00    -0.078 NA 
HETATM   25  C   UNL     1      -8.883   7.833  66.095  1.00  0.00    -0.162 A  
HETATM   26  C   UNL     1      -9.550   9.100  66.175  1.00  0.00    -0.333 A  
HETATM   27  C   UNL     1     -10.413   9.354  67.296  1.00  0.00    -0.264 C  
BRANCH  21  28
HETATM   28  C   UNL     1      -8.925   7.189  68.591  1.00  0.00    -0.131 C  
HETATM   29  C   UNL     1      -8.124   6.432  69.636  1.00  0.00    -0.124 C  
HETATM   30  C   UNL     1      -7.832   7.873  69.376  1.00  0.00    -0.114 C  
ENDBRANCH  21  28
ENDBRANCH   3  11
TORSDOF 2
ENDMDL
MODEL       75
REMARK 921   NORMALIZED FREE ENERGY PREDICTED BY IDOCK:   -4.63 KCAL/MOL
REMARK 922        TOTAL FREE ENERGY PREDICTED BY IDOCK:   -5.95 KCAL/MOL
REMARK 923 INTER-LIGAND FREE ENERGY PREDICTED BY IDOCK:   -5.48 KCAL/MOL
REMARK 924 INTRA-LIGAND FREE ENERGY PREDICTED BY IDOCK:   -0.47 KCAL/MOL
REMARK 927      BINDING AFFINITY PREDICTED BY RF-SCORE:    0.00 PKD
ROOT
HETATM    1  C   UNL     1     -11.470  12.508  66.431  1.00  0.00    -0.365 C  
HETATM    2  C   UNL     1     -10.908  11.095  66.159  1.00  0.00    -0.185 C  
HETATM    3  N   UNL     1      -9.790  10.958  67.123  1.00  0.00    -0.181 NA 
HETATM    4  H   UNL     1     -13.002  12.719  65.014  1.00  0.00     0.000 HD 
HETATM    5  C   UNL     1      -9.539  12.270  67.769  1.00  0.00    -0.200 C  
HETATM    6  C   UNL     1     -10.205  13.276  66.830  1.00  0.00    -0.250 C  
HETATM    7  N   UNL     1     -12.177  13.218  65.348  1.00  0.00    -0.428 NA 
HETATM    8  O   UNL     1     -10.563  14.519  67.433  1.00  0.00    -0.266 OA 
HETATM    9  C   UNL     1     -12.485  14.581  65.849  1.00  0.00    -0.186 C  
HETATM   10  C   UNL     1     -11.278  15.322  66.475  1.00  0.00    -0.228 C  
ENDROOT
BRANCH   3  11
HETATM   11  C   UNL     1      -9.316   9.756  67.648  1.00  0.00    -0.140 A  
HETATM   12  C   UNL     1      -8.387   7.223  68.564  1.00  0.00    -0.125 A  
HETATM   13  C   UNL     1      -7.933   5.867  68.954  1.00  0.00    -0.102 C  
HETATM   14  C   UNL     1      -8.127   7.634  67.265  1.00  0.00    -0.119 A  
HETATM   15  C   UNL     1      -8.228   5.387  70.310  1.00  0.00    -0.101 C  
HETATM   16  C   UNL     1      -8.571   8.873  66.834  1.00  0.00    -0.115 A  
HETATM   17  O   UNL     1      -7.344   5.134  68.163  1.00  0.00    -0.072 OA 
HETATM   18  C   UNL     1      -8.863   6.244  71.117  1.00  0.00    -0.142 C  
HETATM   19  C   UNL     1      -7.814   4.067  70.829  1.00  0.00    -0.051 C  
HETATM   20  F   UNL     1      -8.252   9.192  65.572  1.00  0.00    -0.107 F  
HETATM   21  N   UNL     1      -9.238   7.548  70.817  1.00  0.00    -0.158 NA 
HETATM   22  O   UNL     1      -8.004   3.711  71.982  1.00  0.00    -0.065 OA 
HETATM   23  O   UNL     1      -7.188   3.282  69.927  1.00  0.00    -0.041 OA 
HETATM   24  N   UNL     1     -11.331  10.586  70.412  1.00  0.00    -0.321 NA 
HETATM   25  C   UNL     1      -9.078   8.049  69.478  1.00  0.00    -0.152 A  
HETATM   26  C   UNL     1      -9.590   9.292  68.981  1.00  0.00    -0.159 A  
HETATM   27  C   UNL     1     -10.543  10.013  69.778  1.00  0.00    -0.267 C  
BRANCH  21  28
HETATM   28  C   UNL     1      -9.498   8.411  71.996  1.00  0.00    -0.268 C  
HETATM   29  C   UNL     1     -10.270   7.881  73.192  1.00  0.00    -0.358 C  
HETATM   30  C   UNL     1      -8.819   8.204  73.328  1.00  0.00    -0.324 C  
ENDBRANCH  21  28
ENDBRANCH   3  11
TORSDOF 2
ENDMDL
MODEL       76
REMARK 921   NORMALIZED FREE ENERGY PREDICTED BY IDOCK:   -4.61 KCAL/MOL
REMARK 922        TOTAL FREE ENERGY PREDICTED BY IDOCK:   -5.92 KCAL/MOL
REMARK 923 INTER-LIGAND FREE ENERGY PREDICTED BY IDOCK:   -5.12 KCAL/MOL
REMARK 924 INTRA-LIGAND FREE ENERGY PREDICTED BY IDOCK:   -0.80 KCAL/MOL
REMARK 927      BINDING AFFINITY PREDICTED BY RF-SCORE:    0.00 PKD
ROOT
HETATM    1  C   UNL     1      -8.583   7.645  65.668  1.00  0.00    -0.123 C  
HETATM    2  C   UNL     1      -8.582   8.747  66.749  1.00  0.00    -0.115 C  
HETATM    3  N   UNL     1      -8.254   9.985  66.002  1.00  0.00    -0.123 NA 
HETATM    4  H   UNL     1      -8.975   5.888  66.745  1.00  0.00     0.000 HD 
HETATM    5  C   UNL     1      -7.855   9.630  64.618  1.00  0.00    -0.133 C  
HETATM    6  C   UNL     1      -7.499   8.146  64.708  1.00  0.00    -0.094 C  
HETATM    7  N   UNL     1      -8.306   6.251  66.067  1.00  0.00    -0.131 NA 
HETATM    8  O   UNL     1      -7.575   7.431  63.474  1.00  0.00    -0.107 OA 
HETATM    9  C   UNL     1      -8.244   5.445  64.822  1.00  0.00    -0.132 C  
HETATM   10  C   UNL     1      -7.327   6.034  63.721  1.00  0.00    -0.066 C  
ENDROOT
BRANCH   3  11
HETATM   11  C   UNL     1      -8.633  11.277  66.370  1.00  0.00    -0.174 A  
HETATM   12  C   UNL     1      -9.494  13.925  66.968  1.00  0.00    -0.256 A  
HETATM   13  C   UNL     1      -9.984  15.307  67.189  1.00  0.00    -0.233 C  
HETATM   14  C   UNL     1     -10.355  13.037  66.341  1.00  0.00    -0.287 A  
HETATM   15  C   UNL     1      -9.082  16.283  67.815  1.00  0.00    -0.195 C  
HETATM   16  C   UNL     1      -9.930  11.747  66.067  1.00  0.00    -0.229 A  
HETATM   17  O   UNL     1     -11.109  15.654  66.838  1.00  0.00    -0.287 OA 
HETATM   18  C   UNL     1      -7.878  15.829  68.180  1.00  0.00    -0.131 C  
HETATM   19  C   UNL     1      -9.454  17.683  68.109  1.00  0.00    -0.286 C  
HETATM   20  F   UNL     1     -10.839  10.955  65.481  1.00  0.00    -0.301 F  
HETATM   21  N   UNL     1      -7.408  14.528  68.061  1.00  0.00    -0.122 NA 
HETATM   22  O   UNL     1      -8.718  18.463  68.696  1.00  0.00    -0.318 OA 
HETATM   23  O   UNL     1     -10.689  18.034  67.691  1.00  0.00    -0.415 OA 
HETATM   24  N   UNL     1      -5.228  11.658  67.177  1.00  0.00    -0.083 NA 
HETATM   25  C   UNL     1      -8.193  13.544  67.362  1.00  0.00    -0.181 A  
HETATM   26  C   UNL     1      -7.757  12.228  66.998  1.00  0.00    -0.089 A  
HETATM   27  C   UNL     1      -6.361  11.909  67.109  1.00  0.00    -0.151 C  
BRANCH  21  28
HETATM   28  C   UNL     1      -6.257  14.196  68.936  1.00  0.00    -0.087 C  
HETATM   29  C   UNL     1      -5.243  15.258  69.322  1.00  0.00    -0.095 C  
HETATM   30  C   UNL     1      -6.146  14.681  70.362  1.00  0.00    -0.173 C  
ENDBRANCH  21  28
ENDBRANCH   3  11
TORSDOF 2
ENDMDL
MODEL       77
REMARK 921   NORMALIZED FREE ENERGY PREDICTED BY IDOCK:   -4.53 KCAL/MOL
REMARK 922        TOTAL FREE ENERGY PREDICTED BY IDOCK:   -5.84 KCAL/MOL
REMARK 923 INTER-LIGAND FREE ENERGY PREDICTED BY IDOCK:   -5.17 KCAL/MOL
REMARK 924 INTRA-LIGAND FREE ENERGY PREDICTED BY IDOCK:   -0.67 KCAL/MOL
REMARK 927      BINDING AFFINITY PREDICTED BY RF-SCORE:    0.00 PKD
ROOT
HETATM    1  C   UNL     1      -9.135   7.026  68.675  1.00  0.00    -0.132 C  
HETATM    2  C   UNL     1      -8.152   8.207  68.829  1.00  0.00    -0.120 C  
HETATM    3  N   UNL     1      -8.475   9.098  67.688  1.00  0.00    -0.116 NA 
HETATM    4  H   UNL     1      -8.621   5.738  70.249  1.00  0.00     0.000 HD 
HETATM    5  C   UNL     1      -9.417   8.402  66.777  1.00  0.00    -0.197 C  
HETATM    6  C   UNL     1      -9.269   6.928  67.151  1.00  0.00    -0.139 C  
HETATM    7  N   UNL     1      -8.770   5.713  69.240  1.00  0.00    -0.108 NA 
HETATM    8  O   UNL     1     -10.386   6.105  66.815  1.00  0.00    -0.203 OA 
HETATM    9  C   UNL     1      -9.827   4.754  68.832  1.00  0.00    -0.160 C  
HETATM   10  C   UNL     1     -10.163   4.774  67.321  1.00  0.00    -0.103 C  
ENDROOT
BRANCH   3  11
HETATM   11  C   UNL     1      -8.275  10.478  67.658  1.00  0.00    -0.111 A  
HETATM   12  C   UNL     1      -7.698  13.268  67.632  1.00  0.00    -0.171 A  
HETATM   13  C   UNL     1      -7.304  14.696  67.644  1.00  0.00    -0.185 C  
HETATM   14  C   UNL     1      -6.798  12.363  67.087  1.00  0.00    -0.077 A  
HETATM   15  C   UNL     1      -8.217  15.674  68.249  1.00  0.00    -0.142 C  
HETATM   16  C   UNL     1      -7.095  11.011  67.093  1.00  0.00    -0.104 A  
HETATM   17  O   UNL     1      -6.226  15.071  67.188  1.00  0.00    -0.264 OA 
HETATM   18  C   UNL     1      -9.375  15.194  68.717  1.00  0.00    -0.200 C  
HETATM   19  C   UNL     1      -7.954  17.127  68.308  1.00  0.00    -0.236 C  
HETATM   20  F   UNL     1      -6.176  10.217  66.524  1.00  0.00    -0.060 F  
HETATM   21  N   UNL     1      -9.815  13.878  68.656  1.00  0.00    -0.209 NA 
HETATM   22  O   UNL     1      -8.755  17.937  68.750  1.00  0.00    -0.279 OA 
HETATM   23  O   UNL     1      -6.753  17.499  67.815  1.00  0.00    -0.167 OA 
HETATM   24  N   UNL     1     -11.133  10.573  69.711  1.00  0.00    -0.275 NA 
HETATM   25  C   UNL     1      -8.932  12.849  68.175  1.00  0.00    -0.202 A  
HETATM   26  C   UNL     1      -9.177  11.438  68.234  1.00  0.00    -0.183 A  
HETATM   27  C   UNL     1     -10.266  10.961  69.041  1.00  0.00    -0.203 C  
BRANCH  21  28
HETATM   28  C   UNL     1     -11.279  13.700  68.817  1.00  0.00    -0.279 C  
HETATM   29  C   UNL     1     -11.960  14.020  70.137  1.00  0.00    -0.399 C  
HETATM   30  C   UNL     1     -12.237  14.861  68.935  1.00  0.00    -0.143 C  
ENDBRANCH  21  28
ENDBRANCH   3  11
TORSDOF 2
ENDMDL
MODEL       78
REMARK 921   NORMALIZED FREE ENERGY PREDICTED BY IDOCK:   -4.49 KCAL/MOL
REMARK 922        TOTAL FREE ENERGY PREDICTED BY IDOCK:   -5.79 KCAL/MOL
REMARK 923 INTER-LIGAND FREE ENERGY PREDICTED BY IDOCK:   -6.76 KCAL/MOL
REMARK 924 INTRA-LIGAND FREE ENERGY PREDICTED BY IDOCK:    0.97 KCAL/MOL
REMARK 927      BINDING AFFINITY PREDICTED BY RF-SCORE:    0.00 PKD
ROOT
HETATM    1  C   UNL     1     -12.852  13.270  70.450  1.00  0.00     0.085 C  
HETATM    2  C   UNL     1     -11.697  12.389  69.926  1.00  0.00    -0.266 C  
HETATM    3  N   UNL     1     -11.799  11.145  70.726  1.00  0.00    -0.290 NA 
HETATM    4  H   UNL     1     -12.652  15.055  69.366  1.00  0.00     0.000 HD 
HETATM    5  C   UNL     1     -12.789  11.343  71.812  1.00  0.00    -0.344 C  
HETATM    6  C   UNL     1     -12.912  12.862  71.926  1.00  0.00    -0.301 C  
HETATM    7  N   UNL     1     -12.744  14.737  70.330  1.00  0.00    -0.339 NA 
HETATM    8  O   UNL     1     -14.129  13.328  72.509  1.00  0.00    -0.709 OA 
HETATM    9  C   UNL     1     -13.921  15.318  71.024  1.00  0.00    -0.282 C  
HETATM   10  C   UNL     1     -14.161  14.767  72.452  1.00  0.00    -0.448 C  
ENDROOT
BRANCH   3  11
HETATM   11  C   UNL     1     -11.371   9.882  70.315  1.00  0.00    -0.291 A  
HETATM   12  C   UNL     1     -10.498   7.254  69.647  1.00  0.00    -0.239 A  
HETATM   13  C   UNL     1     -10.040   5.867  69.397  1.00  0.00    -0.202 C  
HETATM   14  C   UNL     1     -11.442   7.443  70.646  1.00  0.00    -0.307 A  
HETATM   15  C   UNL     1      -9.012   5.638  68.373  1.00  0.00    -0.114 C  
HETATM   16  C   UNL     1     -11.869   8.724  70.953  1.00  0.00    -0.230 A  
HETATM   17  O   UNL     1     -10.479   4.918  70.043  1.00  0.00    -0.244 OA 
HETATM   18  C   UNL     1      -8.590   6.716  67.705  1.00  0.00    -0.120 C  
HETATM   19  C   UNL     1      -8.485   4.305  68.013  1.00  0.00    -0.094 C  
HETATM   20  F   UNL     1     -12.799   8.805  71.916  1.00  0.00    -0.321 F  
HETATM   21  N   UNL     1      -9.047   8.019  67.855  1.00  0.00    -0.132 NA 
HETATM   22  O   UNL     1      -7.683   4.122  67.109  1.00  0.00    -0.086 OA 
HETATM   23  O   UNL     1      -8.975   3.289  68.756  1.00  0.00    -0.104 OA 
HETATM   24  N   UNL     1      -9.047  11.692  68.388  1.00  0.00    -0.185 NA 
HETATM   25  C   UNL     1      -9.973   8.337  68.909  1.00  0.00    -0.186 A  
HETATM   26  C   UNL     1     -10.379   9.655  69.301  1.00  0.00    -0.223 A  
HETATM   27  C   UNL     1      -9.650  10.781  68.786  1.00  0.00    -0.189 C  
BRANCH  21  28
HETATM   28  C   UNL     1      -8.761   8.918  66.709  1.00  0.00    -0.119 C  
HETATM   29  C   UNL     1      -8.616   8.363  65.302  1.00  0.00    -0.177 C  
HETATM   30  C   UNL     1      -9.780   9.235  65.641  1.00  0.00    -0.302 C  
ENDBRANCH  21  28
ENDBRANCH   3  11
TORSDOF 2
ENDMDL
MODEL       79
REMARK 921   NORMALIZED FREE ENERGY PREDICTED BY IDOCK:   -4.39 KCAL/MOL
REMARK 922        TOTAL FREE ENERGY PREDICTED BY IDOCK:   -5.68 KCAL/MOL
REMARK 923 INTER-LIGAND FREE ENERGY PREDICTED BY IDOCK:   -4.83 KCAL/MOL
REMARK 924 INTRA-LIGAND FREE ENERGY PREDICTED BY IDOCK:   -0.85 KCAL/MOL
REMARK 927      BINDING AFFINITY PREDICTED BY RF-SCORE:    0.00 PKD
ROOT
HETATM    1  C   UNL     1      -7.955   5.770  67.188  1.00  0.00    -0.102 C  
HETATM    2  C   UNL     1      -7.714   7.147  67.844  1.00  0.00    -0.113 C  
HETATM    3  N   UNL     1      -8.251   8.116  66.859  1.00  0.00    -0.110 NA 
HETATM    4  H   UNL     1      -7.126   4.412  68.554  1.00  0.00     0.000 HD 
HETATM    5  C   UNL     1      -8.579   7.402  65.600  1.00  0.00    -0.112 C  
HETATM    6  C   UNL     1      -7.788   6.098  65.700  1.00  0.00    -0.104 C  
HETATM    7  N   UNL     1      -7.086   4.637  67.561  1.00  0.00    -0.064 NA 
HETATM    8  O   UNL     1      -8.293   5.024  64.907  1.00  0.00    -0.128 OA 
HETATM    9  C   UNL     1      -7.461   3.495  66.690  1.00  0.00    -0.076 C  
HETATM   10  C   UNL     1      -7.528   3.834  65.180  1.00  0.00    -0.073 C  
ENDROOT
BRANCH   3  11
HETATM   11  C   UNL     1      -8.751   9.383  67.160  1.00  0.00    -0.128 A  
HETATM   12  C   UNL     1      -9.922  11.924  67.696  1.00  0.00    -0.197 A  
HETATM   13  C   UNL     1     -10.612  13.216  67.924  1.00  0.00    -0.234 C  
HETATM   14  C   UNL     1     -10.684  10.769  67.797  1.00  0.00    -0.296 A  
HETATM   15  C   UNL     1      -9.843  14.459  67.786  1.00  0.00    -0.221 C  
HETATM   16  C   UNL     1     -10.101   9.538  67.547  1.00  0.00    -0.204 A  
HETATM   17  O   UNL     1     -11.809  13.267  68.196  1.00  0.00    -0.335 OA 
HETATM   18  C   UNL     1      -8.544  14.324  67.499  1.00  0.00    -0.196 C  
HETATM   19  C   UNL     1     -10.404  15.809  68.005  1.00  0.00    -0.252 C  
HETATM   20  F   UNL     1     -10.909   8.478  67.692  1.00  0.00    -0.296 F  
HETATM   21  N   UNL     1      -7.844  13.133  67.353  1.00  0.00    -0.177 NA 
HETATM   22  O   UNL     1      -9.735  16.830  67.958  1.00  0.00    -0.235 OA 
HETATM   23  O   UNL     1     -11.726  15.827  68.283  1.00  0.00    -0.345 OA 
HETATM   24  N   UNL     1      -5.665  10.507  65.895  1.00  0.00    -0.096 NA 
HETATM   25  C   UNL     1      -8.550  11.880  67.368  1.00  0.00    -0.164 A  
HETATM   26  C   UNL     1      -7.994  10.599  67.043  1.00  0.00    -0.121 A  
HETATM   27  C   UNL     1      -6.701  10.548  66.419  1.00  0.00    -0.114 C  
BRANCH  21  28
HETATM   28  C   UNL     1      -6.371  13.253  67.494  1.00  0.00    -0.121 C  
HETATM   29  C   UNL     1      -5.742  14.528  68.028  1.00  0.00    -0.140 C  
HETATM   30  C   UNL     1      -5.676  13.273  68.834  1.00  0.00    -0.074 C  
ENDBRANCH  21  28
ENDBRANCH   3  11
TORSDOF 2
ENDMDL
MODEL       80
REMARK 921   NORMALIZED FREE ENERGY PREDICTED BY IDOCK:   -4.37 KCAL/MOL
REMARK 922        TOTAL FREE ENERGY PREDICTED BY IDOCK:   -5.66 KCAL/MOL
REMARK 923 INTER-LIGAND FREE ENERGY PREDICTED BY IDOCK:   -5.04 KCAL/MOL
REMARK 924 INTRA-LIGAND FREE ENERGY PREDICTED BY IDOCK:   -0.62 KCAL/MOL
REMARK 927      BINDING AFFINITY PREDICTED BY RF-SCORE:    0.00 PKD
ROOT
HETATM    1  C   UNL     1      -7.162   7.847  67.900  1.00  0.00    -0.091 C  
HETATM    2  C   UNL     1      -7.976   8.817  67.016  1.00  0.00    -0.095 C  
HETATM    3  N   UNL     1      -8.531   9.801  67.975  1.00  0.00    -0.117 NA 
HETATM    4  H   UNL     1      -6.443   6.417  66.544  1.00  0.00     0.000 HD 
HETATM    5  C   UNL     1      -8.271   9.335  69.359  1.00  0.00    -0.114 C  
HETATM    6  C   UNL     1      -7.980   7.843  69.196  1.00  0.00    -0.118 C  
HETATM    7  N   UNL     1      -6.942   6.465  67.432  1.00  0.00    -0.072 NA 
HETATM    8  O   UNL     1      -7.215   7.259  70.250  1.00  0.00    -0.064 OA 
HETATM    9  C   UNL     1      -6.252   5.739  68.528  1.00  0.00    -0.029 C  
HETATM   10  C   UNL     1      -6.919   5.889  69.917  1.00  0.00    -0.066 C  
ENDROOT
BRANCH   3  11
HETATM   11  C   UNL     1      -8.871  11.121  67.675  1.00  0.00    -0.136 A  
HETATM   12  C   UNL     1      -9.648  13.754  66.916  1.00  0.00    -0.263 A  
HETATM   13  C   UNL     1     -10.091  15.086  66.438  1.00  0.00    -0.276 C  
HETATM   14  C   UNL     1     -10.522  12.691  66.741  1.00  0.00    -0.254 A  
HETATM   15  C   UNL     1      -9.173  16.224  66.573  1.00  0.00    -0.299 C  
HETATM   16  C   UNL     1     -10.139  11.417  67.126  1.00  0.00    -0.198 A  
HETATM   17  O   UNL     1     -11.189  15.247  65.912  1.00  0.00    -0.322 OA 
HETATM   18  C   UNL     1      -8.000  15.974  67.165  1.00  0.00    -0.201 C  
HETATM   19  C   UNL     1      -9.499  17.604  66.157  1.00  0.00    -0.158 C  
HETATM   20  F   UNL     1     -11.058  10.459  66.939  1.00  0.00    -0.303 F  
HETATM   21  N   UNL     1      -7.578  14.761  67.694  1.00  0.00    -0.158 NA 
HETATM   22  O   UNL     1      -8.754  18.554  66.341  1.00  0.00    -0.299 OA 
HETATM   23  O   UNL     1     -10.705  17.740  65.565  1.00  0.00    -0.578 OA 
HETATM   24  N   UNL     1      -5.482  11.773  68.367  1.00  0.00    -0.045 NA 
HETATM   25  C   UNL     1      -8.376  13.579  67.504  1.00  0.00    -0.184 A  
HETATM   26  C   UNL     1      -7.980  12.239  67.823  1.00  0.00    -0.154 A  
HETATM   27  C   UNL     1      -6.602  11.984  68.136  1.00  0.00    -0.055 C  
BRANCH  21  28
HETATM   28  C   UNL     1      -6.469  14.859  68.676  1.00  0.00    -0.083 C  
HETATM   29  C   UNL     1      -6.295  16.105  69.528  1.00  0.00    -0.191 C  
HETATM   30  C   UNL     1      -6.692  14.815  70.169  1.00  0.00    -0.114 C  
ENDBRANCH  21  28
ENDBRANCH   3  11
TORSDOF 2
ENDMDL
MODEL       81
REMARK 921   NORMALIZED FREE ENERGY PREDICTED BY IDOCK:   -4.26 KCAL/MOL
REMARK 922        TOTAL FREE ENERGY PREDICTED BY IDOCK:   -5.54 KCAL/MOL
REMARK 923 INTER-LIGAND FREE ENERGY PREDICTED BY IDOCK:   -5.61 KCAL/MOL
REMARK 924 INTRA-LIGAND FREE ENERGY PREDICTED BY IDOCK:    0.08 KCAL/MOL
REMARK 927      BINDING AFFINITY PREDICTED BY RF-SCORE:    0.00 PKD
ROOT
HETATM    1  C   UNL     1     -11.930   8.447  71.546  1.00  0.00    -0.299 C  
HETATM    2  C   UNL     1     -11.092   9.421  70.689  1.00  0.00    -0.289 C  
HETATM    3  N   UNL     1     -12.018  10.544  70.409  1.00  0.00    -0.307 NA 
HETATM    4  H   UNL     1     -10.636   6.828  71.874  1.00  0.00     0.000 HD 
HETATM    5  C   UNL     1     -13.382  10.177  70.860  1.00  0.00    -0.207 C  
HETATM    6  C   UNL     1     -13.335   8.653  70.971  1.00  0.00     0.111 C  
HETATM    7  N   UNL     1     -11.584   7.012  71.545  1.00  0.00    -0.272 NA 
HETATM    8  O   UNL     1     -14.307   8.081  71.847  1.00  0.00    -0.417 OA 
HETATM    9  C   UNL     1     -12.623   6.312  72.341  1.00  0.00     0.123 C  
HETATM   10  C   UNL     1     -14.079   6.662  71.945  1.00  0.00     0.055 C  
ENDROOT
BRANCH   3  11
HETATM   11  C   UNL     1     -11.637  11.862  70.153  1.00  0.00    -0.167 A  
HETATM   12  C   UNL     1     -11.028  14.599  69.651  1.00  0.00    -0.255 A  
HETATM   13  C   UNL     1     -10.808  16.043  69.398  1.00  0.00    -0.300 C  
HETATM   14  C   UNL     1     -11.944  14.257  70.635  1.00  0.00    -0.392 A  
HETATM   15  C   UNL     1      -9.874  16.438  68.337  1.00  0.00    -0.233 C  
HETATM   16  C   UNL     1     -12.223  12.922  70.879  1.00  0.00    -0.198 A  
HETATM   17  O   UNL     1     -11.408  16.906  70.035  1.00  0.00     0.100 OA 
HETATM   18  C   UNL     1      -9.251  15.444  67.694  1.00  0.00    -0.187 C  
HETATM   19  C   UNL     1      -9.551  17.840  67.998  1.00  0.00    -0.291 C  
HETATM   20  F   UNL     1     -13.103  12.689  71.864  1.00  0.00    -0.472 F  
HETATM   21  N   UNL     1      -9.370  14.084  67.951  1.00  0.00    -0.199 NA 
HETATM   22  O   UNL     1      -8.717  18.153  67.161  1.00  0.00    -0.240 OA 
HETATM   23  O   UNL     1     -10.243  18.760  68.703  1.00  0.00    -0.381 OA 
HETATM   24  N   UNL     1      -9.927  10.454  67.417  1.00  0.00    -0.181 NA 
HETATM   25  C   UNL     1     -10.344  13.617  68.901  1.00  0.00    -0.114 A  
HETATM   26  C   UNL     1     -10.709  12.249  69.126  1.00  0.00    -0.089 A  
HETATM   27  C   UNL     1     -10.266  11.256  68.187  1.00  0.00    -0.180 C  
BRANCH  21  28
HETATM   28  C   UNL     1      -8.259  13.250  67.430  1.00  0.00    -0.183 C  
HETATM   29  C   UNL     1      -6.835  13.777  67.408  1.00  0.00    -0.038 C  
HETATM   30  C   UNL     1      -7.197  12.652  68.321  1.00  0.00    -0.113 C  
ENDBRANCH  21  28
ENDBRANCH   3  11
TORSDOF 2
ENDMDL
MODEL       82
REMARK 921   NORMALIZED FREE ENERGY PREDICTED BY IDOCK:   -4.03 KCAL/MOL
REMARK 922        TOTAL FREE ENERGY PREDICTED BY IDOCK:   -5.28 KCAL/MOL
REMARK 923 INTER-LIGAND FREE ENERGY PREDICTED BY IDOCK:   -4.51 KCAL/MOL
REMARK 924 INTRA-LIGAND FREE ENERGY PREDICTED BY IDOCK:   -0.77 KCAL/MOL
REMARK 927      BINDING AFFINITY PREDICTED BY RF-SCORE:    0.00 PKD
ROOT
HETATM    1  C   UNL     1     -11.399  11.916  66.745  1.00  0.00    -0.330 C  
HETATM    2  C   UNL     1     -11.152  10.394  66.838  1.00  0.00    -0.010 C  
HETATM    3  N   UNL     1      -9.784  10.283  67.399  1.00  0.00    -0.157 NA 
HETATM    4  H   UNL     1     -13.305  12.063  65.883  1.00  0.00     0.000 HD 
HETATM    5  C   UNL     1      -9.157  11.627  67.425  1.00  0.00    -0.169 C  
HETATM    6  C   UNL     1      -9.992  12.443  66.439  1.00  0.00    -0.242 C  
HETATM    7  N   UNL     1     -12.362  12.426  65.750  1.00  0.00    -0.603 NA 
HETATM    8  O   UNL     1      -9.950  13.856  66.637  1.00  0.00    -0.264 OA 
HETATM    9  C   UNL     1     -12.296  13.908  65.799  1.00  0.00    -0.486 C  
HETATM   10  C   UNL     1     -10.863  14.490  65.720  1.00  0.00    -0.315 C  
ENDROOT
BRANCH   3  11
HETATM   11  C   UNL     1      -9.302   9.209  68.148  1.00  0.00    -0.138 A  
HETATM   12  C   UNL     1      -8.270   7.133  69.804  1.00  0.00    -0.131 A  
HETATM   13  C   UNL     1      -7.704   6.124  70.729  1.00  0.00    -0.102 C  
HETATM   14  C   UNL     1      -8.963   8.196  70.366  1.00  0.00    -0.146 A  
HETATM   15  C   UNL     1      -6.932   5.008  70.167  1.00  0.00    -0.052 C  
HETATM   16  C   UNL     1      -9.471   9.193  69.551  1.00  0.00    -0.168 A  
HETATM   17  O   UNL     1      -7.843   6.217  71.946  1.00  0.00    -0.100 OA 
HETATM   18  C   UNL     1      -6.832   4.967  68.834  1.00  0.00    -0.051 C  
HETATM   19  C   UNL     1      -6.332   3.926  70.976  1.00  0.00    -0.019 C  
HETATM   20  F   UNL     1     -10.145  10.165  70.182  1.00  0.00    -0.275 F  
HETATM   21  N   UNL     1      -7.410   5.848  67.930  1.00  0.00    -0.076 NA 
HETATM   22  O   UNL     1      -5.755   2.965  70.490  1.00  0.00    -0.015 OA 
HETATM   23  O   UNL     1      -6.488   4.072  72.310  1.00  0.00    -0.019 OA 
HETATM   24  N   UNL     1      -7.775   8.252  65.125  1.00  0.00    -0.096 NA 
HETATM   25  C   UNL     1      -8.089   7.023  68.408  1.00  0.00    -0.124 A  
HETATM   26  C   UNL     1      -8.562   8.107  67.598  1.00  0.00    -0.130 A  
HETATM   27  C   UNL     1      -8.136   8.180  66.227  1.00  0.00    -0.107 C  
BRANCH  21  28
HETATM   28  C   UNL     1      -7.531   5.332  66.544  1.00  0.00    -0.087 C  
HETATM   29  C   UNL     1      -6.295   5.086  65.695  1.00  0.00    -0.035 C  
HETATM   30  C   UNL     1      -7.123   3.931  66.153  1.00  0.00    -0.064 C  
ENDBRANCH  21  28
ENDBRANCH   3  11
TORSDOF 2
ENDMDL
MODEL       83
REMARK 921   NORMALIZED FREE ENERGY PREDICTED BY IDOCK:   -3.93 KCAL/MOL
REMARK 922        TOTAL FREE ENERGY PREDICTED BY IDOCK:   -5.17 KCAL/MOL
REMARK 923 INTER-LIGAND FREE ENERGY PREDICTED BY IDOCK:   -5.26 KCAL/MOL
REMARK 924 INTRA-LIGAND FREE ENERGY PREDICTED BY IDOCK:    0.09 KCAL/MOL
REMARK 927      BINDING AFFINITY PREDICTED BY RF-SCORE:    0.00 PKD
ROOT
HETATM    1  C   UNL     1     -11.334  11.967  69.934  1.00  0.00    -0.065 C  
HETATM    2  C   UNL     1     -11.294  10.558  70.564  1.00  0.00    -0.314 C  
HETATM    3  N   UNL     1     -10.790   9.689  69.474  1.00  0.00    -0.232 NA 
HETATM    4  H   UNL     1     -12.118  13.175  71.460  1.00  0.00     0.000 HD 
HETATM    5  C   UNL     1     -10.750  10.465  68.210  1.00  0.00    -0.235 C  
HETATM    6  C   UNL     1     -11.680  11.649  68.476  1.00  0.00    -0.315 C  
HETATM    7  N   UNL     1     -12.277  12.966  70.475  1.00  0.00    -0.361 NA 
HETATM    8  O   UNL     1     -11.444  12.797  67.660  1.00  0.00    -0.292 OA 
HETATM    9  C   UNL     1     -12.189  14.165  69.604  1.00  0.00    -0.326 C  
HETATM   10  C   UNL     1     -12.307  13.868  68.089  1.00  0.00     0.036 C  
ENDROOT
BRANCH   3  11
HETATM   11  C   UNL     1     -10.090   8.495  69.649  1.00  0.00    -0.202 A  
HETATM   12  C   UNL     1      -8.631   6.055  69.832  1.00  0.00    -0.131 A  
HETATM   13  C   UNL     1      -7.863   4.788  69.827  1.00  0.00    -0.066 C  
HETATM   14  C   UNL     1      -8.205   7.061  68.975  1.00  0.00    -0.125 A  
HETATM   15  C   UNL     1      -8.310   3.689  70.694  1.00  0.00    -0.092 C  
HETATM   16  C   UNL     1      -8.915   8.248  68.904  1.00  0.00    -0.144 A  
HETATM   17  O   UNL     1      -6.885   4.630  69.100  1.00  0.00    -0.047 OA 
HETATM   18  C   UNL     1      -9.375   3.938  71.464  1.00  0.00    -0.136 C  
HETATM   19  C   UNL     1      -7.624   2.385  70.798  1.00  0.00    -0.036 C  
HETATM   20  F   UNL     1      -8.414   9.168  68.067  1.00  0.00    -0.117 F  
HETATM   21  N   UNL     1     -10.076   5.134  71.554  1.00  0.00    -0.186 NA 
HETATM   22  O   UNL     1      -7.966   1.507  71.577  1.00  0.00    -0.040 OA 
HETATM   23  O   UNL     1      -6.567   2.241  69.971  1.00  0.00    -0.028 OA 
HETATM   24  N   UNL     1     -12.890   7.554  71.563  1.00  0.00    -0.353 NA 
HETATM   25  C   UNL     1      -9.762   6.217  70.660  1.00  0.00    -0.176 A  
HETATM   26  C   UNL     1     -10.518   7.426  70.509  1.00  0.00    -0.227 A  
HETATM   27  C   UNL     1     -11.824   7.501  71.103  1.00  0.00    -0.299 C  
BRANCH  21  28
HETATM   28  C   UNL     1     -10.895   5.288  72.782  1.00  0.00    -0.261 C  
HETATM   29  C   UNL     1     -11.654   4.107  73.362  1.00  0.00    -0.162 C  
HETATM   30  C   UNL     1     -10.500   4.689  74.110  1.00  0.00    -0.333 C  
ENDBRANCH  21  28
ENDBRANCH   3  11
TORSDOF 2
ENDMDL
MODEL       84
REMARK 921   NORMALIZED FREE ENERGY PREDICTED BY IDOCK:   -3.92 KCAL/MOL
REMARK 922        TOTAL FREE ENERGY PREDICTED BY IDOCK:   -5.15 KCAL/MOL
REMARK 923 INTER-LIGAND FREE ENERGY PREDICTED BY IDOCK:   -4.45 KCAL/MOL
REMARK 924 INTRA-LIGAND FREE ENERGY PREDICTED BY IDOCK:   -0.70 KCAL/MOL
REMARK 927      BINDING AFFINITY PREDICTED BY RF-SCORE:    0.00 PKD
ROOT
HETATM    1  C   UNL     1      -8.504   5.039  67.162  1.00  0.00    -0.106 C  
HETATM    2  C   UNL     1      -7.634   6.226  67.630  1.00  0.00    -0.097 C  
HETATM    3  N   UNL     1      -7.728   7.203  66.518  1.00  0.00    -0.098 NA 
HETATM    4  H   UNL     1      -8.304   3.634  68.707  1.00  0.00     0.000 HD 
HETATM    5  C   UNL     1      -8.408   6.566  65.364  1.00  0.00    -0.140 C  
HETATM    6  C   UNL     1      -8.285   5.069  65.645  1.00  0.00    -0.117 C  
HETATM    7  N   UNL     1      -8.220   3.691  67.692  1.00  0.00    -0.088 NA 
HETATM    8  O   UNL     1      -9.260   4.250  64.999  1.00  0.00    -0.140 OA 
HETATM    9  C   UNL     1      -9.114   2.745  66.979  1.00  0.00    -0.159 C  
HETATM   10  C   UNL     1      -9.100   2.887  65.437  1.00  0.00    -0.149 C  
ENDROOT
BRANCH   3  11
HETATM   11  C   UNL     1      -7.588   8.586  66.642  1.00  0.00    -0.082 A  
HETATM   12  C   UNL     1      -7.157  11.380  66.994  1.00  0.00    -0.138 A  
HETATM   13  C   UNL     1      -6.856  12.811  67.237  1.00  0.00    -0.080 C  
HETATM   14  C   UNL     1      -6.080  10.526  66.803  1.00  0.00    -0.068 A  
HETATM   15  C   UNL     1      -7.972  13.734  67.482  1.00  0.00    -0.190 C  
HETATM   16  C   UNL     1      -6.302   9.171  66.620  1.00  0.00    -0.066 A  
HETATM   17  O   UNL     1      -5.702  13.230  67.265  1.00  0.00    -0.352 OA 
HETATM   18  C   UNL     1      -9.200  13.207  67.427  1.00  0.00    -0.213 C  
HETATM   19  C   UNL     1      -7.811  15.184  67.717  1.00  0.00    -0.147 C  
HETATM   20  F   UNL     1      -5.203   8.430  66.420  1.00  0.00    -0.026 F  
HETATM   21  N   UNL     1      -9.529  11.891  67.127  1.00  0.00    -0.175 NA 
HETATM   22  O   UNL     1      -8.753  15.951  67.847  1.00  0.00    -0.166 OA 
HETATM   23  O   UNL     1      -6.529  15.605  67.760  1.00  0.00    -0.132 OA 
HETATM   24  N   UNL     1     -11.025   8.505  67.398  1.00  0.00     0.012 NA 
HETATM   25  C   UNL     1      -8.488  10.908  66.982  1.00  0.00    -0.134 A  
HETATM   26  C   UNL     1      -8.681   9.493  66.864  1.00  0.00    -0.136 A  
HETATM   27  C   UNL     1      -9.980   8.949  67.147  1.00  0.00    -0.226 C  
BRANCH  21  28
HETATM   28  C   UNL     1     -10.930  11.681  66.686  1.00  0.00    -0.299 C  
HETATM   29  C   UNL     1     -11.779  12.848  66.214  1.00  0.00    -0.457 C  
HETATM   30  C   UNL     1     -11.360  11.793  65.243  1.00  0.00    -0.284 C  
ENDBRANCH  21  28
ENDBRANCH   3  11
TORSDOF 2
ENDMDL
MODEL       85
REMARK 921   NORMALIZED FREE ENERGY PREDICTED BY IDOCK:   -3.89 KCAL/MOL
REMARK 922        TOTAL FREE ENERGY PREDICTED BY IDOCK:   -5.12 KCAL/MOL
REMARK 923 INTER-LIGAND FREE ENERGY PREDICTED BY IDOCK:   -4.29 KCAL/MOL
REMARK 924 INTRA-LIGAND FREE ENERGY PREDICTED BY IDOCK:   -0.84 KCAL/MOL
REMARK 927      BINDING AFFINITY PREDICTED BY RF-SCORE:    0.00 PKD
ROOT
HETATM    1  C   UNL     1      -8.823  16.412  68.527  1.00  0.00    -0.224 C  
HETATM    2  C   UNL     1      -9.227  14.930  68.689  1.00  0.00    -0.193 C  
HETATM    3  N   UNL     1      -8.129  14.182  68.031  1.00  0.00    -0.136 NA 
HETATM    4  H   UNL     1     -10.418  17.462  69.395  1.00  0.00     0.000 HD 
HETATM    5  C   UNL     1      -7.246  15.138  67.318  1.00  0.00    -0.162 C  
HETATM    6  C   UNL     1      -8.104  16.394  67.173  1.00  0.00    -0.181 C  
HETATM    7  N   UNL     1      -9.878  17.445  68.531  1.00  0.00    -0.303 NA 
HETATM    8  O   UNL     1      -7.374  17.608  66.997  1.00  0.00    -0.177 OA 
HETATM    9  C   UNL     1      -9.218  18.741  68.230  1.00  0.00    -0.331 C  
HETATM   10  C   UNL     1      -8.293  18.717  66.989  1.00  0.00    -0.269 C  
ENDROOT
BRANCH   3  11
HETATM   11  C   UNL     1      -7.736  12.880  68.342  1.00  0.00    -0.133 A  
HETATM   12  C   UNL     1      -6.769  10.281  68.993  1.00  0.00    -0.055 A  
HETATM   13  C   UNL     1      -6.174   8.967  69.334  1.00  0.00    -0.041 C  
HETATM   14  C   UNL     1      -6.263  11.397  69.643  1.00  0.00    -0.118 A  
HETATM   15  C   UNL     1      -6.661   7.770  68.635  1.00  0.00    -0.058 C  
HETATM   16  C   UNL     1      -6.750  12.655  69.328  1.00  0.00    -0.054 A  
HETATM   17  O   UNL     1      -5.271   8.864  70.161  1.00  0.00    -0.028 OA 
HETATM   18  C   UNL     1      -7.651   7.959  67.756  1.00  0.00    -0.109 C  
HETATM   19  C   UNL     1      -6.168   6.402  68.895  1.00  0.00    -0.033 C  
HETATM   20  F   UNL     1      -6.217  13.669  70.024  1.00  0.00    -0.124 F  
HETATM   21  N   UNL     1      -8.288   9.158  67.464  1.00  0.00    -0.115 NA 
HETATM   22  O   UNL     1      -6.633   5.408  68.358  1.00  0.00    -0.045 OA 
HETATM   23  O   UNL     1      -5.163   6.330  69.794  1.00  0.00    -0.012 OA 
HETATM   24  N   UNL     1      -9.673  12.009  65.535  1.00  0.00    -0.229 NA 
HETATM   25  C   UNL     1      -7.795  10.386  68.029  1.00  0.00    -0.104 A  
HETATM   26  C   UNL     1      -8.225  11.706  67.671  1.00  0.00    -0.141 A  
HETATM   27  C   UNL     1      -9.036  11.872  66.497  1.00  0.00    -0.211 C  
BRANCH  21  28
HETATM   28  C   UNL     1      -9.619   9.020  66.822  1.00  0.00    -0.200 C  
HETATM   29  C   UNL     1     -10.356   7.692  66.840  1.00  0.00    -0.388 C  
HETATM   30  C   UNL     1     -10.895   8.851  67.612  1.00  0.00    -0.112 C  
ENDBRANCH  21  28
ENDBRANCH   3  11
TORSDOF 2
ENDMDL
MODEL       86
REMARK 921   NORMALIZED FREE ENERGY PREDICTED BY IDOCK:   -3.84 KCAL/MOL
REMARK 922        TOTAL FREE ENERGY PREDICTED BY IDOCK:   -5.07 KCAL/MOL
REMARK 923 INTER-LIGAND FREE ENERGY PREDICTED BY IDOCK:   -5.02 KCAL/MOL
REMARK 924 INTRA-LIGAND FREE ENERGY PREDICTED BY IDOCK:   -0.05 KCAL/MOL
REMARK 927      BINDING AFFINITY PREDICTED BY RF-SCORE:    0.00 PKD
ROOT
HETATM    1  C   UNL     1      -6.905  17.892  69.025  1.00  0.00    -0.242 C  
HETATM    2  C   UNL     1      -7.916  16.730  69.131  1.00  0.00    -0.126 C  
HETATM    3  N   UNL     1      -7.501  15.790  68.062  1.00  0.00    -0.122 NA 
HETATM    4  H   UNL     1      -7.547  19.248  70.492  1.00  0.00     0.000 HD 
HETATM    5  C   UNL     1      -6.466  16.438  67.218  1.00  0.00    -0.187 C  
HETATM    6  C   UNL     1      -6.626  17.928  67.519  1.00  0.00    -0.172 C  
HETATM    7  N   UNL     1      -7.302  19.232  69.502  1.00  0.00    -0.167 NA 
HETATM    8  O   UNL     1      -5.470  18.724  67.259  1.00  0.00    -0.143 OA 
HETATM    9  C   UNL     1      -6.197  20.161  69.159  1.00  0.00    -0.324 C  
HETATM   10  C   UNL     1      -5.719  20.076  67.689  1.00  0.00    -0.187 C  
ENDROOT
BRANCH   3  11
HETATM   11  C   UNL     1      -7.717  14.412  68.066  1.00  0.00    -0.138 A  
HETATM   12  C   UNL     1      -8.019  11.581  67.969  1.00  0.00    -0.130 A  
HETATM   13  C   UNL     1      -8.101  10.106  67.853  1.00  0.00    -0.109 C  
HETATM   14  C   UNL     1      -6.754  12.146  68.032  1.00  0.00    -0.073 A  
HETATM   15  C   UNL     1      -9.425   9.479  67.744  1.00  0.00    -0.151 C  
HETATM   16  C   UNL     1      -6.619  13.523  68.093  1.00  0.00    -0.121 A  
HETATM   17  O   UNL     1      -7.091   9.406  67.819  1.00  0.00    -0.080 OA 
HETATM   18  C   UNL     1     -10.477  10.303  67.798  1.00  0.00    -0.226 C  
HETATM   19  C   UNL     1      -9.645   8.022  67.643  1.00  0.00    -0.151 C  
HETATM   20  F   UNL     1      -5.360  13.975  68.175  1.00  0.00    -0.089 F  
HETATM   21  N   UNL     1     -10.447  11.680  67.982  1.00  0.00    -0.188 NA 
HETATM   22  O   UNL     1     -10.755   7.511  67.626  1.00  0.00    -0.239 OA 
HETATM   23  O   UNL     1      -8.514   7.287  67.589  1.00  0.00    -0.116 OA 
HETATM   24  N   UNL     1     -11.067  15.300  67.447  1.00  0.00    -0.326 NA 
HETATM   25  C   UNL     1      -9.187  12.374  67.989  1.00  0.00    -0.203 A  
HETATM   26  C   UNL     1      -9.013  13.797  67.977  1.00  0.00    -0.187 A  
HETATM   27  C   UNL     1     -10.151  14.628  67.696  1.00  0.00    -0.228 C  
BRANCH  21  28
HETATM   28  C   UNL     1     -11.721  12.275  68.457  1.00  0.00    -0.331 C  
HETATM   29  C   UNL     1     -12.546  11.589  69.532  1.00  0.00     0.121 C  
HETATM   30  C   UNL     1     -11.876  12.891  69.827  1.00  0.00    -0.380 C  
ENDBRANCH  21  28
ENDBRANCH   3  11
TORSDOF 2
ENDMDL
MODEL       87
REMARK 921   NORMALIZED FREE ENERGY PREDICTED BY IDOCK:   -3.83 KCAL/MOL
REMARK 922        TOTAL FREE ENERGY PREDICTED BY IDOCK:   -5.05 KCAL/MOL
REMARK 923 INTER-LIGAND FREE ENERGY PREDICTED BY IDOCK:   -4.31 KCAL/MOL
REMARK 924 INTRA-LIGAND FREE ENERGY PREDICTED BY IDOCK:   -0.74 KCAL/MOL
REMARK 927      BINDING AFFINITY PREDICTED BY RF-SCORE:    0.00 PKD
ROOT
HETATM    1  C   UNL     1      -8.195  13.965  67.229  1.00  0.00    -0.161 C  
HETATM    2  C   UNL     1      -8.132  12.907  68.352  1.00  0.00    -0.130 C  
HETATM    3  N   UNL     1      -9.112  11.877  67.934  1.00  0.00    -0.176 NA 
HETATM    4  H   UNL     1      -6.860  15.452  67.866  1.00  0.00     0.000 HD 
HETATM    5  C   UNL     1      -9.883  12.379  66.771  1.00  0.00    -0.222 C  
HETATM    6  C   UNL     1      -9.669  13.892  66.813  1.00  0.00    -0.279 C  
HETATM    7  N   UNL     1      -7.820  15.359  67.537  1.00  0.00    -0.154 NA 
HETATM    8  O   UNL     1      -9.855  14.564  65.567  1.00  0.00    -0.338 OA 
HETATM    9  C   UNL     1      -8.100  16.164  66.321  1.00  0.00    -0.175 C  
HETATM   10  C   UNL     1      -9.513  15.955  65.723  1.00  0.00    -0.281 C  
ENDROOT
BRANCH   3  11
HETATM   11  C   UNL     1      -9.065  10.526  68.281  1.00  0.00    -0.146 A  
HETATM   12  C   UNL     1      -8.963   7.818  69.160  1.00  0.00    -0.145 A  
HETATM   13  C   UNL     1      -8.902   6.443  69.710  1.00  0.00    -0.142 C  
HETATM   14  C   UNL     1      -9.724   8.749  69.853  1.00  0.00    -0.183 A  
HETATM   15  C   UNL     1      -8.075   5.445  69.022  1.00  0.00    -0.094 C  
HETATM   16  C   UNL     1      -9.776  10.060  69.409  1.00  0.00    -0.225 A  
HETATM   17  O   UNL     1      -9.503   6.134  70.736  1.00  0.00    -0.166 OA 
HETATM   18  C   UNL     1      -7.458   5.852  67.907  1.00  0.00    -0.081 C  
HETATM   19  C   UNL     1      -7.944   4.038  69.455  1.00  0.00    -0.055 C  
HETATM   20  F   UNL     1     -10.555  10.880  70.129  1.00  0.00    -0.246 F  
HETATM   21  N   UNL     1      -7.550   7.106  67.317  1.00  0.00    -0.102 NA 
HETATM   22  O   UNL     1      -7.309   3.200  68.831  1.00  0.00    -0.048 OA 
HETATM   23  O   UNL     1      -8.602   3.739  70.595  1.00  0.00    -0.068 OA 
HETATM   24  N   UNL     1      -6.557  10.352  65.817  1.00  0.00    -0.119 NA 
HETATM   25  C   UNL     1      -8.254   8.165  67.989  1.00  0.00    -0.129 A  
HETATM   26  C   UNL     1      -8.268   9.544  67.598  1.00  0.00    -0.121 A  
HETATM   27  C   UNL     1      -7.330   9.987  66.604  1.00  0.00    -0.103 C  
BRANCH  21  28
HETATM   28  C   UNL     1      -7.157   7.153  65.886  1.00  0.00    -0.069 C  
HETATM   29  C   UNL     1      -6.949   5.874  65.094  1.00  0.00    -0.059 C  
HETATM   30  C   UNL     1      -8.096   6.772  64.766  1.00  0.00    -0.098 C  
ENDBRANCH  21  28
ENDBRANCH   3  11
TORSDOF 2
ENDMDL
MODEL       88
REMARK 921   NORMALIZED FREE ENERGY PREDICTED BY IDOCK:   -3.75 KCAL/MOL
REMARK 922        TOTAL FREE ENERGY PREDICTED BY IDOCK:   -4.96 KCAL/MOL
REMARK 923 INTER-LIGAND FREE ENERGY PREDICTED BY IDOCK:   -4.15 KCAL/MOL
REMARK 924 INTRA-LIGAND FREE ENERGY PREDICTED BY IDOCK:   -0.82 KCAL/MOL
REMARK 927      BINDING AFFINITY PREDICTED BY RF-SCORE:    0.00 PKD
ROOT
HETATM    1  C   UNL     1     -10.006  15.398  67.961  1.00  0.00    -0.221 C  
HETATM    2  C   UNL     1     -10.146  14.170  68.887  1.00  0.00    -0.150 C  
HETATM    3  N   UNL     1      -9.377  13.107  68.197  1.00  0.00    -0.214 NA 
HETATM    4  H   UNL     1     -11.159  16.873  68.908  1.00  0.00     0.000 HD 
HETATM    5  C   UNL     1      -8.996  13.581  66.844  1.00  0.00    -0.209 C  
HETATM    6  C   UNL     1      -9.953  14.742  66.577  1.00  0.00    -0.271 C  
HETATM    7  N   UNL     1     -11.051  16.440  67.992  1.00  0.00    -0.329 NA 
HETATM    8  O   UNL     1      -9.499  15.688  65.609  1.00  0.00    -0.320 OA 
HETATM    9  C   UNL     1     -10.724  17.416  66.922  1.00  0.00    -0.125 C  
HETATM   10  C   UNL     1     -10.437  16.780  65.539  1.00  0.00    -0.237 C  
ENDROOT
BRANCH   3  11
HETATM   11  C   UNL     1      -8.758  12.023  68.820  1.00  0.00     0.089 A  
HETATM   12  C   UNL     1      -7.343   9.861  70.019  1.00  0.00    -0.159 A  
HETATM   13  C   UNL     1      -6.524   8.768  70.596  1.00  0.00    -0.043 C  
HETATM   14  C   UNL     1      -6.765  11.120  69.948  1.00  0.00    -0.098 A  
HETATM   15  C   UNL     1      -7.093   7.415  70.650  1.00  0.00    -0.060 C  
HETATM   16  C   UNL     1      -7.467  12.167  69.375  1.00  0.00     0.339 A  
HETATM   17  O   UNL     1      -5.381   8.965  71.000  1.00  0.00    -0.028 OA 
HETATM   18  C   UNL     1      -8.346   7.280  70.200  1.00  0.00    -0.137 C  
HETATM   19  C   UNL     1      -6.392   6.244  71.216  1.00  0.00    -0.048 C  
HETATM   20  F   UNL     1      -6.837  13.350  69.373  1.00  0.00    -0.111 F  
HETATM   21  N   UNL     1      -9.172   8.290  69.724  1.00  0.00    -0.154 NA 
HETATM   22  O   UNL     1      -6.905   5.140  71.320  1.00  0.00    -0.044 OA 
HETATM   23  O   UNL     1      -5.132   6.494  71.633  1.00  0.00    -0.024 OA 
HETATM   24  N   UNL     1     -11.459  10.189  67.502  1.00  0.00    -0.127 NA 
HETATM   25  C   UNL     1      -8.649   9.618  69.543  1.00  0.00    -0.172 A  
HETATM   26  C   UNL     1      -9.321  10.702  68.888  1.00  0.00    -0.191 A  
HETATM   27  C   UNL     1     -10.510  10.420  68.133  1.00  0.00    -0.188 C  
BRANCH  21  28
HETATM   28  C   UNL     1     -10.621   7.966  69.728  1.00  0.00    -0.242 C  
HETATM   29  C   UNL     1     -11.114   6.605  69.266  1.00  0.00    -0.345 C  
HETATM   30  C   UNL     1     -11.240   6.994  70.703  1.00  0.00    -0.327 C  
ENDBRANCH  21  28
ENDBRANCH   3  11
TORSDOF 2
ENDMDL
MODEL       89
REMARK 921   NORMALIZED FREE ENERGY PREDICTED BY IDOCK:   -3.68 KCAL/MOL
REMARK 922        TOTAL FREE ENERGY PREDICTED BY IDOCK:   -4.88 KCAL/MOL
REMARK 923 INTER-LIGAND FREE ENERGY PREDICTED BY IDOCK:   -5.25 KCAL/MOL
REMARK 924 INTRA-LIGAND FREE ENERGY PREDICTED BY IDOCK:    0.36 KCAL/MOL
REMARK 927      BINDING AFFINITY PREDICTED BY RF-SCORE:    0.00 PKD
ROOT
HETATM    1  C   UNL     1      -9.236   5.928  71.673  1.00  0.00    -0.146 C  
HETATM    2  C   UNL     1     -10.325   6.904  71.176  1.00  0.00    -0.204 C  
HETATM    3  N   UNL     1      -9.672   8.233  71.231  1.00  0.00    -0.167 NA 
HETATM    4  H   UNL     1     -10.194   4.061  71.662  1.00  0.00     0.000 HD 
HETATM    5  C   UNL     1      -8.369   8.108  71.929  1.00  0.00    -0.144 C  
HETATM    6  C   UNL     1      -8.485   6.790  72.693  1.00  0.00    -0.121 C  
HETATM    7  N   UNL     1      -9.646   4.650  72.289  1.00  0.00    -0.147 NA 
HETATM    8  O   UNL     1      -7.242   6.174  73.027  1.00  0.00    -0.083 OA 
HETATM    9  C   UNL     1      -8.412   3.988  72.781  1.00  0.00    -0.100 C  
HETATM   10  C   UNL     1      -7.496   4.895  73.640  1.00  0.00    -0.091 C  
ENDROOT
BRANCH   3  11
HETATM   11  C   UNL     1      -9.998   9.329  70.432  1.00  0.00    -0.237 A  
HETATM   12  C   UNL     1     -10.807  11.476  68.744  1.00  0.00    -0.258 A  
HETATM   13  C   UNL     1     -11.303  12.536  67.833  1.00  0.00    -0.291 C  
HETATM   14  C   UNL     1     -11.754  10.748  69.448  1.00  0.00    -0.378 A  
HETATM   15  C   UNL     1     -10.328  13.299  67.043  1.00  0.00    -0.246 C  
HETATM   16  C   UNL     1     -11.348   9.715  70.277  1.00  0.00    -0.257 A  
HETATM   17  O   UNL     1     -12.503  12.767  67.708  1.00  0.00    -0.078 OA 
HETATM   18  C   UNL     1      -9.039  12.998  67.240  1.00  0.00    -0.209 C  
HETATM   19  C   UNL     1     -10.687  14.392  66.116  1.00  0.00    -0.304 C  
HETATM   20  F   UNL     1     -12.333   9.084  70.934  1.00  0.00    -0.301 F  
HETATM   21  N   UNL     1      -8.530  12.068  68.136  1.00  0.00    -0.165 NA 
HETATM   22  O   UNL     1      -9.860  15.065  65.520  1.00  0.00    -0.340 OA 
HETATM   23  O   UNL     1     -12.015  14.604  65.989  1.00  0.00    -0.337 OA 
HETATM   24  N   UNL     1      -6.609   9.196  69.492  1.00  0.00    -0.043 NA 
HETATM   25  C   UNL     1      -9.426  11.210  68.865  1.00  0.00    -0.124 A  
HETATM   26  C   UNL     1      -9.043  10.087  69.671  1.00  0.00    -0.230 A  
HETATM   27  C   UNL     1      -7.694   9.603  69.581  1.00  0.00    -0.124 C  
BRANCH  21  28
HETATM   28  C   UNL     1      -7.099  12.253  68.484  1.00  0.00    -0.099 C  
HETATM   29  C   UNL     1      -6.447  13.621  68.390  1.00  0.00    -0.095 C  
HETATM   30  C   UNL     1      -6.645  12.982  69.725  1.00  0.00     0.069 C  
ENDBRANCH  21  28
ENDBRANCH   3  11
TORSDOF 2
ENDMDL
MODEL       90
REMARK 921   NORMALIZED FREE ENERGY PREDICTED BY IDOCK:   -3.63 KCAL/MOL
REMARK 922        TOTAL FREE ENERGY PREDICTED BY IDOCK:   -4.83 KCAL/MOL
REMARK 923 INTER-LIGAND FREE ENERGY PREDICTED BY IDOCK:   -4.22 KCAL/MOL
REMARK 924 INTRA-LIGAND FREE ENERGY PREDICTED BY IDOCK:   -0.61 KCAL/MOL
REMARK 927      BINDING AFFINITY PREDICTED BY RF-SCORE:    0.00 PKD
ROOT
HETATM    1  C   UNL     1      -7.939   3.882  70.866  1.00  0.00    -0.058 C  
HETATM    2  C   UNL     1      -8.805   4.708  69.890  1.00  0.00    -0.089 C  
HETATM    3  N   UNL     1      -9.232   5.881  70.690  1.00  0.00    -0.151 NA 
HETATM    4  H   UNL     1      -7.403   2.189  69.748  1.00  0.00     0.000 HD 
HETATM    5  C   UNL     1      -8.852   5.670  72.108  1.00  0.00    -0.137 C  
HETATM    6  C   UNL     1      -8.626   4.161  72.207  1.00  0.00    -0.107 C  
HETATM    7  N   UNL     1      -7.810   2.427  70.652  1.00  0.00    -0.042 NA 
HETATM    8  O   UNL     1      -7.780   3.747  73.280  1.00  0.00    -0.071 OA 
HETATM    9  C   UNL     1      -7.039   1.885  71.799  1.00  0.00    -0.030 C  
HETATM   10  C   UNL     1      -7.561   2.326  73.189  1.00  0.00    -0.042 C  
ENDROOT
BRANCH   3  11
HETATM   11  C   UNL     1      -9.558   7.136  70.175  1.00  0.00    -0.168 A  
HETATM   12  C   UNL     1     -10.373   9.628  69.061  1.00  0.00    -0.218 A  
HETATM   13  C   UNL     1     -10.877  10.878  68.444  1.00  0.00    -0.222 C  
HETATM   14  C   UNL     1     -11.304   8.796  69.665  1.00  0.00     0.164 A  
HETATM   15  C   UNL     1      -9.923  11.762  67.762  1.00  0.00    -0.198 C  
HETATM   16  C   UNL     1     -10.894   7.592  70.215  1.00  0.00    -0.246 A  
HETATM   17  O   UNL     1     -12.070  11.172  68.468  1.00  0.00    -0.586 OA 
HETATM   18  C   UNL     1      -8.641  11.381  67.786  1.00  0.00    -0.129 C  
HETATM   19  C   UNL     1     -10.291  13.043  67.125  1.00  0.00    -0.243 C  
HETATM   20  F   UNL     1     -11.860   6.867  70.797  1.00  0.00    -0.340 F  
HETATM   21  N   UNL     1      -8.118  10.260  68.417  1.00  0.00    -0.106 NA 
HETATM   22  O   UNL     1      -9.475  13.803  66.625  1.00  0.00    -0.267 OA 
HETATM   23  O   UNL     1     -11.612  13.324  67.154  1.00  0.00    -0.319 OA 
HETATM   24  N   UNL     1      -6.254   7.098  68.962  1.00  0.00    -0.030 NA 
HETATM   25  C   UNL     1      -9.002   9.294  69.012  1.00  0.00    -0.140 A  
HETATM   26  C   UNL     1      -8.621   8.010  69.523  1.00  0.00    -0.136 A  
HETATM   27  C   UNL     1      -7.308   7.512  69.223  1.00  0.00    -0.089 C  
BRANCH  21  28
HETATM   28  C   UNL     1      -6.658  10.315  68.680  1.00  0.00    -0.052 C  
HETATM   29  C   UNL     1      -5.922  11.644  68.703  1.00  0.00    -0.050 C  
HETATM   30  C   UNL     1      -6.078  10.860  69.964  1.00  0.00    -0.121 C  
ENDBRANCH  21  28
ENDBRANCH   3  11
TORSDOF 2
ENDMDL
MODEL       91
REMARK 921   NORMALIZED FREE ENERGY PREDICTED BY IDOCK:   -3.62 KCAL/MOL
REMARK 922        TOTAL FREE ENERGY PREDICTED BY IDOCK:   -4.82 KCAL/MOL
REMARK 923 INTER-LIGAND FREE ENERGY PREDICTED BY IDOCK:   -4.48 KCAL/MOL
REMARK 924 INTRA-LIGAND FREE ENERGY PREDICTED BY IDOCK:   -0.34 KCAL/MOL
REMARK 927      BINDING AFFINITY PREDICTED BY RF-SCORE:    0.00 PKD
ROOT
HETATM    1  C   UNL     1      -8.003   7.080  64.918  1.00  0.00    -0.127 C  
HETATM    2  C   UNL     1      -8.852   7.736  66.027  1.00  0.00    -0.157 C  
HETATM    3  N   UNL     1      -8.327   9.120  66.114  1.00  0.00    -0.117 NA 
HETATM    4  H   UNL     1      -8.703   5.103  64.854  1.00  0.00     0.000 HD 
HETATM    5  C   UNL     1      -7.099   9.229  65.289  1.00  0.00    -0.090 C  
HETATM    6  C   UNL     1      -6.651   7.780  65.102  1.00  0.00    -0.047 C  
HETATM    7  N   UNL     1      -7.823   5.615  64.925  1.00  0.00    -0.103 NA 
HETATM    8  O   UNL     1      -5.824   7.545  63.963  1.00  0.00    -0.046 OA 
HETATM    9  C   UNL     1      -6.869   5.287  63.836  1.00  0.00    -0.046 C  
HETATM   10  C   UNL     1      -5.571   6.132  63.844  1.00  0.00    -0.018 C  
ENDROOT
BRANCH   3  11
HETATM   11  C   UNL     1      -9.049  10.234  66.544  1.00  0.00    -0.148 A  
HETATM   12  C   UNL     1     -10.410  12.610  67.330  1.00  0.00    -0.224 A  
HETATM   13  C   UNL     1     -11.049  13.898  67.691  1.00  0.00    -0.277 C  
HETATM   14  C   UNL     1      -9.918  12.482  66.039  1.00  0.00    -0.269 A  
HETATM   15  C   UNL     1     -11.545  14.079  69.061  1.00  0.00    -0.345 C  
HETATM   16  C   UNL     1      -9.270  11.317  65.664  1.00  0.00    -0.213 A  
HETATM   17  O   UNL     1     -11.145  14.817  66.881  1.00  0.00    -0.324 OA 
HETATM   18  C   UNL     1     -11.414  13.032  69.883  1.00  0.00    -0.081 C  
HETATM   19  C   UNL     1     -12.217  15.304  69.542  1.00  0.00    -0.239 C  
HETATM   20  F   UNL     1      -8.850  11.276  64.391  1.00  0.00    -0.119 F  
HETATM   21  N   UNL     1     -10.892  11.785  69.564  1.00  0.00    -0.073 NA 
HETATM   22  O   UNL     1     -12.689  15.413  70.664  1.00  0.00    -0.407 OA 
HETATM   23  O   UNL     1     -12.288  16.299  68.632  1.00  0.00     0.280 OA 
HETATM   24  N   UNL     1      -8.808   8.718  69.712  1.00  0.00    -0.138 NA 
HETATM   25  C   UNL     1     -10.291  11.568  68.275  1.00  0.00    -0.197 A  
HETATM   26  C   UNL     1      -9.550  10.406  67.880  1.00  0.00    -0.157 A  
HETATM   27  C   UNL     1      -9.151   9.467  68.891  1.00  0.00    -0.140 C  
BRANCH  21  28
HETATM   28  C   UNL     1     -11.277  10.691  70.491  1.00  0.00    -0.185 C  
HETATM   29  C   UNL     1     -12.549  10.783  71.316  1.00  0.00    -0.532 C  
HETATM   30  C   UNL     1     -12.441   9.766  70.227  1.00  0.00     0.062 C  
ENDBRANCH  21  28
ENDBRANCH   3  11
TORSDOF 2
ENDMDL
MODEL       92
REMARK 921   NORMALIZED FREE ENERGY PREDICTED BY IDOCK:   -3.60 KCAL/MOL
REMARK 922        TOTAL FREE ENERGY PREDICTED BY IDOCK:   -4.80 KCAL/MOL
REMARK 923 INTER-LIGAND FREE ENERGY PREDICTED BY IDOCK:   -4.07 KCAL/MOL
REMARK 924 INTRA-LIGAND FREE ENERGY PREDICTED BY IDOCK:   -0.73 KCAL/MOL
REMARK 927      BINDING AFFINITY PREDICTED BY RF-SCORE:    0.00 PKD
ROOT
HETATM    1  C   UNL     1      -8.847   3.135  64.453  1.00  0.00    -0.104 C  
HETATM    2  C   UNL     1      -8.095   4.033  65.460  1.00  0.00    -0.101 C  
HETATM    3  N   UNL     1      -9.167   4.576  66.329  1.00  0.00    -0.129 NA 
HETATM    4  H   UNL     1      -7.332   2.431  63.183  1.00  0.00     0.000 HD 
HETATM    5  C   UNL     1     -10.488   4.226  65.753  1.00  0.00    -0.085 C  
HETATM    6  C   UNL     1     -10.175   3.884  64.296  1.00  0.00    -0.226 C  
HETATM    7  N   UNL     1      -8.244   2.885  63.129  1.00  0.00    -0.080 NA 
HETATM    8  O   UNL     1     -11.133   3.042  63.654  1.00  0.00    -0.286 OA 
HETATM    9  C   UNL     1      -9.233   2.110  62.339  1.00  0.00    -0.080 C  
HETATM   10  C   UNL     1     -10.661   2.709  62.334  1.00  0.00    -0.150 C  
ENDROOT
BRANCH   3  11
HETATM   11  C   UNL     1      -9.005   4.984  67.654  1.00  0.00    -0.110 A  
HETATM   12  C   UNL     1      -8.824   5.730  70.397  1.00  0.00    -0.146 A  
HETATM   13  C   UNL     1      -8.817   6.072  71.839  1.00  0.00    -0.138 C  
HETATM   14  C   UNL     1      -9.252   4.458  70.046  1.00  0.00    -0.200 A  
HETATM   15  C   UNL     1      -8.407   7.424  72.240  1.00  0.00    -0.117 C  
HETATM   16  C   UNL     1      -9.324   4.101  68.710  1.00  0.00    -0.159 A  
HETATM   17  O   UNL     1      -9.171   5.264  72.694  1.00  0.00    -0.135 OA 
HETATM   18  C   UNL     1      -8.026   8.245  71.256  1.00  0.00    -0.111 C  
HETATM   19  C   UNL     1      -8.337   7.885  73.642  1.00  0.00    -0.227 C  
HETATM   20  F   UNL     1      -9.726   2.845  68.470  1.00  0.00    -0.246 F  
HETATM   21  N   UNL     1      -7.945   7.940  69.903  1.00  0.00    -0.107 NA 
HETATM   22  O   UNL     1      -7.924   8.989  73.965  1.00  0.00    -0.258 OA 
HETATM   23  O   UNL     1      -8.751   6.978  74.552  1.00  0.00    -0.179 OA 
HETATM   24  N   UNL     1      -8.429   8.151  66.230  1.00  0.00    -0.124 NA 
HETATM   25  C   UNL     1      -8.431   6.674  69.424  1.00  0.00    -0.131 A  
HETATM   26  C   UNL     1      -8.587   6.301  68.048  1.00  0.00    -0.116 A  
HETATM   27  C   UNL     1      -8.487   7.322  67.042  1.00  0.00    -0.118 C  
BRANCH  21  28
HETATM   28  C   UNL     1      -7.078   8.846  69.109  1.00  0.00    -0.063 C  
HETATM   29  C   UNL     1      -7.437  10.313  68.939  1.00  0.00    -0.094 C  
HETATM   30  C   UNL     1      -6.233   9.929  69.736  1.00  0.00    -0.050 C  
ENDBRANCH  21  28
ENDBRANCH   3  11
TORSDOF 2
ENDMDL
MODEL       93
REMARK 921   NORMALIZED FREE ENERGY PREDICTED BY IDOCK:   -3.58 KCAL/MOL
REMARK 922        TOTAL FREE ENERGY PREDICTED BY IDOCK:   -4.77 KCAL/MOL
REMARK 923 INTER-LIGAND FREE ENERGY PREDICTED BY IDOCK:   -5.68 KCAL/MOL
REMARK 924 INTRA-LIGAND FREE ENERGY PREDICTED BY IDOCK:    0.91 KCAL/MOL
REMARK 927      BINDING AFFINITY PREDICTED BY RF-SCORE:    0.00 PKD
ROOT
HETATM    1  C   UNL     1      -9.559  18.519  68.329  1.00  0.00    -0.343 C  
HETATM    2  C   UNL     1     -10.041  17.279  69.113  1.00  0.00    -0.252 C  
HETATM    3  N   UNL     1     -10.656  16.414  68.078  1.00  0.00    -0.303 NA 
HETATM    4  H   UNL     1      -8.757  19.768  69.812  1.00  0.00     0.000 HD 
HETATM    5  C   UNL     1     -10.753  17.169  66.805  1.00  0.00    -0.097 C  
HETATM    6  C   UNL     1     -10.624  18.631  67.233  1.00  0.00    -0.430 C  
HETATM    7  N   UNL     1      -9.422  19.806  69.040  1.00  0.00    -0.266 NA 
HETATM    8  O   UNL     1     -10.178  19.522  66.212  1.00  0.00    -0.410 OA 
HETATM    9  C   UNL     1      -9.074  20.830  68.023  1.00  0.00     0.238 C  
HETATM   10  C   UNL     1      -9.993  20.835  66.776  1.00  0.00     0.014 C  
ENDROOT
BRANCH   3  11
HETATM   11  C   UNL     1     -10.757  15.024  68.141  1.00  0.00    -0.256 A  
HETATM   12  C   UNL     1     -10.867  12.191  68.417  1.00  0.00    -0.255 A  
HETATM   13  C   UNL     1     -10.864  10.726  68.641  1.00  0.00    -0.220 C  
HETATM   14  C   UNL     1     -10.971  13.006  69.535  1.00  0.00     0.035 A  
HETATM   15  C   UNL     1     -10.716   9.836  67.483  1.00  0.00    -0.327 C  
HETATM   16  C   UNL     1     -10.930  14.382  69.387  1.00  0.00    -0.231 A  
HETATM   17  O   UNL     1     -10.956  10.247  69.769  1.00  0.00    -0.249 OA 
HETATM   18  C   UNL     1     -10.631  10.429  66.287  1.00  0.00    -0.109 C  
HETATM   19  C   UNL     1     -10.718   8.360  67.566  1.00  0.00    -0.137 C  
HETATM   20  F   UNL     1     -11.062  15.087  70.521  1.00  0.00    -0.268 F  
HETATM   21  N   UNL     1     -10.705  11.791  66.026  1.00  0.00    -0.270 NA 
HETATM   22  O   UNL     1     -10.666   7.633  66.586  1.00  0.00    -0.239 OA 
HETATM   23  O   UNL     1     -10.801   7.871  68.822  1.00  0.00    -0.105 OA 
HETATM   24  N   UNL     1      -9.840  15.165  64.745  1.00  0.00    -0.024 NA 
HETATM   25  C   UNL     1     -10.743  12.728  67.118  1.00  0.00    -0.245 A  
HETATM   26  C   UNL     1     -10.629  14.152  67.005  1.00  0.00    -0.276 A  
HETATM   27  C   UNL     1     -10.204  14.712  65.752  1.00  0.00    -0.340 C  
BRANCH  21  28
HETATM   28  C   UNL     1     -11.043  12.142  64.624  1.00  0.00    -0.317 C  
HETATM   29  C   UNL     1     -11.430  11.066  63.625  1.00  0.00     0.492 C  
HETATM   30  C   UNL     1     -12.447  12.062  64.075  1.00  0.00    -0.492 C  
ENDBRANCH  21  28
ENDBRANCH   3  11
TORSDOF 2
ENDMDL
MODEL       94
REMARK 921   NORMALIZED FREE ENERGY PREDICTED BY IDOCK:   -3.50 KCAL/MOL
REMARK 922        TOTAL FREE ENERGY PREDICTED BY IDOCK:   -4.69 KCAL/MOL
REMARK 923 INTER-LIGAND FREE ENERGY PREDICTED BY IDOCK:   -4.03 KCAL/MOL
REMARK 924 INTRA-LIGAND FREE ENERGY PREDICTED BY IDOCK:   -0.66 KCAL/MOL
REMARK 927      BINDING AFFINITY PREDICTED BY RF-SCORE:    0.00 PKD
ROOT
HETATM    1  C   UNL     1      -9.156   5.587  72.221  1.00  0.00    -0.142 C  
HETATM    2  C   UNL     1      -8.202   5.515  71.008  1.00  0.00    -0.120 C  
HETATM    3  N   UNL     1      -9.093   5.691  69.836  1.00  0.00    -0.134 NA 
HETATM    4  H   UNL     1      -7.897   5.263  73.867  1.00  0.00     0.000 HD 
HETATM    5  C   UNL     1     -10.506   5.639  70.285  1.00  0.00    -0.293 C  
HETATM    6  C   UNL     1     -10.433   4.959  71.652  1.00  0.00    -0.126 C  
HETATM    7  N   UNL     1      -8.770   4.912  73.476  1.00  0.00    -0.105 NA 
HETATM    8  O   UNL     1     -11.534   5.229  72.520  1.00  0.00    -0.227 OA 
HETATM    9  C   UNL     1      -9.919   5.037  74.408  1.00  0.00    -0.214 C  
HETATM   10  C   UNL     1     -11.284   4.625  73.804  1.00  0.00    -0.179 C  
ENDROOT
BRANCH   3  11
HETATM   11  C   UNL     1      -8.712   6.219  68.602  1.00  0.00    -0.120 A  
HETATM   12  C   UNL     1      -7.796   7.185  66.084  1.00  0.00    -0.105 A  
HETATM   13  C   UNL     1      -7.240   7.627  64.783  1.00  0.00    -0.067 C  
HETATM   14  C   UNL     1      -7.719   5.832  66.382  1.00  0.00    -0.099 A  
HETATM   15  C   UNL     1      -7.271   9.058  64.453  1.00  0.00    -0.098 C  
HETATM   16  C   UNL     1      -8.180   5.372  67.605  1.00  0.00    -0.100 A  
HETATM   17  O   UNL     1      -6.735   6.831  63.995  1.00  0.00    -0.043 OA 
HETATM   18  C   UNL     1      -7.845   9.862  65.355  1.00  0.00    -0.132 C  
HETATM   19  C   UNL     1      -6.770   9.626  63.185  1.00  0.00    -0.109 C  
HETATM   20  F   UNL     1      -8.086   4.047  67.793  1.00  0.00    -0.087 F  
HETATM   21  N   UNL     1      -8.444   9.480  66.548  1.00  0.00    -0.125 NA 
HETATM   22  O   UNL     1      -6.868  10.809  62.895  1.00  0.00    -0.035 OA 
HETATM   23  O   UNL     1      -6.204   8.726  62.353  1.00  0.00    -0.095 OA 
HETATM   24  N   UNL     1      -9.263   9.324  70.165  1.00  0.00    -0.206 NA 
HETATM   25  C   UNL     1      -8.359   8.112  66.987  1.00  0.00    -0.116 A  
HETATM   26  C   UNL     1      -8.758   7.617  68.272  1.00  0.00    -0.123 A  
HETATM   27  C   UNL     1      -9.049   8.561  69.314  1.00  0.00    -0.153 C  
BRANCH  21  28
HETATM   28  C   UNL     1      -9.386  10.473  67.122  1.00  0.00    -0.154 C  
HETATM   29  C   UNL     1      -9.355  11.924  66.671  1.00  0.00    -0.210 C  
HETATM   30  C   UNL     1     -10.530  11.066  66.335  1.00  0.00    -0.312 C  
ENDBRANCH  21  28
ENDBRANCH   3  11
TORSDOF 2
ENDMDL
MODEL       95
REMARK 921   NORMALIZED FREE ENERGY PREDICTED BY IDOCK:   -3.50 KCAL/MOL
REMARK 922        TOTAL FREE ENERGY PREDICTED BY IDOCK:   -4.68 KCAL/MOL
REMARK 923 INTER-LIGAND FREE ENERGY PREDICTED BY IDOCK:   -3.87 KCAL/MOL
REMARK 924 INTRA-LIGAND FREE ENERGY PREDICTED BY IDOCK:   -0.81 KCAL/MOL
REMARK 927      BINDING AFFINITY PREDICTED BY RF-SCORE:    0.00 PKD
ROOT
HETATM    1  C   UNL     1      -8.460   4.238  64.422  1.00  0.00    -0.112 C  
HETATM    2  C   UNL     1      -8.483   5.461  65.364  1.00  0.00    -0.144 C  
HETATM    3  N   UNL     1      -8.576   4.871  66.721  1.00  0.00    -0.109 NA 
HETATM    4  H   UNL     1      -8.403   5.085  62.504  1.00  0.00     0.000 HD 
HETATM    5  C   UNL     1      -8.828   3.414  66.603  1.00  0.00    -0.137 C  
HETATM    6  C   UNL     1      -9.350   3.245  65.177  1.00  0.00    -0.149 C  
HETATM    7  N   UNL     1      -8.935   4.395  63.033  1.00  0.00    -0.122 NA 
HETATM    8  O   UNL     1      -9.192   1.937  64.627  1.00  0.00    -0.128 OA 
HETATM    9  C   UNL     1      -8.921   3.047  62.413  1.00  0.00    -0.081 C  
HETATM   10  C   UNL     1      -9.619   1.947  63.251  1.00  0.00    -0.098 C  
ENDROOT
BRANCH   3  11
HETATM   11  C   UNL     1      -8.112   5.464  67.895  1.00  0.00    -0.100 A  
HETATM   12  C   UNL     1      -7.071   6.528  70.324  1.00  0.00    -0.072 A  
HETATM   13  C   UNL     1      -6.484   6.994  71.603  1.00  0.00    -0.048 C  
HETATM   14  C   UNL     1      -6.262   5.770  69.491  1.00  0.00    -0.032 A  
HETATM   15  C   UNL     1      -7.328   7.766  72.526  1.00  0.00    -0.098 C  
HETATM   16  C   UNL     1      -6.774   5.269  68.306  1.00  0.00    -0.054 A  
HETATM   17  O   UNL     1      -5.327   6.727  71.915  1.00  0.00    -0.030 OA 
HETATM   18  C   UNL     1      -8.573   8.026  72.114  1.00  0.00    -0.155 C  
HETATM   19  C   UNL     1      -6.860   8.305  73.820  1.00  0.00    -0.127 C  
HETATM   20  F   UNL     1      -5.911   4.569  67.556  1.00  0.00    -0.019 F  
HETATM   21  N   UNL     1      -9.136   7.674  70.894  1.00  0.00    -0.148 NA 
HETATM   22  O   UNL     1      -7.552   9.006  74.543  1.00  0.00    -0.396 OA 
HETATM   23  O   UNL     1      -5.590   7.975  74.138  1.00  0.00    -0.063 OA 
HETATM   24  N   UNL     1     -11.501   6.269  68.402  1.00  0.00    -0.017 NA 
HETATM   25  C   UNL     1      -8.408   6.828  69.986  1.00  0.00    -0.135 A  
HETATM   26  C   UNL     1      -8.932   6.234  68.791  1.00  0.00    -0.125 A  
HETATM   27  C   UNL     1     -10.351   6.265  68.570  1.00  0.00    -0.203 C  
BRANCH  21  28
HETATM   28  C   UNL     1     -10.335   8.460  70.509  1.00  0.00    -0.199 C  
HETATM   29  C   UNL     1     -10.958   9.452  71.476  1.00  0.00    -0.429 C  
HETATM   30  C   UNL     1     -10.288   9.944  70.235  1.00  0.00    -0.339 C  
ENDBRANCH  21  28
ENDBRANCH   3  11
TORSDOF 2
ENDMDL
MODEL       96
REMARK 921   NORMALIZED FREE ENERGY PREDICTED BY IDOCK:   -3.37 KCAL/MOL
REMARK 922        TOTAL FREE ENERGY PREDICTED BY IDOCK:   -4.54 KCAL/MOL
REMARK 923 INTER-LIGAND FREE ENERGY PREDICTED BY IDOCK:   -3.81 KCAL/MOL
REMARK 924 INTRA-LIGAND FREE ENERGY PREDICTED BY IDOCK:   -0.73 KCAL/MOL
REMARK 927      BINDING AFFINITY PREDICTED BY RF-SCORE:    0.00 PKD
ROOT
HETATM    1  C   UNL     1      -9.664  10.381  65.255  1.00  0.00    -0.278 C  
HETATM    2  C   UNL     1     -10.113   9.425  66.382  1.00  0.00    -0.262 C  
HETATM    3  N   UNL     1      -8.922   8.578  66.633  1.00  0.00    -0.140 NA 
HETATM    4  H   UNL     1     -11.377  11.523  64.856  1.00  0.00     0.000 HD 
HETATM    5  C   UNL     1      -7.907   8.839  65.584  1.00  0.00    -0.097 C  
HETATM    6  C   UNL     1      -8.703   9.493  64.455  1.00  0.00    -0.205 C  
HETATM    7  N   UNL     1     -10.684  10.962  64.361  1.00  0.00    -0.286 NA 
HETATM    8  O   UNL     1      -7.935  10.295  63.559  1.00  0.00    -0.159 OA 
HETATM    9  C   UNL     1      -9.961  11.723  63.312  1.00  0.00    -0.410 C  
HETATM   10  C   UNL     1      -8.819  10.938  62.621  1.00  0.00    -0.304 C  
ENDROOT
BRANCH   3  11
HETATM   11  C   UNL     1      -8.614   7.953  67.842  1.00  0.00    -0.125 A  
HETATM   12  C   UNL     1      -7.857   6.795  70.332  1.00  0.00    -0.109 A  
HETATM   13  C   UNL     1      -7.388   6.258  71.632  1.00  0.00    -0.089 C  
HETATM   14  C   UNL     1      -7.850   8.173  70.173  1.00  0.00    -0.098 A  
HETATM   15  C   UNL     1      -7.346   4.802  71.819  1.00  0.00    -0.071 C  
HETATM   16  C   UNL     1      -8.233   8.726  68.962  1.00  0.00    -0.117 A  
HETATM   17  O   UNL     1      -7.012   7.000  72.536  1.00  0.00    -0.065 OA 
HETATM   18  C   UNL     1      -7.780   4.060  70.795  1.00  0.00    -0.051 C  
HETATM   19  C   UNL     1      -6.920   4.140  73.070  1.00  0.00    -0.061 C  
HETATM   20  F   UNL     1      -8.217  10.066  68.910  1.00  0.00    -0.097 F  
HETATM   21  N   UNL     1      -8.298   4.523  69.592  1.00  0.00    -0.069 NA 
HETATM   22  O   UNL     1      -6.958   2.930  73.235  1.00  0.00    -0.035 OA 
HETATM   23  O   UNL     1      -6.495   4.985  74.033  1.00  0.00    -0.063 OA 
HETATM   24  N   UNL     1      -8.804   4.994  65.946  1.00  0.00    -0.130 NA 
HETATM   25  C   UNL     1      -8.271   5.931  69.296  1.00  0.00    -0.113 A  
HETATM   26  C   UNL     1      -8.590   6.529  68.032  1.00  0.00    -0.118 A  
HETATM   27  C   UNL     1      -8.720   5.678  66.881  1.00  0.00    -0.113 C  
BRANCH  21  28
HETATM   28  C   UNL     1      -9.113   3.537  68.840  1.00  0.00    -0.145 C  
HETATM   29  C   UNL     1      -8.602   2.126  68.605  1.00  0.00    -0.103 C  
HETATM   30  C   UNL     1      -9.777   2.351  69.499  1.00  0.00     0.100 C  
ENDBRANCH  21  28
ENDBRANCH   3  11
TORSDOF 2
ENDMDL
MODEL       97
REMARK 921   NORMALIZED FREE ENERGY PREDICTED BY IDOCK:   -3.37 KCAL/MOL
REMARK 922        TOTAL FREE ENERGY PREDICTED BY IDOCK:   -4.54 KCAL/MOL
REMARK 923 INTER-LIGAND FREE ENERGY PREDICTED BY IDOCK:   -4.17 KCAL/MOL
REMARK 924 INTRA-LIGAND FREE ENERGY PREDICTED BY IDOCK:   -0.37 KCAL/MOL
REMARK 927      BINDING AFFINITY PREDICTED BY RF-SCORE:    0.00 PKD
ROOT
HETATM    1  C   UNL     1      -9.686  10.289  65.273  1.00  0.00    -0.291 C  
HETATM    2  C   UNL     1     -10.370   9.425  66.354  1.00  0.00    -0.167 C  
HETATM    3  N   UNL     1      -9.544   8.195  66.411  1.00  0.00    -0.225 NA 
HETATM    4  H   UNL     1     -10.903  11.992  65.148  1.00  0.00     0.000 HD 
HETATM    5  C   UNL     1      -8.574   8.207  65.290  1.00  0.00    -0.106 C  
HETATM    6  C   UNL     1      -9.158   9.222  64.308  1.00  0.00    -0.021 C  
HETATM    7  N   UNL     1     -10.489  11.287  64.540  1.00  0.00    -0.314 NA 
HETATM    8  O   UNL     1      -8.214   9.805  63.409  1.00  0.00    -0.137 OA 
HETATM    9  C   UNL     1      -9.612  11.866  63.491  1.00  0.00    -0.173 C  
HETATM   10  C   UNL     1      -8.872  10.818  62.623  1.00  0.00    -0.286 C  
ENDROOT
BRANCH   3  11
HETATM   11  C   UNL     1      -9.401   7.367  67.525  1.00  0.00    -0.130 A  
HETATM   12  C   UNL     1      -9.284   5.654  69.798  1.00  0.00    -0.165 A  
HETATM   13  C   UNL     1      -9.323   4.759  70.979  1.00  0.00    -0.148 C  
HETATM   14  C   UNL     1     -10.155   5.372  68.756  1.00  0.00    -0.255 A  
HETATM   15  C   UNL     1      -8.441   5.053  72.116  1.00  0.00    -0.125 C  
HETATM   16  C   UNL     1     -10.194   6.205  67.649  1.00  0.00    -0.174 A  
HETATM   17  O   UNL     1     -10.090   3.801  71.034  1.00  0.00    -0.119 OA 
HETATM   18  C   UNL     1      -7.627   6.105  71.978  1.00  0.00    -0.096 C  
HETATM   19  C   UNL     1      -8.368   4.230  73.341  1.00  0.00    -0.090 C  
HETATM   20  F   UNL     1     -11.049   5.838  66.684  1.00  0.00    -0.330 F  
HETATM   21  N   UNL     1      -7.505   6.922  70.862  1.00  0.00    -0.081 NA 
HETATM   22  O   UNL     1      -7.578   4.446  74.248  1.00  0.00    -0.075 OA 
HETATM   23  O   UNL     1      -9.238   3.198  73.375  1.00  0.00    -0.088 OA 
HETATM   24  N   UNL     1      -7.374   9.971  68.750  1.00  0.00    -0.076 NA 
HETATM   25  C   UNL     1      -8.409   6.761  69.754  1.00  0.00    -0.132 A  
HETATM   26  C   UNL     1      -8.526   7.645  68.631  1.00  0.00    -0.129 A  
HETATM   27  C   UNL     1      -7.878   8.926  68.692  1.00  0.00    -0.102 C  
BRANCH  21  28
HETATM   28  C   UNL     1      -6.244   7.702  70.792  1.00  0.00    -0.034 C  
HETATM   29  C   UNL     1      -6.087   8.997  71.570  1.00  0.00    -0.070 C  
HETATM   30  C   UNL     1      -5.277   7.800  71.947  1.00  0.00    -0.035 C  
ENDBRANCH  21  28
ENDBRANCH   3  11
TORSDOF 2
ENDMDL
MODEL       98
REMARK 921   NORMALIZED FREE ENERGY PREDICTED BY IDOCK:   -3.37 KCAL/MOL
REMARK 922        TOTAL FREE ENERGY PREDICTED BY IDOCK:   -4.54 KCAL/MOL
REMARK 923 INTER-LIGAND FREE ENERGY PREDICTED BY IDOCK:   -4.02 KCAL/MOL
REMARK 924 INTRA-LIGAND FREE ENERGY PREDICTED BY IDOCK:   -0.53 KCAL/MOL
REMARK 927      BINDING AFFINITY PREDICTED BY RF-SCORE:    0.00 PKD
ROOT
HETATM    1  C   UNL     1      -9.212  10.094  64.507  1.00  0.00    -0.257 C  
HETATM    2  C   UNL     1      -9.997   9.109  65.401  1.00  0.00     0.294 C  
HETATM    3  N   UNL     1      -9.001   8.658  66.403  1.00  0.00    -0.151 NA 
HETATM    4  H   UNL     1     -10.608  10.668  63.050  1.00  0.00     0.000 HD 
HETATM    5  C   UNL     1      -7.657   9.147  66.010  1.00  0.00    -0.095 C  
HETATM    6  C   UNL     1      -7.807   9.483  64.527  1.00  0.00    -0.126 C  
HETATM    7  N   UNL     1      -9.656  10.308  63.116  1.00  0.00    -0.297 NA 
HETATM    8  O   UNL     1      -6.861  10.426  64.023  1.00  0.00    -0.092 OA 
HETATM    9  C   UNL     1      -8.653  11.191  62.470  1.00  0.00    -0.218 C  
HETATM   10  C   UNL     1      -7.184  10.735  62.653  1.00  0.00     0.018 C  
ENDROOT
BRANCH   3  11
HETATM   11  C   UNL     1      -9.296   8.212  67.692  1.00  0.00    -0.140 A  
HETATM   12  C   UNL     1      -9.861   7.464  70.382  1.00  0.00    -0.183 A  
HETATM   13  C   UNL     1     -10.128   7.167  71.809  1.00  0.00    -0.183 C  
HETATM   14  C   UNL     1     -10.255   8.706  69.905  1.00  0.00    -0.206 A  
HETATM   15  C   UNL     1      -9.689   5.876  72.355  1.00  0.00    -0.175 C  
HETATM   16  C   UNL     1      -9.986   9.054  68.591  1.00  0.00    -0.172 A  
HETATM   17  O   UNL     1     -10.680   7.983  72.544  1.00  0.00    -0.288 OA 
HETATM   18  C   UNL     1      -9.105   5.037  71.493  1.00  0.00    -0.140 C  
HETATM   19  C   UNL     1      -9.911   5.449  73.752  1.00  0.00    -0.185 C  
HETATM   20  F   UNL     1     -10.425  10.264  68.215  1.00  0.00    -0.182 F  
HETATM   21  N   UNL     1      -8.904   5.245  70.135  1.00  0.00    -0.122 NA 
HETATM   22  O   UNL     1      -9.604   4.344  74.172  1.00  0.00    -0.109 OA 
HETATM   23  O   UNL     1     -10.502   6.378  74.534  1.00  0.00    -0.274 OA 
HETATM   24  N   UNL     1      -7.210   5.506  66.843  1.00  0.00    -0.077 NA 
HETATM   25  C   UNL     1      -9.211   6.524  69.553  1.00  0.00    -0.142 A  
HETATM   26  C   UNL     1      -8.881   6.942  68.221  1.00  0.00    -0.122 A  
HETATM   27  C   UNL     1      -7.967   6.141  67.455  1.00  0.00    -0.106 C  
BRANCH  21  28
HETATM   28  C   UNL     1      -8.667   4.013  69.341  1.00  0.00    -0.085 C  
HETATM   29  C   UNL     1      -8.089   2.768  69.993  1.00  0.00    -0.056 C  
HETATM   30  C   UNL     1      -9.499   2.763  69.501  1.00  0.00    -0.147 C  
ENDBRANCH  21  28
ENDBRANCH   3  11
TORSDOF 2
ENDMDL
MODEL       99
REMARK 921   NORMALIZED FREE ENERGY PREDICTED BY IDOCK:   -3.25 KCAL/MOL
REMARK 922        TOTAL FREE ENERGY PREDICTED BY IDOCK:   -4.41 KCAL/MOL
REMARK 923 INTER-LIGAND FREE ENERGY PREDICTED BY IDOCK:   -4.67 KCAL/MOL
REMARK 924 INTRA-LIGAND FREE ENERGY PREDICTED BY IDOCK:    0.26 KCAL/MOL
REMARK 927      BINDING AFFINITY PREDICTED BY RF-SCORE:    0.00 PKD
ROOT
HETATM    1  C   UNL     1      -6.872   5.280  72.634  1.00  0.00    -0.076 C  
HETATM    2  C   UNL     1      -6.953   6.792  72.328  1.00  0.00    -0.067 C  
HETATM    3  N   UNL     1      -7.274   6.851  70.882  1.00  0.00    -0.071 NA 
HETATM    4  H   UNL     1      -6.344   5.208  74.663  1.00  0.00     0.000 HD 
HETATM    5  C   UNL     1      -7.166   5.491  70.301  1.00  0.00    -0.067 C  
HETATM    6  C   UNL     1      -6.321   4.723  71.317  1.00  0.00    -0.019 C  
HETATM    7  N   UNL     1      -6.045   4.822  73.767  1.00  0.00    -0.032 NA 
HETATM    8  O   UNL     1      -6.480   3.305  71.286  1.00  0.00    -0.018 OA 
HETATM    9  C   UNL     1      -6.053   3.338  73.740  1.00  0.00    -0.014 C  
HETATM   10  C   UNL     1      -5.719   2.720  72.360  1.00  0.00    -0.008 C  
ENDROOT
BRANCH   3  11
HETATM   11  C   UNL     1      -7.952   7.892  70.246  1.00  0.00    -0.102 A  
HETATM   12  C   UNL     1      -9.180  10.081  68.898  1.00  0.00    -0.169 A  
HETATM   13  C   UNL     1      -9.727  11.255  68.178  1.00  0.00    -0.185 C  
HETATM   14  C   UNL     1      -8.071   9.455  68.347  1.00  0.00    -0.109 A  
HETATM   15  C   UNL     1     -10.875  11.965  68.756  1.00  0.00    -0.270 C  
HETATM   16  C   UNL     1      -7.491   8.383  69.004  1.00  0.00    -0.093 A  
HETATM   17  O   UNL     1      -9.225  11.658  67.131  1.00  0.00    -0.170 OA 
HETATM   18  C   UNL     1     -11.373  11.462  69.891  1.00  0.00    -0.219 C  
HETATM   19  C   UNL     1     -11.527  13.134  68.129  1.00  0.00    -0.314 C  
HETATM   20  F   UNL     1      -6.440   7.828  68.383  1.00  0.00    -0.045 F  
HETATM   21  N   UNL     1     -10.939  10.323  70.556  1.00  0.00    -0.307 NA 
HETATM   22  O   UNL     1     -12.526  13.669  68.585  1.00  0.00    -0.112 OA 
HETATM   23  O   UNL     1     -10.938  13.560  66.992  1.00  0.00    -0.282 OA 
HETATM   24  N   UNL     1      -9.740   8.095  73.272  1.00  0.00    -0.237 NA 
HETATM   25  C   UNL     1      -9.755   9.639  70.109  1.00  0.00    -0.254 A  
HETATM   26  C   UNL     1      -9.087   8.576  70.802  1.00  0.00    -0.196 A  
HETATM   27  C   UNL     1      -9.457   8.302  72.163  1.00  0.00    -0.258 C  
BRANCH  21  28
HETATM   28  C   UNL     1     -11.923   9.738  71.502  1.00  0.00    -0.407 C  
HETATM   29  C   UNL     1     -13.410   9.770  71.195  1.00  0.00    -0.360 C  
HETATM   30  C   UNL     1     -12.682   8.466  71.211  1.00  0.00    -0.208 C  
ENDBRANCH  21  28
ENDBRANCH   3  11
TORSDOF 2
ENDMDL
MODEL      100
REMARK 921   NORMALIZED FREE ENERGY PREDICTED BY IDOCK:   -3.21 KCAL/MOL
REMARK 922        TOTAL FREE ENERGY PREDICTED BY IDOCK:   -4.36 KCAL/MOL
REMARK 923 INTER-LIGAND FREE ENERGY PREDICTED BY IDOCK:   -3.78 KCAL/MOL
REMARK 924 INTRA-LIGAND FREE ENERGY PREDICTED BY IDOCK:   -0.58 KCAL/MOL
REMARK 927      BINDING AFFINITY PREDICTED BY RF-SCORE:    0.00 PKD
ROOT
HETATM    1  C   UNL     1      -8.468  13.531  67.828  1.00  0.00    -0.184 C  
HETATM    2  C   UNL     1      -8.041  12.050  67.920  1.00  0.00    -0.150 C  
HETATM    3  N   UNL     1      -9.018  11.337  67.063  1.00  0.00    -0.151 NA 
HETATM    4  H   UNL     1      -7.127  14.520  69.102  1.00  0.00     0.000 HD 
HETATM    5  C   UNL     1     -10.097  12.275  66.668  1.00  0.00    -0.215 C  
HETATM    6  C   UNL     1      -9.990  13.409  67.688  1.00  0.00    -0.229 C  
HETATM    7  N   UNL     1      -8.130  14.444  68.938  1.00  0.00    -0.128 NA 
HETATM    8  O   UNL     1     -10.539  14.656  67.264  1.00  0.00    -0.277 OA 
HETATM    9  C   UNL     1      -8.771  15.749  68.638  1.00  0.00    -0.195 C  
HETATM   10  C   UNL     1     -10.271  15.657  68.265  1.00  0.00    -0.223 C  
ENDROOT
BRANCH   3  11
HETATM   11  C   UNL     1      -8.783  10.133  66.398  1.00  0.00    -0.130 A  
HETATM   12  C   UNL     1      -8.405   7.736  64.907  1.00  0.00    -0.071 A  
HETATM   13  C   UNL     1      -8.270   6.525  64.062  1.00  0.00     0.043 C  
HETATM   14  C   UNL     1      -8.412   8.964  64.263  1.00  0.00    -0.165 A  
HETATM   15  C   UNL     1      -8.298   5.207  64.709  1.00  0.00    -0.143 C  
HETATM   16  C   UNL     1      -8.583  10.124  64.999  1.00  0.00    -0.167 A  
HETATM   17  O   UNL     1      -8.163   6.602  62.840  1.00  0.00    -0.081 OA 
HETATM   18  C   UNL     1      -8.406   5.203  66.043  1.00  0.00    -0.116 C  
HETATM   19  C   UNL     1      -8.153   3.926  63.987  1.00  0.00    -0.090 C  
HETATM   20  F   UNL     1      -8.553  11.264  64.293  1.00  0.00    -0.013 F  
HETATM   21  N   UNL     1      -8.459   6.313  66.876  1.00  0.00    -0.109 NA 
HETATM   22  O   UNL     1      -8.106   2.841  64.547  1.00  0.00    -0.081 OA 
HETATM   23  O   UNL     1      -8.058   4.048  62.645  1.00  0.00    -0.072 OA 
HETATM   24  N   UNL     1      -9.614   8.677  69.493  1.00  0.00    -0.168 NA 
HETATM   25  C   UNL     1      -8.543   7.632  66.308  1.00  0.00    -0.144 A  
HETATM   26  C   UNL     1      -8.793   8.844  67.033  1.00  0.00    -0.138 A  
HETATM   27  C   UNL     1      -9.235   8.751  68.397  1.00  0.00    -0.137 C  
BRANCH  21  28
HETATM   28  C   UNL     1      -8.118   6.046  68.296  1.00  0.00    -0.110 C  
HETATM   29  C   UNL     1      -8.308   4.662  68.893  1.00  0.00    -0.085 C  
HETATM   30  C   UNL     1      -6.931   5.210  68.709  1.00  0.00    -0.053 C  
ENDBRANCH  21  28
ENDBRANCH   3  11
TORSDOF 2
ENDMDL
MODEL      101
REMARK 921   NORMALIZED FREE ENERGY PREDICTED BY IDOCK:   -3.08 KCAL/MOL
REMARK 922        TOTAL FREE ENERGY PREDICTED BY IDOCK:   -4.22 KCAL/MOL
REMARK 923 INTER-LIGAND FREE ENERGY PREDICTED BY IDOCK:   -4.24 KCAL/MOL
REMARK 924 INTRA-LIGAND FREE ENERGY PREDICTED BY IDOCK:    0.02 KCAL/MOL
REMARK 927      BINDING AFFINITY PREDICTED BY RF-SCORE:    0.00 PKD
ROOT
HETATM    1  C   UNL     1      -8.206  15.597  67.027  1.00  0.00    -0.233 C  
HETATM    2  C   UNL     1      -7.797  14.261  67.684  1.00  0.00    -0.179 C  
HETATM    3  N   UNL     1      -8.486  13.231  66.870  1.00  0.00    -0.122 NA 
HETATM    4  H   UNL     1      -7.287  17.049  68.230  1.00  0.00     0.000 HD 
HETATM    5  C   UNL     1      -9.428  13.896  65.936  1.00  0.00    -0.055 C  
HETATM    6  C   UNL     1      -9.626  15.285  66.542  1.00  0.00    -0.271 C  
HETATM    7  N   UNL     1      -8.204  16.826  67.843  1.00  0.00    -0.184 NA 
HETATM    8  O   UNL     1     -10.056  16.289  65.622  1.00  0.00    -0.409 OA 
HETATM    9  C   UNL     1      -8.757  17.912  66.996  1.00  0.00    -0.245 C  
HETATM   10  C   UNL     1     -10.094  17.562  66.295  1.00  0.00    -0.336 C  
ENDROOT
BRANCH   3  11
HETATM   11  C   UNL     1      -8.057  11.914  66.698  1.00  0.00    -0.063 A  
HETATM   12  C   UNL     1      -7.059   9.287  66.235  1.00  0.00    -0.087 A  
HETATM   13  C   UNL     1      -6.478   7.958  65.926  1.00  0.00    -0.042 C  
HETATM   14  C   UNL     1      -6.184  10.360  66.323  1.00  0.00    -0.092 A  
HETATM   15  C   UNL     1      -7.381   6.809  65.787  1.00  0.00    -0.075 C  
HETATM   16  C   UNL     1      -6.679  11.631  66.562  1.00  0.00     0.039 A  
HETATM   17  O   UNL     1      -5.270   7.808  65.759  1.00  0.00    -0.027 OA 
HETATM   18  C   UNL     1      -8.681   7.048  65.993  1.00  0.00    -0.144 C  
HETATM   19  C   UNL     1      -6.930   5.431  65.502  1.00  0.00    -0.065 C  
HETATM   20  F   UNL     1      -5.757  12.600  66.654  1.00  0.00     0.065 F  
HETATM   21  N   UNL     1      -9.257   8.258  66.358  1.00  0.00    -0.183 NA 
HETATM   22  O   UNL     1      -7.686   4.472  65.460  1.00  0.00    -0.088 OA 
HETATM   23  O   UNL     1      -5.600   5.307  65.305  1.00  0.00    -0.013 OA 
HETATM   24  N   UNL     1     -11.489  11.223  66.337  1.00  0.00    -0.274 NA 
HETATM   25  C   UNL     1      -8.451   9.449  66.408  1.00  0.00    -0.126 A  
HETATM   26  C   UNL     1      -8.939  10.786  66.579  1.00  0.00    -0.168 A  
HETATM   27  C   UNL     1     -10.350  11.025  66.458  1.00  0.00    -0.245 C  
BRANCH  21  28
HETATM   28  C   UNL     1     -10.610   8.151  66.959  1.00  0.00    -0.275 C  
HETATM   29  C   UNL     1     -11.140   6.813  67.446  1.00  0.00    -0.366 C  
HETATM   30  C   UNL     1     -10.834   7.895  68.430  1.00  0.00     0.025 C  
ENDBRANCH  21  28
ENDBRANCH   3  11
TORSDOF 2
ENDMDL
MODEL      102
REMARK 921   NORMALIZED FREE ENERGY PREDICTED BY IDOCK:   -2.82 KCAL/MOL
REMARK 922        TOTAL FREE ENERGY PREDICTED BY IDOCK:   -3.93 KCAL/MOL
REMARK 923 INTER-LIGAND FREE ENERGY PREDICTED BY IDOCK:   -3.75 KCAL/MOL
REMARK 924 INTRA-LIGAND FREE ENERGY PREDICTED BY IDOCK:   -0.18 KCAL/MOL
REMARK 927      BINDING AFFINITY PREDICTED BY RF-SCORE:    0.00 PKD
ROOT
HETATM    1  C   UNL     1      -7.733  15.672  67.118  1.00  0.00    -0.223 C  
HETATM    2  C   UNL     1      -6.855  14.491  67.586  1.00  0.00    -0.182 C  
HETATM    3  N   UNL     1      -7.573  13.952  68.766  1.00  0.00    -0.128 NA 
HETATM    4  H   UNL     1      -6.672  16.472  65.495  1.00  0.00     0.000 HD 
HETATM    5  C   UNL     1      -8.675  14.876  69.130  1.00  0.00    -0.149 C  
HETATM    6  C   UNL     1      -8.297  16.189  68.446  1.00  0.00    -0.179 C  
HETATM    7  N   UNL     1      -7.106  16.776  66.366  1.00  0.00    -0.213 NA 
HETATM    8  O   UNL     1      -9.387  17.076  68.197  1.00  0.00    -0.241 OA 
HETATM    9  C   UNL     1      -8.148  17.814  66.166  1.00  0.00    -0.181 C  
HETATM   10  C   UNL     1      -8.911  18.214  67.452  1.00  0.00    -0.256 C  
ENDROOT
BRANCH   3  11
HETATM   11  C   UNL     1      -7.513  12.633  69.217  1.00  0.00     0.306 A  
HETATM   12  C   UNL     1      -7.229   9.929  70.066  1.00  0.00    -0.146 A  
HETATM   13  C   UNL     1      -6.994   8.519  70.459  1.00  0.00    -0.040 C  
HETATM   14  C   UNL     1      -6.145  10.793  70.114  1.00  0.00    -0.118 A  
HETATM   15  C   UNL     1      -8.112   7.570  70.382  1.00  0.00    -0.111 C  
HETATM   16  C   UNL     1      -6.298  12.109  69.711  1.00  0.00    -0.102 A  
HETATM   17  O   UNL     1      -5.886   8.128  70.819  1.00  0.00    -0.032 OA 
HETATM   18  C   UNL     1      -9.289   8.071  69.992  1.00  0.00    -0.156 C  
HETATM   19  C   UNL     1      -8.017   6.146  70.763  1.00  0.00    -0.115 C  
HETATM   20  F   UNL     1      -5.201  12.874  69.815  1.00  0.00    -0.075 F  
HETATM   21  N   UNL     1      -9.570   9.397  69.689  1.00  0.00    -0.176 NA 
HETATM   22  O   UNL     1      -8.973   5.385  70.763  1.00  0.00    -0.133 OA 
HETATM   23  O   UNL     1      -6.781   5.747  71.134  1.00  0.00    -0.053 OA 
HETATM   24  N   UNL     1     -10.746  12.396  67.845  1.00  0.00    -0.214 NA 
HETATM   25  C   UNL     1      -8.503  10.362  69.639  1.00  0.00    -0.049 A  
HETATM   26  C   UNL     1      -8.611  11.708  69.159  1.00  0.00     0.305 A  
HETATM   27  C   UNL     1      -9.797  12.091  68.444  1.00  0.00    -0.204 C  
BRANCH  21  28
HETATM   28  C   UNL     1     -11.009   9.759  69.736  1.00  0.00    -0.256 C  
HETATM   29  C   UNL     1     -11.945   9.094  70.730  1.00  0.00    -0.243 C  
HETATM   30  C   UNL     1     -11.619  10.544  70.872  1.00  0.00    -0.385 C  
ENDBRANCH  21  28
ENDBRANCH   3  11
TORSDOF 2
ENDMDL
MODEL      103
REMARK 921   NORMALIZED FREE ENERGY PREDICTED BY IDOCK:   -2.56 KCAL/MOL
REMARK 922        TOTAL FREE ENERGY PREDICTED BY IDOCK:   -3.63 KCAL/MOL
REMARK 923 INTER-LIGAND FREE ENERGY PREDICTED BY IDOCK:   -3.85 KCAL/MOL
REMARK 924 INTRA-LIGAND FREE ENERGY PREDICTED BY IDOCK:    0.22 KCAL/MOL
REMARK 927      BINDING AFFINITY PREDICTED BY RF-SCORE:    0.00 PKD
ROOT
HETATM    1  C   UNL     1      -9.314  17.497  66.477  1.00  0.00    -0.265 C  
HETATM    2  C   UNL     1      -9.169  16.128  67.175  1.00  0.00    -0.207 C  
HETATM    3  N   UNL     1     -10.000  15.214  66.354  1.00  0.00    -0.258 NA 
HETATM    4  H   UNL     1      -8.196  18.796  67.686  1.00  0.00     0.000 HD 
HETATM    5  C   UNL     1     -10.777  16.010  65.373  1.00  0.00    -0.383 C  
HETATM    6  C   UNL     1     -10.750  17.427  65.944  1.00  0.00    -0.123 C  
HETATM    7  N   UNL     1      -9.124  18.728  67.269  1.00  0.00    -0.274 NA 
HETATM    8  O   UNL     1     -10.964  18.467  64.990  1.00  0.00    -0.602 OA 
HETATM    9  C   UNL     1      -9.448  19.872  66.381  1.00  0.00    -0.412 C  
HETATM   10  C   UNL     1     -10.800  19.744  65.636  1.00  0.00    -0.232 C  
ENDROOT
BRANCH   3  11
HETATM   11  C   UNL     1      -9.804  13.839  66.225  1.00  0.00    -0.303 A  
HETATM   12  C   UNL     1      -9.534  11.029  65.842  1.00  0.00    -0.244 A  
HETATM   13  C   UNL     1      -9.473   9.571  65.582  1.00  0.00    -0.261 C  
HETATM   14  C   UNL     1      -9.799  11.858  64.762  1.00  0.00    -0.216 A  
HETATM   15  C   UNL     1      -9.233   8.663  66.711  1.00  0.00    -0.211 C  
HETATM   16  C   UNL     1      -9.915  13.224  64.957  1.00  0.00    -0.145 A  
HETATM   17  O   UNL     1      -9.644   9.111  64.455  1.00  0.00     0.194 OA 
HETATM   18  C   UNL     1      -9.046   9.237  67.904  1.00  0.00    -0.127 C  
HETATM   19  C   UNL     1      -9.129   7.194  66.584  1.00  0.00    -0.149 C  
HETATM   20  F   UNL     1     -10.148  13.946  63.852  1.00  0.00     0.043 F  
HETATM   21  N   UNL     1      -9.020  10.599  68.177  1.00  0.00    -0.136 NA 
HETATM   22  O   UNL     1      -8.857   6.458  67.521  1.00  0.00    -0.113 OA 
HETATM   23  O   UNL     1      -9.342   6.723  65.337  1.00  0.00     0.279 OA 
HETATM   24  N   UNL     1      -9.793  13.873  69.744  1.00  0.00     0.840 NA 
HETATM   25  C   UNL     1      -9.352  11.543  67.144  1.00  0.00    -0.172 A  
HETATM   26  C   UNL     1      -9.551  12.951  67.327  1.00  0.00    -0.220 A  
HETATM   27  C   UNL     1      -9.672  13.462  68.664  1.00  0.00    -0.080 C  
BRANCH  21  28
HETATM   28  C   UNL     1      -8.352  10.968  69.450  1.00  0.00     0.147 C  
HETATM   29  C   UNL     1      -7.279  10.078  70.053  1.00  0.00    -0.158 C  
HETATM   30  C   UNL     1      -6.914  11.424  69.519  1.00  0.00    -0.063 C  
ENDBRANCH  21  28
ENDBRANCH   3  11
TORSDOF 2
ENDMDL
MODEL      104
REMARK 921   NORMALIZED FREE ENERGY PREDICTED BY IDOCK:   -2.35 KCAL/MOL
REMARK 922        TOTAL FREE ENERGY PREDICTED BY IDOCK:   -3.40 KCAL/MOL
REMARK 923 INTER-LIGAND FREE ENERGY PREDICTED BY IDOCK:   -4.70 KCAL/MOL
REMARK 924 INTRA-LIGAND FREE ENERGY PREDICTED BY IDOCK:    1.30 KCAL/MOL
REMARK 927      BINDING AFFINITY PREDICTED BY RF-SCORE:    0.00 PKD
ROOT
HETATM    1  C   UNL     1      -7.267  10.691  68.734  1.00  0.00    -0.087 C  
HETATM    2  C   UNL     1      -7.165  12.232  68.744  1.00  0.00    -0.098 C  
HETATM    3  N   UNL     1      -7.719  12.639  67.431  1.00  0.00    -0.161 NA 
HETATM    4  H   UNL     1      -6.414  10.120  70.563  1.00  0.00     0.000 HD 
HETATM    5  C   UNL     1      -7.924  11.434  66.592  1.00  0.00    -0.148 C  
HETATM    6  C   UNL     1      -7.045  10.372  67.251  1.00  0.00    -0.088 C  
HETATM    7  N   UNL     1      -6.337   9.906  69.570  1.00  0.00    -0.044 NA 
HETATM    8  O   UNL     1      -7.424   9.022  66.984  1.00  0.00    -0.086 OA 
HETATM    9  C   UNL     1      -6.579   8.474  69.262  1.00  0.00    -0.046 C  
HETATM   10  C   UNL     1      -6.588   8.134  67.751  1.00  0.00    -0.057 C  
ENDROOT
BRANCH   3  11
HETATM   11  C   UNL     1      -8.327  13.864  67.155  1.00  0.00    -0.154 A  
HETATM   12  C   UNL     1      -9.581  16.315  66.421  1.00  0.00    -0.316 A  
HETATM   13  C   UNL     1     -10.231  17.559  65.945  1.00  0.00    -0.242 C  
HETATM   14  C   UNL     1      -9.996  15.120  65.851  1.00  0.00    -0.355 A  
HETATM   15  C   UNL     1      -9.787  18.843  66.501  1.00  0.00    -0.405 C  
HETATM   16  C   UNL     1      -9.389  13.933  66.225  1.00  0.00    -0.156 A  
HETATM   17  O   UNL     1     -11.107  17.538  65.083  1.00  0.00    -0.535 OA 
HETATM   18  C   UNL     1      -8.838  18.786  67.441  1.00  0.00    -0.270 C  
HETATM   19  C   UNL     1     -10.365  20.151  66.127  1.00  0.00    -0.373 C  
HETATM   20  F   UNL     1      -9.873  12.829  65.637  1.00  0.00    -0.253 F  
HETATM   21  N   UNL     1      -8.258  17.640  67.969  1.00  0.00    -0.235 NA 
HETATM   22  O   UNL     1     -10.035  21.205  66.651  1.00  0.00     0.251 OA 
HETATM   23  O   UNL     1     -11.310  20.091  65.164  1.00  0.00    -0.150 OA 
HETATM   24  N   UNL     1      -5.682  15.199  69.054  1.00  0.00    -0.096 NA 
HETATM   25  C   UNL     1      -8.565  16.355  67.400  1.00  0.00    -0.178 A  
HETATM   26  C   UNL     1      -7.905  15.120  67.711  1.00  0.00    -0.161 A  
HETATM   27  C   UNL     1      -6.683  15.163  68.464  1.00  0.00    -0.108 C  
BRANCH  21  28
HETATM   28  C   UNL     1      -7.593  17.824  69.283  1.00  0.00     0.062 C  
HETATM   29  C   UNL     1      -6.111  18.147  69.367  1.00  0.00    -0.250 C  
HETATM   30  C   UNL     1      -7.119  19.168  69.780  1.00  0.00     0.037 C  
ENDBRANCH  21  28
ENDBRANCH   3  11
TORSDOF 2
ENDMDL
MODEL      105
REMARK 921   NORMALIZED FREE ENERGY PREDICTED BY IDOCK:   -2.15 KCAL/MOL
REMARK 922        TOTAL FREE ENERGY PREDICTED BY IDOCK:   -3.18 KCAL/MOL
REMARK 923 INTER-LIGAND FREE ENERGY PREDICTED BY IDOCK:   -2.46 KCAL/MOL
REMARK 924 INTRA-LIGAND FREE ENERGY PREDICTED BY IDOCK:   -0.72 KCAL/MOL
REMARK 927      BINDING AFFINITY PREDICTED BY RF-SCORE:    0.00 PKD
ROOT
HETATM    1  C   UNL     1      -8.489   4.232  64.296  1.00  0.00    -0.110 C  
HETATM    2  C   UNL     1      -7.552   5.261  64.966  1.00  0.00    -0.082 C  
HETATM    3  N   UNL     1      -8.292   5.689  66.177  1.00  0.00    -0.117 NA 
HETATM    4  H   UNL     1      -7.467   3.689  62.546  1.00  0.00     0.000 HD 
HETATM    5  C   UNL     1      -9.670   5.142  66.127  1.00  0.00    -0.176 C  
HETATM    6  C   UNL     1      -9.872   4.789  64.653  1.00  0.00     0.180 C  
HETATM    7  N   UNL     1      -8.388   4.014  62.840  1.00  0.00    -0.081 NA 
HETATM    8  O   UNL     1     -10.871   3.801  64.400  1.00  0.00    -0.238 OA 
HETATM    9  C   UNL     1      -9.480   3.082  62.462  1.00  0.00    -0.092 C  
HETATM   10  C   UNL     1     -10.878   3.483  62.995  1.00  0.00    -0.148 C  
ENDROOT
BRANCH   3  11
HETATM   11  C   UNL     1      -7.712   6.167  67.353  1.00  0.00    -0.094 A  
HETATM   12  C   UNL     1      -6.619   7.019  69.842  1.00  0.00    -0.044 A  
HETATM   13  C   UNL     1      -6.109   7.395  71.182  1.00  0.00    -0.036 C  
HETATM   14  C   UNL     1      -6.806   5.668  69.587  1.00  0.00    -0.061 A  
HETATM   15  C   UNL     1      -5.937   8.819  71.496  1.00  0.00    -0.056 C  
HETATM   16  C   UNL     1      -7.325   5.264  68.369  1.00  0.00    -0.071 A  
HETATM   17  O   UNL     1      -5.855   6.548  72.035  1.00  0.00    -0.036 OA 
HETATM   18  C   UNL     1      -6.224   9.682  70.515  1.00  0.00    -0.078 C  
HETATM   19  C   UNL     1      -5.420   9.326  72.784  1.00  0.00    -0.048 C  
HETATM   20  F   UNL     1      -7.448   3.939  68.206  1.00  0.00    -0.057 F  
HETATM   21  N   UNL     1      -6.631   9.369  69.224  1.00  0.00    -0.048 NA 
HETATM   22  O   UNL     1      -5.214  10.510  73.005  1.00  0.00    -0.323 OA 
HETATM   23  O   UNL     1      -5.171   8.368  73.703  1.00  0.00    -0.052 OA 
HETATM   24  N   UNL     1      -8.621   9.325  66.092  1.00  0.00    -0.130 NA 
HETATM   25  C   UNL     1      -6.922   8.003  68.877  1.00  0.00    -0.062 A  
HETATM   26  C   UNL     1      -7.527   7.560  67.655  1.00  0.00    -0.104 A  
HETATM   27  C   UNL     1      -8.121   8.538  66.785  1.00  0.00    -0.098 C  
BRANCH  21  28
HETATM   28  C   UNL     1      -6.437  10.452  68.228  1.00  0.00    -0.059 C  
HETATM   29  C   UNL     1      -7.309  11.695  68.253  1.00  0.00    -0.093 C  
HETATM   30  C   UNL     1      -5.856  11.799  68.585  1.00  0.00    -0.049 C  
ENDBRANCH  21  28
ENDBRANCH   3  11
TORSDOF 2
ENDMDL
MODEL      106
REMARK 921   NORMALIZED FREE ENERGY PREDICTED BY IDOCK:   -2.02 KCAL/MOL
REMARK 922        TOTAL FREE ENERGY PREDICTED BY IDOCK:   -3.03 KCAL/MOL
REMARK 923 INTER-LIGAND FREE ENERGY PREDICTED BY IDOCK:   -3.83 KCAL/MOL
REMARK 924 INTRA-LIGAND FREE ENERGY PREDICTED BY IDOCK:    0.80 KCAL/MOL
REMARK 927      BINDING AFFINITY PREDICTED BY RF-SCORE:    0.00 PKD
ROOT
HETATM    1  C   UNL     1      -8.043   9.915  64.257  1.00  0.00    -0.152 C  
HETATM    2  C   UNL     1      -8.796   8.814  65.036  1.00  0.00    -0.107 C  
HETATM    3  N   UNL     1      -7.823   8.366  66.061  1.00  0.00    -0.095 NA 
HETATM    4  H   UNL     1      -9.401  10.490  62.765  1.00  0.00     0.000 HD 
HETATM    5  C   UNL     1      -6.501   8.978  65.779  1.00  0.00    -0.064 C  
HETATM    6  C   UNL     1      -6.598   9.407  64.316  1.00  0.00    -0.094 C  
HETATM    7  N   UNL     1      -8.429  10.195  62.860  1.00  0.00    -0.162 NA 
HETATM    8  O   UNL     1      -5.702  10.449  63.931  1.00  0.00    -0.140 OA 
HETATM    9  C   UNL     1      -7.464  11.191  62.333  1.00  0.00     0.098 C  
HETATM   10  C   UNL     1      -5.976  10.831  62.569  1.00  0.00    -0.113 C  
ENDROOT
BRANCH   3  11
HETATM   11  C   UNL     1      -8.149   7.809  67.298  1.00  0.00    -0.119 A  
HETATM   12  C   UNL     1      -8.808   6.513  69.747  1.00  0.00    -0.143 A  
HETATM   13  C   UNL     1      -9.152   5.752  70.972  1.00  0.00    -0.146 C  
HETATM   14  C   UNL     1      -7.871   5.953  68.891  1.00  0.00    -0.095 A  
HETATM   15  C   UNL     1     -10.169   6.299  71.879  1.00  0.00    -0.227 C  
HETATM   16  C   UNL     1      -7.548   6.599  67.710  1.00  0.00    -0.106 A  
HETATM   17  O   UNL     1      -8.628   4.671  71.226  1.00  0.00    -0.108 OA 
HETATM   18  C   UNL     1     -10.689   7.485  71.542  1.00  0.00    -0.218 C  
HETATM   19  C   UNL     1     -10.588   5.652  73.140  1.00  0.00    -0.247 C  
HETATM   20  F   UNL     1      -6.616   5.993  66.959  1.00  0.00    -0.047 F  
HETATM   21  N   UNL     1     -10.340   8.264  70.447  1.00  0.00    -0.202 NA 
HETATM   22  O   UNL     1     -11.383   6.154  73.920  1.00  0.00     0.403 OA 
HETATM   23  O   UNL     1     -10.006   4.457  73.376  1.00  0.00    -0.130 OA 
HETATM   24  N   UNL     1     -10.640  10.295  67.355  1.00  0.00    -0.251 NA 
HETATM   25  C   UNL     1      -9.431   7.747  69.459  1.00  0.00    -0.160 A  
HETATM   26  C   UNL     1      -9.132   8.353  68.195  1.00  0.00    -0.138 A  
HETATM   27  C   UNL     1      -9.958   9.435  67.737  1.00  0.00    -0.184 C  
BRANCH  21  28
HETATM   28  C   UNL     1     -10.715   9.696  70.554  1.00  0.00    -0.311 C  
HETATM   29  C   UNL     1     -12.011  10.208  69.948  1.00  0.00    -0.156 C  
HETATM   30  C   UNL     1     -11.842  10.184  71.432  1.00  0.00    -0.414 C  
ENDBRANCH  21  28
ENDBRANCH   3  11
TORSDOF 2
ENDMDL
MODEL      107
REMARK 921   NORMALIZED FREE ENERGY PREDICTED BY IDOCK:   -1.94 KCAL/MOL
REMARK 922        TOTAL FREE ENERGY PREDICTED BY IDOCK:   -2.95 KCAL/MOL
REMARK 923 INTER-LIGAND FREE ENERGY PREDICTED BY IDOCK:   -3.13 KCAL/MOL
REMARK 924 INTRA-LIGAND FREE ENERGY PREDICTED BY IDOCK:    0.19 KCAL/MOL
REMARK 927      BINDING AFFINITY PREDICTED BY RF-SCORE:    0.00 PKD
ROOT
HETATM    1  C   UNL     1     -11.249  13.674  64.336  1.00  0.00    -0.367 C  
HETATM    2  C   UNL     1     -10.489  15.012  64.467  1.00  0.00     0.142 C  
HETATM    3  N   UNL     1     -10.924  15.548  65.779  1.00  0.00    -0.313 NA 
HETATM    4  H   UNL     1     -10.686  12.961  62.445  1.00  0.00     0.000 HD 
HETATM    5  C   UNL     1     -12.038  14.719  66.301  1.00  0.00    -0.094 C  
HETATM    6  C   UNL     1     -12.561  13.986  65.065  1.00  0.00    -0.390 C  
HETATM    7  N   UNL     1     -11.530  13.139  62.989  1.00  0.00     0.236 NA 
HETATM    8  O   UNL     1     -13.266  12.775  65.335  1.00  0.00    -0.428 OA 
HETATM    9  C   UNL     1     -12.373  11.930  63.168  1.00  0.00    -0.236 C  
HETATM   10  C   UNL     1     -13.601  12.134  64.089  1.00  0.00     1.175 C  
ENDROOT
BRANCH   3  11
HETATM   11  C   UNL     1     -10.180  16.408  66.588  1.00  0.00    -0.294 A  
HETATM   12  C   UNL     1      -8.649  18.274  68.101  1.00  0.00    -0.290 A  
HETATM   13  C   UNL     1      -7.842  19.299  68.804  1.00  0.00    -0.353 C  
HETATM   14  C   UNL     1      -9.601  18.722  67.197  1.00  0.00    -0.328 A  
HETATM   15  C   UNL     1      -6.799  18.856  69.739  1.00  0.00     0.001 C  
HETATM   16  C   UNL     1     -10.349  17.806  66.476  1.00  0.00    -0.345 A  
HETATM   17  O   UNL     1      -8.009  20.499  68.602  1.00  0.00     0.221 OA 
HETATM   18  C   UNL     1      -6.682  17.535  69.914  1.00  0.00     0.280 C  
HETATM   19  C   UNL     1      -5.941  19.773  70.517  1.00  0.00    -0.269 C  
HETATM   20  F   UNL     1     -11.260  18.333  65.645  1.00  0.00    -0.076 F  
HETATM   21  N   UNL     1      -7.466  16.547  69.334  1.00  0.00    -0.175 NA 
HETATM   22  O   UNL     1      -5.127  19.391  71.344  1.00  0.00    -0.261 OA 
HETATM   23  O   UNL     1      -6.139  21.083  70.255  1.00  0.00    -0.227 OA 
HETATM   24  N   UNL     1      -8.433  13.484  67.474  1.00  0.00    -0.180 NA 
HETATM   25  C   UNL     1      -8.435  16.897  68.329  1.00  0.00    -0.229 A  
HETATM   26  C   UNL     1      -9.171  15.975  67.516  1.00  0.00    -0.214 A  
HETATM   27  C   UNL     1      -8.770  14.596  67.503  1.00  0.00    -0.186 C  
BRANCH  21  28
HETATM   28  C   UNL     1      -7.437  15.236  70.031  1.00  0.00     0.083 C  
HETATM   29  C   UNL     1      -6.484  14.140  69.585  1.00  0.00    -0.134 C  
HETATM   30  C   UNL     1      -6.289  14.802  70.909  1.00  0.00     0.117 C  
ENDBRANCH  21  28
ENDBRANCH   3  11
TORSDOF 2
ENDMDL
MODEL      108
REMARK 921   NORMALIZED FREE ENERGY PREDICTED BY IDOCK:   -1.89 KCAL/MOL
REMARK 922        TOTAL FREE ENERGY PREDICTED BY IDOCK:   -2.89 KCAL/MOL
REMARK 923 INTER-LIGAND FREE ENERGY PREDICTED BY IDOCK:   -2.97 KCAL/MOL
REMARK 924 INTRA-LIGAND FREE ENERGY PREDICTED BY IDOCK:    0.08 KCAL/MOL
REMARK 927      BINDING AFFINITY PREDICTED BY RF-SCORE:    0.00 PKD
ROOT
HETATM    1  C   UNL     1      -5.915  17.926  70.519  1.00  0.00     0.178 C  
HETATM    2  C   UNL     1      -6.681  16.585  70.528  1.00  0.00     1.197 C  
HETATM    3  N   UNL     1      -7.139  16.421  69.127  1.00  0.00    -0.215 NA 
HETATM    4  H   UNL     1      -5.336  18.184  72.519  1.00  0.00     0.000 HD 
HETATM    5  C   UNL     1      -6.877  17.674  68.378  1.00  0.00    -0.214 C  
HETATM    6  C   UNL     1      -6.698  18.726  69.472  1.00  0.00    -0.167 C  
HETATM    7  N   UNL     1      -5.807  18.696  71.774  1.00  0.00     0.350 NA 
HETATM    8  O   UNL     1      -5.950  19.879  69.085  1.00  0.00    -0.248 OA 
HETATM    9  C   UNL     1      -5.143  19.981  71.440  1.00  0.00    -0.321 C  
HETATM   10  C   UNL     1      -5.761  20.729  70.233  1.00  0.00    -0.135 C  
ENDROOT
BRANCH   3  11
HETATM   11  C   UNL     1      -7.391  15.202  68.496  1.00  0.00    -0.119 A  
HETATM   12  C   UNL     1      -7.732  12.693  67.192  1.00  0.00    -0.094 A  
HETATM   13  C   UNL     1      -7.810  11.383  66.503  1.00  0.00    -0.105 C  
HETATM   14  C   UNL     1      -6.711  12.867  68.115  1.00  0.00    -0.096 A  
HETATM   15  C   UNL     1      -8.855  11.180  65.491  1.00  0.00    -0.145 C  
HETATM   16  C   UNL     1      -6.563  14.087  68.753  1.00  0.00    -0.096 A  
HETATM   17  O   UNL     1      -7.008  10.483  66.739  1.00  0.00    -0.093 OA 
HETATM   18  C   UNL     1      -9.697  12.201  65.295  1.00  0.00    -0.141 C  
HETATM   19  C   UNL     1      -9.054   9.919  64.748  1.00  0.00    -0.237 C  
HETATM   20  F   UNL     1      -5.564  14.153  69.645  1.00  0.00    -0.090 F  
HETATM   21  N   UNL     1      -9.705  13.414  65.972  1.00  0.00    -0.253 NA 
HETATM   22  O   UNL     1      -9.973   9.741  63.962  1.00  0.00     0.141 OA 
HETATM   23  O   UNL     1      -8.143   8.959  65.019  1.00  0.00    -0.121 OA 
HETATM   24  N   UNL     1      -9.703  17.070  66.610  1.00  0.00    -0.264 NA 
HETATM   25  C   UNL     1      -8.649  13.725  66.899  1.00  0.00    -0.109 A  
HETATM   26  C   UNL     1      -8.425  14.998  67.519  1.00  0.00    -0.188 A  
HETATM   27  C   UNL     1      -9.141  16.140  67.024  1.00  0.00    -0.209 C  
BRANCH  21  28
HETATM   28  C   UNL     1     -10.984  14.163  65.896  1.00  0.00    -0.297 C  
HETATM   29  C   UNL     1     -11.617  14.486  64.553  1.00  0.00    -0.385 C  
HETATM   30  C   UNL     1     -12.286  13.522  65.478  1.00  0.00    -0.490 C  
ENDBRANCH  21  28
ENDBRANCH   3  11
TORSDOF 2
ENDMDL
MODEL      109
REMARK 921   NORMALIZED FREE ENERGY PREDICTED BY IDOCK:   -1.76 KCAL/MOL
REMARK 922        TOTAL FREE ENERGY PREDICTED BY IDOCK:   -2.74 KCAL/MOL
REMARK 923 INTER-LIGAND FREE ENERGY PREDICTED BY IDOCK:   -2.21 KCAL/MOL
REMARK 924 INTRA-LIGAND FREE ENERGY PREDICTED BY IDOCK:   -0.53 KCAL/MOL
REMARK 927      BINDING AFFINITY PREDICTED BY RF-SCORE:    0.00 PKD
ROOT
HETATM    1  C   UNL     1      -7.135   3.834  64.277  1.00  0.00    -0.054 C  
HETATM    2  C   UNL     1      -7.083   5.170  65.050  1.00  0.00    -0.062 C  
HETATM    3  N   UNL     1      -7.975   4.949  66.214  1.00  0.00    -0.106 NA 
HETATM    4  H   UNL     1      -5.930   4.182  62.596  1.00  0.00     0.000 HD 
HETATM    5  C   UNL     1      -8.698   3.665  66.038  1.00  0.00    -0.120 C  
HETATM    6  C   UNL     1      -8.573   3.374  64.543  1.00  0.00    -0.093 C  
HETATM    7  N   UNL     1      -6.860   3.835  62.827  1.00  0.00    -0.034 NA 
HETATM    8  O   UNL     1      -8.716   2.000  64.182  1.00  0.00    -0.088 OA 
HETATM    9  C   UNL     1      -7.107   2.456  62.336  1.00  0.00    -0.031 C  
HETATM   10  C   UNL     1      -8.465   1.853  62.771  1.00  0.00    -0.072 C  
ENDROOT
BRANCH   3  11
HETATM   11  C   UNL     1      -7.873   5.596  67.446  1.00  0.00    -0.101 A  
HETATM   12  C   UNL     1      -7.619   7.063  69.874  1.00  0.00    -0.102 A  
HETATM   13  C   UNL     1      -7.455   7.904  71.083  1.00  0.00    -0.078 C  
HETATM   14  C   UNL     1      -8.166   7.664  68.750  1.00  0.00    -0.128 A  
HETATM   15  C   UNL     1      -6.843   7.309  72.278  1.00  0.00    -0.059 C  
HETATM   16  C   UNL     1      -8.297   6.937  67.578  1.00  0.00    -0.123 A  
HETATM   17  O   UNL     1      -7.793   9.085  71.096  1.00  0.00    -0.144 OA 
HETATM   18  C   UNL     1      -6.510   6.016  72.193  1.00  0.00    -0.058 C  
HETATM   19  C   UNL     1      -6.641   8.031  73.552  1.00  0.00    -0.101 C  
HETATM   20  F   UNL     1      -8.858   7.594  66.553  1.00  0.00    -0.121 F  
HETATM   21  N   UNL     1      -6.715   5.175  71.107  1.00  0.00    -0.038 NA 
HETATM   22  O   UNL     1      -6.196   7.502  74.560  1.00  0.00    -0.084 OA 
HETATM   23  O   UNL     1      -7.005   9.330  73.523  1.00  0.00    -0.119 OA 
HETATM   24  N   UNL     1      -6.050   2.737  68.389  1.00  0.00    -0.024 NA 
HETATM   25  C   UNL     1      -7.211   5.712  69.868  1.00  0.00    -0.069 A  
HETATM   26  C   UNL     1      -7.290   5.008  68.621  1.00  0.00    -0.062 A  
HETATM   27  C   UNL     1      -6.615   3.747  68.497  1.00  0.00    -0.045 C  
BRANCH  21  28
HETATM   28  C   UNL     1      -6.684   3.725  71.425  1.00  0.00    -0.027 C  
HETATM   29  C   UNL     1      -6.177   3.236  72.771  1.00  0.00    -0.009 C  
HETATM   30  C   UNL     1      -7.621   3.085  72.421  1.00  0.00    -0.053 C  
ENDBRANCH  21  28
ENDBRANCH   3  11
TORSDOF 2
ENDMDL
MODEL      110
REMARK 921   NORMALIZED FREE ENERGY PREDICTED BY IDOCK:   -1.44 KCAL/MOL
REMARK 922        TOTAL FREE ENERGY PREDICTED BY IDOCK:   -2.38 KCAL/MOL
REMARK 923 INTER-LIGAND FREE ENERGY PREDICTED BY IDOCK:   -2.70 KCAL/MOL
REMARK 924 INTRA-LIGAND FREE ENERGY PREDICTED BY IDOCK:    0.32 KCAL/MOL
REMARK 927      BINDING AFFINITY PREDICTED BY RF-SCORE:    0.00 PKD
ROOT
HETATM    1  C   UNL     1      -5.995  12.735  71.961  1.00  0.00     1.545 C  
HETATM    2  C   UNL     1      -5.879  14.187  71.449  1.00  0.00    -0.187 C  
HETATM    3  N   UNL     1      -6.319  14.108  70.035  1.00  0.00    -0.147 NA 
HETATM    4  H   UNL     1      -5.300  12.845  73.938  1.00  0.00     0.000 HD 
HETATM    5  C   UNL     1      -6.467  12.683  69.649  1.00  0.00    -0.050 C  
HETATM    6  C   UNL     1      -5.655  11.930  70.702  1.00  0.00    -0.149 C  
HETATM    7  N   UNL     1      -5.145  12.303  73.088  1.00  0.00    -0.287 NA 
HETATM    8  O   UNL     1      -6.023  10.563  70.886  1.00  0.00    -0.225 OA 
HETATM    9  C   UNL     1      -5.374  10.849  73.274  1.00  0.00     0.723 C  
HETATM   10  C   UNL     1      -5.262  10.010  71.977  1.00  0.00    -0.022 C  
ENDROOT
BRANCH   3  11
HETATM   11  C   UNL     1      -6.891  15.151  69.306  1.00  0.00    -0.153 A  
HETATM   12  C   UNL     1      -8.015  17.389  67.950  1.00  0.00    -0.218 A  
HETATM   13  C   UNL     1      -8.578  18.609  67.324  1.00  0.00    -0.266 C  
HETATM   14  C   UNL     1      -6.831  17.525  68.658  1.00  0.00    -0.227 A  
HETATM   15  C   UNL     1      -9.852  18.507  66.600  1.00  0.00    -0.370 C  
HETATM   16  C   UNL     1      -6.286  16.427  69.303  1.00  0.00    -0.186 A  
HETATM   17  O   UNL     1      -8.019  19.699  67.422  1.00  0.00    -0.263 OA 
HETATM   18  C   UNL     1     -10.396  17.287  66.527  1.00  0.00    -0.308 C  
HETATM   19  C   UNL     1     -10.509  19.640  65.916  1.00  0.00    -0.493 C  
HETATM   20  F   UNL     1      -5.128  16.650  69.941  1.00  0.00    -0.132 F  
HETATM   21  N   UNL     1      -9.865  16.107  67.032  1.00  0.00    -0.240 NA 
HETATM   22  O   UNL     1     -11.531  19.524  65.256  1.00  0.00     0.082 OA 
HETATM   23  O   UNL     1      -9.877  20.824  66.061  1.00  0.00     0.048 OA 
HETATM   24  N   UNL     1      -9.576  12.911  68.896  1.00  0.00     0.121 NA 
HETATM   25  C   UNL     1      -8.677  16.146  67.844  1.00  0.00    -0.174 A  
HETATM   26  C   UNL     1      -8.129  15.047  68.583  1.00  0.00    -0.153 A  
HETATM   27  C   UNL     1      -8.925  13.862  68.745  1.00  0.00     0.004 C  
BRANCH  21  28
HETATM   28  C   UNL     1     -10.414  14.866  66.432  1.00  0.00    -0.299 C  
HETATM   29  C   UNL     1     -11.540  14.928  65.414  1.00  0.00    -0.280 C  
HETATM   30  C   UNL     1     -10.179  14.480  64.991  1.00  0.00    -0.398 C  
ENDBRANCH  21  28
ENDBRANCH   3  11
TORSDOF 2
ENDMDL
MODEL      111
REMARK 921   NORMALIZED FREE ENERGY PREDICTED BY IDOCK:   -1.26 KCAL/MOL
REMARK 922        TOTAL FREE ENERGY PREDICTED BY IDOCK:   -2.18 KCAL/MOL
REMARK 923 INTER-LIGAND FREE ENERGY PREDICTED BY IDOCK:   -1.54 KCAL/MOL
REMARK 924 INTRA-LIGAND FREE ENERGY PREDICTED BY IDOCK:   -0.64 KCAL/MOL
REMARK 927      BINDING AFFINITY PREDICTED BY RF-SCORE:    0.00 PKD
ROOT
HETATM    1  C   UNL     1     -11.662  11.221  70.439  1.00  0.00    -0.304 C  
HETATM    2  C   UNL     1     -11.578   9.887  71.212  1.00  0.00    -0.379 C  
HETATM    3  N   UNL     1     -10.476   9.152  70.546  1.00  0.00    -0.218 NA 
HETATM    4  H   UNL     1     -13.271  12.222  71.341  1.00  0.00     0.000 HD 
HETATM    5  C   UNL     1     -10.078   9.879  69.316  1.00  0.00    -0.203 C  
HETATM    6  C   UNL     1     -11.272  10.787  69.022  1.00  0.00    -0.262 C  
HETATM    7  N   UNL     1     -12.944  11.954  70.413  1.00  0.00     0.210 NA 
HETATM    8  O   UNL     1     -10.976  11.935  68.227  1.00  0.00    -0.204 OA 
HETATM    9  C   UNL     1     -12.764  13.112  69.502  1.00  0.00     0.549 C  
HETATM   10  C   UNL     1     -12.156  12.756  68.123  1.00  0.00    -0.108 C  
ENDROOT
BRANCH   3  11
HETATM   11  C   UNL     1      -9.669   8.186  71.146  1.00  0.00    -0.163 A  
HETATM   12  C   UNL     1      -7.884   6.277  72.281  1.00  0.00    -0.104 A  
HETATM   13  C   UNL     1      -6.884   5.321  72.812  1.00  0.00    -0.076 C  
HETATM   14  C   UNL     1      -7.468   7.583  72.071  1.00  0.00    -0.081 A  
HETATM   15  C   UNL     1      -7.283   3.921  73.009  1.00  0.00    -0.059 C  
HETATM   16  C   UNL     1      -8.348   8.506  71.531  1.00  0.00    -0.162 A  
HETATM   17  O   UNL     1      -5.732   5.668  73.063  1.00  0.00    -0.026 OA 
HETATM   18  C   UNL     1      -8.554   3.621  72.724  1.00  0.00    -0.090 C  
HETATM   19  C   UNL     1      -6.390   2.875  73.550  1.00  0.00    -0.020 C  
HETATM   20  F   UNL     1      -7.863   9.748  71.387  1.00  0.00     0.120 F  
HETATM   21  N   UNL     1      -9.541   4.500  72.298  1.00  0.00    -0.147 NA 
HETATM   22  O   UNL     1      -6.757   1.731  73.775  1.00  0.00    -0.020 OA 
HETATM   23  O   UNL     1      -5.128   3.287  73.795  1.00  0.00     0.000 OA 
HETATM   24  N   UNL     1     -12.273   5.985  70.271  1.00  0.00     0.732 NA 
HETATM   25  C   UNL     1      -9.200   5.861  71.982  1.00  0.00    -0.147 A  
HETATM   26  C   UNL     1     -10.064   6.819  71.356  1.00  0.00    -0.198 A  
HETATM   27  C   UNL     1     -11.291   6.359  70.767  1.00  0.00    -0.350 C  
BRANCH  21  28
HETATM   28  C   UNL     1     -10.933   4.022  72.496  1.00  0.00     0.165 C  
HETATM   29  C   UNL     1     -11.207   2.617  73.004  1.00  0.00    -0.049 C  
HETATM   30  C   UNL     1     -11.533   3.794  73.863  1.00  0.00     0.050 C  
ENDBRANCH  21  28
ENDBRANCH   3  11
TORSDOF 2
ENDMDL
MODEL      112
REMARK 921   NORMALIZED FREE ENERGY PREDICTED BY IDOCK:   -0.70 KCAL/MOL
REMARK 922        TOTAL FREE ENERGY PREDICTED BY IDOCK:   -1.56 KCAL/MOL
REMARK 923 INTER-LIGAND FREE ENERGY PREDICTED BY IDOCK:   -4.48 KCAL/MOL
REMARK 924 INTRA-LIGAND FREE ENERGY PREDICTED BY IDOCK:    2.92 KCAL/MOL
REMARK 927      BINDING AFFINITY PREDICTED BY RF-SCORE:    0.00 PKD
ROOT
HETATM    1  C   UNL     1     -12.278   7.647  71.435  1.00  0.00    -0.326 C  
HETATM    2  C   UNL     1     -12.804   9.017  70.954  1.00  0.00     0.050 C  
HETATM    3  N   UNL     1     -11.624   9.910  71.047  1.00  0.00    -0.359 NA 
HETATM    4  H   UNL     1     -13.971   6.410  71.370  1.00  0.00     0.000 HD 
HETATM    5  C   UNL     1     -10.529   9.201  71.751  1.00  0.00    -0.291 C  
HETATM    6  C   UNL     1     -11.239   8.062  72.482  1.00  0.00    -0.388 C  
HETATM    7  N   UNL     1     -13.229   6.679  72.016  1.00  0.00    -0.109 NA 
HETATM    8  O   UNL     1     -10.411   6.946  72.811  1.00  0.00    -0.192 OA 
HETATM    9  C   UNL     1     -12.433   5.525  72.502  1.00  0.00     0.427 C  
HETATM   10  C   UNL     1     -11.223   5.907  73.390  1.00  0.00    -0.008 C  
ENDROOT
BRANCH   3  11
HETATM   11  C   UNL     1     -11.410  11.050  70.271  1.00  0.00    -0.203 A  
HETATM   12  C   UNL     1     -10.799  13.336  68.685  1.00  0.00    -0.285 A  
HETATM   13  C   UNL     1     -10.385  14.501  67.867  1.00  0.00    -0.231 C  
HETATM   14  C   UNL     1     -10.161  12.129  68.444  1.00  0.00    -0.210 A  
HETATM   15  C   UNL     1     -11.014  15.803  68.124  1.00  0.00    -0.330 C  
HETATM   16  C   UNL     1     -10.475  11.020  69.213  1.00  0.00    -0.180 A  
HETATM   17  O   UNL     1      -9.515  14.404  67.004  1.00  0.00    -0.229 OA 
HETATM   18  C   UNL     1     -11.959  15.828  69.070  1.00  0.00    -0.278 C  
HETATM   19  C   UNL     1     -10.707  17.034  67.368  1.00  0.00    -0.240 C  
HETATM   20  F   UNL     1      -9.824   9.893  68.891  1.00  0.00    -0.155 F  
HETATM   21  N   UNL     1     -12.429  14.747  69.806  1.00  0.00    -0.241 NA 
HETATM   22  O   UNL     1     -11.291  18.093  67.545  1.00  0.00     0.098 OA 
HETATM   23  O   UNL     1      -9.734  16.895  66.443  1.00  0.00    -0.257 OA 
HETATM   24  N   UNL     1     -13.404  12.638  72.699  1.00  0.00    -0.278 NA 
HETATM   25  C   UNL     1     -11.788  13.465  69.684  1.00  0.00    -0.331 A  
HETATM   26  C   UNL     1     -12.038  12.321  70.511  1.00  0.00    -0.371 A  
HETATM   27  C   UNL     1     -12.804  12.494  71.714  1.00  0.00    -0.242 C  
BRANCH  21  28
HETATM   28  C   UNL     1     -13.758  14.950  70.435  1.00  0.00     0.422 C  
HETATM   29  C   UNL     1     -13.977  14.637  71.905  1.00  0.00    -0.573 C  
HETATM   30  C   UNL     1     -14.033  16.052  71.430  1.00  0.00     0.826 C  
ENDBRANCH  21  28
ENDBRANCH   3  11
TORSDOF 2
ENDMDL
MODEL      113
REMARK 921   NORMALIZED FREE ENERGY PREDICTED BY IDOCK:    0.02 KCAL/MOL
REMARK 922        TOTAL FREE ENERGY PREDICTED BY IDOCK:   -0.76 KCAL/MOL
REMARK 923 INTER-LIGAND FREE ENERGY PREDICTED BY IDOCK:   -2.28 KCAL/MOL
REMARK 924 INTRA-LIGAND FREE ENERGY PREDICTED BY IDOCK:    1.52 KCAL/MOL
REMARK 927      BINDING AFFINITY PREDICTED BY RF-SCORE:    0.00 PKD
ROOT
HETATM    1  C   UNL     1     -11.900  12.890  71.938  1.00  0.00     2.024 C  
HETATM    2  C   UNL     1     -12.315  11.626  71.154  1.00  0.00    -0.246 C  
HETATM    3  N   UNL     1     -11.581  11.739  69.871  1.00  0.00    -0.296 NA 
HETATM    4  H   UNL     1     -13.000  12.758  73.719  1.00  0.00     0.000 HD 
HETATM    5  C   UNL     1     -10.953  13.080  69.783  1.00  0.00     0.306 C  
HETATM    6  C   UNL     1     -11.720  13.913  70.810  1.00  0.00    -0.066 C  
HETATM    7  N   UNL     1     -12.810  13.424  72.970  1.00  0.00     0.003 NA 
HETATM    8  O   UNL     1     -11.023  15.058  71.301  1.00  0.00    -0.222 OA 
HETATM    9  C   UNL     1     -12.219  14.695  73.457  1.00  0.00    -0.199 C  
HETATM   10  C   UNL     1     -11.807  15.682  72.336  1.00  0.00    -0.483 C  
ENDROOT
BRANCH   3  11
HETATM   11  C   UNL     1     -11.191  10.668  69.065  1.00  0.00    -0.265 A  
HETATM   12  C   UNL     1     -10.346   8.397  67.568  1.00  0.00    -0.333 A  
HETATM   13  C   UNL     1      -9.876   7.174  66.874  1.00  0.00    -0.208 C  
HETATM   14  C   UNL     1     -11.005   8.230  68.777  1.00  0.00     0.142 A  
HETATM   15  C   UNL     1      -9.140   7.319  65.611  1.00  0.00     0.084 C  
HETATM   16  C   UNL     1     -11.423   9.341  69.490  1.00  0.00     0.216 A  
HETATM   17  O   UNL     1     -10.064   6.055  67.345  1.00  0.00    -0.134 OA 
HETATM   18  C   UNL     1      -8.983   8.567  65.157  1.00  0.00    -0.006 C  
HETATM   19  C   UNL     1      -8.636   6.183  64.812  1.00  0.00     0.075 C  
HETATM   20  F   UNL     1     -12.071   9.080  70.635  1.00  0.00    -0.275 F  
HETATM   21  N   UNL     1      -9.472   9.731  65.735  1.00  0.00    -0.219 NA 
HETATM   22  O   UNL     1      -8.089   6.316  63.728  1.00  0.00    -0.114 OA 
HETATM   23  O   UNL     1      -8.843   4.971  65.370  1.00  0.00    -0.144 OA 
HETATM   24  N   UNL     1      -9.583  13.155  67.162  1.00  0.00    -0.228 NA 
HETATM   25  C   UNL     1     -10.108   9.678  67.024  1.00  0.00    -0.214 A  
HETATM   26  C   UNL     1     -10.486  10.809  67.820  1.00  0.00    -0.243 A  
HETATM   27  C   UNL     1      -9.997  12.107  67.449  1.00  0.00    -0.199 C  
BRANCH  21  28
HETATM   28  C   UNL     1      -9.559  10.896  64.819  1.00  0.00    -0.252 C  
HETATM   29  C   UNL     1     -10.005  10.719  63.377  1.00  0.00    -0.385 C  
HETATM   30  C   UNL     1     -10.872  11.464  64.338  1.00  0.00    -0.397 C  
ENDBRANCH  21  28
ENDBRANCH   3  11
TORSDOF 2
ENDMDL
MODEL      114
REMARK 921   NORMALIZED FREE ENERGY PREDICTED BY IDOCK:    0.57 KCAL/MOL
REMARK 922        TOTAL FREE ENERGY PREDICTED BY IDOCK:   -0.14 KCAL/MOL
REMARK 923 INTER-LIGAND FREE ENERGY PREDICTED BY IDOCK:   -3.71 KCAL/MOL
REMARK 924 INTRA-LIGAND FREE ENERGY PREDICTED BY IDOCK:    3.57 KCAL/MOL
REMARK 927      BINDING AFFINITY PREDICTED BY RF-SCORE:    0.00 PKD
ROOT
HETATM    1  C   UNL     1      -7.196   6.743  72.694  1.00  0.00    -0.079 C  
HETATM    2  C   UNL     1      -7.342   8.135  72.040  1.00  0.00    -0.091 C  
HETATM    3  N   UNL     1      -7.324   7.855  70.585  1.00  0.00    -0.060 NA 
HETATM    4  H   UNL     1      -7.150   7.158  74.750  1.00  0.00     0.000 HD 
HETATM    5  C   UNL     1      -6.959   6.434  70.365  1.00  0.00    -0.063 C  
HETATM    6  C   UNL     1      -6.305   6.014  71.682  1.00  0.00    -0.049 C  
HETATM    7  N   UNL     1      -6.617   6.645  74.048  1.00  0.00    -0.072 NA 
HETATM    8  O   UNL     1      -6.322   4.611  71.944  1.00  0.00    -0.020 OA 
HETATM    9  C   UNL     1      -6.481   5.200  74.360  1.00  0.00    -0.066 C  
HETATM   10  C   UNL     1      -5.781   4.368  73.257  1.00  0.00    -0.008 C  
ENDROOT
BRANCH   3  11
HETATM   11  C   UNL     1      -7.928   8.639  69.602  1.00  0.00    -0.096 A  
HETATM   12  C   UNL     1      -9.311  10.237  67.692  1.00  0.00    -0.158 A  
HETATM   13  C   UNL     1     -10.113  11.058  66.753  1.00  0.00    -0.220 C  
HETATM   14  C   UNL     1      -9.518  10.436  69.049  1.00  0.00    -0.205 A  
HETATM   15  C   UNL     1      -9.946  10.844  65.310  1.00  0.00    -0.330 C  
HETATM   16  C   UNL     1      -8.830   9.663  69.969  1.00  0.00    -0.232 A  
HETATM   17  O   UNL     1     -10.926  11.887  67.157  1.00  0.00    -0.241 OA 
HETATM   18  C   UNL     1      -9.036   9.934  64.947  1.00  0.00    -0.207 C  
HETATM   19  C   UNL     1     -10.667  11.608  64.271  1.00  0.00    -0.341 C  
HETATM   20  F   UNL     1      -9.078   9.943  71.257  1.00  0.00     0.093 F  
HETATM   21  N   UNL     1      -8.211   9.199  65.790  1.00  0.00    -0.111 NA 
HETATM   22  O   UNL     1     -10.465  11.469  63.074  1.00  0.00    -0.298 OA 
HETATM   23  O   UNL     1     -11.566  12.495  64.750  1.00  0.00    -0.314 OA 
HETATM   24  N   UNL     1      -6.506   6.311  67.378  1.00  0.00    -0.044 NA 
HETATM   25  C   UNL     1      -8.392   9.277  67.215  1.00  0.00    -0.125 A  
HETATM   26  C   UNL     1      -7.752   8.442  68.189  1.00  0.00    -0.103 A  
HETATM   27  C   UNL     1      -7.053   7.271  67.739  1.00  0.00    -0.089 C  
BRANCH  21  28
HETATM   28  C   UNL     1      -7.008   8.622  65.141  1.00  0.00    -0.072 C  
HETATM   29  C   UNL     1      -5.795   9.486  64.843  1.00  0.00    -0.067 C  
HETATM   30  C   UNL     1      -5.705   8.408  65.873  1.00  0.00    -0.043 C  
ENDBRANCH  21  28
ENDBRANCH   3  11
TORSDOF 2
ENDMDL
MODEL      115
REMARK 921   NORMALIZED FREE ENERGY PREDICTED BY IDOCK:    1.64 KCAL/MOL
REMARK 922        TOTAL FREE ENERGY PREDICTED BY IDOCK:    1.05 KCAL/MOL
REMARK 923 INTER-LIGAND FREE ENERGY PREDICTED BY IDOCK:   -0.12 KCAL/MOL
REMARK 924 INTRA-LIGAND FREE ENERGY PREDICTED BY IDOCK:    1.17 KCAL/MOL
REMARK 927      BINDING AFFINITY PREDICTED BY RF-SCORE:    0.00 PKD
ROOT
HETATM    1  C   UNL     1     -12.047  13.685  71.945  1.00  0.00     0.498 C  
HETATM    2  C   UNL     1     -11.908  12.868  70.643  1.00  0.00     0.045 C  
HETATM    3  N   UNL     1     -10.769  13.503  69.938  1.00  0.00     0.427 NA 
HETATM    4  H   UNL     1     -13.706  12.827  72.900  1.00  0.00     0.000 HD 
HETATM    5  C   UNL     1     -10.395  14.754  70.642  1.00  0.00     0.562 C  
HETATM    6  C   UNL     1     -11.627  15.085  71.483  1.00  0.00    -0.353 C  
HETATM    7  N   UNL     1     -13.361  13.743  72.617  1.00  0.00    -0.559 NA 
HETATM    8  O   UNL     1     -11.378  15.916  72.618  1.00  0.00    -0.236 OA 
HETATM    9  C   UNL     1     -13.228  14.691  73.752  1.00  0.00     0.730 C  
HETATM   10  C   UNL     1     -12.593  16.054  73.379  1.00  0.00    -0.561 C  
ENDROOT
BRANCH   3  11
HETATM   11  C   UNL     1      -9.922  12.866  69.030  1.00  0.00     0.247 A  
HETATM   12  C   UNL     1      -8.204  11.709  67.074  1.00  0.00    -0.170 A  
HETATM   13  C   UNL     1      -7.325  11.189  66.000  1.00  0.00     0.045 C  
HETATM   14  C   UNL     1      -8.095  13.056  67.390  1.00  0.00    -0.180 A  
HETATM   15  C   UNL     1      -7.443   9.777  65.615  1.00  0.00    -0.110 C  
HETATM   16  C   UNL     1      -8.927  13.605  68.352  1.00  0.00    -0.160 A  
HETATM   17  O   UNL     1      -6.526  11.916  65.414  1.00  0.00     1.280 OA 
HETATM   18  C   UNL     1      -8.326   9.046  66.304  1.00  0.00    -0.120 C  
HETATM   19  C   UNL     1      -6.614   9.130  64.577  1.00  0.00    -0.079 C  
HETATM   20  F   UNL     1      -8.732  14.907  68.605  1.00  0.00    -0.150 F  
HETATM   21  N   UNL     1      -9.113   9.475  67.365  1.00  0.00    -0.130 NA 
HETATM   22  O   UNL     1      -6.673   7.937  64.318  1.00  0.00    -0.059 OA 
HETATM   23  O   UNL     1      -5.762   9.962  63.941  1.00  0.00    -0.097 OA 
HETATM   24  N   UNL     1     -12.096  10.133  69.472  1.00  0.00     0.039 NA 
HETATM   25  C   UNL     1      -9.129  10.867  67.728  1.00  0.00    -0.149 A  
HETATM   26  C   UNL     1     -10.025  11.480  68.665  1.00  0.00    -0.207 A  
HETATM   27  C   UNL     1     -11.163  10.730  69.120  1.00  0.00    -0.262 C  
BRANCH  21  28
HETATM   28  C   UNL     1      -9.644   8.391  68.229  1.00  0.00    -0.144 C  
HETATM   29  C   UNL     1      -9.576   6.940  67.784  1.00  0.00    -0.134 C  
HETATM   30  C   UNL     1      -8.754   7.402  68.942  1.00  0.00    -0.132 C  
ENDBRANCH  21  28
ENDBRANCH   3  11
TORSDOF 2
ENDMDL
MODEL      116
REMARK 921   NORMALIZED FREE ENERGY PREDICTED BY IDOCK:    1.68 KCAL/MOL
REMARK 922        TOTAL FREE ENERGY PREDICTED BY IDOCK:    1.10 KCAL/MOL
REMARK 923 INTER-LIGAND FREE ENERGY PREDICTED BY IDOCK:   -1.17 KCAL/MOL
REMARK 924 INTRA-LIGAND FREE ENERGY PREDICTED BY IDOCK:    2.27 KCAL/MOL
REMARK 927      BINDING AFFINITY PREDICTED BY RF-SCORE:    0.00 PKD
ROOT
HETATM    1  C   UNL     1      -8.201   8.278  65.737  1.00  0.00    -0.123 C  
HETATM    2  C   UNL     1      -9.297   9.359  65.858  1.00  0.00    -0.230 C  
HETATM    3  N   UNL     1      -9.087   9.938  67.207  1.00  0.00    -0.135 NA 
HETATM    4  H   UNL     1      -8.553   7.416  63.857  1.00  0.00     0.000 HD 
HETATM    5  C   UNL     1      -8.094   9.117  67.941  1.00  0.00    -0.105 C  
HETATM    6  C   UNL     1      -8.083   7.789  67.185  1.00  0.00    -0.118 C  
HETATM    7  N   UNL     1      -8.419   7.135  64.828  1.00  0.00     0.037 NA 
HETATM    8  O   UNL     1      -6.893   7.015  67.339  1.00  0.00    -0.068 OA 
HETATM    9  C   UNL     1      -7.276   6.207  65.014  1.00  0.00    -0.070 C  
HETATM   10  C   UNL     1      -6.969   5.854  66.490  1.00  0.00    -0.060 C  
ENDROOT
BRANCH   3  11
HETATM   11  C   UNL     1      -9.428  11.234  67.593  1.00  0.00    -0.167 A  
HETATM   12  C   UNL     1      -9.957  13.930  68.347  1.00  0.00    -0.233 A  
HETATM   13  C   UNL     1     -10.136  15.352  68.724  1.00  0.00    -0.213 C  
HETATM   14  C   UNL     1      -9.135  13.657  67.263  1.00  0.00    -0.228 A  
HETATM   15  C   UNL     1     -10.969  15.672  69.891  1.00  0.00    -0.323 C  
HETATM   16  C   UNL     1      -8.896  12.343  66.897  1.00  0.00    -0.205 A  
HETATM   17  O   UNL     1      -9.584  16.257  68.103  1.00  0.00    -0.214 OA 
HETATM   18  C   UNL     1     -11.545  14.637  70.511  1.00  0.00    -0.263 C  
HETATM   19  C   UNL     1     -11.244  17.047  70.360  1.00  0.00     0.664 C  
HETATM   20  F   UNL     1      -8.108  12.179  65.824  1.00  0.00     0.309 F  
HETATM   21  N   UNL     1     -11.465  13.299  70.145  1.00  0.00    -0.059 NA 
HETATM   22  O   UNL     1     -11.997  17.301  71.288  1.00  0.00     1.588 OA 
HETATM   23  O   UNL     1     -10.605  18.013  69.665  1.00  0.00     0.206 OA 
HETATM   24  N   UNL     1     -10.908   9.636  70.358  1.00  0.00    -0.271 NA 
HETATM   25  C   UNL     1     -10.584  12.899  69.080  1.00  0.00    -0.043 A  
HETATM   26  C   UNL     1     -10.257  11.549  68.724  1.00  0.00    -0.204 A  
HETATM   27  C   UNL     1     -10.628  10.491  69.622  1.00  0.00    -0.242 C  
BRANCH  21  28
HETATM   28  C   UNL     1     -12.536  12.434  70.699  1.00  0.00    -0.153 C  
HETATM   29  C   UNL     1     -12.195  11.229  71.558  1.00  0.00    -0.077 C  
HETATM   30  C   UNL     1     -12.887  12.404  72.167  1.00  0.00    -0.173 C  
ENDBRANCH  21  28
ENDBRANCH   3  11
TORSDOF 2
ENDMDL
MODEL      117
REMARK 921   NORMALIZED FREE ENERGY PREDICTED BY IDOCK:    3.46 KCAL/MOL
REMARK 922        TOTAL FREE ENERGY PREDICTED BY IDOCK:    3.09 KCAL/MOL
REMARK 923 INTER-LIGAND FREE ENERGY PREDICTED BY IDOCK:   -2.41 KCAL/MOL
REMARK 924 INTRA-LIGAND FREE ENERGY PREDICTED BY IDOCK:    5.49 KCAL/MOL
REMARK 927      BINDING AFFINITY PREDICTED BY RF-SCORE:    0.00 PKD
ROOT
HETATM    1  C   UNL     1      -9.829  12.326  68.881  1.00  0.00     0.105 C  
HETATM    2  C   UNL     1      -9.961  10.787  68.878  1.00  0.00    -0.202 C  
HETATM    3  N   UNL     1      -8.630  10.309  69.322  1.00  0.00    -0.163 NA 
HETATM    4  H   UNL     1     -11.693  12.989  68.182  1.00  0.00     0.000 HD 
HETATM    5  C   UNL     1      -7.689  11.455  69.365  1.00  0.00     0.157 C  
HETATM    6  C   UNL     1      -8.359  12.515  68.491  1.00  0.00    -0.069 C  
HETATM    7  N   UNL     1     -10.700  13.121  67.993  1.00  0.00    -0.227 NA 
HETATM    8  O   UNL     1      -7.957  13.859  68.755  1.00  0.00    -0.129 OA 
HETATM    9  C   UNL     1     -10.266  14.536  68.111  1.00  0.00    -0.230 C  
HETATM   10  C   UNL     1      -8.742  14.756  67.946  1.00  0.00    -0.167 C  
ENDROOT
BRANCH   3  11
HETATM   11  C   UNL     1      -8.380   9.103  69.976  1.00  0.00    -0.150 A  
HETATM   12  C   UNL     1      -7.704   6.694  71.338  1.00  0.00    -0.094 A  
HETATM   13  C   UNL     1      -7.258   5.475  72.054  1.00  0.00    -0.088 C  
HETATM   14  C   UNL     1      -7.216   7.912  71.789  1.00  0.00    -0.071 A  
HETATM   15  C   UNL     1      -7.726   4.167  71.577  1.00  0.00    -0.065 C  
HETATM   16  C   UNL     1      -7.562   9.078  71.127  1.00  0.00    -0.102 A  
HETATM   17  O   UNL     1      -6.492   5.535  73.012  1.00  0.00    -0.058 OA 
HETATM   18  C   UNL     1      -8.566   4.181  70.536  1.00  0.00    -0.077 C  
HETATM   19  C   UNL     1      -7.374   2.880  72.212  1.00  0.00    -0.050 C  
HETATM   20  F   UNL     1      -7.061  10.207  71.650  1.00  0.00     0.517 F  
HETATM   21  N   UNL     1      -9.067   5.302  69.886  1.00  0.00    -0.127 NA 
HETATM   22  O   UNL     1      -7.828   1.806  71.848  1.00  0.00    -0.040 OA 
HETATM   23  O   UNL     1      -6.515   2.984  73.249  1.00  0.00    -0.019 OA 
HETATM   24  N   UNL     1      -9.957   7.672  67.173  1.00  0.00    -0.205 NA 
HETATM   25  C   UNL     1      -8.572   6.609  70.228  1.00  0.00    -0.140 A  
HETATM   26  C   UNL     1      -8.851   7.824  69.520  1.00  0.00    -0.139 A  
HETATM   27  C   UNL     1      -9.474   7.740  68.228  1.00  0.00    -0.147 C  
BRANCH  21  28
HETATM   28  C   UNL     1     -10.300   5.067  69.095  1.00  0.00    -0.104 C  
HETATM   29  C   UNL     1     -10.620   5.924  67.882  1.00  0.00    -0.322 C  
HETATM   30  C   UNL     1     -10.280   4.480  67.704  1.00  0.00    -0.001 C  
ENDBRANCH  21  28
ENDBRANCH   3  11
TORSDOF 2
ENDMDL
MODEL      118
REMARK 921   NORMALIZED FREE ENERGY PREDICTED BY IDOCK:    5.05 KCAL/MOL
REMARK 922        TOTAL FREE ENERGY PREDICTED BY IDOCK:    4.86 KCAL/MOL
REMARK 923 INTER-LIGAND FREE ENERGY PREDICTED BY IDOCK:    4.70 KCAL/MOL
REMARK 924 INTRA-LIGAND FREE ENERGY PREDICTED BY IDOCK:    0.17 KCAL/MOL
REMARK 927      BINDING AFFINITY PREDICTED BY RF-SCORE:    0.00 PKD
ROOT
HETATM    1  C   UNL     1     -10.215   4.058  72.620  1.00  0.00    -0.167 C  
HETATM    2  C   UNL     1      -9.185   4.177  71.475  1.00  0.00    -0.134 C  
HETATM    3  N   UNL     1      -9.951   4.786  70.361  1.00  0.00    -0.237 NA 
HETATM    4  H   UNL     1      -9.143   3.128  74.164  1.00  0.00     0.000 HD 
HETATM    5  C   UNL     1     -11.390   4.819  70.718  1.00  0.00     1.913 C  
HETATM    6  C   UNL     1     -11.513   3.795  71.847  1.00  0.00     2.078 C  
HETATM    7  N   UNL     1     -10.019   3.024  73.654  1.00  0.00    -0.104 NA 
HETATM    8  O   UNL     1     -12.636   3.977  72.709  1.00  0.00     0.979 OA 
HETATM    9  C   UNL     1     -11.213   3.058  74.536  1.00  0.00     0.617 C  
HETATM   10  C   UNL     1     -12.567   3.022  73.785  1.00  0.00     1.430 C  
ENDROOT
BRANCH   3  11
HETATM   11  C   UNL     1      -9.409   5.564  69.338  1.00  0.00    -0.118 A  
HETATM   12  C   UNL     1      -8.305   7.009  67.145  1.00  0.00    -0.121 A  
HETATM   13  C   UNL     1      -7.729   7.675  65.953  1.00  0.00    -0.098 C  
HETATM   14  C   UNL     1      -9.293   6.060  66.929  1.00  0.00    -0.140 A  
HETATM   15  C   UNL     1      -6.653   8.657  66.145  1.00  0.00    -0.061 C  
HETATM   16  C   UNL     1      -9.832   5.373  68.004  1.00  0.00    -0.144 A  
HETATM   17  O   UNL     1      -8.110   7.405  64.817  1.00  0.00    -0.131 OA 
HETATM   18  C   UNL     1      -6.298   8.907  67.410  1.00  0.00    -0.056 C  
HETATM   19  C   UNL     1      -6.009   9.405  65.046  1.00  0.00    -0.065 C  
HETATM   20  F   UNL     1     -10.797   4.493  67.699  1.00  0.00     0.121 F  
HETATM   21  N   UNL     1      -6.863   8.363  68.556  1.00  0.00    -0.063 NA 
HETATM   22  O   UNL     1      -5.166  10.271  65.227  1.00  0.00    -0.060 OA 
HETATM   23  O   UNL     1      -6.439   9.067  63.811  1.00  0.00    -0.087 OA 
HETATM   24  N   UNL     1      -7.177   6.650  71.833  1.00  0.00    -0.083 NA 
HETATM   25  C   UNL     1      -7.845   7.318  68.444  1.00  0.00    -0.122 A  
HETATM   26  C   UNL     1      -8.369   6.538  69.527  1.00  0.00    -0.130 A  
HETATM   27  C   UNL     1      -7.717   6.610  70.805  1.00  0.00    -0.097 C  
BRANCH  21  28
HETATM   28  C   UNL     1      -6.613   9.130  69.802  1.00  0.00    -0.046 C  
HETATM   29  C   UNL     1      -5.295   9.855  70.016  1.00  0.00    -0.037 C  
HETATM   30  C   UNL     1      -6.555  10.638  69.837  1.00  0.00    -0.137 C  
ENDBRANCH  21  28
ENDBRANCH   3  11
TORSDOF 2
ENDMDL
MODEL      119
REMARK 921   NORMALIZED FREE ENERGY PREDICTED BY IDOCK:    5.56 KCAL/MOL
REMARK 922        TOTAL FREE ENERGY PREDICTED BY IDOCK:    5.43 KCAL/MOL
REMARK 923 INTER-LIGAND FREE ENERGY PREDICTED BY IDOCK:   -1.73 KCAL/MOL
REMARK 924 INTRA-LIGAND FREE ENERGY PREDICTED BY IDOCK:    7.16 KCAL/MOL
REMARK 927      BINDING AFFINITY PREDICTED BY RF-SCORE:    0.00 PKD
ROOT
HETATM    1  C   UNL     1      -8.388  14.969  67.027  1.00  0.00    -0.222 C  
HETATM    2  C   UNL     1      -8.496  13.612  67.756  1.00  0.00    -0.183 C  
HETATM    3  N   UNL     1      -9.229  12.746  66.802  1.00  0.00    -0.224 NA 
HETATM    4  H   UNL     1      -7.417  16.206  68.414  1.00  0.00     0.000 HD 
HETATM    5  C   UNL     1      -9.734  13.574  65.679  1.00  0.00    -0.086 C  
HETATM    6  C   UNL     1      -9.696  15.000  66.228  1.00  0.00    -0.291 C  
HETATM    7  N   UNL     1      -8.250  16.202  67.826  1.00  0.00    -0.151 NA 
HETATM    8  O   UNL     1      -9.635  16.026  65.238  1.00  0.00    -0.368 OA 
HETATM    9  C   UNL     1      -8.300  17.343  66.878  1.00  0.00    -0.235 C  
HETATM   10  C   UNL     1      -9.490  17.304  65.888  1.00  0.00    -0.015 C  
ENDROOT
BRANCH   3  11
HETATM   11  C   UNL     1      -9.128  11.356  66.729  1.00  0.00    -0.176 A  
HETATM   12  C   UNL     1      -9.070   8.519  66.482  1.00  0.00    -0.217 A  
HETATM   13  C   UNL     1      -9.126   7.048  66.304  1.00  0.00    -0.147 C  
HETATM   14  C   UNL     1      -9.440   9.306  65.401  1.00  0.00    -0.281 A  
HETATM   15  C   UNL     1      -8.778   6.187  67.441  1.00  0.00    -0.104 C  
HETATM   16  C   UNL     1      -9.452  10.685  65.529  1.00  0.00    -0.214 A  
HETATM   17  O   UNL     1      -9.481   6.542  65.242  1.00  0.00     0.447 OA 
HETATM   18  C   UNL     1      -8.393   6.809  68.560  1.00  0.00    -0.120 C  
HETATM   19  C   UNL     1      -8.774   4.710  67.390  1.00  0.00    -0.104 C  
HETATM   20  F   UNL     1      -9.800  11.362  64.425  1.00  0.00    -0.243 F  
HETATM   21  N   UNL     1      -8.254   8.178  68.745  1.00  0.00    -0.123 NA 
HETATM   22  O   UNL     1      -8.413   4.007  68.322  1.00  0.00    -0.090 OA 
HETATM   23  O   UNL     1      -9.188   4.189  66.215  1.00  0.00    -0.136 OA 
HETATM   24  N   UNL     1      -8.616  11.571  70.205  1.00  0.00     2.056 NA 
HETATM   25  C   UNL     1      -8.677   9.087  67.713  1.00  0.00    -0.125 A  
HETATM   26  C   UNL     1      -8.771  10.512  67.837  1.00  0.00    -0.126 A  
HETATM   27  C   UNL     1      -8.673  11.098  69.145  1.00  0.00     0.070 C  
BRANCH  21  28
HETATM   28  C   UNL     1      -7.393   8.571  69.889  1.00  0.00    -0.055 C  
HETATM   29  C   UNL     1      -7.389  10.000  70.403  1.00  0.00    -0.094 C  
HETATM   30  C   UNL     1      -7.946   8.906  71.253  1.00  0.00    -0.172 C  
ENDBRANCH  21  28
ENDBRANCH   3  11
TORSDOF 2
ENDMDL
MODEL      120
REMARK 921   NORMALIZED FREE ENERGY PREDICTED BY IDOCK:    5.66 KCAL/MOL
REMARK 922        TOTAL FREE ENERGY PREDICTED BY IDOCK:    5.54 KCAL/MOL
REMARK 923 INTER-LIGAND FREE ENERGY PREDICTED BY IDOCK:    5.00 KCAL/MOL
REMARK 924 INTRA-LIGAND FREE ENERGY PREDICTED BY IDOCK:    0.54 KCAL/MOL
REMARK 927      BINDING AFFINITY PREDICTED BY RF-SCORE:    0.00 PKD
ROOT
HETATM    1  C   UNL     1      -8.130  12.016  69.044  1.00  0.00     0.212 C  
HETATM    2  C   UNL     1      -7.366  10.690  68.838  1.00  0.00    -0.099 C  
HETATM    3  N   UNL     1      -8.429   9.705  68.525  1.00  0.00    -0.117 NA 
HETATM    4  H   UNL     1      -6.626  13.385  69.559  1.00  0.00     0.000 HD 
HETATM    5  C   UNL     1      -9.755  10.329  68.754  1.00  0.00    -0.177 C  
HETATM    6  C   UNL     1      -9.448  11.526  69.653  1.00  0.00     1.072 C  
HETATM    7  N   UNL     1      -7.531  13.061  69.898  1.00  0.00     0.990 NA 
HETATM    8  O   UNL     1     -10.418  12.573  69.616  1.00  0.00     0.380 OA 
HETATM    9  C   UNL     1      -8.532  14.151  70.017  1.00  0.00     1.504 C  
HETATM   10  C   UNL     1      -9.952  13.678  70.415  1.00  0.00     2.998 C  
ENDROOT
BRANCH   3  11
HETATM   11  C   UNL     1      -8.261   8.547  67.766  1.00  0.00    -0.122 A  
HETATM   12  C   UNL     1      -7.898   6.284  66.074  1.00  0.00    -0.106 A  
HETATM   13  C   UNL     1      -7.705   5.169  65.116  1.00  0.00    -0.084 C  
HETATM   14  C   UNL     1      -7.145   7.432  65.876  1.00  0.00    -0.065 A  
HETATM   15  C   UNL     1      -8.516   3.955  65.275  1.00  0.00    -0.112 C  
HETATM   16  C   UNL     1      -7.320   8.521  66.713  1.00  0.00    -0.082 A  
HETATM   17  O   UNL     1      -6.908   5.252  64.185  1.00  0.00    -0.045 OA 
HETATM   18  C   UNL     1      -9.354   3.934  66.317  1.00  0.00    -0.179 C  
HETATM   19  C   UNL     1      -8.408   2.767  64.403  1.00  0.00    -0.086 C  
HETATM   20  F   UNL     1      -6.531   9.575  66.458  1.00  0.00    -0.063 F  
HETATM   21  N   UNL     1      -9.510   4.923  67.280  1.00  0.00    -0.134 NA 
HETATM   22  O   UNL     1      -9.037   1.737  64.592  1.00  0.00    -0.119 OA 
HETATM   23  O   UNL     1      -7.537   2.901  63.380  1.00  0.00    -0.060 OA 
HETATM   24  N   UNL     1     -11.111   7.427  69.502  1.00  0.00    -0.136 NA 
HETATM   25  C   UNL     1      -8.830   6.182  67.130  1.00  0.00    -0.108 A  
HETATM   26  C   UNL     1      -9.041   7.351  67.932  1.00  0.00    -0.129 A  
HETATM   27  C   UNL     1     -10.179   7.388  68.809  1.00  0.00    -0.191 C  
BRANCH  21  28
HETATM   28  C   UNL     1     -10.141   4.471  68.545  1.00  0.00     0.044 C  
HETATM   29  C   UNL     1      -9.822   3.105  69.127  1.00  0.00     0.253 C  
HETATM   30  C   UNL     1      -9.376   4.339  69.840  1.00  0.00    -0.232 C  
ENDBRANCH  21  28
ENDBRANCH   3  11
TORSDOF 2
ENDMDL
MODEL      121
REMARK 921   NORMALIZED FREE ENERGY PREDICTED BY IDOCK:    5.86 KCAL/MOL
REMARK 922        TOTAL FREE ENERGY PREDICTED BY IDOCK:    5.77 KCAL/MOL
REMARK 923 INTER-LIGAND FREE ENERGY PREDICTED BY IDOCK:    4.78 KCAL/MOL
REMARK 924 INTRA-LIGAND FREE ENERGY PREDICTED BY IDOCK:    0.98 KCAL/MOL
REMARK 927      BINDING AFFINITY PREDICTED BY RF-SCORE:    0.00 PKD
ROOT
HETATM    1  C   UNL     1      -6.988  14.835  66.549  1.00  0.00     2.117 C  
HETATM    2  C   UNL     1      -6.730  13.326  66.751  1.00  0.00     1.300 C  
HETATM    3  N   UNL     1      -7.853  12.879  67.609  1.00  0.00    -0.154 NA 
HETATM    4  H   UNL     1      -5.355  15.473  65.398  1.00  0.00     0.000 HD 
HETATM    5  C   UNL     1      -8.606  14.064  68.086  1.00  0.00    -0.181 C  
HETATM    6  C   UNL     1      -7.632  15.224  67.885  1.00  0.00    -0.139 C  
HETATM    7  N   UNL     1      -5.847  15.724  66.255  1.00  0.00     1.459 NA 
HETATM    8  O   UNL     1      -8.239  16.511  67.773  1.00  0.00    -0.162 OA 
HETATM    9  C   UNL     1      -6.369  17.113  66.241  1.00  0.00    -0.113 C  
HETATM   10  C   UNL     1      -7.225  17.490  67.476  1.00  0.00    -0.169 C  
ENDROOT
BRANCH   3  11
HETATM   11  C   UNL     1      -8.378  11.586  67.646  1.00  0.00    -0.135 A  
HETATM   12  C   UNL     1      -9.413   8.944  67.894  1.00  0.00    -0.160 A  
HETATM   13  C   UNL     1      -9.924   7.571  68.119  1.00  0.00    -0.172 C  
HETATM   14  C   UNL     1      -9.646   9.881  68.890  1.00  0.00    -0.172 A  
HETATM   15  C   UNL     1      -9.660   6.545  67.101  1.00  0.00    -0.162 C  
HETATM   16  C   UNL     1      -9.149  11.167  68.752  1.00  0.00    -0.139 A  
HETATM   17  O   UNL     1     -10.533   7.271  69.143  1.00  0.00    -0.207 OA 
HETATM   18  C   UNL     1      -8.999   6.948  66.010  1.00  0.00    -0.105 C  
HETATM   19  C   UNL     1     -10.129   5.147  67.194  1.00  0.00    -0.206 C  
HETATM   20  F   UNL     1      -9.445  12.008  69.754  1.00  0.00     0.810 F  
HETATM   21  N   UNL     1      -8.571   8.239  65.727  1.00  0.00    -0.153 NA 
HETATM   22  O   UNL     1      -9.964   4.324  66.306  1.00  0.00    -0.219 OA 
HETATM   23  O   UNL     1     -10.778   4.849  68.340  1.00  0.00     0.138 OA 
HETATM   24  N   UNL     1      -6.358  11.073  64.809  1.00  0.00     0.381 NA 
HETATM   25  C   UNL     1      -8.699   9.271  66.721  1.00  0.00    -0.127 A  
HETATM   26  C   UNL     1      -8.135  10.587  66.642  1.00  0.00    -0.127 A  
HETATM   27  C   UNL     1      -7.162  10.859  65.620  1.00  0.00     0.061 C  
BRANCH  21  28
HETATM   28  C   UNL     1      -8.288   8.503  64.294  1.00  0.00    -0.105 C  
HETATM   29  C   UNL     1      -9.056   7.776  63.203  1.00  0.00     1.401 C  
HETATM   30  C   UNL     1      -9.247   9.245  63.393  1.00  0.00     0.223 C  
ENDBRANCH  21  28
ENDBRANCH   3  11
TORSDOF 2
ENDMDL
MODEL      122
REMARK 921   NORMALIZED FREE ENERGY PREDICTED BY IDOCK:    6.86 KCAL/MOL
REMARK 922        TOTAL FREE ENERGY PREDICTED BY IDOCK:    6.88 KCAL/MOL
REMARK 923 INTER-LIGAND FREE ENERGY PREDICTED BY IDOCK:    1.11 KCAL/MOL
REMARK 924 INTRA-LIGAND FREE ENERGY PREDICTED BY IDOCK:    5.77 KCAL/MOL
REMARK 927      BINDING AFFINITY PREDICTED BY RF-SCORE:    0.00 PKD
ROOT
HETATM    1  C   UNL     1      -8.197  13.187  68.605  1.00  0.00    -0.000 C  
HETATM    2  C   UNL     1      -7.967  12.136  67.498  1.00  0.00    -0.163 C  
HETATM    3  N   UNL     1      -7.427  10.960  68.222  1.00  0.00    -0.089 NA 
HETATM    4  H   UNL     1      -8.890  14.870  67.561  1.00  0.00     0.000 HD 
HETATM    5  C   UNL     1      -7.129  11.344  69.623  1.00  0.00     0.037 C  
HETATM    6  C   UNL     1      -7.057  12.870  69.579  1.00  0.00     0.280 C  
HETATM    7  N   UNL     1      -8.178  14.620  68.247  1.00  0.00    -0.138 NA 
HETATM    8  O   UNL     1      -7.290  13.523  70.827  1.00  0.00     1.603 OA 
HETATM    9  C   UNL     1      -8.294  15.386  69.513  1.00  0.00    -0.204 C  
HETATM   10  C   UNL     1      -7.305  14.948  70.622  1.00  0.00     0.868 C  
ENDROOT
BRANCH   3  11
HETATM   11  C   UNL     1      -7.549   9.632  67.812  1.00  0.00    -0.087 A  
HETATM   12  C   UNL     1      -7.715   6.965  66.827  1.00  0.00    -0.102 A  
HETATM   13  C   UNL     1      -7.760   5.609  66.229  1.00  0.00    -0.099 C  
HETATM   14  C   UNL     1      -6.572   7.720  66.607  1.00  0.00    -0.054 A  
HETATM   15  C   UNL     1      -8.972   4.799  66.410  1.00  0.00    -0.113 C  
HETATM   16  C   UNL     1      -6.497   9.011  67.102  1.00  0.00    -0.061 A  
HETATM   17  O   UNL     1      -6.824   5.166  65.568  1.00  0.00    -0.057 OA 
HETATM   18  C   UNL     1      -9.944   5.344  67.149  1.00  0.00    -0.174 C  
HETATM   19  C   UNL     1      -9.137   3.428  65.885  1.00  0.00    -0.154 C  
HETATM   20  F   UNL     1      -5.346   9.654  66.860  1.00  0.00    -0.042 F  
HETATM   21  N   UNL     1      -9.912   6.576  67.789  1.00  0.00    -0.126 NA 
HETATM   22  O   UNL     1     -10.122   2.739  66.105  1.00  0.00     0.608 OA 
HETATM   23  O   UNL     1      -8.097   2.981  65.148  1.00  0.00    -0.085 OA 
HETATM   24  N   UNL     1     -10.888   9.991  68.865  1.00  0.00    -0.219 NA 
HETATM   25  C   UNL     1      -8.805   7.468  67.570  1.00  0.00    -0.127 A  
HETATM   26  C   UNL     1      -8.727   8.832  68.005  1.00  0.00    -0.141 A  
HETATM   27  C   UNL     1      -9.919   9.468  68.492  1.00  0.00    -0.167 C  
BRANCH  21  28
HETATM   28  C   UNL     1     -10.896   6.736  68.889  1.00  0.00    -0.243 C  
HETATM   29  C   UNL     1     -10.483   7.342  70.219  1.00  0.00    -0.229 C  
HETATM   30  C   UNL     1     -11.425   8.081  69.325  1.00  0.00     0.588 C  
ENDBRANCH  21  28
ENDBRANCH   3  11
TORSDOF 2
ENDMDL
MODEL      123
REMARK 921   NORMALIZED FREE ENERGY PREDICTED BY IDOCK:    8.39 KCAL/MOL
REMARK 922        TOTAL FREE ENERGY PREDICTED BY IDOCK:    8.60 KCAL/MOL
REMARK 923 INTER-LIGAND FREE ENERGY PREDICTED BY IDOCK:    9.09 KCAL/MOL
REMARK 924 INTRA-LIGAND FREE ENERGY PREDICTED BY IDOCK:   -0.50 KCAL/MOL
REMARK 927      BINDING AFFINITY PREDICTED BY RF-SCORE:    0.00 PKD
ROOT
HETATM    1  C   UNL     1      -8.388  12.520  65.672  1.00  0.00     1.420 C  
HETATM    2  C   UNL     1      -7.393  11.348  65.815  1.00  0.00     0.428 C  
HETATM    3  N   UNL     1      -7.586  10.878  67.208  1.00  0.00    -0.100 NA 
HETATM    4  H   UNL     1      -8.055  13.225  63.725  1.00  0.00     0.000 HD 
HETATM    5  C   UNL     1      -8.459  11.835  67.930  1.00  0.00    -0.154 C  
HETATM    6  C   UNL     1      -8.385  13.108  67.088  1.00  0.00    -0.140 C  
HETATM    7  N   UNL     1      -8.111  13.578  64.680  1.00  0.00     6.392 NA 
HETATM    8  O   UNL     1      -9.488  14.001  67.244  1.00  0.00    -0.216 OA 
HETATM    9  C   UNL     1      -9.152  14.622  64.855  1.00  0.00     2.346 C  
HETATM   10  C   UNL     1      -9.348  15.094  66.317  1.00  0.00    -0.313 C  
ENDROOT
BRANCH   3  11
HETATM   11  C   UNL     1      -7.348   9.581  67.664  1.00  0.00    -0.083 A  
HETATM   12  C   UNL     1      -6.690   6.971  68.597  1.00  0.00    -0.063 A  
HETATM   13  C   UNL     1      -6.251   5.639  69.075  1.00  0.00    -0.029 C  
HETATM   14  C   UNL     1      -6.007   8.078  69.080  1.00  0.00    -0.038 A  
HETATM   15  C   UNL     1      -6.927   4.444  68.553  1.00  0.00    -0.052 C  
HETATM   16  C   UNL     1      -6.344   9.343  68.630  1.00  0.00    -0.048 A  
HETATM   17  O   UNL     1      -5.323   5.514  69.871  1.00  0.00    -0.004 OA 
HETATM   18  C   UNL     1      -7.934   4.659  67.698  1.00  0.00    -0.093 C  
HETATM   19  C   UNL     1      -6.601   3.062  68.962  1.00  0.00    -0.033 C  
HETATM   20  F   UNL     1      -5.645  10.352  69.170  1.00  0.00    -0.039 F  
HETATM   21  N   UNL     1      -8.425   5.890  67.284  1.00  0.00    -0.105 NA 
HETATM   22  O   UNL     1      -7.221   2.084  68.573  1.00  0.00    -0.043 OA 
HETATM   23  O   UNL     1      -5.564   2.963  69.822  1.00  0.00    -0.016 OA 
HETATM   24  N   UNL     1      -9.538   8.653  65.070  1.00  0.00     0.496 NA 
HETATM   25  C   UNL     1      -7.746   7.099  67.669  1.00  0.00    -0.112 A  
HETATM   26  C   UNL     1      -8.022   8.413  67.167  1.00  0.00    -0.104 A  
HETATM   27  C   UNL     1      -8.870   8.546  66.015  1.00  0.00    -0.173 C  
BRANCH  21  28
HETATM   28  C   UNL     1      -9.797   5.858  66.720  1.00  0.00    -0.160 C  
HETATM   29  C   UNL     1     -10.573   4.555  66.636  1.00  0.00     0.165 C  
HETATM   30  C   UNL     1     -11.026   5.631  67.567  1.00  0.00    -0.033 C  
ENDBRANCH  21  28
ENDBRANCH   3  11
TORSDOF 2
ENDMDL
MODEL      124
REMARK 921   NORMALIZED FREE ENERGY PREDICTED BY IDOCK:    8.78 KCAL/MOL
REMARK 922        TOTAL FREE ENERGY PREDICTED BY IDOCK:    9.03 KCAL/MOL
REMARK 923 INTER-LIGAND FREE ENERGY PREDICTED BY IDOCK:    1.05 KCAL/MOL
REMARK 924 INTRA-LIGAND FREE ENERGY PREDICTED BY IDOCK:    7.98 KCAL/MOL
REMARK 927      BINDING AFFINITY PREDICTED BY RF-SCORE:    0.00 PKD
ROOT
HETATM    1  C   UNL     1     -12.151  14.640  65.416  1.00  0.00    -0.250 C  
HETATM    2  C   UNL     1     -11.897  13.154  65.751  1.00  0.00    -0.397 C  
HETATM    3  N   UNL     1     -10.517  13.137  66.292  1.00  0.00    -0.280 NA 
HETATM    4  H   UNL     1     -14.076  14.643  64.583  1.00  0.00     0.000 HD 
HETATM    5  C   UNL     1      -9.894  14.467  66.085  1.00  0.00    -0.320 C  
HETATM    6  C   UNL     1     -10.754  15.110  64.998  1.00  0.00    -0.430 C  
HETATM    7  N   UNL     1     -13.138  14.980  64.372  1.00  0.00    -0.039 NA 
HETATM    8  O   UNL     1     -10.713  16.537  64.961  1.00  0.00    -0.662 OA 
HETATM    9  C   UNL     1     -13.077  16.450  64.177  1.00  0.00     3.587 C  
HETATM   10  C   UNL     1     -11.648  17.012  63.973  1.00  0.00     2.105 C  
ENDROOT
BRANCH   3  11
HETATM   11  C   UNL     1     -10.014  12.200  67.197  1.00  0.00    -0.200 A  
HETATM   12  C   UNL     1      -9.134  10.312  69.139  1.00  0.00    -0.199 A  
HETATM   13  C   UNL     1      -8.758   9.351  70.203  1.00  0.00    -0.221 C  
HETATM   14  C   UNL     1     -10.470  10.361  68.769  1.00  0.00    -0.219 A  
HETATM   15  C   UNL     1      -7.358   9.302  70.646  1.00  0.00    -0.129 C  
HETATM   16  C   UNL     1     -10.884  11.275  67.814  1.00  0.00    -0.235 A  
HETATM   17  O   UNL     1      -9.591   8.622  70.736  1.00  0.00    -0.167 OA 
HETATM   18  C   UNL     1      -6.507  10.117  70.013  1.00  0.00    -0.106 C  
HETATM   19  C   UNL     1      -6.849   8.378  71.681  1.00  0.00    -0.076 C  
HETATM   20  F   UNL     1     -12.188  11.232  67.504  1.00  0.00    -0.132 F  
HETATM   21  N   UNL     1      -6.803  10.976  68.962  1.00  0.00    -0.075 NA 
HETATM   22  O   UNL     1      -5.669   8.298  71.987  1.00  0.00    -0.036 OA 
HETATM   23  O   UNL     1      -7.795   7.607  72.257  1.00  0.00    -0.092 OA 
HETATM   24  N   UNL     1      -7.044  14.070  66.928  1.00  0.00     0.316 NA 
HETATM   25  C   UNL     1      -8.169  11.156  68.547  1.00  0.00    -0.149 A  
HETATM   26  C   UNL     1      -8.641  12.140  67.617  1.00  0.00    -0.166 A  
HETATM   27  C   UNL     1      -7.753  13.200  67.227  1.00  0.00    -0.098 C  
BRANCH  21  28
HETATM   28  C   UNL     1      -5.633  11.407  68.158  1.00  0.00    -0.042 C  
HETATM   29  C   UNL     1      -5.775  11.704  66.675  1.00  0.00    -0.115 C  
HETATM   30  C   UNL     1      -5.476  12.813  67.630  1.00  0.00    -0.121 C  
ENDBRANCH  21  28
ENDBRANCH   3  11
TORSDOF 2
ENDMDL
MODEL      125
REMARK 921   NORMALIZED FREE ENERGY PREDICTED BY IDOCK:   11.64 KCAL/MOL
REMARK 922        TOTAL FREE ENERGY PREDICTED BY IDOCK:   12.22 KCAL/MOL
REMARK 923 INTER-LIGAND FREE ENERGY PREDICTED BY IDOCK:    5.98 KCAL/MOL
REMARK 924 INTRA-LIGAND FREE ENERGY PREDICTED BY IDOCK:    6.24 KCAL/MOL
REMARK 927      BINDING AFFINITY PREDICTED BY RF-SCORE:    0.00 PKD
ROOT
HETATM    1  C   UNL     1      -8.471  10.332  69.421  1.00  0.00    -0.160 C  
HETATM    2  C   UNL     1      -7.786  11.716  69.376  1.00  0.00     0.290 C  
HETATM    3  N   UNL     1      -8.774  12.587  68.696  1.00  0.00    -0.027 NA 
HETATM    4  H   UNL     1      -7.036   9.092  70.318  1.00  0.00     0.000 HD 
HETATM    5  C   UNL     1      -9.875  11.750  68.159  1.00  0.00    -0.190 C  
HETATM    6  C   UNL     1      -9.282  10.342  68.120  1.00  0.00    -0.136 C  
HETATM    7  N   UNL     1      -7.632   9.120  69.491  1.00  0.00    -0.076 NA 
HETATM    8  O   UNL     1     -10.238   9.283  68.138  1.00  0.00    -0.186 OA 
HETATM    9  C   UNL     1      -8.544   7.953  69.391  1.00  0.00    -0.137 C  
HETATM   10  C   UNL     1      -9.547   8.021  68.212  1.00  0.00    -0.146 C  
ENDROOT
BRANCH   3  11
HETATM   11  C   UNL     1      -8.890  13.967  68.868  1.00  0.00     0.109 A  
HETATM   12  C   UNL     1      -9.225  16.788  69.072  1.00  0.00    -0.199 A  
HETATM   13  C   UNL     1      -9.451  18.253  69.092  1.00  0.00    -0.017 C  
HETATM   14  C   UNL     1     -10.285  15.986  68.676  1.00  0.00    -0.231 A  
HETATM   15  C   UNL     1      -8.336  19.132  69.469  1.00  0.00     0.272 C  
HETATM   16  C   UNL     1     -10.115  14.614  68.593  1.00  0.00    -0.238 A  
HETATM   17  O   UNL     1     -10.533  18.742  68.776  1.00  0.00    -0.232 OA 
HETATM   18  C   UNL     1      -7.193  18.528  69.809  1.00  0.00     0.386 C  
HETATM   19  C   UNL     1      -8.434  20.605  69.548  1.00  0.00     1.705 C  
HETATM   20  F   UNL     1     -11.201  13.920  68.224  1.00  0.00    -0.250 F  
HETATM   21  N   UNL     1      -6.963  17.160  69.877  1.00  0.00     0.293 NA 
HETATM   22  O   UNL     1      -7.519  21.318  69.933  1.00  0.00     2.599 OA 
HETATM   23  O   UNL     1      -9.631  21.107  69.176  1.00  0.00     1.409 OA 
HETATM   24  N   UNL     1      -5.402  13.838  69.326  1.00  0.00    -0.077 NA 
HETATM   25  C   UNL     1      -7.972  16.240  69.421  1.00  0.00    -0.065 A  
HETATM   26  C   UNL     1      -7.804  14.826  69.253  1.00  0.00    -0.122 A  
HETATM   27  C   UNL     1      -6.477  14.279  69.306  1.00  0.00    -0.115 C  
BRANCH  21  28
HETATM   28  C   UNL     1      -5.796  16.762  70.703  1.00  0.00     0.186 C  
HETATM   29  C   UNL     1      -5.983  15.953  71.974  1.00  0.00     1.470 C  
HETATM   30  C   UNL     1      -5.306  15.336  70.795  1.00  0.00    -0.133 C  
ENDBRANCH  21  28
ENDBRANCH   3  11
TORSDOF 2
ENDMDL
MODEL      126
REMARK 921   NORMALIZED FREE ENERGY PREDICTED BY IDOCK:   11.91 KCAL/MOL
REMARK 922        TOTAL FREE ENERGY PREDICTED BY IDOCK:   12.52 KCAL/MOL
REMARK 923 INTER-LIGAND FREE ENERGY PREDICTED BY IDOCK:   11.13 KCAL/MOL
REMARK 924 INTRA-LIGAND FREE ENERGY PREDICTED BY IDOCK:    1.40 KCAL/MOL
REMARK 927      BINDING AFFINITY PREDICTED BY RF-SCORE:    0.00 PKD
ROOT
HETATM    1  C   UNL     1     -11.400  13.086  63.997  1.00  0.00    -0.410 C  
HETATM    2  C   UNL     1     -10.721  14.473  64.018  1.00  0.00     0.943 C  
HETATM    3  N   UNL     1     -11.269  15.126  65.231  1.00  0.00    -0.361 NA 
HETATM    4  H   UNL     1     -10.675  12.200  62.239  1.00  0.00     0.000 HD 
HETATM    5  C   UNL     1     -12.371  14.296  65.776  1.00  0.00    -0.405 C  
HETATM    6  C   UNL     1     -12.772  13.401  64.604  1.00  0.00    -0.186 C  
HETATM    7  N   UNL     1     -11.562  12.388  62.707  1.00  0.00     0.330 NA 
HETATM    8  O   UNL     1     -13.430  12.187  64.969  1.00  0.00     0.143 OA 
HETATM    9  C   UNL     1     -12.351  11.159  62.972  1.00  0.00     1.196 C  
HETATM   10  C   UNL     1     -13.648  11.393  63.787  1.00  0.00     1.822 C  
ENDROOT
BRANCH   3  11
HETATM   11  C   UNL     1     -10.626  16.114  65.978  1.00  0.00    -0.295 A  
HETATM   12  C   UNL     1      -9.175  18.111  67.399  1.00  0.00    -0.257 A  
HETATM   13  C   UNL     1      -8.341  19.130  68.079  1.00  0.00    -0.305 C  
HETATM   14  C   UNL     1      -9.077  18.027  66.018  1.00  0.00    -0.010 A  
HETATM   15  C   UNL     1      -8.392  19.219  69.544  1.00  0.00     0.236 C  
HETATM   16  C   UNL     1      -9.798  17.060  65.336  1.00  0.00     0.364 A  
HETATM   17  O   UNL     1      -7.595  19.876  67.449  1.00  0.00    -0.254 OA 
HETATM   18  C   UNL     1      -9.233  18.381  70.160  1.00  0.00     2.036 C  
HETATM   19  C   UNL     1      -7.628  20.201  70.341  1.00  0.00     0.945 C  
HETATM   20  F   UNL     1      -9.658  17.072  64.002  1.00  0.00     3.959 F  
HETATM   21  N   UNL     1     -10.086  17.466  69.557  1.00  0.00    -0.065 NA 
HETATM   22  O   UNL     1      -7.735  20.310  71.554  1.00  0.00     0.703 OA 
HETATM   23  O   UNL     1      -6.805  20.990  69.618  1.00  0.00     0.634 OA 
HETATM   24  N   UNL     1     -11.782  14.267  68.743  1.00  0.00    -0.323 NA 
HETATM   25  C   UNL     1     -10.015  17.248  68.136  1.00  0.00    -0.303 A  
HETATM   26  C   UNL     1     -10.689  16.212  67.411  1.00  0.00    -0.291 A  
HETATM   27  C   UNL     1     -11.304  15.143  68.148  1.00  0.00    -0.335 C  
BRANCH  21  28
HETATM   28  C   UNL     1     -11.213  17.006  70.407  1.00  0.00     0.664 C  
HETATM   29  C   UNL     1     -11.040  15.837  71.361  1.00  0.00    -0.230 C  
HETATM   30  C   UNL     1     -11.248  17.213  71.902  1.00  0.00     1.180 C  
ENDBRANCH  21  28
ENDBRANCH   3  11
TORSDOF 2
ENDMDL
MODEL      127
REMARK 921   NORMALIZED FREE ENERGY PREDICTED BY IDOCK:   14.88 KCAL/MOL
REMARK 922        TOTAL FREE ENERGY PREDICTED BY IDOCK:   15.84 KCAL/MOL
REMARK 923 INTER-LIGAND FREE ENERGY PREDICTED BY IDOCK:   15.97 KCAL/MOL
REMARK 924 INTRA-LIGAND FREE ENERGY PREDICTED BY IDOCK:   -0.12 KCAL/MOL
REMARK 927      BINDING AFFINITY PREDICTED BY RF-SCORE:    0.00 PKD
ROOT
HETATM    1  C   UNL     1      -6.244   5.265  64.754  1.00  0.00    -0.029 C  
HETATM    2  C   UNL     1      -6.331   6.698  65.324  1.00  0.00    -0.042 C  
HETATM    3  N   UNL     1      -7.314   6.589  66.428  1.00  0.00    -0.073 NA 
HETATM    4  H   UNL     1      -4.908   5.446  63.147  1.00  0.00     0.000 HD 
HETATM    5  C   UNL     1      -7.951   5.250  66.385  1.00  0.00    -0.104 C  
HETATM    6  C   UNL     1      -7.675   4.757  64.965  1.00  0.00    -0.078 C  
HETATM    7  N   UNL     1      -5.838   5.077  63.348  1.00  0.00    -0.017 NA 
HETATM    8  O   UNL     1      -7.715   3.340  64.799  1.00  0.00    -0.076 OA 
HETATM    9  C   UNL     1      -5.967   3.630  63.047  1.00  0.00    -0.014 C  
HETATM   10  C   UNL     1      -7.328   3.009  63.451  1.00  0.00    -0.054 C  
ENDROOT
BRANCH   3  11
HETATM   11  C   UNL     1      -7.359   7.410  67.555  1.00  0.00    -0.102 A  
HETATM   12  C   UNL     1      -7.362   9.209  69.764  1.00  0.00    -0.064 A  
HETATM   13  C   UNL     1      -7.308  10.207  70.859  1.00  0.00     0.663 C  
HETATM   14  C   UNL     1      -7.552   9.686  68.476  1.00  0.00    -0.080 A  
HETATM   15  C   UNL     1      -7.069   9.738  72.230  1.00  0.00     1.551 C  
HETATM   16  C   UNL     1      -7.562   8.801  67.411  1.00  0.00    -0.090 A  
HETATM   17  O   UNL     1      -7.432  11.410  70.639  1.00  0.00     1.278 OA 
HETATM   18  C   UNL     1      -6.955   8.415  72.392  1.00  0.00    -0.088 C  
HETATM   19  C   UNL     1      -7.013  10.625  73.410  1.00  0.00     5.344 C  
HETATM   20  F   UNL     1      -7.776   9.351  66.207  1.00  0.00    -0.094 F  
HETATM   21  N   UNL     1      -7.074   7.443  71.408  1.00  0.00    -0.062 NA 
HETATM   22  O   UNL     1      -6.886  10.213  74.554  1.00  0.00     0.572 OA 
HETATM   23  O   UNL     1      -7.133  11.940  73.129  1.00  0.00     8.149 OA 
HETATM   24  N   UNL     1      -6.294   4.520  69.259  1.00  0.00    -0.031 NA 
HETATM   25  C   UNL     1      -7.202   7.831  70.029  1.00  0.00    -0.067 A  
HETATM   26  C   UNL     1      -7.142   6.950  68.900  1.00  0.00    -0.089 A  
HETATM   27  C   UNL     1      -6.685   5.603  69.101  1.00  0.00    -0.060 C  
BRANCH  21  28
HETATM   28  C   UNL     1      -7.362   6.076  71.911  1.00  0.00    -0.094 C  
HETATM   29  C   UNL     1      -6.626   5.522  73.118  1.00  0.00    -0.072 C  
HETATM   30  C   UNL     1      -8.087   5.817  73.210  1.00  0.00    -0.113 C  
ENDBRANCH  21  28
ENDBRANCH   3  11
TORSDOF 2
ENDMDL
MODEL      128
REMARK 921   NORMALIZED FREE ENERGY PREDICTED BY IDOCK:   17.03 KCAL/MOL
REMARK 922        TOTAL FREE ENERGY PREDICTED BY IDOCK:   18.24 KCAL/MOL
REMARK 923 INTER-LIGAND FREE ENERGY PREDICTED BY IDOCK:   17.84 KCAL/MOL
REMARK 924 INTRA-LIGAND FREE ENERGY PREDICTED BY IDOCK:    0.40 KCAL/MOL
REMARK 927      BINDING AFFINITY PREDICTED BY RF-SCORE:    0.00 PKD
ROOT
HETATM    1  C   UNL     1     -11.736  16.051  71.604  1.00  0.00    -0.506 C  
HETATM    2  C   UNL     1     -10.854  14.784  71.650  1.00  0.00     0.843 C  
HETATM    3  N   UNL     1     -11.507  13.854  70.698  1.00  0.00     0.003 NA 
HETATM    4  H   UNL     1     -10.847  17.331  73.008  1.00  0.00     0.000 HD 
HETATM    5  C   UNL     1     -12.814  14.419  70.282  1.00  0.00    -0.178 C  
HETATM    6  C   UNL     1     -13.127  15.455  71.360  1.00  0.00    -0.488 C  
HETATM    7  N   UNL     1     -11.763  16.948  72.776  1.00  0.00    -0.094 NA 
HETATM    8  O   UNL     1     -14.033  16.485  70.964  1.00  0.00     2.274 OA 
HETATM    9  C   UNL     1     -12.780  17.994  72.501  1.00  0.00     8.352 C  
HETATM   10  C   UNL     1     -14.150  17.449  72.029  1.00  0.00    10.037 C  
ENDROOT
BRANCH   3  11
HETATM   11  C   UNL     1     -10.865  12.837  69.991  1.00  0.00     0.904 A  
HETATM   12  C   UNL     1      -9.572  10.859  68.401  1.00  0.00    -0.177 A  
HETATM   13  C   UNL     1      -8.918   9.886  67.493  1.00  0.00    -0.134 C  
HETATM   14  C   UNL     1      -9.335  12.206  68.167  1.00  0.00    -0.204 A  
HETATM   15  C   UNL     1      -9.179   8.454  67.689  1.00  0.00    -0.147 C  
HETATM   16  C   UNL     1      -9.959  13.159  68.955  1.00  0.00     0.223 A  
HETATM   17  O   UNL     1      -8.191  10.252  66.573  1.00  0.00    -0.122 OA 
HETATM   18  C   UNL     1      -9.972   8.131  68.716  1.00  0.00    -0.189 C  
HETATM   19  C   UNL     1      -8.577   7.383  66.869  1.00  0.00    -0.120 C  
HETATM   20  F   UNL     1      -9.651  14.432  68.670  1.00  0.00    -0.200 F  
HETATM   21  N   UNL     1     -10.542   9.004  69.634  1.00  0.00    -0.223 NA 
HETATM   22  O   UNL     1      -8.746   6.193  67.089  1.00  0.00    -0.108 OA 
HETATM   23  O   UNL     1      -7.800   7.823  65.856  1.00  0.00    -0.093 OA 
HETATM   24  N   UNL     1     -13.082  10.723  71.723  1.00  0.00    -0.478 NA 
HETATM   25  C   UNL     1     -10.418  10.425  69.444  1.00  0.00    -0.238 A  
HETATM   26  C   UNL     1     -11.106  11.435  70.193  1.00  0.00     0.064 A  
HETATM   27  C   UNL     1     -12.190  11.039  71.049  1.00  0.00    -0.351 C  
BRANCH  21  28
HETATM   28  C   UNL     1     -10.979   8.376  70.906  1.00  0.00    -0.243 C  
HETATM   29  C   UNL     1     -12.437   8.016  71.134  1.00  0.00    -0.206 C  
HETATM   30  C   UNL     1     -11.416   6.934  71.000  1.00  0.00    -0.358 C  
ENDBRANCH  21  28
ENDBRANCH   3  11
TORSDOF 2
ENDMDL
MODEL      129
REMARK 921   NORMALIZED FREE ENERGY PREDICTED BY IDOCK:   27.68 KCAL/MOL
REMARK 922        TOTAL FREE ENERGY PREDICTED BY IDOCK:   30.14 KCAL/MOL
REMARK 923 INTER-LIGAND FREE ENERGY PREDICTED BY IDOCK:   22.17 KCAL/MOL
REMARK 924 INTRA-LIGAND FREE ENERGY PREDICTED BY IDOCK:    7.97 KCAL/MOL
REMARK 927      BINDING AFFINITY PREDICTED BY RF-SCORE:    0.00 PKD
ROOT
HETATM    1  C   UNL     1      -7.539  13.698  66.653  1.00  0.00     1.052 C  
HETATM    2  C   UNL     1      -8.291  12.398  66.295  1.00  0.00     0.341 C  
HETATM    3  N   UNL     1      -7.256  11.543  65.665  1.00  0.00     0.577 NA 
HETATM    4  H   UNL     1      -9.027  14.927  67.476  1.00  0.00     0.000 HD 
HETATM    5  C   UNL     1      -6.029  12.347  65.441  1.00  0.00     4.768 C  
HETATM    6  C   UNL     1      -6.518  13.793  65.513  1.00  0.00    10.114 C  
HETATM    7  N   UNL     1      -8.300  14.958  66.762  1.00  0.00    -0.188 NA 
HETATM    8  O   UNL     1      -5.515  14.754  65.840  1.00  0.00     5.041 OA 
HETATM    9  C   UNL     1      -7.313  16.045  66.983  1.00  0.00    -0.223 C  
HETATM   10  C   UNL     1      -6.129  16.049  65.985  1.00  0.00     2.877 C  
ENDROOT
BRANCH   3  11
HETATM   11  C   UNL     1      -7.258  10.148  65.649  1.00  0.00    -0.137 A  
HETATM   12  C   UNL     1      -7.223   7.307  65.444  1.00  0.00    -0.066 A  
HETATM   13  C   UNL     1      -7.187   5.839  65.240  1.00  0.00    -0.070 C  
HETATM   14  C   UNL     1      -6.284   8.068  64.763  1.00  0.00    -0.049 A  
HETATM   15  C   UNL     1      -8.192   5.009  65.917  1.00  0.00    -0.114 C  
HETATM   16  C   UNL     1      -6.302   9.448  64.880  1.00  0.00    -0.077 A  
HETATM   17  O   UNL     1      -6.359   5.312  64.501  1.00  0.00    -0.031 OA 
HETATM   18  C   UNL     1      -9.055   5.652  66.712  1.00  0.00    -0.120 C  
HETATM   19  C   UNL     1      -8.255   3.537  65.813  1.00  0.00    -0.097 C  
HETATM   20  F   UNL     1      -5.343  10.096  64.204  1.00  0.00    -0.072 F  
HETATM   21  N   UNL     1      -9.074   7.013  66.990  1.00  0.00    -0.132 NA 
HETATM   22  O   UNL     1      -9.052   2.854  66.439  1.00  0.00    -0.147 OA 
HETATM   23  O   UNL     1      -7.343   2.994  64.979  1.00  0.00    -0.068 OA 
HETATM   24  N   UNL     1     -10.307  10.492  67.374  1.00  0.00    -0.210 NA 
HETATM   25  C   UNL     1      -8.191   7.901  66.283  1.00  0.00    -0.117 A  
HETATM   26  C   UNL     1      -8.231   9.334  66.325  1.00  0.00    -0.107 A  
HETATM   27  C   UNL     1      -9.373   9.974  66.916  1.00  0.00    -0.159 C  
BRANCH  21  28
HETATM   28  C   UNL     1      -9.810   7.389  68.222  1.00  0.00    -0.160 C  
HETATM   29  C   UNL     1      -9.389   8.597  69.041  1.00  0.00    -0.146 C  
HETATM   30  C   UNL     1     -10.691   8.612  68.310  1.00  0.00    -0.107 C  
ENDBRANCH  21  28
ENDBRANCH   3  11
TORSDOF 2
ENDMDL
MODEL      130
REMARK 921   NORMALIZED FREE ENERGY PREDICTED BY IDOCK:   29.58 KCAL/MOL
REMARK 922        TOTAL FREE ENERGY PREDICTED BY IDOCK:   32.27 KCAL/MOL
REMARK 923 INTER-LIGAND FREE ENERGY PREDICTED BY IDOCK:   31.63 KCAL/MOL
REMARK 924 INTRA-LIGAND FREE ENERGY PREDICTED BY IDOCK:    0.64 KCAL/MOL
REMARK 927      BINDING AFFINITY PREDICTED BY RF-SCORE:    0.00 PKD
ROOT
HETATM    1  C   UNL     1      -7.314  18.282  65.978  1.00  0.00    -0.246 C  
HETATM    2  C   UNL     1      -7.008  16.810  65.623  1.00  0.00     1.431 C  
HETATM    3  N   UNL     1      -7.883  16.030  66.531  1.00  0.00    -0.239 NA 
HETATM    4  H   UNL     1      -6.018  19.374  64.742  1.00  0.00     0.000 HD 
HETATM    5  C   UNL     1      -8.499  16.946  67.522  1.00  0.00    -0.194 C  
HETATM    6  C   UNL     1      -7.608  18.187  67.479  1.00  0.00    -0.214 C  
HETATM    7  N   UNL     1      -6.284  19.308  65.724  1.00  0.00    -0.196 NA 
HETATM    8  O   UNL     1      -8.228  19.392  67.928  1.00  0.00    -0.290 OA 
HETATM    9  C   UNL     1      -6.798  20.587  66.276  1.00  0.00    -0.233 C  
HETATM   10  C   UNL     1      -7.322  20.494  67.730  1.00  0.00    -0.265 C  
ENDROOT
BRANCH   3  11
HETATM   11  C   UNL     1      -8.378  14.751  66.276  1.00  0.00     0.550 A  
HETATM   12  C   UNL     1      -9.222  12.082  65.745  1.00  0.00    -0.064 A  
HETATM   13  C   UNL     1      -9.564  10.669  65.458  1.00  0.00    -0.221 C  
HETATM   14  C   UNL     1      -8.132  12.319  66.570  1.00  0.00     0.157 A  
HETATM   15  C   UNL     1     -10.689  10.385  64.557  1.00  0.00     0.429 C  
HETATM   16  C   UNL     1      -7.739  13.621  66.832  1.00  0.00     0.379 A  
HETATM   17  O   UNL     1      -8.915   9.740  65.934  1.00  0.00    -0.143 OA 
HETATM   18  C   UNL     1     -11.354  11.446  64.087  1.00  0.00    -0.183 C  
HETATM   19  C   UNL     1     -11.146   9.024  64.206  1.00  0.00     8.871 C  
HETATM   20  F   UNL     1      -6.690  13.750  67.658  1.00  0.00    -0.133 F  
HETATM   21  N   UNL     1     -11.114  12.780  64.390  1.00  0.00    -0.328 NA 
HETATM   22  O   UNL     1     -12.127   8.804  63.513  1.00  0.00    16.050 OA 
HETATM   23  O   UNL     1     -10.397   8.030  64.731  1.00  0.00     3.659 OA 
HETATM   24  N   UNL     1     -10.449  16.405  63.959  1.00  0.00     1.177 NA 
HETATM   25  C   UNL     1      -9.966  13.140  65.179  1.00  0.00    -0.151 A  
HETATM   26  C   UNL     1      -9.490  14.473  65.408  1.00  0.00     0.167 A  
HETATM   27  C   UNL     1     -10.029  15.542  64.615  1.00  0.00     0.822 C  
BRANCH  21  28
HETATM   28  C   UNL     1     -12.248  13.697  64.116  1.00  0.00    -0.399 C  
HETATM   29  C   UNL     1     -13.573  13.533  64.841  1.00  0.00     1.389 C  
HETATM   30  C   UNL     1     -12.723  14.731  65.109  1.00  0.00     0.046 C  
ENDBRANCH  21  28
ENDBRANCH   3  11
TORSDOF 2
ENDMDL
MODEL      131
REMARK 921   NORMALIZED FREE ENERGY PREDICTED BY IDOCK:   30.58 KCAL/MOL
REMARK 922        TOTAL FREE ENERGY PREDICTED BY IDOCK:   33.38 KCAL/MOL
REMARK 923 INTER-LIGAND FREE ENERGY PREDICTED BY IDOCK:   32.90 KCAL/MOL
REMARK 924 INTRA-LIGAND FREE ENERGY PREDICTED BY IDOCK:    0.48 KCAL/MOL
REMARK 927      BINDING AFFINITY PREDICTED BY RF-SCORE:    0.00 PKD
ROOT
HETATM    1  C   UNL     1     -10.791  16.416  65.365  1.00  0.00    -0.239 C  
HETATM    2  C   UNL     1     -11.707  15.180  65.488  1.00  0.00    -0.062 C  
HETATM    3  N   UNL     1     -10.770  14.058  65.736  1.00  0.00    -0.286 NA 
HETATM    4  H   UNL     1     -12.120  17.983  64.940  1.00  0.00     0.000 HD 
HETATM    5  C   UNL     1      -9.378  14.534  65.545  1.00  0.00     0.267 C  
HETATM    6  C   UNL     1      -9.536  15.813  64.724  1.00  0.00     1.442 C  
HETATM    7  N   UNL     1     -11.257  17.577  64.580  1.00  0.00    -0.707 NA 
HETATM    8  O   UNL     1      -8.450  16.734  64.825  1.00  0.00     2.937 OA 
HETATM    9  C   UNL     1     -10.134  18.546  64.528  1.00  0.00     4.975 C  
HETATM   10  C   UNL     1      -8.777  17.935  64.099  1.00  0.00    10.614 C  
ENDROOT
BRANCH   3  11
HETATM   11  C   UNL     1     -11.078  12.882  66.421  1.00  0.00    -0.285 A  
HETATM   12  C   UNL     1     -11.665  10.564  67.968  1.00  0.00     0.080 A  
HETATM   13  C   UNL     1     -11.940   9.407  68.854  1.00  0.00     1.373 C  
HETATM   14  C   UNL     1     -12.007  11.823  68.440  1.00  0.00    -0.250 A  
HETATM   15  C   UNL     1     -11.554   8.065  68.400  1.00  0.00     1.432 C  
HETATM   16  C   UNL     1     -11.729  12.942  67.673  1.00  0.00    -0.370 A  
HETATM   17  O   UNL     1     -12.454   9.552  69.961  1.00  0.00     0.282 OA 
HETATM   18  C   UNL     1     -11.009   7.984  67.182  1.00  0.00     0.124 C  
HETATM   19  C   UNL     1     -11.789   6.829  69.176  1.00  0.00     0.450 C  
HETATM   20  F   UNL     1     -12.117  14.112  68.201  1.00  0.00    -0.365 F  
HETATM   21  N   UNL     1     -10.805   9.031  66.291  1.00  0.00     0.476 NA 
HETATM   22  O   UNL     1     -11.528   5.713  68.755  1.00  0.00     0.307 OA 
HETATM   23  O   UNL     1     -12.337   7.029  70.394  1.00  0.00    -0.208 OA 
HETATM   24  N   UNL     1      -9.113  11.347  63.937  1.00  0.00     0.006 NA 
HETATM   25  C   UNL     1     -11.059  10.385  66.706  1.00  0.00     0.048 A  
HETATM   26  C   UNL     1     -10.716  11.566  65.970  1.00  0.00    -0.332 A  
HETATM   27  C   UNL     1      -9.840  11.443  64.838  1.00  0.00    -0.258 C  
BRANCH  21  28
HETATM   28  C   UNL     1     -10.623   8.621  64.876  1.00  0.00     4.814 C  
HETATM   29  C   UNL     1      -9.235   8.377  64.310  1.00  0.00     0.965 C  
HETATM   30  C   UNL     1     -10.182   7.234  64.475  1.00  0.00     5.672 C  
ENDBRANCH  21  28
ENDBRANCH   3  11
TORSDOF 2
ENDMDL
MODEL      132
REMARK 921   NORMALIZED FREE ENERGY PREDICTED BY IDOCK:   32.29 KCAL/MOL
REMARK 922        TOTAL FREE ENERGY PREDICTED BY IDOCK:   35.28 KCAL/MOL
REMARK 923 INTER-LIGAND FREE ENERGY PREDICTED BY IDOCK:   34.38 KCAL/MOL
REMARK 924 INTRA-LIGAND FREE ENERGY PREDICTED BY IDOCK:    0.90 KCAL/MOL
REMARK 927      BINDING AFFINITY PREDICTED BY RF-SCORE:    0.00 PKD
ROOT
HETATM    1  C   UNL     1     -10.192   6.752  70.654  1.00  0.00    -0.195 C  
HETATM    2  C   UNL     1     -10.174   7.872  71.717  1.00  0.00    -0.196 C  
HETATM    3  N   UNL     1      -9.900   9.104  70.940  1.00  0.00    -0.267 NA 
HETATM    4  H   UNL     1     -10.507   5.005  71.772  1.00  0.00     0.000 HD 
HETATM    5  C   UNL     1      -9.545   8.735  69.548  1.00  0.00    -0.167 C  
HETATM    6  C   UNL     1      -9.154   7.260  69.647  1.00  0.00    -0.140 C  
HETATM    7  N   UNL     1      -9.871   5.371  71.064  1.00  0.00    -0.178 NA 
HETATM    8  O   UNL     1      -9.261   6.524  68.428  1.00  0.00    -0.124 OA 
HETATM    9  C   UNL     1      -9.838   4.547  69.829  1.00  0.00    -0.225 C  
HETATM   10  C   UNL     1      -8.975   5.136  68.687  1.00  0.00    -0.105 C  
ENDROOT
BRANCH   3  11
HETATM   11  C   UNL     1     -10.292  10.393  71.302  1.00  0.00     1.751 A  
HETATM   12  C   UNL     1     -11.258  12.966  72.051  1.00  0.00     5.414 A  
HETATM   13  C   UNL     1     -11.854  14.267  72.438  1.00  0.00     0.479 C  
HETATM   14  C   UNL     1     -11.787  11.825  72.635  1.00  0.00     5.321 A  
HETATM   15  C   UNL     1     -11.343  15.491  71.807  1.00  0.00    -0.463 C  
HETATM   16  C   UNL     1     -11.300  10.580  72.274  1.00  0.00     3.207 A  
HETATM   17  O   UNL     1     -12.776  14.338  73.247  1.00  0.00    -0.397 OA 
HETATM   18  C   UNL     1     -10.333  15.337  70.944  1.00  0.00     0.369 C  
HETATM   19  C   UNL     1     -11.834  16.850  72.118  1.00  0.00     0.437 C  
HETATM   20  F   UNL     1     -11.856   9.538  72.909  1.00  0.00     0.283 F  
HETATM   21  N   UNL     1      -9.697  14.148  70.612  1.00  0.00     2.444 NA 
HETATM   22  O   UNL     1     -11.350  17.864  71.639  1.00  0.00     1.761 OA 
HETATM   23  O   UNL     1     -12.859  16.887  72.996  1.00  0.00     0.428 OA 
HETATM   24  N   UNL     1      -8.282  11.379  68.585  1.00  0.00    -0.154 NA 
HETATM   25  C   UNL     1     -10.211  12.898  71.107  1.00  0.00     7.508 A  
HETATM   26  C   UNL     1      -9.780  11.593  70.698  1.00  0.00     4.930 A  
HETATM   27  C   UNL     1      -8.942  11.476  69.537  1.00  0.00     0.912 C  
BRANCH  21  28
HETATM   28  C   UNL     1      -8.350  14.306  70.009  1.00  0.00     1.207 C  
HETATM   29  C   UNL     1      -7.921  15.631  69.403  1.00  0.00    -0.226 C  
HETATM   30  C   UNL     1      -7.260  15.133  70.646  1.00  0.00     0.768 C  
ENDBRANCH  21  28
ENDBRANCH   3  11
TORSDOF 2
ENDMDL
MODEL      133
REMARK 921   NORMALIZED FREE ENERGY PREDICTED BY IDOCK:   37.72 KCAL/MOL
REMARK 922        TOTAL FREE ENERGY PREDICTED BY IDOCK:   41.35 KCAL/MOL
REMARK 923 INTER-LIGAND FREE ENERGY PREDICTED BY IDOCK:   40.74 KCAL/MOL
REMARK 924 INTRA-LIGAND FREE ENERGY PREDICTED BY IDOCK:    0.61 KCAL/MOL
REMARK 927      BINDING AFFINITY PREDICTED BY RF-SCORE:    0.00 PKD
ROOT
HETATM    1  C   UNL     1      -8.200  10.651  71.818  1.00  0.00     6.701 C  
HETATM    2  C   UNL     1      -8.525  12.152  71.985  1.00  0.00    18.543 C  
HETATM    3  N   UNL     1      -7.388  12.843  71.330  1.00  0.00     5.050 NA 
HETATM    4  H   UNL     1      -9.775   9.685  72.811  1.00  0.00     0.000 HD 
HETATM    5  C   UNL     1      -6.338  11.849  70.999  1.00  0.00     1.268 C  
HETATM    6  C   UNL     1      -6.669  10.652  71.891  1.00  0.00     2.663 C  
HETATM    7  N   UNL     1      -8.756   9.687  72.787  1.00  0.00     2.401 NA 
HETATM    8  O   UNL     1      -6.161   9.399  71.433  1.00  0.00    -0.077 OA 
HETATM    9  C   UNL     1      -8.179   8.359  72.460  1.00  0.00    -0.134 C  
HETATM   10  C   UNL     1      -6.638   8.351  72.298  1.00  0.00    -0.084 C  
ENDROOT
BRANCH   3  11
HETATM   11  C   UNL     1      -7.437  14.110  70.750  1.00  0.00     1.923 A  
HETATM   12  C   UNL     1      -7.442  16.759  69.700  1.00  0.00     0.326 A  
HETATM   13  C   UNL     1      -7.395  18.166  69.236  1.00  0.00    -0.024 C  
HETATM   14  C   UNL     1      -6.300  16.247  70.298  1.00  0.00     0.172 A  
HETATM   15  C   UNL     1      -8.601  18.750  68.634  1.00  0.00    -0.358 C  
HETATM   16  C   UNL     1      -6.305  14.953  70.793  1.00  0.00     0.089 A  
HETATM   17  O   UNL     1      -6.386  18.854  69.369  1.00  0.00    -0.264 OA 
HETATM   18  C   UNL     1      -9.656  17.937  68.514  1.00  0.00    -0.326 C  
HETATM   19  C   UNL     1      -8.680  20.130  68.114  1.00  0.00    -0.086 C  
HETATM   20  F   UNL     1      -5.149  14.539  71.332  1.00  0.00    -0.109 F  
HETATM   21  N   UNL     1      -9.718  16.595  68.865  1.00  0.00    -0.248 NA 
HETATM   22  O   UNL     1      -9.667  20.579  67.551  1.00  0.00    -0.430 OA 
HETATM   23  O   UNL     1      -7.560  20.862  68.295  1.00  0.00     0.122 OA 
HETATM   24  N   UNL     1     -10.875  13.430  70.419  1.00  0.00     1.079 NA 
HETATM   25  C   UNL     1      -8.614  15.984  69.557  1.00  0.00    -0.034 A  
HETATM   26  C   UNL     1      -8.612  14.677  70.145  1.00  0.00     0.996 A  
HETATM   27  C   UNL     1      -9.862  13.983  70.285  1.00  0.00     2.012 C  
BRANCH  21  28
HETATM   28  C   UNL     1     -10.813  15.829  68.220  1.00  0.00    -0.305 C  
HETATM   29  C   UNL     1     -11.256  16.150  66.803  1.00  0.00     0.154 C  
HETATM   30  C   UNL     1     -10.576  14.852  67.094  1.00  0.00    -0.285 C  
ENDBRANCH  21  28
ENDBRANCH   3  11
TORSDOF 2
ENDMDL
MODEL      134
REMARK 921   NORMALIZED FREE ENERGY PREDICTED BY IDOCK:   39.63 KCAL/MOL
REMARK 922        TOTAL FREE ENERGY PREDICTED BY IDOCK:   43.49 KCAL/MOL
REMARK 923 INTER-LIGAND FREE ENERGY PREDICTED BY IDOCK:   42.44 KCAL/MOL
REMARK 924 INTRA-LIGAND FREE ENERGY PREDICTED BY IDOCK:    1.05 KCAL/MOL
REMARK 927      BINDING AFFINITY PREDICTED BY RF-SCORE:    0.00 PKD
ROOT
HETATM    1  C   UNL     1      -9.013  13.580  65.758  1.00  0.00     0.717 C  
HETATM    2  C   UNL     1      -8.257  14.917  65.918  1.00  0.00     1.769 C  
HETATM    3  N   UNL     1      -9.043  15.656  66.935  1.00  0.00    -0.220 NA 
HETATM    4  H   UNL     1      -7.937  12.573  64.264  1.00  0.00     0.000 HD 
HETATM    5  C   UNL     1     -10.307  14.927  67.201  1.00  0.00    -0.260 C  
HETATM    6  C   UNL     1     -10.465  14.011  65.987  1.00  0.00    -0.304 C  
HETATM    7  N   UNL     1      -8.896  12.840  64.486  1.00  0.00     1.700 NA 
HETATM    8  O   UNL     1     -11.284  12.862  66.201  1.00  0.00    -0.278 OA 
HETATM    9  C   UNL     1      -9.817  11.680  64.571  1.00  0.00    -0.224 C  
HETATM   10  C   UNL     1     -11.256  12.034  65.022  1.00  0.00    -0.320 C  
ENDROOT
BRANCH   3  11
HETATM   11  C   UNL     1      -8.537  16.629  67.798  1.00  0.00    -0.192 A  
HETATM   12  C   UNL     1      -7.343  18.573  69.504  1.00  0.00     0.140 A  
HETATM   13  C   UNL     1      -6.632  19.552  70.361  1.00  0.00     0.068 C  
HETATM   14  C   UNL     1      -6.844  18.364  68.227  1.00  0.00    -0.245 A  
HETATM   15  C   UNL     1      -7.112  19.767  71.732  1.00  0.00     1.335 C  
HETATM   16  C   UNL     1      -7.441  17.426  67.401  1.00  0.00    -0.182 A  
HETATM   17  O   UNL     1      -5.643  20.160  69.959  1.00  0.00    -0.239 OA 
HETATM   18  C   UNL     1      -8.199  19.077  72.095  1.00  0.00     7.589 C  
HETATM   19  C   UNL     1      -6.507  20.725  72.680  1.00  0.00     2.801 C  
HETATM   20  F   UNL     1      -6.904  17.312  66.178  1.00  0.00    -0.245 F  
HETATM   21  N   UNL     1      -8.938  18.210  71.300  1.00  0.00     7.329 NA 
HETATM   22  O   UNL     1      -6.961  20.946  73.793  1.00  0.00     7.963 OA 
HETATM   23  O   UNL     1      -5.412  21.360  72.212  1.00  0.00    -0.031 OA 
HETATM   24  N   UNL     1     -10.698  15.152  70.151  1.00  0.00    -0.249 NA 
HETATM   25  C   UNL     1      -8.468  17.869  69.984  1.00  0.00     2.141 A  
HETATM   26  C   UNL     1      -9.017  16.853  69.134  1.00  0.00    -0.080 A  
HETATM   27  C   UNL     1      -9.956  15.920  69.694  1.00  0.00    -0.255 C  
BRANCH  21  28
HETATM   28  C   UNL     1     -10.317  17.944  71.780  1.00  0.00     4.366 C  
HETATM   29  C   UNL     1     -10.558  17.269  73.119  1.00  0.00     4.844 C  
HETATM   30  C   UNL     1     -10.945  18.699  72.927  1.00  0.00     3.006 C  
ENDBRANCH  21  28
ENDBRANCH   3  11
TORSDOF 2
ENDMDL
MODEL      135
REMARK 921   NORMALIZED FREE ENERGY PREDICTED BY IDOCK:   42.92 KCAL/MOL
REMARK 922        TOTAL FREE ENERGY PREDICTED BY IDOCK:   47.16 KCAL/MOL
REMARK 923 INTER-LIGAND FREE ENERGY PREDICTED BY IDOCK:   45.89 KCAL/MOL
REMARK 924 INTRA-LIGAND FREE ENERGY PREDICTED BY IDOCK:    1.27 KCAL/MOL
REMARK 927      BINDING AFFINITY PREDICTED BY RF-SCORE:    0.00 PKD
ROOT
HETATM    1  C   UNL     1     -12.927  10.703  69.441  1.00  0.00     0.975 C  
HETATM    2  C   UNL     1     -12.675   9.623  70.515  1.00  0.00     0.084 C  
HETATM    3  N   UNL     1     -11.779   8.650  69.846  1.00  0.00     0.262 NA 
HETATM    4  H   UNL     1     -14.253  12.036  70.371  1.00  0.00     0.000 HD 
HETATM    5  C   UNL     1     -11.682   8.985  68.405  1.00  0.00     1.579 C  
HETATM    6  C   UNL     1     -12.899   9.874  68.152  1.00  0.00     6.301 C  
HETATM    7  N   UNL     1     -14.166  11.503  69.506  1.00  0.00     6.048 NA 
HETATM    8  O   UNL     1     -12.791  10.739  67.021  1.00  0.00     4.240 OA 
HETATM    9  C   UNL     1     -14.199  12.355  68.292  1.00  0.00    14.213 C  
HETATM   10  C   UNL     1     -13.949  11.594  66.966  1.00  0.00    14.665 C  
ENDROOT
BRANCH   3  11
HETATM   11  C   UNL     1     -10.862   7.818  70.491  1.00  0.00    -0.241 A  
HETATM   12  C   UNL     1      -8.947   6.257  71.909  1.00  0.00    -0.139 A  
HETATM   13  C   UNL     1      -7.926   5.528  72.698  1.00  0.00    -0.103 C  
HETATM   14  C   UNL     1      -9.736   7.178  72.585  1.00  0.00    -0.186 A  
HETATM   15  C   UNL     1      -7.049   4.575  72.005  1.00  0.00    -0.057 C  
HETATM   16  C   UNL     1     -10.673   7.921  71.887  1.00  0.00    -0.237 A  
HETATM   17  O   UNL     1      -7.783   5.723  73.902  1.00  0.00    -0.099 OA 
HETATM   18  C   UNL     1      -7.271   4.408  70.697  1.00  0.00    -0.045 C  
HETATM   19  C   UNL     1      -6.007   3.770  72.676  1.00  0.00    -0.008 C  
HETATM   20  F   UNL     1     -11.403   8.768  72.628  1.00  0.00    -0.399 F  
HETATM   21  N   UNL     1      -8.264   5.013  69.937  1.00  0.00    -0.074 NA 
HETATM   22  O   UNL     1      -5.334   2.929  72.099  1.00  0.00     0.000 OA 
HETATM   23  O   UNL     1      -5.864   4.026  73.994  1.00  0.00    -0.007 OA 
HETATM   24  N   UNL     1      -9.924   6.919  67.220  1.00  0.00    -0.158 NA 
HETATM   25  C   UNL     1      -9.090   6.035  70.522  1.00  0.00    -0.149 A  
HETATM   26  C   UNL     1     -10.015   6.873  69.816  1.00  0.00    -0.187 A  
HETATM   27  C   UNL     1      -9.973   6.888  68.381  1.00  0.00    -0.147 C  
BRANCH  21  28
HETATM   28  C   UNL     1      -8.580   4.327  68.660  1.00  0.00    -0.093 C  
HETATM   29  C   UNL     1      -7.472   3.908  67.708  1.00  0.00    -0.067 C  
HETATM   30  C   UNL     1      -8.277   2.868  68.417  1.00  0.00    -0.079 C  
ENDBRANCH  21  28
ENDBRANCH   3  11
TORSDOF 2
ENDMDL
MODEL      136
REMARK 921   NORMALIZED FREE ENERGY PREDICTED BY IDOCK:   48.20 KCAL/MOL
REMARK 922        TOTAL FREE ENERGY PREDICTED BY IDOCK:   53.06 KCAL/MOL
REMARK 923 INTER-LIGAND FREE ENERGY PREDICTED BY IDOCK:   45.24 KCAL/MOL
REMARK 924 INTRA-LIGAND FREE ENERGY PREDICTED BY IDOCK:    7.83 KCAL/MOL
REMARK 927      BINDING AFFINITY PREDICTED BY RF-SCORE:    0.00 PKD
ROOT
HETATM    1  C   UNL     1     -10.728  10.445  71.743  1.00  0.00     2.511 C  
HETATM    2  C   UNL     1      -9.960  11.785  71.767  1.00  0.00    12.459 C  
HETATM    3  N   UNL     1      -9.323  11.861  70.430  1.00  0.00     3.878 NA 
HETATM    4  H   UNL     1     -11.562  10.312  73.663  1.00  0.00     0.000 HD 
HETATM    5  C   UNL     1      -9.496  10.564  69.732  1.00  0.00     0.101 C  
HETATM    6  C   UNL     1      -9.823   9.582  70.857  1.00  0.00    -0.209 C  
HETATM    7  N   UNL     1     -11.002   9.754  73.018  1.00  0.00     3.905 NA 
HETATM    8  O   UNL     1     -10.523   8.407  70.448  1.00  0.00    -0.205 OA 
HETATM    9  C   UNL     1     -11.628   8.451  72.681  1.00  0.00    -0.297 C  
HETATM   10  C   UNL     1     -10.864   7.630  71.612  1.00  0.00    -0.227 C  
ENDROOT
BRANCH   3  11
HETATM   11  C   UNL     1      -8.983  13.038  69.762  1.00  0.00     2.445 A  
HETATM   12  C   UNL     1      -8.422  15.520  68.481  1.00  0.00    -0.163 A  
HETATM   13  C   UNL     1      -8.211  16.849  67.859  1.00  0.00    -0.197 C  
HETATM   14  C   UNL     1      -8.818  15.494  69.810  1.00  0.00    -0.016 A  
HETATM   15  C   UNL     1      -7.828  16.911  66.442  1.00  0.00    -0.348 C  
HETATM   16  C   UNL     1      -9.075  14.281  70.427  1.00  0.00     2.369 A  
HETATM   17  O   UNL     1      -8.375  17.889  68.492  1.00  0.00    -0.295 OA 
HETATM   18  C   UNL     1      -7.659  15.738  65.822  1.00  0.00     2.573 C  
HETATM   19  C   UNL     1      -7.569  18.167  65.709  1.00  0.00    -0.035 C  
HETATM   20  F   UNL     1      -9.430  14.355  71.718  1.00  0.00     2.897 F  
HETATM   21  N   UNL     1      -7.772  14.474  66.386  1.00  0.00     0.869 NA 
HETATM   22  O   UNL     1      -7.182  18.201  64.551  1.00  0.00     1.774 OA 
HETATM   23  O   UNL     1      -7.778  19.290  66.431  1.00  0.00    -0.256 OA 
HETATM   24  N   UNL     1      -8.838  10.960  66.924  1.00  0.00    -0.140 NA 
HETATM   25  C   UNL     1      -8.246  14.333  67.737  1.00  0.00    -0.174 A  
HETATM   26  C   UNL     1      -8.591  13.099  68.380  1.00  0.00    -0.124 A  
HETATM   27  C   UNL     1      -8.715  11.914  67.577  1.00  0.00    -0.163 C  
BRANCH  21  28
HETATM   28  C   UNL     1      -7.099  13.389  65.629  1.00  0.00     6.605 C  
HETATM   29  C   UNL     1      -7.338  11.931  65.983  1.00  0.00     0.799 C  
HETATM   30  C   UNL     1      -7.837  12.472  64.684  1.00  0.00     4.900 C  
ENDBRANCH  21  28
ENDBRANCH   3  11
TORSDOF 2
ENDMDL
MODEL      137
REMARK 921   NORMALIZED FREE ENERGY PREDICTED BY IDOCK:   49.02 KCAL/MOL
REMARK 922        TOTAL FREE ENERGY PREDICTED BY IDOCK:   53.98 KCAL/MOL
REMARK 923 INTER-LIGAND FREE ENERGY PREDICTED BY IDOCK:   54.64 KCAL/MOL
REMARK 924 INTRA-LIGAND FREE ENERGY PREDICTED BY IDOCK:   -0.66 KCAL/MOL
REMARK 927      BINDING AFFINITY PREDICTED BY RF-SCORE:    0.00 PKD
ROOT
HETATM    1  C   UNL     1      -6.246   5.267  64.755  1.00  0.00    -0.029 C  
HETATM    2  C   UNL     1      -6.358   6.703  65.310  1.00  0.00    -0.042 C  
HETATM    3  N   UNL     1      -7.357   6.593  66.400  1.00  0.00    -0.072 NA 
HETATM    4  H   UNL     1      -4.887   5.448  63.167  1.00  0.00     0.000 HD 
HETATM    5  C   UNL     1      -7.979   5.247  66.358  1.00  0.00    -0.104 C  
HETATM    6  C   UNL     1      -7.674   4.745  64.947  1.00  0.00    -0.078 C  
HETATM    7  N   UNL     1      -5.815   5.071  63.357  1.00  0.00    -0.017 NA 
HETATM    8  O   UNL     1      -7.696   3.326  64.793  1.00  0.00    -0.076 OA 
HETATM    9  C   UNL     1      -5.924   3.620  63.066  1.00  0.00    -0.014 C  
HETATM   10  C   UNL     1      -7.284   2.988  63.454  1.00  0.00    -0.049 C  
ENDROOT
BRANCH   3  11
HETATM   11  C   UNL     1      -7.429   7.423  67.519  1.00  0.00    -0.100 A  
HETATM   12  C   UNL     1      -7.502   8.987  69.898  1.00  0.00    -0.065 A  
HETATM   13  C   UNL     1      -7.503   9.722  71.186  1.00  0.00     0.492 C  
HETATM   14  C   UNL     1      -6.409   8.175  69.630  1.00  0.00    -0.033 A  
HETATM   15  C   UNL     1      -8.663  10.560  71.518  1.00  0.00     5.290 C  
HETATM   16  C   UNL     1      -6.379   7.429  68.464  1.00  0.00    -0.036 A  
HETATM   17  O   UNL     1      -6.575   9.623  71.984  1.00  0.00    -0.270 OA 
HETATM   18  C   UNL     1      -9.630  10.626  70.596  1.00  0.00     1.895 C  
HETATM   19  C   UNL     1      -8.781  11.358  72.756  1.00  0.00    19.777 C  
HETATM   20  F   UNL     1      -5.273   6.694  68.280  1.00  0.00    -0.009 F  
HETATM   21  N   UNL     1      -9.633  10.016  69.348  1.00  0.00    -0.210 NA 
HETATM   22  O   UNL     1      -9.719  12.106  72.985  1.00  0.00    19.296 OA 
HETATM   23  O   UNL     1      -7.752  11.209  73.617  1.00  0.00     9.963 OA 
HETATM   24  N   UNL     1     -10.734   7.982  66.446  1.00  0.00     0.383 NA 
HETATM   25  C   UNL     1      -8.583   9.097  68.997  1.00  0.00    -0.133 A  
HETATM   26  C   UNL     1      -8.556   8.256  67.836  1.00  0.00    -0.132 A  
HETATM   27  C   UNL     1      -9.757   8.115  67.061  1.00  0.00    -0.212 C  
BRANCH  21  28
HETATM   28  C   UNL     1     -10.576  10.606  68.365  1.00  0.00    -0.199 C  
HETATM   29  C   UNL     1     -11.989  10.984  68.774  1.00  0.00    -0.295 C  
HETATM   30  C   UNL     1     -11.009  12.052  68.412  1.00  0.00    -0.276 C  
ENDBRANCH  21  28
ENDBRANCH   3  11
TORSDOF 2
ENDMDL
MODEL      138
REMARK 921   NORMALIZED FREE ENERGY PREDICTED BY IDOCK:   50.60 KCAL/MOL
REMARK 922        TOTAL FREE ENERGY PREDICTED BY IDOCK:   55.74 KCAL/MOL
REMARK 923 INTER-LIGAND FREE ENERGY PREDICTED BY IDOCK:   54.57 KCAL/MOL
REMARK 924 INTRA-LIGAND FREE ENERGY PREDICTED BY IDOCK:    1.17 KCAL/MOL
REMARK 927      BINDING AFFINITY PREDICTED BY RF-SCORE:    0.00 PKD
ROOT
HETATM    1  C   UNL     1     -10.921   7.965  69.659  1.00  0.00    -0.110 C  
HETATM    2  C   UNL     1     -10.254   8.496  68.371  1.00  0.00    -0.203 C  
HETATM    3  N   UNL     1     -11.089   9.659  67.985  1.00  0.00    -0.133 NA 
HETATM    4  H   UNL     1      -9.778   6.277  70.155  1.00  0.00     0.000 HD 
HETATM    5  C   UNL     1     -12.303   9.693  68.836  1.00  0.00     2.086 C  
HETATM    6  C   UNL     1     -12.399   8.274  69.397  1.00  0.00     2.493 C  
HETATM    7  N   UNL     1     -10.753   6.544  70.018  1.00  0.00    -0.227 NA 
HETATM    8  O   UNL     1     -13.142   8.153  70.610  1.00  0.00     0.296 OA 
HETATM    9  C   UNL     1     -11.597   6.294  71.213  1.00  0.00    -0.274 C  
HETATM   10  C   UNL     1     -13.057   6.796  71.084  1.00  0.00    -0.013 C  
ENDROOT
BRANCH   3  11
HETATM   11  C   UNL     1     -10.650  10.762  67.252  1.00  0.00    -0.257 A  
HETATM   12  C   UNL     1      -9.621  13.032  65.872  1.00  0.00    -0.126 A  
HETATM   13  C   UNL     1      -9.017  14.222  65.226  1.00  0.00     1.705 C  
HETATM   14  C   UNL     1      -8.755  12.094  66.414  1.00  0.00    -0.052 A  
HETATM   15  C   UNL     1      -9.907  15.253  64.677  1.00  0.00     0.842 C  
HETATM   16  C   UNL     1      -9.267  10.987  67.072  1.00  0.00    -0.153 A  
HETATM   17  O   UNL     1      -7.800  14.373  65.167  1.00  0.00     5.499 OA 
HETATM   18  C   UNL     1     -11.220  15.014  64.769  1.00  0.00    -0.386 C  
HETATM   19  C   UNL     1      -9.435  16.474  63.992  1.00  0.00     7.572 C  
HETATM   20  F   UNL     1      -8.354  10.124  67.541  1.00  0.00    -0.115 F  
HETATM   21  N   UNL     1     -11.824  13.881  65.297  1.00  0.00    -0.341 NA 
HETATM   22  O   UNL     1     -10.187  17.288  63.476  1.00  0.00     5.860 OA 
HETATM   23  O   UNL     1      -8.093  16.617  63.962  1.00  0.00     8.974 OA 
HETATM   24  N   UNL     1     -14.033  11.726  67.359  1.00  0.00    11.157 NA 
HETATM   25  C   UNL     1     -11.023  12.879  65.948  1.00  0.00    -0.276 A  
HETATM   26  C   UNL     1     -11.520  11.763  66.699  1.00  0.00    -0.337 A  
HETATM   27  C   UNL     1     -12.912  11.737  67.052  1.00  0.00     4.727 C  
BRANCH  21  28
HETATM   28  C   UNL     1     -13.229  13.665  64.870  1.00  0.00     0.329 C  
HETATM   29  C   UNL     1     -13.674  14.009  63.459  1.00  0.00     4.834 C  
HETATM   30  C   UNL     1     -13.632  12.582  63.898  1.00  0.00     1.203 C  
ENDBRANCH  21  28
ENDBRANCH   3  11
TORSDOF 2
ENDMDL
MODEL      139
REMARK 921   NORMALIZED FREE ENERGY PREDICTED BY IDOCK:   68.71 KCAL/MOL
REMARK 922        TOTAL FREE ENERGY PREDICTED BY IDOCK:   75.97 KCAL/MOL
REMARK 923 INTER-LIGAND FREE ENERGY PREDICTED BY IDOCK:   72.74 KCAL/MOL
REMARK 924 INTRA-LIGAND FREE ENERGY PREDICTED BY IDOCK:    3.24 KCAL/MOL
REMARK 927      BINDING AFFINITY PREDICTED BY RF-SCORE:    0.00 PKD
ROOT
HETATM    1  C   UNL     1     -10.184   6.753  70.664  1.00  0.00    -0.195 C  
HETATM    2  C   UNL     1     -10.102   7.812  71.785  1.00  0.00    -0.179 C  
HETATM    3  N   UNL     1      -9.775   9.070  71.070  1.00  0.00    -0.253 NA 
HETATM    4  H   UNL     1     -10.573   4.966  71.692  1.00  0.00     0.000 HD 
HETATM    5  C   UNL     1      -9.452   8.758  69.657  1.00  0.00    -0.170 C  
HETATM    6  C   UNL     1      -9.133   7.264  69.672  1.00  0.00    -0.140 C  
HETATM    7  N   UNL     1      -9.927   5.338  70.996  1.00  0.00    -0.190 NA 
HETATM    8  O   UNL     1      -9.287   6.600  68.418  1.00  0.00    -0.126 OA 
HETATM    9  C   UNL     1      -9.947   4.581  69.719  1.00  0.00    -0.198 C  
HETATM   10  C   UNL     1      -9.067   5.188  68.599  1.00  0.00    -0.111 C  
ENDROOT
BRANCH   3  11
HETATM   11  C   UNL     1     -10.101  10.355  71.505  1.00  0.00     3.107 A  
HETATM   12  C   UNL     1     -10.708  12.933  72.554  1.00  0.00    10.941 A  
HETATM   13  C   UNL     1     -10.997  14.240  73.190  1.00  0.00     3.118 C  
HETATM   14  C   UNL     1      -9.561  12.267  72.960  1.00  0.00    24.121 A  
HETATM   15  C   UNL     1     -12.224  14.952  72.811  1.00  0.00    -0.397 C  
HETATM   16  C   UNL     1      -9.268  11.020  72.433  1.00  0.00    14.340 A  
HETATM   17  O   UNL     1     -10.251  14.722  74.039  1.00  0.00     4.254 OA 
HETATM   18  C   UNL     1     -12.981  14.372  71.873  1.00  0.00    -0.349 C  
HETATM   19  C   UNL     1     -12.618  16.269  73.353  1.00  0.00    -0.486 C  
HETATM   20  F   UNL     1      -8.128  10.465  72.867  1.00  0.00     4.702 F  
HETATM   21  N   UNL     1     -12.709  13.188  71.200  1.00  0.00    -0.343 NA 
HETATM   22  O   UNL     1     -13.605  16.883  72.975  1.00  0.00     0.977 OA 
HETATM   23  O   UNL     1     -11.786  16.758  74.297  1.00  0.00    -0.056 OA 
HETATM   24  N   UNL     1     -13.128   9.774  69.806  1.00  0.00     0.829 NA 
HETATM   25  C   UNL     1     -11.583  12.383  71.592  1.00  0.00     2.771 A  
HETATM   26  C   UNL     1     -11.293  11.060  71.122  1.00  0.00     0.792 A  
HETATM   27  C   UNL     1     -12.303  10.355  70.384  1.00  0.00    -0.286 C  
BRANCH  21  28
HETATM   28  C   UNL     1     -13.445  13.012  69.923  1.00  0.00     2.194 C  
HETATM   29  C   UNL     1     -12.810  13.400  68.599  1.00  0.00     1.391 C  
HETATM   30  C   UNL     1     -13.075  11.963  68.902  1.00  0.00     2.677 C  
ENDBRANCH  21  28
ENDBRANCH   3  11
TORSDOF 2
ENDMDL
