MODEL        1
REMARK 921   NORMALIZED FREE ENERGY PREDICTED BY IDOCK:   -7.55 KCAL/MOL
REMARK 922        TOTAL FREE ENERGY PREDICTED BY IDOCK:   -7.06 KCAL/MOL
REMARK 923 INTER-LIGAND FREE ENERGY PREDICTED BY IDOCK:   -7.99 KCAL/MOL
REMARK 924 INTRA-LIGAND FREE ENERGY PREDICTED BY IDOCK:    0.93 KCAL/MOL
REMARK 927      BINDING AFFINITY PREDICTED BY RF-SCORE:    0.00 PKD
ROOT
HETATM    1  C   UNL     1     -10.389  10.095  65.520  1.00  0.00    -0.196 C  
HETATM    2  C   UNL     1      -9.412  10.536  64.579  1.00  0.00    -0.329 C  
HETATM    3  C   UNL     1      -8.939  10.828  65.958  1.00  0.00    -0.196 C  
HETATM    4  C   UNL     1     -10.117  10.037  67.436  1.00  0.00    -0.256 C  
HETATM    5  C   UNL     1     -11.999  13.857  68.543  1.00  0.00    -0.394 C  
HETATM    6  C   UNL     1      -9.119   9.404  66.769  1.00  0.00    -0.168 C  
HETATM    7  C   UNL     1     -11.029  14.051  67.372  1.00  0.00    -0.302 C  
HETATM    8  C   UNL     1      -9.918  15.039  67.770  1.00  0.00    -0.229 C  
HETATM    9  C   UNL     1      -8.214  10.602  67.929  1.00  0.00    -0.112 C  
HETATM   10  C   UNL     1      -8.583   8.034  66.490  1.00  0.00    -0.148 C  
HETATM   11  C   UNL     1      -9.548  16.097  67.029  1.00  0.00    -0.233 C  
HETATM   12  O   UNL     1     -10.421  17.658  65.493  1.00  0.00    -0.636 OA 
HETATM   13  C   UNL     1      -9.217  12.086  68.186  1.00  0.00    -0.195 C  
HETATM   14  C   UNL     1     -10.360  16.496  65.863  1.00  0.00    -0.350 C  
HETATM   15  H   UNL     1     -10.885  15.221  64.263  1.00  0.00     0.000 HD 
HETATM   16  C   UNL     1     -10.282  12.718  66.973  1.00  0.00    -0.245 C  
HETATM   17  N   UNL     1     -10.994  15.436  65.254  1.00  0.00    -0.374 N  
HETATM   18  C   UNL     1     -11.216  11.650  66.089  1.00  0.00    -0.314 C  
HETATM   19  C   UNL     1     -11.845  12.401  64.902  1.00  0.00    -0.442 C  
HETATM   20  C   UNL     1     -12.653  13.620  65.349  1.00  0.00    -0.533 C  
HETATM   21  C   UNL     1     -11.841  14.644  66.151  1.00  0.00    -0.277 C  
ENDROOT
BRANCH   4  22
HETATM   22  C   UNL     1     -10.052   9.191  68.886  1.00  0.00    -0.197 C  
HETATM   23  C   UNL     1     -12.495   9.199  71.850  1.00  0.00    -0.459 C  
HETATM   24  C   UNL     1     -10.075   8.661  72.022  1.00  0.00    -0.401 C  
HETATM   25  C   UNL     1     -11.286   8.618  71.078  1.00  0.00    -0.274 C  
HETATM   26  H   UNL     1     -11.692  10.186  69.653  1.00  0.00     0.000 HD 
HETATM   27  N   UNL     1     -11.054   9.410  69.831  1.00  0.00    -0.228 N  
HETATM   28  O   UNL     1      -9.102   8.454  69.152  1.00  0.00    -0.146 OA 
HETATM   29  C   UNL     1     -11.635   7.151  70.755  1.00  0.00    -0.358 C  
ENDBRANCH   4  22
TORSDOF 1
ENDMDL
MODEL        2
REMARK 921   NORMALIZED FREE ENERGY PREDICTED BY IDOCK:   -7.39 KCAL/MOL
REMARK 922        TOTAL FREE ENERGY PREDICTED BY IDOCK:   -6.89 KCAL/MOL
REMARK 923 INTER-LIGAND FREE ENERGY PREDICTED BY IDOCK:   -7.81 KCAL/MOL
REMARK 924 INTRA-LIGAND FREE ENERGY PREDICTED BY IDOCK:    0.92 KCAL/MOL
REMARK 927      BINDING AFFINITY PREDICTED BY RF-SCORE:    0.00 PKD
ROOT
HETATM    1  C   UNL     1     -10.862  12.931  64.231  1.00  0.00    -0.423 C  
HETATM    2  C   UNL     1     -12.163  12.346  64.200  1.00  0.00    -0.558 C  
HETATM    3  C   UNL     1     -11.902  12.905  65.553  1.00  0.00    -0.455 C  
HETATM    4  C   UNL     1     -10.173  13.994  65.696  1.00  0.00    -0.351 C  
HETATM    5  C   UNL     1      -7.911  10.886  67.836  1.00  0.00    -0.109 C  
HETATM    6  C   UNL     1     -11.383  14.443  65.275  1.00  0.00    -0.346 C  
HETATM    7  C   UNL     1      -9.322  10.392  67.499  1.00  0.00    -0.163 C  
HETATM    8  C   UNL     1     -10.081  10.048  68.792  1.00  0.00    -0.197 C  
HETATM    9  C   UNL     1     -11.588  14.249  67.151  1.00  0.00    -0.402 C  
HETATM   10  C   UNL     1     -12.016  15.581  64.536  1.00  0.00    -0.172 C  
HETATM   11  C   UNL     1     -10.741   8.896  68.997  1.00  0.00    -0.148 C  
HETATM   12  O   UNL     1     -10.688   6.617  68.392  1.00  0.00    -0.218 OA 
HETATM   13  C   UNL     1     -10.555  12.887  67.746  1.00  0.00    -0.231 C  
HETATM   14  C   UNL     1     -10.587   7.782  68.041  1.00  0.00    -0.139 C  
HETATM   15  H   UNL     1     -10.929   7.920  65.961  1.00  0.00     0.000 HD 
HETATM   16  C   UNL     1     -10.197  11.494  66.780  1.00  0.00    -0.254 C  
HETATM   17  N   UNL     1     -10.349   8.203  66.750  1.00  0.00    -0.321 N  
HETATM   18  C   UNL     1      -9.831  11.709  65.163  1.00  0.00    -0.281 C  
HETATM   19  C   UNL     1      -9.838  10.338  64.462  1.00  0.00    -0.384 C  
HETATM   20  C   UNL     1      -8.890   9.341  65.127  1.00  0.00    -0.238 C  
HETATM   21  C   UNL     1      -9.190   9.090  66.610  1.00  0.00    -0.167 C  
ENDROOT
BRANCH   4  22
HETATM   22  C   UNL     1      -9.546  15.430  66.301  1.00  0.00    -0.313 C  
HETATM   23  C   UNL     1     -10.777  19.039  65.837  1.00  0.00    -0.404 C  
HETATM   24  C   UNL     1      -8.424  18.406  66.330  1.00  0.00    -0.264 C  
HETATM   25  C   UNL     1      -9.886  17.978  66.527  1.00  0.00    -0.353 C  
HETATM   26  H   UNL     1     -10.866  16.581  65.206  1.00  0.00     0.000 HD 
HETATM   27  N   UNL     1     -10.161  16.629  65.941  1.00  0.00    -0.335 N  
HETATM   28  O   UNL     1      -8.521  15.440  66.983  1.00  0.00    -0.195 OA 
HETATM   29  C   UNL     1     -10.237  18.019  68.028  1.00  0.00    -0.390 C  
ENDBRANCH   4  22
TORSDOF 1
ENDMDL
MODEL        3
REMARK 921   NORMALIZED FREE ENERGY PREDICTED BY IDOCK:   -7.39 KCAL/MOL
REMARK 922        TOTAL FREE ENERGY PREDICTED BY IDOCK:   -6.89 KCAL/MOL
REMARK 923 INTER-LIGAND FREE ENERGY PREDICTED BY IDOCK:   -7.93 KCAL/MOL
REMARK 924 INTRA-LIGAND FREE ENERGY PREDICTED BY IDOCK:    1.04 KCAL/MOL
REMARK 927      BINDING AFFINITY PREDICTED BY RF-SCORE:    0.00 PKD
ROOT
HETATM    1  C   UNL     1     -11.061  12.750  63.824  1.00  0.00    -0.475 C  
HETATM    2  C   UNL     1     -12.318  12.077  63.807  1.00  0.00    -0.602 C  
HETATM    3  C   UNL     1     -12.122  12.725  65.130  1.00  0.00    -0.498 C  
HETATM    4  C   UNL     1     -10.473  13.936  65.237  1.00  0.00    -0.386 C  
HETATM    5  C   UNL     1      -8.046  11.113  67.582  1.00  0.00    -0.117 C  
HETATM    6  C   UNL     1     -11.702  14.278  64.774  1.00  0.00    -0.420 C  
HETATM    7  C   UNL     1      -9.415  10.506  67.252  1.00  0.00    -0.179 C  
HETATM    8  C   UNL     1     -10.172  10.182  68.551  1.00  0.00    -0.194 C  
HETATM    9  C   UNL     1     -11.928  14.174  66.655  1.00  0.00    -0.470 C  
HETATM   10  C   UNL     1     -12.396  15.328  63.963  1.00  0.00     0.046 C  
HETATM   11  C   UNL     1     -10.756   9.000  68.810  1.00  0.00    -0.140 C  
HETATM   12  O   UNL     1     -10.539   6.701  68.335  1.00  0.00    -0.200 OA 
HETATM   13  C   UNL     1     -10.817  12.920  67.340  1.00  0.00    -0.272 C  
HETATM   14  C   UNL     1     -10.510   7.849  67.920  1.00  0.00    -0.198 C  
HETATM   15  H   UNL     1     -10.822   7.849  65.831  1.00  0.00     0.000 HD 
HETATM   16  C   UNL     1     -10.348  11.504  66.459  1.00  0.00    -0.269 C  
HETATM   17  N   UNL     1     -10.277   8.213  66.612  1.00  0.00    -0.294 N  
HETATM   18  C   UNL     1      -9.967  11.655  64.839  1.00  0.00    -0.293 C  
HETATM   19  C   UNL     1      -9.869  10.250  64.216  1.00  0.00    -0.357 C  
HETATM   20  C   UNL     1      -8.868   9.357  64.949  1.00  0.00    -0.240 C  
HETATM   21  C   UNL     1      -9.179   9.169  66.439  1.00  0.00    -0.183 C  
ENDROOT
BRANCH   4  22
HETATM   22  C   UNL     1      -9.956  15.443  65.770  1.00  0.00    -0.362 C  
HETATM   23  C   UNL     1      -7.805  16.368  68.815  1.00  0.00    -0.220 C  
HETATM   24  C   UNL     1      -9.454  17.887  67.742  1.00  0.00    -0.263 C  
HETATM   25  C   UNL     1      -8.496  16.717  67.475  1.00  0.00    -0.188 C  
HETATM   26  H   UNL     1      -9.153  14.661  67.506  1.00  0.00     0.000 HD 
HETATM   27  N   UNL     1      -9.213  15.514  66.948  1.00  0.00    -0.222 N  
HETATM   28  O   UNL     1     -10.288  16.475  65.185  1.00  0.00    -0.618 OA 
HETATM   29  C   UNL     1      -7.382  17.173  66.511  1.00  0.00    -0.311 C  
ENDBRANCH   4  22
TORSDOF 1
ENDMDL
MODEL        4
REMARK 921   NORMALIZED FREE ENERGY PREDICTED BY IDOCK:   -7.30 KCAL/MOL
REMARK 922        TOTAL FREE ENERGY PREDICTED BY IDOCK:   -6.79 KCAL/MOL
REMARK 923 INTER-LIGAND FREE ENERGY PREDICTED BY IDOCK:   -7.84 KCAL/MOL
REMARK 924 INTRA-LIGAND FREE ENERGY PREDICTED BY IDOCK:    1.05 KCAL/MOL
REMARK 927      BINDING AFFINITY PREDICTED BY RF-SCORE:    0.00 PKD
ROOT
HETATM    1  C   UNL     1     -10.185  10.116  65.704  1.00  0.00    -0.288 C  
HETATM    2  C   UNL     1      -9.277  10.539  64.688  1.00  0.00    -0.274 C  
HETATM    3  C   UNL     1      -8.790  11.005  66.013  1.00  0.00    -0.199 C  
HETATM    4  C   UNL     1      -9.852  10.273  67.605  1.00  0.00    -0.199 C  
HETATM    5  C   UNL     1     -12.017  14.019  68.405  1.00  0.00    -0.378 C  
HETATM    6  C   UNL     1      -8.824   9.660  66.965  1.00  0.00    -0.142 C  
HETATM    7  C   UNL     1     -11.102  14.172  67.185  1.00  0.00    -0.315 C  
HETATM    8  C   UNL     1     -10.068  15.282  67.441  1.00  0.00    -0.232 C  
HETATM    9  C   UNL     1      -7.990  11.038  67.968  1.00  0.00    -0.115 C  
HETATM   10  C   UNL     1      -8.182   8.317  66.801  1.00  0.00    -0.103 C  
HETATM   11  C   UNL     1      -9.811  16.288  66.587  1.00  0.00    -0.265 C  
HETATM   12  O   UNL     1     -10.858  17.610  64.940  1.00  0.00    -0.831 OA 
HETATM   13  C   UNL     1      -9.107  12.454  68.116  1.00  0.00    -0.200 C  
HETATM   14  C   UNL     1     -10.688  16.500  65.419  1.00  0.00    -0.259 C  
HETATM   15  H   UNL     1     -11.150  15.032  63.972  1.00  0.00     0.000 HD 
HETATM   16  C   UNL     1     -10.257  12.871  66.889  1.00  0.00    -0.243 C  
HETATM   17  N   UNL     1     -11.248  15.336  64.941  1.00  0.00    -0.418 N  
HETATM   18  C   UNL     1     -11.123  11.647  66.150  1.00  0.00    -0.335 C  
HETATM   19  C   UNL     1     -11.849  12.222  64.920  1.00  0.00    -0.417 C  
HETATM   20  C   UNL     1     -12.744  13.410  65.276  1.00  0.00    -0.481 C  
HETATM   21  C   UNL     1     -11.998  14.572  65.943  1.00  0.00    -0.309 C  
ENDROOT
BRANCH   4  22
HETATM   22  C   UNL     1      -9.672   9.585  69.127  1.00  0.00    -0.178 C  
HETATM   23  C   UNL     1     -11.812   6.929  70.894  1.00  0.00    -0.424 C  
HETATM   24  C   UNL     1     -10.426   8.628  72.065  1.00  0.00    -0.422 C  
HETATM   25  C   UNL     1     -10.537   7.799  70.776  1.00  0.00    -0.218 C  
HETATM   26  H   UNL     1     -11.466   8.570  68.988  1.00  0.00     0.000 HD 
HETATM   27  N   UNL     1     -10.626   8.664  69.559  1.00  0.00    -0.224 N  
HETATM   28  O   UNL     1      -8.767   9.940  69.884  1.00  0.00    -0.205 OA 
HETATM   29  C   UNL     1      -9.346   6.824  70.687  1.00  0.00    -0.162 C  
ENDBRANCH   4  22
TORSDOF 1
ENDMDL
MODEL        5
REMARK 921   NORMALIZED FREE ENERGY PREDICTED BY IDOCK:   -7.11 KCAL/MOL
REMARK 922        TOTAL FREE ENERGY PREDICTED BY IDOCK:   -6.59 KCAL/MOL
REMARK 923 INTER-LIGAND FREE ENERGY PREDICTED BY IDOCK:   -7.42 KCAL/MOL
REMARK 924 INTRA-LIGAND FREE ENERGY PREDICTED BY IDOCK:    0.84 KCAL/MOL
REMARK 927      BINDING AFFINITY PREDICTED BY RF-SCORE:    0.00 PKD
ROOT
HETATM    1  C   UNL     1     -10.269  10.255  64.883  1.00  0.00    -0.261 C  
HETATM    2  C   UNL     1      -9.159  10.710  64.113  1.00  0.00    -0.245 C  
HETATM    3  C   UNL     1      -8.843  10.835  65.560  1.00  0.00    -0.203 C  
HETATM    4  C   UNL     1     -10.240   9.997  66.802  1.00  0.00    -0.295 C  
HETATM    5  C   UNL     1     -12.005  13.823  68.068  1.00  0.00    -0.390 C  
HETATM    6  C   UNL     1      -9.208   9.358  66.194  1.00  0.00    -0.241 C  
HETATM    7  C   UNL     1     -10.888  14.055  67.044  1.00  0.00    -0.291 C  
HETATM    8  C   UNL     1      -9.776  14.917  67.667  1.00  0.00    -0.212 C  
HETATM    9  C   UNL     1      -8.381  10.372  67.569  1.00  0.00    -0.114 C  
HETATM   10  C   UNL     1      -8.727   7.985  65.841  1.00  0.00    -0.184 C  
HETATM   11  C   UNL     1      -9.253  16.010  67.087  1.00  0.00    -0.221 C  
HETATM   12  O   UNL     1      -9.832  17.769  65.627  1.00  0.00    -0.528 OA 
HETATM   13  C   UNL     1      -9.314  11.895  67.857  1.00  0.00    -0.187 C  
HETATM   14  C   UNL     1      -9.889  16.576  65.881  1.00  0.00    -0.295 C  
HETATM   15  H   UNL     1     -10.290  15.499  64.109  1.00  0.00     0.000 HD 
HETATM   16  C   UNL     1     -10.181  12.714  66.600  1.00  0.00    -0.246 C  
HETATM   17  N   UNL     1     -10.508  15.627  65.097  1.00  0.00    -0.408 N  
HETATM   18  C   UNL     1     -11.063  11.806  65.509  1.00  0.00    -0.336 C  
HETATM   19  C   UNL     1     -11.494  12.710  64.339  1.00  0.00    -0.402 C  
HETATM   20  C   UNL     1     -12.274  13.937  64.811  1.00  0.00    -0.441 C  
HETATM   21  C   UNL     1     -11.506  14.819  65.803  1.00  0.00    -0.322 C  
ENDROOT
BRANCH   4  22
HETATM   22  C   UNL     1     -10.406   9.016  68.155  1.00  0.00    -0.214 C  
HETATM   23  C   UNL     1     -10.041   5.207  68.490  1.00  0.00    -0.214 C  
HETATM   24  C   UNL     1     -11.429   6.626  69.987  1.00  0.00    -0.434 C  
HETATM   25  C   UNL     1     -10.177   6.624  69.097  1.00  0.00    -0.179 C  
HETATM   26  H   UNL     1     -10.224   7.284  67.043  1.00  0.00     0.000 HD 
HETATM   27  N   UNL     1     -10.268   7.637  68.000  1.00  0.00    -0.194 N  
HETATM   28  O   UNL     1     -10.722   9.486  69.249  1.00  0.00    -0.225 OA 
HETATM   29  C   UNL     1      -8.926   6.851  69.969  1.00  0.00    -0.142 C  
ENDBRANCH   4  22
TORSDOF 1
ENDMDL
MODEL        6
REMARK 921   NORMALIZED FREE ENERGY PREDICTED BY IDOCK:   -7.07 KCAL/MOL
REMARK 922        TOTAL FREE ENERGY PREDICTED BY IDOCK:   -6.55 KCAL/MOL
REMARK 923 INTER-LIGAND FREE ENERGY PREDICTED BY IDOCK:   -7.48 KCAL/MOL
REMARK 924 INTRA-LIGAND FREE ENERGY PREDICTED BY IDOCK:    0.92 KCAL/MOL
REMARK 927      BINDING AFFINITY PREDICTED BY RF-SCORE:    0.00 PKD
ROOT
HETATM    1  C   UNL     1      -8.078  14.770  68.325  1.00  0.00    -0.139 C  
HETATM    2  C   UNL     1      -7.573  15.329  67.115  1.00  0.00    -0.224 C  
HETATM    3  C   UNL     1      -9.058  15.384  67.103  1.00  0.00    -0.236 C  
HETATM    4  C   UNL     1      -9.934  14.842  68.874  1.00  0.00    -0.233 C  
HETATM    5  C   UNL     1     -11.248  10.880  67.483  1.00  0.00    -0.364 C  
HETATM    6  C   UNL     1      -9.460  16.071  68.546  1.00  0.00    -0.216 C  
HETATM    7  C   UNL     1     -10.472  11.611  66.381  1.00  0.00    -0.283 C  
HETATM    8  C   UNL     1     -11.371  11.807  65.148  1.00  0.00    -0.281 C  
HETATM    9  C   UNL     1     -11.058  15.906  67.537  1.00  0.00    -0.235 C  
HETATM   10  C   UNL     1      -9.060  17.375  69.165  1.00  0.00     0.039 C  
HETATM   11  C   UNL     1     -11.012  11.490  63.893  1.00  0.00    -0.474 C  
HETATM   12  O   UNL     1      -9.661   9.972  62.698  1.00  0.00    -0.271 OA 
HETATM   13  C   UNL     1     -11.329  14.174  67.092  1.00  0.00    -0.348 C  
HETATM   14  C   UNL     1      -9.776  10.719  63.656  1.00  0.00    -0.327 C  
HETATM   15  H   UNL     1      -7.858  11.266  64.355  1.00  0.00     0.000 HD 
HETATM   16  C   UNL     1     -10.027  13.065  66.811  1.00  0.00    -0.245 C  
HETATM   17  N   UNL     1      -8.798  10.955  64.599  1.00  0.00    -0.136 N  
HETATM   18  C   UNL     1      -8.707  13.100  67.835  1.00  0.00    -0.192 C  
HETATM   19  C   UNL     1      -7.579  12.248  67.225  1.00  0.00    -0.152 C  
HETATM   20  C   UNL     1      -8.026  10.816  66.932  1.00  0.00    -0.133 C  
HETATM   21  C   UNL     1      -9.226  10.722  65.982  1.00  0.00    -0.187 C  
ENDROOT
BRANCH   4  22
HETATM   22  C   UNL     1     -11.126  15.295  69.967  1.00  0.00    -0.287 C  
HETATM   23  C   UNL     1     -13.439  13.117  72.126  1.00  0.00    -0.653 C  
HETATM   24  C   UNL     1     -13.976  15.425  71.374  1.00  0.00    -0.565 C  
HETATM   25  C   UNL     1     -12.819  14.481  71.736  1.00  0.00    -0.343 C  
HETATM   26  H   UNL     1     -11.750  13.345  70.245  1.00  0.00     0.000 HD 
HETATM   27  N   UNL     1     -11.868  14.296  70.597  1.00  0.00    -0.300 N  
HETATM   28  O   UNL     1     -11.402  16.481  70.155  1.00  0.00    -0.267 OA 
HETATM   29  C   UNL     1     -12.096  15.010  72.991  1.00  0.00    -0.427 C  
ENDBRANCH   4  22
TORSDOF 1
ENDMDL
MODEL        7
REMARK 921   NORMALIZED FREE ENERGY PREDICTED BY IDOCK:   -7.01 KCAL/MOL
REMARK 922        TOTAL FREE ENERGY PREDICTED BY IDOCK:   -6.49 KCAL/MOL
REMARK 923 INTER-LIGAND FREE ENERGY PREDICTED BY IDOCK:   -7.78 KCAL/MOL
REMARK 924 INTRA-LIGAND FREE ENERGY PREDICTED BY IDOCK:    1.30 KCAL/MOL
REMARK 927      BINDING AFFINITY PREDICTED BY RF-SCORE:    0.00 PKD
ROOT
HETATM    1  C   UNL     1     -10.948  12.697  63.871  1.00  0.00    -0.468 C  
HETATM    2  C   UNL     1     -12.171  11.981  63.713  1.00  0.00    -0.600 C  
HETATM    3  C   UNL     1     -12.110  12.561  65.080  1.00  0.00    -0.503 C  
HETATM    4  C   UNL     1     -10.527  13.824  65.389  1.00  0.00    -0.342 C  
HETATM    5  C   UNL     1      -8.187  10.966  67.779  1.00  0.00    -0.116 C  
HETATM    6  C   UNL     1     -11.727  14.146  64.842  1.00  0.00    -0.395 C  
HETATM    7  C   UNL     1      -9.498  10.329  67.303  1.00  0.00    -0.174 C  
HETATM    8  C   UNL     1     -10.345   9.905  68.516  1.00  0.00    -0.221 C  
HETATM    9  C   UNL     1     -12.102  13.929  66.689  1.00  0.00    -0.485 C  
HETATM   10  C   UNL     1     -12.395  15.213  64.031  1.00  0.00     0.001 C  
HETATM   11  C   UNL     1     -10.900   8.690  68.663  1.00  0.00    -0.003 C  
HETATM   12  O   UNL     1     -10.549   6.431  68.088  1.00  0.00    -0.198 OA 
HETATM   13  C   UNL     1     -11.001  12.681  67.399  1.00  0.00    -0.289 C  
HETATM   14  C   UNL     1     -10.534   7.600  67.737  1.00  0.00    -0.216 C  
HETATM   15  H   UNL     1     -10.673   7.705  65.632  1.00  0.00     0.000 HD 
HETATM   16  C   UNL     1     -10.403  11.334  66.488  1.00  0.00    -0.284 C  
HETATM   17  N   UNL     1     -10.209   8.045  66.474  1.00  0.00    -0.232 N  
HETATM   18  C   UNL     1      -9.897  11.588  64.916  1.00  0.00    -0.289 C  
HETATM   19  C   UNL     1      -9.691  10.225  64.231  1.00  0.00    -0.373 C  
HETATM   20  C   UNL     1      -8.717   9.330  64.998  1.00  0.00    -0.221 C  
HETATM   21  C   UNL     1      -9.141   9.048  66.444  1.00  0.00    -0.170 C  
ENDROOT
BRANCH   4  22
HETATM   22  C   UNL     1     -10.118  15.317  66.042  1.00  0.00    -0.318 C  
HETATM   23  C   UNL     1     -10.621  16.663  69.604  1.00  0.00    -0.274 C  
HETATM   24  C   UNL     1     -10.453  18.085  67.572  1.00  0.00    -0.408 C  
HETATM   25  C   UNL     1     -10.007  16.749  68.185  1.00  0.00    -0.270 C  
HETATM   26  H   UNL     1     -11.071  14.906  67.828  1.00  0.00     0.000 HD 
HETATM   27  N   UNL     1     -10.457  15.579  67.369  1.00  0.00    -0.275 N  
HETATM   28  O   UNL     1      -9.603  16.196  65.349  1.00  0.00    -0.428 OA 
HETATM   29  C   UNL     1      -8.476  16.752  68.368  1.00  0.00    -0.231 C  
ENDBRANCH   4  22
TORSDOF 1
ENDMDL
MODEL        8
REMARK 921   NORMALIZED FREE ENERGY PREDICTED BY IDOCK:   -6.89 KCAL/MOL
REMARK 922        TOTAL FREE ENERGY PREDICTED BY IDOCK:   -6.36 KCAL/MOL
REMARK 923 INTER-LIGAND FREE ENERGY PREDICTED BY IDOCK:   -7.41 KCAL/MOL
REMARK 924 INTRA-LIGAND FREE ENERGY PREDICTED BY IDOCK:    1.05 KCAL/MOL
REMARK 927      BINDING AFFINITY PREDICTED BY RF-SCORE:    0.00 PKD
ROOT
HETATM    1  C   UNL     1     -10.666  12.751  64.167  1.00  0.00    -0.441 C  
HETATM    2  C   UNL     1     -11.822  11.988  63.831  1.00  0.00    -0.543 C  
HETATM    3  C   UNL     1     -11.938  12.472  65.232  1.00  0.00    -0.490 C  
HETATM    4  C   UNL     1     -10.470  13.787  65.791  1.00  0.00    -0.303 C  
HETATM    5  C   UNL     1      -8.231  10.887  68.227  1.00  0.00    -0.127 C  
HETATM    6  C   UNL     1     -11.623  14.087  65.141  1.00  0.00    -0.344 C  
HETATM    7  C   UNL     1      -9.447  10.220  67.572  1.00  0.00    -0.171 C  
HETATM    8  C   UNL     1     -10.390   9.670  68.656  1.00  0.00    -0.226 C  
HETATM    9  C   UNL     1     -12.175  13.721  66.919  1.00  0.00    -0.408 C  
HETATM   10  C   UNL     1     -12.263  15.174  64.334  1.00  0.00    -0.289 C  
HETATM   11  C   UNL     1     -10.886   8.422  68.663  1.00  0.00     0.027 C  
HETATM   12  O   UNL     1     -10.350   6.229  67.983  1.00  0.00    -0.151 OA 
HETATM   13  C   UNL     1     -11.084  12.482  67.660  1.00  0.00    -0.301 C  
HETATM   14  C   UNL     1     -10.365   7.420  67.713  1.00  0.00    -0.213 C  
HETATM   15  H   UNL     1     -10.290   7.667  65.617  1.00  0.00     0.000 HD 
HETATM   16  C   UNL     1     -10.318  11.235  66.732  1.00  0.00    -0.278 C  
HETATM   17  N   UNL     1      -9.937   7.969  66.524  1.00  0.00    -0.242 N  
HETATM   18  C   UNL     1      -9.667  11.625  65.243  1.00  0.00    -0.255 C  
HETATM   19  C   UNL     1      -9.313  10.326  64.497  1.00  0.00    -0.328 C  
HETATM   20  C   UNL     1      -8.375   9.429  65.305  1.00  0.00    -0.147 C  
HETATM   21  C   UNL     1      -8.930   9.024  66.675  1.00  0.00    -0.135 C  
ENDROOT
BRANCH   4  22
HETATM   22  C   UNL     1     -10.217  15.249  66.580  1.00  0.00    -0.271 C  
HETATM   23  C   UNL     1      -7.536  17.933  65.984  1.00  0.00    -0.279 C  
HETATM   24  C   UNL     1      -8.690  17.553  68.153  1.00  0.00    -0.262 C  
HETATM   25  C   UNL     1      -8.852  17.438  66.629  1.00  0.00    -0.254 C  
HETATM   26  H   UNL     1      -8.454  15.604  65.564  1.00  0.00     0.000 HD 
HETATM   27  N   UNL     1      -9.128  16.032  66.199  1.00  0.00    -0.338 N  
HETATM   28  O   UNL     1     -10.924  15.591  67.529  1.00  0.00    -0.311 OA 
HETATM   29  C   UNL     1      -9.962  18.398  66.157  1.00  0.00    -0.330 C  
ENDBRANCH   4  22
TORSDOF 1
ENDMDL
MODEL        9
REMARK 921   NORMALIZED FREE ENERGY PREDICTED BY IDOCK:   -6.62 KCAL/MOL
REMARK 922        TOTAL FREE ENERGY PREDICTED BY IDOCK:   -6.07 KCAL/MOL
REMARK 923 INTER-LIGAND FREE ENERGY PREDICTED BY IDOCK:   -6.91 KCAL/MOL
REMARK 924 INTRA-LIGAND FREE ENERGY PREDICTED BY IDOCK:    0.84 KCAL/MOL
REMARK 927      BINDING AFFINITY PREDICTED BY RF-SCORE:    0.00 PKD
ROOT
HETATM    1  C   UNL     1     -11.702  11.281  70.488  1.00  0.00    -0.345 C  
HETATM    2  C   UNL     1     -13.022  10.925  70.082  1.00  0.00    -0.032 C  
HETATM    3  C   UNL     1     -12.034  10.106  69.331  1.00  0.00     0.044 C  
HETATM    4  C   UNL     1     -10.101  10.324  69.973  1.00  0.00    -0.167 C  
HETATM    5  C   UNL     1      -8.827  12.825  66.585  1.00  0.00    -0.113 C  
HETATM    6  C   UNL     1     -11.038   9.490  70.491  1.00  0.00    -0.342 C  
HETATM    7  C   UNL     1     -10.316  12.476  66.471  1.00  0.00    -0.254 C  
HETATM    8  C   UNL     1     -10.574  11.695  65.170  1.00  0.00    -0.343 C  
HETATM    9  C   UNL     1     -10.555   8.678  68.846  1.00  0.00    -0.166 C  
HETATM   10  C   UNL     1     -11.330   8.670  71.710  1.00  0.00    -0.393 C  
HETATM   11  C   UNL     1     -11.538  11.998  64.286  1.00  0.00    -0.435 C  
HETATM   12  O   UNL     1     -12.749  13.840  63.448  1.00  0.00    -0.795 OA 
HETATM   13  C   UNL     1     -10.099   9.949  67.642  1.00  0.00    -0.241 C  
HETATM   14  C   UNL     1     -12.285  13.263  64.420  1.00  0.00    -0.390 C  
HETATM   15  H   UNL     1     -13.314  13.881  66.159  1.00  0.00     0.000 HD 
HETATM   16  C   UNL     1     -10.810  11.529  67.635  1.00  0.00    -0.277 C  
HETATM   17  N   UNL     1     -12.411  13.685  65.726  1.00  0.00    -0.476 N  
HETATM   18  C   UNL     1     -11.052  12.309  69.093  1.00  0.00    -0.261 C  
HETATM   19  C   UNL     1     -11.944  13.542  68.859  1.00  0.00    -0.378 C  
HETATM   20  C   UNL     1     -11.365  14.486  67.805  1.00  0.00    -0.335 C  
HETATM   21  C   UNL     1     -11.138  13.827  66.439  1.00  0.00    -0.308 C  
ENDROOT
BRANCH   4  22
HETATM   22  C   UNL     1      -8.718   9.453  70.366  1.00  0.00    -0.240 C  
HETATM   23  C   UNL     1      -7.927   7.380  73.501  1.00  0.00    -0.142 C  
HETATM   24  C   UNL     1      -6.215   8.451  72.052  1.00  0.00    -0.064 C  
HETATM   25  C   UNL     1      -7.623   7.838  72.054  1.00  0.00    -0.081 C  
HETATM   26  H   UNL     1      -9.402   9.039  72.271  1.00  0.00     0.000 HD 
HETATM   27  N   UNL     1      -8.662   8.816  71.605  1.00  0.00    -0.203 N  
HETATM   28  O   UNL     1      -7.740   9.438  69.617  1.00  0.00    -0.081 OA 
HETATM   29  C   UNL     1      -7.632   6.568  71.179  1.00  0.00    -0.090 C  
ENDBRANCH   4  22
TORSDOF 1
ENDMDL
MODEL       10
REMARK 921   NORMALIZED FREE ENERGY PREDICTED BY IDOCK:   -6.53 KCAL/MOL
REMARK 922        TOTAL FREE ENERGY PREDICTED BY IDOCK:   -5.98 KCAL/MOL
REMARK 923 INTER-LIGAND FREE ENERGY PREDICTED BY IDOCK:   -6.80 KCAL/MOL
REMARK 924 INTRA-LIGAND FREE ENERGY PREDICTED BY IDOCK:    0.83 KCAL/MOL
REMARK 927      BINDING AFFINITY PREDICTED BY RF-SCORE:    0.00 PKD
ROOT
HETATM    1  C   UNL     1     -12.907  11.944  69.856  1.00  0.00     0.453 C  
HETATM    2  C   UNL     1     -12.463  12.608  71.037  1.00  0.00    -0.354 C  
HETATM    3  C   UNL     1     -11.288  12.250  70.199  1.00  0.00     0.129 C  
HETATM    4  C   UNL     1     -11.768  11.506  68.352  1.00  0.00    -0.372 C  
HETATM    5  C   UNL     1     -10.843   7.321  69.347  1.00  0.00    -0.206 C  
HETATM    6  C   UNL     1     -11.662  12.814  68.697  1.00  0.00    -0.360 C  
HETATM    7  C   UNL     1     -10.634   8.226  70.566  1.00  0.00    -0.233 C  
HETATM    8  C   UNL     1      -9.168   8.153  71.029  1.00  0.00    -0.178 C  
HETATM    9  C   UNL     1      -9.867  12.204  68.638  1.00  0.00    -0.110 C  
HETATM   10  C   UNL     1     -12.036  14.184  68.221  1.00  0.00    -0.367 C  
HETATM   11  C   UNL     1      -8.786   7.935  72.298  1.00  0.00    -0.202 C  
HETATM   12  O   UNL     1      -9.487   6.837  74.264  1.00  0.00    -0.212 OA 
HETATM   13  C   UNL     1      -9.794  10.459  69.113  1.00  0.00    -0.237 C  
HETATM   14  C   UNL     1      -9.786   7.533  73.306  1.00  0.00    -0.288 C  
HETATM   15  H   UNL     1     -11.561   8.596  73.739  1.00  0.00     0.000 HD 
HETATM   16  C   UNL     1     -10.897   9.750  70.246  1.00  0.00    -0.356 C  
HETATM   17  N   UNL     1     -11.043   8.040  73.058  1.00  0.00    -0.335 N  
HETATM   18  C   UNL     1     -12.515  10.160  70.156  1.00  0.00    -0.103 C  
HETATM   19  C   UNL     1     -13.231   9.647  71.418  1.00  0.00    -0.469 C  
HETATM   20  C   UNL     1     -13.041   8.144  71.623  1.00  0.00    -0.358 C  
HETATM   21  C   UNL     1     -11.574   7.712  71.731  1.00  0.00    -0.270 C  
ENDROOT
BRANCH   4  22
HETATM   22  C   UNL     1     -11.376  11.623  66.723  1.00  0.00    -0.286 C  
HETATM   23  C   UNL     1     -12.384  14.277  64.136  1.00  0.00    -0.361 C  
HETATM   24  C   UNL     1     -11.777  11.931  63.583  1.00  0.00    -0.572 C  
HETATM   25  C   UNL     1     -11.534  13.066  64.589  1.00  0.00    -0.336 C  
HETATM   26  H   UNL     1     -12.644  13.228  66.433  1.00  0.00     0.000 HD 
HETATM   27  N   UNL     1     -11.916  12.673  65.981  1.00  0.00    -0.431 N  
HETATM   28  O   UNL     1     -10.692  10.761  66.168  1.00  0.00    -0.210 OA 
HETATM   29  C   UNL     1     -10.060  13.511  64.517  1.00  0.00    -0.179 C  
ENDBRANCH   4  22
TORSDOF 1
ENDMDL
MODEL       11
REMARK 921   NORMALIZED FREE ENERGY PREDICTED BY IDOCK:   -6.44 KCAL/MOL
REMARK 922        TOTAL FREE ENERGY PREDICTED BY IDOCK:   -5.88 KCAL/MOL
REMARK 923 INTER-LIGAND FREE ENERGY PREDICTED BY IDOCK:   -6.70 KCAL/MOL
REMARK 924 INTRA-LIGAND FREE ENERGY PREDICTED BY IDOCK:    0.82 KCAL/MOL
REMARK 927      BINDING AFFINITY PREDICTED BY RF-SCORE:    0.00 PKD
ROOT
HETATM    1  C   UNL     1      -9.660   9.977  63.602  1.00  0.00    -0.160 C  
HETATM    2  C   UNL     1      -8.736  10.746  62.837  1.00  0.00    -0.237 C  
HETATM    3  C   UNL     1      -8.302  10.721  64.259  1.00  0.00     0.065 C  
HETATM    4  C   UNL     1      -9.390   9.457  65.448  1.00  0.00    -0.311 C  
HETATM    5  C   UNL     1     -11.685  12.641  67.435  1.00  0.00    -0.432 C  
HETATM    6  C   UNL     1      -8.326   9.127  64.672  1.00  0.00    -0.179 C  
HETATM    7  C   UNL     1     -10.739  13.231  66.383  1.00  0.00    -0.291 C  
HETATM    8  C   UNL     1      -9.746  14.196  67.054  1.00  0.00    -0.258 C  
HETATM    9  C   UNL     1      -7.562  10.075  66.128  1.00  0.00    -0.109 C  
HETATM   10  C   UNL     1      -7.640   7.939  64.070  1.00  0.00    -0.120 C  
HETATM   11  C   UNL     1      -9.493  15.442  66.621  1.00  0.00    -0.281 C  
HETATM   12  O   UNL     1     -10.529  17.244  65.507  1.00  0.00    -0.609 OA 
HETATM   13  C   UNL     1      -8.723  11.328  66.724  1.00  0.00    -0.166 C  
HETATM   14  C   UNL     1     -10.340  16.039  65.570  1.00  0.00    -0.390 C  
HETATM   15  H   UNL     1     -10.716  15.171  63.682  1.00  0.00     0.000 HD 
HETATM   16  C   UNL     1      -9.848  12.133  65.680  1.00  0.00    -0.256 C  
HETATM   17  N   UNL     1     -10.852  15.111  64.691  1.00  0.00    -0.337 N  
HETATM   18  C   UNL     1     -10.656  11.236  64.524  1.00  0.00    -0.401 C  
HETATM   19  C   UNL     1     -11.361  12.196  63.549  1.00  0.00    -0.535 C  
HETATM   20  C   UNL     1     -12.300  13.166  64.267  1.00  0.00    -0.421 C  
HETATM   21  C   UNL     1     -11.609  14.029  65.329  1.00  0.00    -0.337 C  
ENDROOT
BRANCH   4  22
HETATM   22  C   UNL     1      -9.235   8.278  66.635  1.00  0.00    -0.179 C  
HETATM   23  C   UNL     1      -8.633   4.501  66.286  1.00  0.00    -0.113 C  
HETATM   24  C   UNL     1      -9.758   5.574  68.225  1.00  0.00    -0.167 C  
HETATM   25  C   UNL     1      -8.711   5.799  67.124  1.00  0.00    -0.108 C  
HETATM   26  H   UNL     1      -9.198   6.747  65.248  1.00  0.00     0.000 HD 
HETATM   27  N   UNL     1      -9.066   6.952  66.239  1.00  0.00    -0.156 N  
HETATM   28  O   UNL     1      -9.348   8.558  67.829  1.00  0.00    -0.136 OA 
HETATM   29  C   UNL     1      -7.322   5.993  67.766  1.00  0.00    -0.077 C  
ENDBRANCH   4  22
TORSDOF 1
ENDMDL
MODEL       12
REMARK 921   NORMALIZED FREE ENERGY PREDICTED BY IDOCK:   -6.42 KCAL/MOL
REMARK 922        TOTAL FREE ENERGY PREDICTED BY IDOCK:   -5.87 KCAL/MOL
REMARK 923 INTER-LIGAND FREE ENERGY PREDICTED BY IDOCK:   -6.69 KCAL/MOL
REMARK 924 INTRA-LIGAND FREE ENERGY PREDICTED BY IDOCK:    0.82 KCAL/MOL
REMARK 927      BINDING AFFINITY PREDICTED BY RF-SCORE:    0.00 PKD
ROOT
HETATM    1  C   UNL     1     -10.792  14.844  66.108  1.00  0.00    -0.327 C  
HETATM    2  C   UNL     1     -11.908  14.677  66.980  1.00  0.00    -0.358 C  
HETATM    3  C   UNL     1     -10.660  14.760  67.784  1.00  0.00    -0.257 C  
HETATM    4  C   UNL     1      -8.992  15.243  66.698  1.00  0.00    -0.324 C  
HETATM    5  C   UNL     1      -7.316  11.175  66.694  1.00  0.00    -0.145 C  
HETATM    6  C   UNL     1      -9.895  16.108  67.224  1.00  0.00    -0.241 C  
HETATM    7  C   UNL     1      -8.666  11.204  67.420  1.00  0.00    -0.133 C  
HETATM    8  C   UNL     1      -8.486  10.755  68.880  1.00  0.00    -0.149 C  
HETATM    9  C   UNL     1      -8.916  15.488  68.727  1.00  0.00    -0.204 C  
HETATM   10  C   UNL     1     -10.350  17.531  67.124  1.00  0.00    -0.330 C  
HETATM   11  C   UNL     1      -9.242   9.821  69.482  1.00  0.00    -0.226 C  
HETATM   12  O   UNL     1     -10.469   7.865  69.007  1.00  0.00    -0.214 OA 
HETATM   13  C   UNL     1      -8.373  13.785  68.448  1.00  0.00    -0.152 C  
HETATM   14  C   UNL     1     -10.175   9.005  68.682  1.00  0.00    -0.205 C  
HETATM   15  H   UNL     1     -11.671   9.781  67.408  1.00  0.00     0.000 HD 
HETATM   16  C   UNL     1      -9.283  12.655  67.500  1.00  0.00    -0.190 C  
HETATM   17  N   UNL     1     -10.673   9.669  67.582  1.00  0.00    -0.279 N  
HETATM   18  C   UNL     1      -9.981  13.181  66.075  1.00  0.00    -0.283 C  
HETATM   19  C   UNL     1     -10.960  12.104  65.571  1.00  0.00    -0.343 C  
HETATM   20  C   UNL     1     -10.287  10.742  65.400  1.00  0.00    -0.315 C  
HETATM   21  C   UNL     1      -9.644  10.201  66.683  1.00  0.00    -0.183 C  
ENDROOT
BRANCH   4  22
HETATM   22  C   UNL     1      -7.634  16.232  66.706  1.00  0.00    -0.250 C  
HETATM   23  C   UNL     1      -7.255  19.898  65.623  1.00  0.00    -0.331 C  
HETATM   24  C   UNL     1      -5.407  18.235  65.635  1.00  0.00    -0.217 C  
HETATM   25  C   UNL     1      -6.730  18.618  66.316  1.00  0.00    -0.219 C  
HETATM   26  H   UNL     1      -8.620  17.760  65.726  1.00  0.00     0.000 HD 
HETATM   27  N   UNL     1      -7.752  17.530  66.210  1.00  0.00    -0.293 N  
HETATM   28  O   UNL     1      -6.536  15.805  67.066  1.00  0.00    -0.299 OA 
HETATM   29  C   UNL     1      -6.461  18.993  67.788  1.00  0.00    -0.223 C  
ENDBRANCH   4  22
TORSDOF 1
ENDMDL
MODEL       13
REMARK 921   NORMALIZED FREE ENERGY PREDICTED BY IDOCK:   -6.33 KCAL/MOL
REMARK 922        TOTAL FREE ENERGY PREDICTED BY IDOCK:   -5.77 KCAL/MOL
REMARK 923 INTER-LIGAND FREE ENERGY PREDICTED BY IDOCK:   -6.89 KCAL/MOL
REMARK 924 INTRA-LIGAND FREE ENERGY PREDICTED BY IDOCK:    1.12 KCAL/MOL
REMARK 927      BINDING AFFINITY PREDICTED BY RF-SCORE:    0.00 PKD
ROOT
HETATM    1  C   UNL     1      -7.940  14.156  68.857  1.00  0.00    -0.051 C  
HETATM    2  C   UNL     1      -6.719  13.725  68.259  1.00  0.00    -0.109 C  
HETATM    3  C   UNL     1      -7.412  14.672  67.345  1.00  0.00    -0.212 C  
HETATM    4  C   UNL     1      -9.063  15.571  68.160  1.00  0.00    -0.184 C  
HETATM    5  C   UNL     1     -11.984  13.141  65.941  1.00  0.00    -0.479 C  
HETATM    6  C   UNL     1      -7.773  15.972  68.290  1.00  0.00    -0.142 C  
HETATM    7  C   UNL     1     -10.553  12.705  65.608  1.00  0.00    -0.299 C  
HETATM    8  C   UNL     1     -10.287  12.884  64.103  1.00  0.00    -0.385 C  
HETATM    9  C   UNL     1      -8.222  16.431  66.505  1.00  0.00    -0.341 C  
HETATM   10  C   UNL     1      -6.902  16.858  69.127  1.00  0.00    -0.238 C  
HETATM   11  C   UNL     1      -9.761  11.936  63.310  1.00  0.00    -0.280 C  
HETATM   12  O   UNL     1      -9.653   9.592  63.074  1.00  0.00     0.003 OA 
HETATM   13  C   UNL     1      -9.424  15.249  65.849  1.00  0.00    -0.351 C  
HETATM   14  C   UNL     1      -9.604  10.559  63.819  1.00  0.00    -0.311 C  
HETATM   15  H   UNL     1      -8.572  10.033  65.585  1.00  0.00     0.000 HD 
HETATM   16  C   UNL     1      -9.462  13.586  66.336  1.00  0.00    -0.236 C  
HETATM   17  N   UNL     1      -9.380  10.503  65.177  1.00  0.00    -0.198 N  
HETATM   18  C   UNL     1      -9.252  13.217  67.952  1.00  0.00    -0.207 C  
HETATM   19  C   UNL     1      -9.036  11.699  68.094  1.00  0.00    -0.183 C  
HETATM   20  C   UNL     1     -10.175  10.889  67.474  1.00  0.00    -0.224 C  
HETATM   21  C   UNL     1     -10.402  11.175  65.985  1.00  0.00    -0.254 C  
ENDROOT
BRANCH   4  22
HETATM   22  C   UNL     1      -9.827  17.057  68.326  1.00  0.00    -0.278 C  
HETATM   23  C   UNL     1      -8.555  20.583  67.489  1.00  0.00    -0.320 C  
HETATM   24  C   UNL     1     -10.290  20.081  69.196  1.00  0.00    -0.142 C  
HETATM   25  C   UNL     1      -9.681  19.593  67.873  1.00  0.00    -0.374 C  
HETATM   26  H   UNL     1      -8.123  18.102  67.803  1.00  0.00     0.000 HD 
HETATM   27  N   UNL     1      -9.121  18.211  67.989  1.00  0.00    -0.276 N  
HETATM   28  O   UNL     1     -10.957  17.142  68.810  1.00  0.00    -0.258 OA 
HETATM   29  C   UNL     1     -10.741  19.677  66.757  1.00  0.00    -0.562 C  
ENDBRANCH   4  22
TORSDOF 1
ENDMDL
MODEL       14
REMARK 921   NORMALIZED FREE ENERGY PREDICTED BY IDOCK:   -6.33 KCAL/MOL
REMARK 922        TOTAL FREE ENERGY PREDICTED BY IDOCK:   -5.77 KCAL/MOL
REMARK 923 INTER-LIGAND FREE ENERGY PREDICTED BY IDOCK:   -6.85 KCAL/MOL
REMARK 924 INTRA-LIGAND FREE ENERGY PREDICTED BY IDOCK:    1.08 KCAL/MOL
REMARK 927      BINDING AFFINITY PREDICTED BY RF-SCORE:    0.00 PKD
ROOT
HETATM    1  C   UNL     1     -11.653  15.088  66.291  1.00  0.00    -0.160 C  
HETATM    2  C   UNL     1     -11.264  15.620  65.027  1.00  0.00    -0.335 C  
HETATM    3  C   UNL     1     -10.337  14.523  65.409  1.00  0.00    -0.405 C  
HETATM    4  C   UNL     1     -10.901  13.490  67.086  1.00  0.00    -0.291 C  
HETATM    5  C   UNL     1      -7.909  15.342  69.728  1.00  0.00    -0.059 C  
HETATM    6  C   UNL     1     -11.324  13.268  65.816  1.00  0.00    -0.328 C  
HETATM    7  C   UNL     1      -7.820  15.928  68.314  1.00  0.00    -0.138 C  
HETATM    8  C   UNL     1      -6.424  15.662  67.724  1.00  0.00    -0.181 C  
HETATM    9  C   UNL     1      -9.543  12.612  65.833  1.00  0.00    -0.158 C  
HETATM   10  C   UNL     1     -12.404  12.571  65.047  1.00  0.00    -0.522 C  
HETATM   11  C   UNL     1      -5.655  16.602  67.151  1.00  0.00    -0.175 C  
HETATM   12  O   UNL     1      -5.200  18.914  67.250  1.00  0.00    -0.154 OA 
HETATM   13  C   UNL     1      -8.544  13.575  66.993  1.00  0.00    -0.169 C  
HETATM   14  C   UNL     1      -6.036  18.024  67.252  1.00  0.00    -0.151 C  
HETATM   15  H   UNL     1      -7.906  18.818  66.672  1.00  0.00     0.000 HD 
HETATM   16  C   UNL     1      -8.836  15.254  67.310  1.00  0.00    -0.212 C  
HETATM   17  N   UNL     1      -7.398  18.218  67.322  1.00  0.00    -0.206 N  
HETATM   18  C   UNL     1     -10.414  15.776  67.481  1.00  0.00    -0.288 C  
HETATM   19  C   UNL     1     -10.435  17.316  67.464  1.00  0.00    -0.356 C  
HETATM   20  C   UNL     1      -9.522  17.921  68.531  1.00  0.00    -0.316 C  
HETATM   21  C   UNL     1      -8.056  17.490  68.411  1.00  0.00    -0.266 C  
ENDROOT
BRANCH   4  22
HETATM   22  C   UNL     1     -11.069  11.937  67.703  1.00  0.00    -0.257 C  
HETATM   23  C   UNL     1      -8.698   9.912  69.946  1.00  0.00    -0.225 C  
HETATM   24  C   UNL     1     -10.353   8.914  68.383  1.00  0.00    -0.237 C  
HETATM   25  C   UNL     1     -10.067  10.141  69.262  1.00  0.00    -0.222 C  
HETATM   26  H   UNL     1      -9.154  11.932  68.478  1.00  0.00     0.000 HD 
HETATM   27  N   UNL     1     -10.028  11.406  68.464  1.00  0.00    -0.196 N  
HETATM   28  O   UNL     1     -12.051  11.245  67.430  1.00  0.00    -0.450 OA 
HETATM   29  C   UNL     1     -11.115  10.221  70.390  1.00  0.00    -0.391 C  
ENDBRANCH   4  22
TORSDOF 1
ENDMDL
MODEL       15
REMARK 921   NORMALIZED FREE ENERGY PREDICTED BY IDOCK:   -6.28 KCAL/MOL
REMARK 922        TOTAL FREE ENERGY PREDICTED BY IDOCK:   -5.71 KCAL/MOL
REMARK 923 INTER-LIGAND FREE ENERGY PREDICTED BY IDOCK:   -6.54 KCAL/MOL
REMARK 924 INTRA-LIGAND FREE ENERGY PREDICTED BY IDOCK:    0.83 KCAL/MOL
REMARK 927      BINDING AFFINITY PREDICTED BY RF-SCORE:    0.00 PKD
ROOT
HETATM    1  C   UNL     1     -11.049  15.806  67.645  1.00  0.00    -0.283 C  
HETATM    2  C   UNL     1     -11.742  15.625  68.878  1.00  0.00    -0.396 C  
HETATM    3  C   UNL     1     -10.284  15.428  69.095  1.00  0.00    -0.239 C  
HETATM    4  C   UNL     1      -9.122  15.891  67.473  1.00  0.00    -0.204 C  
HETATM    5  C   UNL     1      -8.317  11.714  66.347  1.00  0.00    -0.084 C  
HETATM    6  C   UNL     1      -9.580  16.754  68.415  1.00  0.00    -0.241 C  
HETATM    7  C   UNL     1      -9.244  11.777  67.566  1.00  0.00    -0.175 C  
HETATM    8  C   UNL     1      -8.584  11.073  68.764  1.00  0.00    -0.144 C  
HETATM    9  C   UNL     1      -8.213  15.783  69.302  1.00  0.00    -0.247 C  
HETATM   10  C   UNL     1      -9.783  18.217  68.662  1.00  0.00    -0.367 C  
HETATM   11  C   UNL     1      -9.192  10.146  69.524  1.00  0.00    -0.223 C  
HETATM   12  O   UNL     1     -10.826   8.451  69.396  1.00  0.00    -0.191 OA 
HETATM   13  C   UNL     1      -8.127  14.099  68.645  1.00  0.00    -0.126 C  
HETATM   14  C   UNL     1     -10.491   9.588  69.101  1.00  0.00    -0.210 C  
HETATM   15  H   UNL     1     -12.209  10.732  68.651  1.00  0.00     0.000 HD 
HETATM   16  C   UNL     1      -9.518  13.256  68.047  1.00  0.00    -0.219 C  
HETATM   17  N   UNL     1     -11.258  10.479  68.383  1.00  0.00    -0.280 N  
HETATM   18  C   UNL     1     -10.618  14.089  67.103  1.00  0.00    -0.274 C  
HETATM   19  C   UNL     1     -11.887  13.232  66.940  1.00  0.00    -0.446 C  
HETATM   20  C   UNL     1     -11.583  11.849  66.364  1.00  0.00    -0.315 C  
HETATM   21  C   UNL     1     -10.591  11.031  67.200  1.00  0.00    -0.250 C  
ENDROOT
BRANCH   4  22
HETATM   22  C   UNL     1      -7.721  16.701  67.022  1.00  0.00    -0.200 C  
HETATM   23  C   UNL     1      -7.127  20.453  66.451  1.00  0.00    -0.296 C  
HETATM   24  C   UNL     1      -5.804  18.639  65.383  1.00  0.00    -0.267 C  
HETATM   25  C   UNL     1      -6.620  19.002  66.634  1.00  0.00    -0.191 C  
HETATM   26  H   UNL     1      -8.710  18.505  66.830  1.00  0.00     0.000 HD 
HETATM   27  N   UNL     1      -7.782  18.081  66.833  1.00  0.00    -0.215 N  
HETATM   28  O   UNL     1      -6.679  16.089  66.784  1.00  0.00    -0.259 OA 
HETATM   29  C   UNL     1      -5.694  19.012  67.867  1.00  0.00    -0.195 C  
ENDBRANCH   4  22
TORSDOF 1
ENDMDL
MODEL       16
REMARK 921   NORMALIZED FREE ENERGY PREDICTED BY IDOCK:   -6.26 KCAL/MOL
REMARK 922        TOTAL FREE ENERGY PREDICTED BY IDOCK:   -5.70 KCAL/MOL
REMARK 923 INTER-LIGAND FREE ENERGY PREDICTED BY IDOCK:   -6.56 KCAL/MOL
REMARK 924 INTRA-LIGAND FREE ENERGY PREDICTED BY IDOCK:    0.87 KCAL/MOL
REMARK 927      BINDING AFFINITY PREDICTED BY RF-SCORE:    0.00 PKD
ROOT
HETATM    1  C   UNL     1      -7.885  10.431  68.933  1.00  0.00    -0.115 C  
HETATM    2  C   UNL     1      -6.887   9.507  68.503  1.00  0.00    -0.061 C  
HETATM    3  C   UNL     1      -8.182   9.178  67.850  1.00  0.00    -0.112 C  
HETATM    4  C   UNL     1      -9.662  10.557  68.174  1.00  0.00    -0.166 C  
HETATM    5  C   UNL     1     -11.865   8.112  71.094  1.00  0.00    -0.303 C  
HETATM    6  C   UNL     1      -8.702  10.606  67.215  1.00  0.00    -0.129 C  
HETATM    7  C   UNL     1     -10.597   7.388  70.628  1.00  0.00    -0.234 C  
HETATM    8  C   UNL     1     -10.971   6.055  69.957  1.00  0.00    -0.450 C  
HETATM    9  C   UNL     1      -9.891   9.256  66.612  1.00  0.00    -0.311 C  
HETATM   10  C   UNL     1      -8.052  11.557  66.258  1.00  0.00    -0.014 C  
HETATM   11  C   UNL     1     -10.407   4.873  70.259  1.00  0.00    -0.252 C  
HETATM   12  O   UNL     1      -9.417   3.717  72.060  1.00  0.00    -0.121 OA 
HETATM   13  C   UNL     1     -10.632   8.410  68.028  1.00  0.00    -0.191 C  
HETATM   14  C   UNL     1      -9.523   4.761  71.435  1.00  0.00    -0.154 C  
HETATM   15  H   UNL     1      -7.824   5.966  71.789  1.00  0.00     0.000 HD 
HETATM   16  C   UNL     1      -9.799   8.200  69.534  1.00  0.00    -0.181 C  
HETATM   17  N   UNL     1      -8.840   5.925  71.715  1.00  0.00    -0.139 N  
HETATM   18  C   UNL     1      -8.908   9.475  70.144  1.00  0.00    -0.266 C  
HETATM   19  C   UNL     1      -8.041   8.967  71.310  1.00  0.00    -0.185 C  
HETATM   20  C   UNL     1      -8.873   8.289  72.399  1.00  0.00    -0.286 C  
HETATM   21  C   UNL     1      -9.700   7.098  71.899  1.00  0.00    -0.156 C  
ENDROOT
BRANCH   4  22
HETATM   22  C   UNL     1     -10.868  11.428  67.393  1.00  0.00    -0.254 C  
HETATM   23  C   UNL     1     -10.581  14.206  64.757  1.00  0.00    -0.439 C  
HETATM   24  C   UNL     1     -12.500  13.935  66.314  1.00  0.00    -0.454 C  
HETATM   25  C   UNL     1     -11.398  13.170  65.565  1.00  0.00    -0.299 C  
HETATM   26  H   UNL     1      -9.506  12.685  66.481  1.00  0.00     0.000 HD 
HETATM   27  N   UNL     1     -10.494  12.431  66.500  1.00  0.00    -0.228 N  
HETATM   28  O   UNL     1     -12.058  11.247  67.658  1.00  0.00    -0.600 OA 
HETATM   29  C   UNL     1     -12.041  12.218  64.536  1.00  0.00    -0.462 C  
ENDBRANCH   4  22
TORSDOF 1
ENDMDL
MODEL       17
REMARK 921   NORMALIZED FREE ENERGY PREDICTED BY IDOCK:   -6.23 KCAL/MOL
REMARK 922        TOTAL FREE ENERGY PREDICTED BY IDOCK:   -5.67 KCAL/MOL
REMARK 923 INTER-LIGAND FREE ENERGY PREDICTED BY IDOCK:   -6.69 KCAL/MOL
REMARK 924 INTRA-LIGAND FREE ENERGY PREDICTED BY IDOCK:    1.03 KCAL/MOL
REMARK 927      BINDING AFFINITY PREDICTED BY RF-SCORE:    0.00 PKD
ROOT
HETATM    1  C   UNL     1     -11.468  12.087  67.628  1.00  0.00    -0.392 C  
HETATM    2  C   UNL     1     -11.801  12.370  66.271  1.00  0.00    -0.431 C  
HETATM    3  C   UNL     1     -10.330  12.198  66.395  1.00  0.00    -0.246 C  
HETATM    4  C   UNL     1      -9.711  11.547  68.236  1.00  0.00    -0.198 C  
HETATM    5  C   UNL     1      -8.176  15.454  69.554  1.00  0.00    -0.207 C  
HETATM    6  C   UNL     1     -10.145  10.776  67.207  1.00  0.00    -0.233 C  
HETATM    7  C   UNL     1      -8.793  15.559  68.154  1.00  0.00    -0.169 C  
HETATM    8  C   UNL     1      -7.729  16.024  67.145  1.00  0.00    -0.242 C  
HETATM    9  C   UNL     1      -8.417  11.344  66.665  1.00  0.00    -0.171 C  
HETATM   10  C   UNL     1     -10.641   9.395  66.907  1.00  0.00    -0.238 C  
HETATM   11  C   UNL     1      -7.903  17.033  66.275  1.00  0.00    -0.346 C  
HETATM   12  O   UNL     1      -9.055  19.076  66.039  1.00  0.00    -0.459 OA 
HETATM   13  C   UNL     1      -8.069  12.986  67.339  1.00  0.00    -0.180 C  
HETATM   14  C   UNL     1      -9.085  17.908  66.393  1.00  0.00    -0.235 C  
HETATM   15  H   UNL     1     -11.088  17.236  66.428  1.00  0.00     0.000 HD 
HETATM   16  C   UNL     1      -9.308  14.168  67.610  1.00  0.00    -0.209 C  
HETATM   17  N   UNL     1     -10.189  17.264  66.909  1.00  0.00    -0.314 N  
HETATM   18  C   UNL     1     -10.761  13.672  68.270  1.00  0.00    -0.266 C  
HETATM   19  C   UNL     1     -11.783  14.817  68.145  1.00  0.00    -0.353 C  
HETATM   20  C   UNL     1     -11.285  16.112  68.788  1.00  0.00    -0.365 C  
HETATM   21  C   UNL     1      -9.961  16.625  68.208  1.00  0.00    -0.261 C  
ENDROOT
BRANCH   4  22
HETATM   22  C   UNL     1      -8.691  10.445  68.989  1.00  0.00    -0.168 C  
HETATM   23  C   UNL     1      -9.292   8.257  72.088  1.00  0.00    -0.303 C  
HETATM   24  C   UNL     1      -7.055   9.012  71.310  1.00  0.00    -0.093 C  
HETATM   25  C   UNL     1      -8.473   8.658  70.837  1.00  0.00    -0.166 C  
HETATM   26  H   UNL     1     -10.002  10.154  70.558  1.00  0.00     0.000 HD 
HETATM   27  N   UNL     1      -9.137   9.805  70.145  1.00  0.00    -0.229 N  
HETATM   28  O   UNL     1      -7.543  10.258  68.583  1.00  0.00    -0.082 OA 
HETATM   29  C   UNL     1      -8.416   7.411  69.931  1.00  0.00    -0.139 C  
ENDBRANCH   4  22
TORSDOF 1
ENDMDL
MODEL       18
REMARK 921   NORMALIZED FREE ENERGY PREDICTED BY IDOCK:   -6.14 KCAL/MOL
REMARK 922        TOTAL FREE ENERGY PREDICTED BY IDOCK:   -5.57 KCAL/MOL
REMARK 923 INTER-LIGAND FREE ENERGY PREDICTED BY IDOCK:   -6.51 KCAL/MOL
REMARK 924 INTRA-LIGAND FREE ENERGY PREDICTED BY IDOCK:    0.94 KCAL/MOL
REMARK 927      BINDING AFFINITY PREDICTED BY RF-SCORE:    0.00 PKD
ROOT
HETATM    1  C   UNL     1      -8.925  14.879  68.287  1.00  0.00    -0.177 C  
HETATM    2  C   UNL     1      -8.742  15.344  66.951  1.00  0.00    -0.285 C  
HETATM    3  C   UNL     1      -9.977  14.520  67.024  1.00  0.00    -0.255 C  
HETATM    4  C   UNL     1     -10.515  13.976  68.924  1.00  0.00    -0.210 C  
HETATM    5  C   UNL     1      -9.170   9.803  68.549  1.00  0.00    -0.134 C  
HETATM    6  C   UNL     1     -10.817  15.141  68.298  1.00  0.00    -0.262 C  
HETATM    7  C   UNL     1      -8.877  10.585  67.263  1.00  0.00    -0.138 C  
HETATM    8  C   UNL     1      -9.620   9.943  66.078  1.00  0.00    -0.284 C  
HETATM    9  C   UNL     1     -11.936  13.860  67.458  1.00  0.00    -0.421 C  
HETATM   10  C   UNL     1     -11.298  16.531  68.580  1.00  0.00    -0.237 C  
HETATM   11  C   UNL     1      -9.044   9.628  64.906  1.00  0.00    -0.284 C  
HETATM   12  O   UNL     1      -6.972   8.963  63.999  1.00  0.00    -0.086 OA 
HETATM   13  C   UNL     1     -11.115  12.248  67.432  1.00  0.00    -0.333 C  
HETATM   14  C   UNL     1      -7.576   9.692  64.770  1.00  0.00    -0.122 C  
HETATM   15  H   UNL     1      -6.395  11.389  65.201  1.00  0.00     0.000 HD 
HETATM   16  C   UNL     1      -9.394  12.076  67.325  1.00  0.00    -0.180 C  
HETATM   17  N   UNL     1      -6.996  10.653  65.569  1.00  0.00    -0.097 N  
HETATM   18  C   UNL     1      -8.426  13.097  68.227  1.00  0.00    -0.161 C  
HETATM   19  C   UNL     1      -6.969  12.953  67.752  1.00  0.00    -0.138 C  
HETATM   20  C   UNL     1      -6.477  11.507  67.819  1.00  0.00    -0.064 C  
HETATM   21  C   UNL     1      -7.319  10.526  66.994  1.00  0.00    -0.099 C  
ENDROOT
BRANCH   4  22
HETATM   22  C   UNL     1     -11.832  13.877  69.962  1.00  0.00    -0.315 C  
HETATM   23  C   UNL     1     -12.498  15.709  73.272  1.00  0.00    -0.612 C  
HETATM   24  C   UNL     1     -13.466  13.501  72.665  1.00  0.00    -0.572 C  
HETATM   25  C   UNL     1     -12.952  14.827  72.084  1.00  0.00    -0.336 C  
HETATM   26  H   UNL     1     -10.925  15.069  71.385  1.00  0.00     0.000 HD 
HETATM   27  N   UNL     1     -11.809  14.621  71.141  1.00  0.00    -0.333 N  
HETATM   28  O   UNL     1     -12.766  13.106  69.735  1.00  0.00     0.067 OA 
HETATM   29  C   UNL     1     -14.115  15.575  71.401  1.00  0.00    -0.440 C  
ENDBRANCH   4  22
TORSDOF 1
ENDMDL
MODEL       19
REMARK 921   NORMALIZED FREE ENERGY PREDICTED BY IDOCK:   -6.11 KCAL/MOL
REMARK 922        TOTAL FREE ENERGY PREDICTED BY IDOCK:   -5.54 KCAL/MOL
REMARK 923 INTER-LIGAND FREE ENERGY PREDICTED BY IDOCK:   -6.56 KCAL/MOL
REMARK 924 INTRA-LIGAND FREE ENERGY PREDICTED BY IDOCK:    1.03 KCAL/MOL
REMARK 927      BINDING AFFINITY PREDICTED BY RF-SCORE:    0.00 PKD
ROOT
HETATM    1  C   UNL     1     -11.676  11.203  70.490  1.00  0.00    -0.392 C  
HETATM    2  C   UNL     1     -13.022  10.942  70.102  1.00  0.00    -0.032 C  
HETATM    3  C   UNL     1     -12.101  10.105  69.289  1.00  0.00     0.209 C  
HETATM    4  C   UNL     1     -10.144  10.183  69.889  1.00  0.00    -0.268 C  
HETATM    5  C   UNL     1      -8.808  12.767  66.589  1.00  0.00    -0.113 C  
HETATM    6  C   UNL     1     -11.115   9.380  70.393  1.00  0.00    -0.311 C  
HETATM    7  C   UNL     1     -10.316  12.509  66.498  1.00  0.00    -0.254 C  
HETATM    8  C   UNL     1     -10.649  11.806  65.170  1.00  0.00    -0.332 C  
HETATM    9  C   UNL     1     -10.718   8.621  68.700  1.00  0.00    -0.092 C  
HETATM   10  C   UNL     1     -11.425   8.520  71.579  1.00  0.00    -0.350 C  
HETATM   11  C   UNL     1     -11.615  12.205  64.325  1.00  0.00    -0.444 C  
HETATM   12  O   UNL     1     -12.737  14.150  63.606  1.00  0.00    -0.790 OA 
HETATM   13  C   UNL     1     -10.218   9.921  67.545  1.00  0.00    -0.265 C  
HETATM   14  C   UNL     1     -12.285  13.503  64.537  1.00  0.00    -0.398 C  
HETATM   15  H   UNL     1     -13.235  14.093  66.329  1.00  0.00     0.000 HD 
HETATM   16  C   UNL     1     -10.837  11.537  67.629  1.00  0.00    -0.277 C  
HETATM   17  N   UNL     1     -12.356  13.868  65.864  1.00  0.00    -0.466 N  
HETATM   18  C   UNL     1     -11.000  12.258  69.128  1.00  0.00    -0.217 C  
HETATM   19  C   UNL     1     -11.825  13.549  68.974  1.00  0.00    -0.385 C  
HETATM   20  C   UNL     1     -11.218  14.508  67.950  1.00  0.00    -0.310 C  
HETATM   21  C   UNL     1     -11.061  13.904  66.550  1.00  0.00    -0.308 C  
ENDROOT
BRANCH   4  22
HETATM   22  C   UNL     1      -8.805   9.218  70.205  1.00  0.00    -0.224 C  
HETATM   23  C   UNL     1      -5.270  10.211  71.332  1.00  0.00    -0.077 C  
HETATM   24  C   UNL     1      -5.815   8.143  70.064  1.00  0.00    -0.022 C  
HETATM   25  C   UNL     1      -6.375   9.159  71.071  1.00  0.00    -0.071 C  
HETATM   26  H   UNL     1      -7.566  10.851  70.459  1.00  0.00     0.000 HD 
HETATM   27  N   UNL     1      -7.607   9.837  70.559  1.00  0.00    -0.140 N  
HETATM   28  O   UNL     1      -8.849   7.996  70.053  1.00  0.00    -0.141 OA 
HETATM   29  C   UNL     1      -6.640   8.456  72.418  1.00  0.00    -0.095 C  
ENDBRANCH   4  22
TORSDOF 1
ENDMDL
MODEL       20
REMARK 921   NORMALIZED FREE ENERGY PREDICTED BY IDOCK:   -6.10 KCAL/MOL
REMARK 922        TOTAL FREE ENERGY PREDICTED BY IDOCK:   -5.52 KCAL/MOL
REMARK 923 INTER-LIGAND FREE ENERGY PREDICTED BY IDOCK:   -6.62 KCAL/MOL
REMARK 924 INTRA-LIGAND FREE ENERGY PREDICTED BY IDOCK:    1.10 KCAL/MOL
REMARK 927      BINDING AFFINITY PREDICTED BY RF-SCORE:    0.00 PKD
ROOT
HETATM    1  C   UNL     1     -11.650  15.715  65.697  1.00  0.00     0.240 C  
HETATM    2  C   UNL     1     -11.227  15.761  64.336  1.00  0.00    -0.249 C  
HETATM    3  C   UNL     1     -10.295  14.905  65.117  1.00  0.00    -0.431 C  
HETATM    4  C   UNL     1     -10.900  14.539  67.039  1.00  0.00    -0.297 C  
HETATM    5  C   UNL     1      -8.035  17.312  68.901  1.00  0.00    -0.196 C  
HETATM    6  C   UNL     1     -11.274  13.857  65.927  1.00  0.00    -0.297 C  
HETATM    7  C   UNL     1      -7.906  17.344  67.374  1.00  0.00    -0.212 C  
HETATM    8  C   UNL     1      -6.485  16.922  66.959  1.00  0.00    -0.235 C  
HETATM    9  C   UNL     1      -9.484  13.304  66.230  1.00  0.00    -0.196 C  
HETATM   10  C   UNL     1     -12.314  12.897  65.438  1.00  0.00    -0.538 C  
HETATM   11  C   UNL     1      -5.712  17.610  66.102  1.00  0.00    -0.245 C  
HETATM   12  O   UNL     1      -5.301  19.810  65.362  1.00  0.00    -0.158 OA 
HETATM   13  C   UNL     1      -8.542  14.652  66.984  1.00  0.00    -0.249 C  
HETATM   14  C   UNL     1      -6.122  18.960  65.667  1.00  0.00    -0.225 C  
HETATM   15  H   UNL     1      -7.983  19.433  64.787  1.00  0.00     0.000 HD 
HETATM   16  C   UNL     1      -8.874  16.322  66.659  1.00  0.00    -0.289 C  
HETATM   17  N   UNL     1      -7.489  19.127  65.625  1.00  0.00    -0.172 N  
HETATM   18  C   UNL     1     -10.466  16.825  66.585  1.00  0.00    -0.258 C  
HETATM   19  C   UNL     1     -10.512  18.251  66.006  1.00  0.00    -0.380 C  
HETATM   20  C   UNL     1      -9.648  19.230  66.802  1.00  0.00    -0.398 C  
HETATM   21  C   UNL     1      -8.171  18.826  66.887  1.00  0.00    -0.265 C  
ENDROOT
BRANCH   4  22
HETATM   22  C   UNL     1     -11.063  13.314  68.177  1.00  0.00    -0.259 C  
HETATM   23  C   UNL     1     -10.906   9.503  67.725  1.00  0.00    -0.258 C  
HETATM   24  C   UNL     1     -12.142  10.655  69.548  1.00  0.00    -0.285 C  
HETATM   25  C   UNL     1     -10.933  10.773  68.608  1.00  0.00    -0.239 C  
HETATM   26  H   UNL     1     -11.030  11.836  66.733  1.00  0.00     0.000 HD 
HETATM   27  N   UNL     1     -11.012  11.990  67.742  1.00  0.00    -0.220 N  
HETATM   28  O   UNL     1     -11.304  13.568  69.358  1.00  0.00    -0.260 OA 
HETATM   29  C   UNL     1      -9.633  10.759  69.439  1.00  0.00    -0.056 C  
ENDBRANCH   4  22
TORSDOF 1
ENDMDL
MODEL       21
REMARK 921   NORMALIZED FREE ENERGY PREDICTED BY IDOCK:   -6.07 KCAL/MOL
REMARK 922        TOTAL FREE ENERGY PREDICTED BY IDOCK:   -5.49 KCAL/MOL
REMARK 923 INTER-LIGAND FREE ENERGY PREDICTED BY IDOCK:   -6.33 KCAL/MOL
REMARK 924 INTRA-LIGAND FREE ENERGY PREDICTED BY IDOCK:    0.84 KCAL/MOL
REMARK 927      BINDING AFFINITY PREDICTED BY RF-SCORE:    0.00 PKD
ROOT
HETATM    1  C   UNL     1     -11.414  11.875  67.615  1.00  0.00    -0.387 C  
HETATM    2  C   UNL     1     -11.748  12.141  66.255  1.00  0.00    -0.389 C  
HETATM    3  C   UNL     1     -10.270  12.051  66.394  1.00  0.00    -0.243 C  
HETATM    4  C   UNL     1      -9.636  11.434  68.242  1.00  0.00    -0.192 C  
HETATM    5  C   UNL     1      -8.336  15.420  69.577  1.00  0.00    -0.204 C  
HETATM    6  C   UNL     1     -10.014  10.641  67.208  1.00  0.00    -0.224 C  
HETATM    7  C   UNL     1      -8.943  15.491  68.171  1.00  0.00    -0.179 C  
HETATM    8  C   UNL     1      -7.895  16.017  67.174  1.00  0.00    -0.244 C  
HETATM    9  C   UNL     1      -8.316  11.305  66.685  1.00  0.00    -0.163 C  
HETATM   10  C   UNL     1     -10.429   9.235  66.902  1.00  0.00    -0.284 C  
HETATM   11  C   UNL     1      -8.116  17.015  66.302  1.00  0.00    -0.332 C  
HETATM   12  O   UNL     1      -9.379  18.990  66.054  1.00  0.00    -0.454 OA 
HETATM   13  C   UNL     1      -8.068  12.964  67.363  1.00  0.00    -0.181 C  
HETATM   14  C   UNL     1      -9.347  17.822  66.408  1.00  0.00    -0.249 C  
HETATM   15  H   UNL     1     -11.309  17.039  66.420  1.00  0.00     0.000 HD 
HETATM   16  C   UNL     1      -9.373  14.075  67.621  1.00  0.00    -0.203 C  
HETATM   17  N   UNL     1     -10.419  17.117  66.911  1.00  0.00    -0.305 N  
HETATM   18  C   UNL     1     -10.803  13.497  68.265  1.00  0.00    -0.277 C  
HETATM   19  C   UNL     1     -11.886  14.584  68.129  1.00  0.00    -0.348 C  
HETATM   20  C   UNL     1     -11.469  15.904  68.778  1.00  0.00    -0.393 C  
HETATM   21  C   UNL     1     -10.170  16.490  68.213  1.00  0.00    -0.268 C  
ENDROOT
BRANCH   4  22
HETATM   22  C   UNL     1      -8.563  10.390  69.005  1.00  0.00    -0.157 C  
HETATM   23  C   UNL     1      -8.729   6.577  69.433  1.00  0.00    -0.134 C  
HETATM   24  C   UNL     1      -7.516   8.114  70.964  1.00  0.00    -0.067 C  
HETATM   25  C   UNL     1      -7.979   7.929  69.511  1.00  0.00    -0.116 C  
HETATM   26  H   UNL     1      -9.824   8.770  68.773  1.00  0.00     0.000 HD 
HETATM   27  N   UNL     1      -8.882   9.034  69.064  1.00  0.00    -0.135 N  
HETATM   28  O   UNL     1      -7.556  10.815  69.573  1.00  0.00    -0.141 OA 
HETATM   29  C   UNL     1      -6.748   7.803  68.591  1.00  0.00    -0.058 C  
ENDBRANCH   4  22
TORSDOF 1
ENDMDL
MODEL       22
REMARK 921   NORMALIZED FREE ENERGY PREDICTED BY IDOCK:   -5.92 KCAL/MOL
REMARK 922        TOTAL FREE ENERGY PREDICTED BY IDOCK:   -5.33 KCAL/MOL
REMARK 923 INTER-LIGAND FREE ENERGY PREDICTED BY IDOCK:   -6.16 KCAL/MOL
REMARK 924 INTRA-LIGAND FREE ENERGY PREDICTED BY IDOCK:    0.82 KCAL/MOL
REMARK 927      BINDING AFFINITY PREDICTED BY RF-SCORE:    0.00 PKD
ROOT
HETATM    1  C   UNL     1     -11.160   9.625  69.474  1.00  0.00    -0.198 C  
HETATM    2  C   UNL     1     -10.377   9.842  70.646  1.00  0.00    -0.330 C  
HETATM    3  C   UNL     1      -9.544  10.093  69.440  1.00  0.00    -0.249 C  
HETATM    4  C   UNL     1     -10.586  10.060  67.677  1.00  0.00    -0.323 C  
HETATM    5  C   UNL     1      -9.124   6.108  66.413  1.00  0.00    -0.158 C  
HETATM    6  C   UNL     1     -10.447  11.117  68.518  1.00  0.00    -0.212 C  
HETATM    7  C   UNL     1      -8.562   6.478  67.790  1.00  0.00    -0.117 C  
HETATM    8  C   UNL     1      -7.025   6.528  67.733  1.00  0.00    -0.082 C  
HETATM    9  C   UNL     1      -8.749  10.959  67.686  1.00  0.00    -0.127 C  
HETATM   10  C   UNL     1     -11.044  12.456  68.823  1.00  0.00    -0.307 C  
HETATM   11  C   UNL     1      -6.216   5.908  68.608  1.00  0.00    -0.029 C  
HETATM   12  O   UNL     1      -6.128   4.003  69.995  1.00  0.00    -0.021 OA 
HETATM   13  C   UNL     1      -8.411   9.224  67.299  1.00  0.00    -0.125 C  
HETATM   14  C   UNL     1      -6.780   4.945  69.574  1.00  0.00    -0.051 C  
HETATM   15  H   UNL     1      -8.357   5.363  70.916  1.00  0.00     0.000 HD 
HETATM   16  C   UNL     1      -9.011   7.916  68.265  1.00  0.00    -0.132 C  
HETATM   17  N   UNL     1      -8.074   5.241  69.944  1.00  0.00    -0.083 N  
HETATM   18  C   UNL     1     -10.582   7.989  68.830  1.00  0.00    -0.160 C  
HETATM   19  C   UNL     1     -10.786   6.883  69.882  1.00  0.00    -0.278 C  
HETATM   20  C   UNL     1     -10.446   5.495  69.339  1.00  0.00    -0.360 C  
HETATM   21  C   UNL     1      -9.009   5.365  68.821  1.00  0.00    -0.117 C  
ENDROOT
BRANCH   4  22
HETATM   22  C   UNL     1     -10.788  10.891  66.230  1.00  0.00    -0.124 C  
HETATM   23  C   UNL     1     -12.883  14.017  65.462  1.00  0.00    -0.453 C  
HETATM   24  C   UNL     1     -12.268  12.288  63.786  1.00  0.00    -0.642 C  
HETATM   25  C   UNL     1     -11.811  12.965  65.087  1.00  0.00    -0.380 C  
HETATM   26  H   UNL     1     -12.235  12.130  67.031  1.00  0.00     0.000 HD 
HETATM   27  N   UNL     1     -11.653  11.984  66.205  1.00  0.00    -0.357 N  
HETATM   28  O   UNL     1     -10.252  10.502  65.192  1.00  0.00    -0.305 OA 
HETATM   29  C   UNL     1     -10.504  13.741  64.832  1.00  0.00    -0.437 C  
ENDBRANCH   4  22
TORSDOF 1
ENDMDL
MODEL       23
REMARK 921   NORMALIZED FREE ENERGY PREDICTED BY IDOCK:   -5.86 KCAL/MOL
REMARK 922        TOTAL FREE ENERGY PREDICTED BY IDOCK:   -5.27 KCAL/MOL
REMARK 923 INTER-LIGAND FREE ENERGY PREDICTED BY IDOCK:   -6.18 KCAL/MOL
REMARK 924 INTRA-LIGAND FREE ENERGY PREDICTED BY IDOCK:    0.91 KCAL/MOL
REMARK 927      BINDING AFFINITY PREDICTED BY RF-SCORE:    0.00 PKD
ROOT
HETATM    1  C   UNL     1      -9.962   9.967  69.299  1.00  0.00    -0.226 C  
HETATM    2  C   UNL     1      -8.758   9.856  70.056  1.00  0.00    -0.188 C  
HETATM    3  C   UNL     1      -8.453   9.682  68.611  1.00  0.00    -0.119 C  
HETATM    4  C   UNL     1     -10.038  10.054  67.366  1.00  0.00    -0.256 C  
HETATM    5  C   UNL     1     -10.869   5.823  66.491  1.00  0.00    -0.227 C  
HETATM    6  C   UNL     1      -9.174  10.969  67.876  1.00  0.00    -0.155 C  
HETATM    7  C   UNL     1      -9.706   5.952  67.481  1.00  0.00    -0.123 C  
HETATM    8  C   UNL     1      -8.435   5.325  66.883  1.00  0.00    -0.106 C  
HETATM    9  C   UNL     1      -8.161  10.060  66.554  1.00  0.00    -0.119 C  
HETATM   10  C   UNL     1      -9.026  12.442  68.096  1.00  0.00    -0.196 C  
HETATM   11  C   UNL     1      -7.654   4.441  67.526  1.00  0.00    -0.077 C  
HETATM   12  O   UNL     1      -7.764   2.732  69.147  1.00  0.00    -0.047 OA 
HETATM   13  C   UNL     1      -8.710   8.341  66.429  1.00  0.00    -0.162 C  
HETATM   14  C   UNL     1      -8.109   3.851  68.800  1.00  0.00    -0.070 C  
HETATM   15  H   UNL     1      -8.715   4.956  70.495  1.00  0.00     0.000 HD 
HETATM   16  C   UNL     1      -9.329   7.456  67.785  1.00  0.00    -0.144 C  
HETATM   17  N   UNL     1      -8.918   4.693  69.531  1.00  0.00    -0.087 N  
HETATM   18  C   UNL     1     -10.377   8.224  68.836  1.00  0.00    -0.230 C  
HETATM   19  C   UNL     1     -10.554   7.351  70.091  1.00  0.00    -0.240 C  
HETATM   20  C   UNL     1     -11.030   5.938  69.754  1.00  0.00    -0.452 C  
HETATM   21  C   UNL     1     -10.096   5.178  68.805  1.00  0.00    -0.161 C  
ENDROOT
BRANCH   4  22
HETATM   22  C   UNL     1     -10.463  10.844  65.946  1.00  0.00    -0.221 C  
HETATM   23  C   UNL     1     -12.716  13.910  65.419  1.00  0.00    -0.525 C  
HETATM   24  C   UNL     1     -12.307  12.152  63.709  1.00  0.00    -0.635 C  
HETATM   25  C   UNL     1     -11.685  12.870  64.917  1.00  0.00    -0.348 C  
HETATM   26  H   UNL     1     -11.808  12.074  66.919  1.00  0.00     0.000 HD 
HETATM   27  N   UNL     1     -11.347  11.920  66.022  1.00  0.00    -0.335 N  
HETATM   28  O   UNL     1     -10.071  10.441  64.850  1.00  0.00    -0.322 OA 
HETATM   29  C   UNL     1     -10.445  13.665  64.461  1.00  0.00    -0.411 C  
ENDBRANCH   4  22
TORSDOF 1
ENDMDL
MODEL       24
REMARK 921   NORMALIZED FREE ENERGY PREDICTED BY IDOCK:   -5.81 KCAL/MOL
REMARK 922        TOTAL FREE ENERGY PREDICTED BY IDOCK:   -5.22 KCAL/MOL
REMARK 923 INTER-LIGAND FREE ENERGY PREDICTED BY IDOCK:   -6.16 KCAL/MOL
REMARK 924 INTRA-LIGAND FREE ENERGY PREDICTED BY IDOCK:    0.94 KCAL/MOL
REMARK 927      BINDING AFFINITY PREDICTED BY RF-SCORE:    0.00 PKD
ROOT
HETATM    1  C   UNL     1      -7.180  14.217  67.465  1.00  0.00    -0.188 C  
HETATM    2  C   UNL     1      -6.802  14.073  68.833  1.00  0.00    -0.108 C  
HETATM    3  C   UNL     1      -8.132  14.734  68.752  1.00  0.00    -0.158 C  
HETATM    4  C   UNL     1      -8.927  14.796  66.866  1.00  0.00    -0.276 C  
HETATM    5  C   UNL     1      -8.082  19.064  66.209  1.00  0.00    -0.298 C  
HETATM    6  C   UNL     1      -9.015  13.770  67.750  1.00  0.00    -0.194 C  
HETATM    7  C   UNL     1      -7.562  18.613  67.579  1.00  0.00    -0.239 C  
HETATM    8  C   UNL     1      -8.253  19.419  68.693  1.00  0.00    -0.399 C  
HETATM    9  C   UNL     1     -10.192  15.084  68.447  1.00  0.00    -0.228 C  
HETATM   10  C   UNL     1      -9.346  12.311  67.820  1.00  0.00    -0.194 C  
HETATM   11  C   UNL     1      -7.602  20.036  69.693  1.00  0.00     0.241 C  
HETATM   12  O   UNL     1      -5.546  21.087  70.173  1.00  0.00    -0.543 OA 
HETATM   13  C   UNL     1      -9.580  16.737  68.039  1.00  0.00    -0.234 C  
HETATM   14  C   UNL     1      -6.131  20.151  69.651  1.00  0.00    -0.354 C  
HETATM   15  H   UNL     1      -4.798  18.527  69.426  1.00  0.00     0.000 HD 
HETATM   16  C   UNL     1      -7.892  17.100  67.888  1.00  0.00    -0.196 C  
HETATM   17  N   UNL     1      -5.522  19.103  68.996  1.00  0.00    -0.198 N  
HETATM   18  C   UNL     1      -6.904  16.009  67.097  1.00  0.00    -0.223 C  
HETATM   19  C   UNL     1      -5.434  16.398  67.342  1.00  0.00    -0.165 C  
HETATM   20  C   UNL     1      -5.137  17.837  66.920  1.00  0.00    -0.160 C  
HETATM   21  C   UNL     1      -6.004  18.885  67.628  1.00  0.00    -0.201 C  
ENDROOT
BRANCH   4  22
HETATM   22  C   UNL     1     -10.347  14.535  66.007  1.00  0.00    -0.309 C  
HETATM   23  C   UNL     1     -11.118  11.974  63.250  1.00  0.00    -0.400 C  
HETATM   24  C   UNL     1     -12.287  14.151  63.516  1.00  0.00     0.151 C  
HETATM   25  C   UNL     1     -11.553  13.041  64.283  1.00  0.00    -0.385 C  
HETATM   26  H   UNL     1      -9.450  13.161  64.751  1.00  0.00     0.000 HD 
HETATM   27  N   UNL     1     -10.353  13.560  65.010  1.00  0.00    -0.360 N  
HETATM   28  O   UNL     1     -11.342  15.238  66.190  1.00  0.00    -0.285 OA 
HETATM   29  C   UNL     1     -12.536  12.345  65.246  1.00  0.00    -0.256 C  
ENDBRANCH   4  22
TORSDOF 1
ENDMDL
MODEL       25
REMARK 921   NORMALIZED FREE ENERGY PREDICTED BY IDOCK:   -5.75 KCAL/MOL
REMARK 922        TOTAL FREE ENERGY PREDICTED BY IDOCK:   -5.16 KCAL/MOL
REMARK 923 INTER-LIGAND FREE ENERGY PREDICTED BY IDOCK:   -6.07 KCAL/MOL
REMARK 924 INTRA-LIGAND FREE ENERGY PREDICTED BY IDOCK:    0.92 KCAL/MOL
REMARK 927      BINDING AFFINITY PREDICTED BY RF-SCORE:    0.00 PKD
ROOT
HETATM    1  C   UNL     1     -10.968  12.760  64.069  1.00  0.00    -0.454 C  
HETATM    2  C   UNL     1     -11.956  11.810  63.676  1.00  0.00    -0.490 C  
HETATM    3  C   UNL     1     -11.555  11.555  65.085  1.00  0.00    -0.019 C  
HETATM    4  C   UNL     1     -10.319  12.982  65.879  1.00  0.00    -0.296 C  
HETATM    5  C   UNL     1      -6.668  10.539  65.639  1.00  0.00    -0.110 C  
HETATM    6  C   UNL     1     -11.675  13.023  65.823  1.00  0.00    -0.427 C  
HETATM    7  C   UNL     1      -7.867   9.779  65.062  1.00  0.00    -0.128 C  
HETATM    8  C   UNL     1      -8.100   8.483  65.859  1.00  0.00    -0.116 C  
HETATM    9  C   UNL     1     -11.304  11.742  67.173  1.00  0.00    -0.387 C  
HETATM   10  C   UNL     1     -12.823  13.975  65.947  1.00  0.00    -0.354 C  
HETATM   11  C   UNL     1      -8.256   7.271  65.302  1.00  0.00    -0.126 C  
HETATM   12  O   UNL     1      -7.601   6.020  63.414  1.00  0.00    -0.069 OA 
HETATM   13  C   UNL     1      -9.757  10.882  66.799  1.00  0.00    -0.221 C  
HETATM   14  C   UNL     1      -7.993   7.086  63.862  1.00  0.00    -0.069 C  
HETATM   15  H   UNL     1      -8.892   8.209  62.315  1.00  0.00     0.000 HD 
HETATM   16  C   UNL     1      -9.217  10.591  65.178  1.00  0.00    -0.243 C  
HETATM   17  N   UNL     1      -8.256   8.212  63.112  1.00  0.00    -0.127 N  
HETATM   18  C   UNL     1      -9.380  11.810  64.046  1.00  0.00     0.081 C  
HETATM   19  C   UNL     1      -9.110  11.230  62.645  1.00  0.00    -0.327 C  
HETATM   20  C   UNL     1      -7.742  10.553  62.551  1.00  0.00    -0.170 C  
HETATM   21  C   UNL     1      -7.543   9.413  63.557  1.00  0.00    -0.115 C  
ENDROOT
BRANCH   4  22
HETATM   22  C   UNL     1     -10.077  13.926  67.248  1.00  0.00    -0.242 C  
HETATM   23  C   UNL     1     -10.398  17.726  67.704  1.00  0.00    -0.375 C  
HETATM   24  C   UNL     1      -8.944  16.260  69.088  1.00  0.00    -0.219 C  
HETATM   25  C   UNL     1     -10.241  16.292  68.264  1.00  0.00    -0.253 C  
HETATM   26  H   UNL     1     -10.305  15.687  66.194  1.00  0.00     0.000 HD 
HETATM   27  N   UNL     1     -10.214  15.309  67.137  1.00  0.00    -0.249 N  
HETATM   28  O   UNL     1      -9.708  13.424  68.311  1.00  0.00    -0.222 OA 
HETATM   29  C   UNL     1     -11.447  16.048  69.193  1.00  0.00    -0.347 C  
ENDBRANCH   4  22
TORSDOF 1
ENDMDL
MODEL       26
REMARK 921   NORMALIZED FREE ENERGY PREDICTED BY IDOCK:   -5.73 KCAL/MOL
REMARK 922        TOTAL FREE ENERGY PREDICTED BY IDOCK:   -5.13 KCAL/MOL
REMARK 923 INTER-LIGAND FREE ENERGY PREDICTED BY IDOCK:   -5.95 KCAL/MOL
REMARK 924 INTRA-LIGAND FREE ENERGY PREDICTED BY IDOCK:    0.82 KCAL/MOL
REMARK 927      BINDING AFFINITY PREDICTED BY RF-SCORE:    0.00 PKD
ROOT
HETATM    1  C   UNL     1      -7.121  13.252  67.373  1.00  0.00    -0.111 C  
HETATM    2  C   UNL     1      -6.659  13.241  68.722  1.00  0.00    -0.099 C  
HETATM    3  C   UNL     1      -7.719  12.212  68.552  1.00  0.00    -0.119 C  
HETATM    4  C   UNL     1      -8.317  11.933  66.613  1.00  0.00    -0.117 C  
HETATM    5  C   UNL     1     -12.130  14.085  67.051  1.00  0.00    -0.455 C  
HETATM    6  C   UNL     1      -7.254  11.352  67.226  1.00  0.00    -0.119 C  
HETATM    7  C   UNL     1     -11.335  14.120  68.362  1.00  0.00    -0.315 C  
HETATM    8  C   UNL     1     -12.144  13.445  69.484  1.00  0.00    -0.334 C  
HETATM    9  C   UNL     1      -8.758  10.468  67.971  1.00  0.00    -0.128 C  
HETATM   10  C   UNL     1      -5.988  10.614  66.921  1.00  0.00    -0.063 C  
HETATM   11  C   UNL     1     -12.360  13.991  70.692  1.00  0.00    -0.446 C  
HETATM   12  O   UNL     1     -12.604  16.088  71.743  1.00  0.00    -0.456 OA 
HETATM   13  C   UNL     1     -10.166  11.602  68.043  1.00  0.00    -0.202 C  
HETATM   14  C   UNL     1     -11.997  15.401  70.936  1.00  0.00    -0.359 C  
HETATM   15  H   UNL     1     -10.083  16.231  70.605  1.00  0.00     0.000 HD 
HETATM   16  C   UNL     1      -9.982  13.310  68.275  1.00  0.00    -0.236 C  
HETATM   17  N   UNL     1     -10.919  15.822  70.188  1.00  0.00    -0.323 N  
HETATM   18  C   UNL     1      -8.761  14.105  67.454  1.00  0.00    -0.217 C  
HETATM   19  C   UNL     1      -8.613  15.524  68.033  1.00  0.00    -0.155 C  
HETATM   20  C   UNL     1      -9.924  16.308  67.990  1.00  0.00    -0.240 C  
HETATM   21  C   UNL     1     -11.077  15.634  68.743  1.00  0.00    -0.307 C  
ENDROOT
BRANCH   4  22
HETATM   22  C   UNL     1      -8.662  10.740  65.481  1.00  0.00    -0.187 C  
HETATM   23  C   UNL     1      -6.303   8.826  63.131  1.00  0.00    -0.090 C  
HETATM   24  C   UNL     1      -8.718   9.219  62.689  1.00  0.00    -0.225 C  
HETATM   25  C   UNL     1      -7.679   9.041  63.807  1.00  0.00    -0.125 C  
HETATM   26  H   UNL     1      -6.723  10.720  64.768  1.00  0.00     0.000 HD 
HETATM   27  N   UNL     1      -7.617  10.232  64.710  1.00  0.00    -0.136 N  
HETATM   28  O   UNL     1      -9.820  10.374  65.274  1.00  0.00    -0.253 OA 
HETATM   29  C   UNL     1      -7.987   7.753  64.596  1.00  0.00    -0.136 C  
ENDBRANCH   4  22
TORSDOF 1
ENDMDL
MODEL       27
REMARK 921   NORMALIZED FREE ENERGY PREDICTED BY IDOCK:   -5.71 KCAL/MOL
REMARK 922        TOTAL FREE ENERGY PREDICTED BY IDOCK:   -5.12 KCAL/MOL
REMARK 923 INTER-LIGAND FREE ENERGY PREDICTED BY IDOCK:   -6.23 KCAL/MOL
REMARK 924 INTRA-LIGAND FREE ENERGY PREDICTED BY IDOCK:    1.11 KCAL/MOL
REMARK 927      BINDING AFFINITY PREDICTED BY RF-SCORE:    0.00 PKD
ROOT
HETATM    1  C   UNL     1      -8.154   9.213  64.864  1.00  0.00    -0.133 C  
HETATM    2  C   UNL     1      -7.114  10.033  64.337  1.00  0.00    -0.135 C  
HETATM    3  C   UNL     1      -7.271  10.305  65.790  1.00  0.00    -0.133 C  
HETATM    4  C   UNL     1      -8.561   9.034  66.748  1.00  0.00    -0.129 C  
HETATM    5  C   UNL     1     -11.847  11.944  67.054  1.00  0.00    -0.192 C  
HETATM    6  C   UNL     1      -7.245   8.816  66.496  1.00  0.00    -0.081 C  
HETATM    7  C   UNL     1     -10.652  12.553  66.313  1.00  0.00    -0.273 C  
HETATM    8  C   UNL     1     -10.135  13.786  67.075  1.00  0.00    -0.256 C  
HETATM    9  C   UNL     1      -7.243  10.101  67.892  1.00  0.00    -0.086 C  
HETATM   10  C   UNL     1      -6.229   7.717  66.447  1.00  0.00    -0.045 C  
HETATM   11  C   UNL     1      -9.899  14.981  66.507  1.00  0.00    -0.276 C  
HETATM   12  O   UNL     1     -10.644  16.354  64.741  1.00  0.00    -0.676 OA 
HETATM   13  C   UNL     1      -8.698  11.167  67.751  1.00  0.00    -0.132 C  
HETATM   14  C   UNL     1     -10.339  15.234  65.122  1.00  0.00    -0.381 C  
HETATM   15  H   UNL     1      -9.829  14.041  63.455  1.00  0.00     0.000 HD 
HETATM   16  C   UNL     1      -9.421  11.567  66.227  1.00  0.00    -0.235 C  
HETATM   17  N   UNL     1     -10.340  14.103  64.335  1.00  0.00    -0.121 N  
HETATM   18  C   UNL     1      -9.587  10.366  65.077  1.00  0.00    -0.339 C  
HETATM   19  C   UNL     1      -9.975  11.011  63.734  1.00  0.00    -0.404 C  
HETATM   20  C   UNL     1     -11.238  11.865  63.843  1.00  0.00    -0.497 C  
HETATM   21  C   UNL     1     -11.136  12.996  64.873  1.00  0.00    -0.301 C  
ENDROOT
BRANCH   4  22
HETATM   22  C   UNL     1      -8.730   8.097  68.133  1.00  0.00    -0.136 C  
HETATM   23  C   UNL     1     -10.358   8.961  71.503  1.00  0.00    -0.394 C  
HETATM   24  C   UNL     1      -8.565   7.267  71.198  1.00  0.00    -0.130 C  
HETATM   25  C   UNL     1      -9.748   7.953  70.499  1.00  0.00    -0.174 C  
HETATM   26  H   UNL     1      -9.492   9.676  69.226  1.00  0.00     0.000 HD 
HETATM   27  N   UNL     1      -9.326   8.670  69.256  1.00  0.00    -0.153 N  
HETATM   28  O   UNL     1      -8.268   6.957  68.191  1.00  0.00    -0.117 OA 
HETATM   29  C   UNL     1     -10.845   6.911  70.202  1.00  0.00    -0.300 C  
ENDBRANCH   4  22
TORSDOF 1
ENDMDL
MODEL       28
REMARK 921   NORMALIZED FREE ENERGY PREDICTED BY IDOCK:   -5.69 KCAL/MOL
REMARK 922        TOTAL FREE ENERGY PREDICTED BY IDOCK:   -5.09 KCAL/MOL
REMARK 923 INTER-LIGAND FREE ENERGY PREDICTED BY IDOCK:   -5.97 KCAL/MOL
REMARK 924 INTRA-LIGAND FREE ENERGY PREDICTED BY IDOCK:    0.88 KCAL/MOL
REMARK 927      BINDING AFFINITY PREDICTED BY RF-SCORE:    0.00 PKD
ROOT
HETATM    1  C   UNL     1     -11.262  13.424  70.113  1.00  0.00     0.232 C  
HETATM    2  C   UNL     1     -12.562  13.993  69.972  1.00  0.00    -0.250 C  
HETATM    3  C   UNL     1     -12.158  13.355  68.690  1.00  0.00    -0.281 C  
HETATM    4  C   UNL     1     -10.417  12.281  68.798  1.00  0.00    -0.187 C  
HETATM    5  C   UNL     1      -7.962  15.278  66.712  1.00  0.00    -0.104 C  
HETATM    6  C   UNL     1     -11.661  11.843  69.118  1.00  0.00    -0.373 C  
HETATM    7  C   UNL     1      -9.404  15.774  66.870  1.00  0.00    -0.246 C  
HETATM    8  C   UNL     1     -10.025  16.028  65.485  1.00  0.00    -0.282 C  
HETATM    9  C   UNL     1     -11.669  11.918  67.222  1.00  0.00    -0.319 C  
HETATM   10  C   UNL     1     -12.361  10.745  69.858  1.00  0.00    -0.340 C  
HETATM   11  C   UNL     1     -10.667  17.156  65.140  1.00  0.00    -0.009 C  
HETATM   12  O   UNL     1     -10.692  19.468  65.602  1.00  0.00    -0.491 OA 
HETATM   13  C   UNL     1     -10.589  13.253  66.654  1.00  0.00    -0.283 C  
HETATM   14  C   UNL     1     -10.621  18.329  66.035  1.00  0.00    -0.296 C  
HETATM   15  H   UNL     1     -11.179  18.316  68.073  1.00  0.00     0.000 HD 
HETATM   16  C   UNL     1     -10.342  14.708  67.562  1.00  0.00    -0.234 C  
HETATM   17  N   UNL     1     -10.517  17.993  67.367  1.00  0.00    -0.384 N  
HETATM   18  C   UNL     1     -10.146  14.599  69.218  1.00  0.00    -0.125 C  
HETATM   19  C   UNL     1     -10.236  16.010  69.826  1.00  0.00    -0.240 C  
HETATM   20  C   UNL     1      -9.229  16.977  69.202  1.00  0.00    -0.073 C  
HETATM   21  C   UNL     1      -9.374  17.131  67.683  1.00  0.00    -0.239 C  
ENDROOT
BRANCH   4  22
HETATM   22  C   UNL     1      -9.721  10.818  68.353  1.00  0.00    -0.174 C  
HETATM   23  C   UNL     1     -10.666   7.236  69.368  1.00  0.00    -0.236 C  
HETATM   24  C   UNL     1      -8.393   7.944  68.654  1.00  0.00    -0.128 C  
HETATM   25  C   UNL     1      -9.890   8.247  68.490  1.00  0.00    -0.176 C  
HETATM   26  H   UNL     1     -10.898   9.746  69.670  1.00  0.00     0.000 HD 
HETATM   27  N   UNL     1     -10.229   9.643  68.906  1.00  0.00    -0.193 N  
HETATM   28  O   UNL     1      -8.733  10.779  67.618  1.00  0.00    -0.125 OA 
HETATM   29  C   UNL     1     -10.312   7.978  67.032  1.00  0.00    -0.414 C  
ENDBRANCH   4  22
TORSDOF 1
ENDMDL
MODEL       29
REMARK 921   NORMALIZED FREE ENERGY PREDICTED BY IDOCK:   -5.66 KCAL/MOL
REMARK 922        TOTAL FREE ENERGY PREDICTED BY IDOCK:   -5.06 KCAL/MOL
REMARK 923 INTER-LIGAND FREE ENERGY PREDICTED BY IDOCK:   -5.88 KCAL/MOL
REMARK 924 INTRA-LIGAND FREE ENERGY PREDICTED BY IDOCK:    0.82 KCAL/MOL
REMARK 927      BINDING AFFINITY PREDICTED BY RF-SCORE:    0.00 PKD
ROOT
HETATM    1  C   UNL     1     -10.302  17.155  68.747  1.00  0.00    -0.353 C  
HETATM    2  C   UNL     1     -11.018  18.078  67.930  1.00  0.00    -0.083 C  
HETATM    3  C   UNL     1     -10.374  17.051  67.070  1.00  0.00    -0.304 C  
HETATM    4  C   UNL     1      -9.507  15.510  68.104  1.00  0.00    -0.198 C  
HETATM    5  C   UNL     1      -5.374  16.895  67.508  1.00  0.00    -0.159 C  
HETATM    6  C   UNL     1     -10.811  15.612  67.743  1.00  0.00    -0.307 C  
HETATM    7  C   UNL     1      -6.369  17.873  66.874  1.00  0.00    -0.199 C  
HETATM    8  C   UNL     1      -6.109  17.979  65.361  1.00  0.00    -0.145 C  
HETATM    9  C   UNL     1      -9.909  15.223  66.120  1.00  0.00    -0.333 C  
HETATM   10  C   UNL     1     -12.158  15.031  68.045  1.00  0.00    -0.045 C  
HETATM   11  C   UNL     1      -5.982  19.139  64.695  1.00  0.00    -0.308 C  
HETATM   12  O   UNL     1      -5.255  21.360  65.000  1.00  0.00    -0.173 OA 
HETATM   13  C   UNL     1      -8.245  15.932  66.154  1.00  0.00     0.037 C  
HETATM   14  C   UNL     1      -5.873  20.406  65.444  1.00  0.00    -0.200 C  
HETATM   15  H   UNL     1      -7.258  21.077  66.891  1.00  0.00     0.000 HD 
HETATM   16  C   UNL     1      -7.867  17.391  67.010  1.00  0.00    -0.238 C  
HETATM   17  N   UNL     1      -6.548  20.388  66.645  1.00  0.00    -0.222 N  
HETATM   18  C   UNL     1      -8.525  17.626  68.528  1.00  0.00    -0.289 C  
HETATM   19  C   UNL     1      -8.290  19.087  68.953  1.00  0.00    -0.298 C  
HETATM   20  C   UNL     1      -6.811  19.472  68.915  1.00  0.00    -0.376 C  
HETATM   21  C   UNL     1      -6.158  19.293  67.539  1.00  0.00    -0.194 C  
ENDROOT
BRANCH   4  22
HETATM   22  C   UNL     1      -9.365  13.836  68.136  1.00  0.00    -0.211 C  
HETATM   23  C   UNL     1     -11.727  11.195  69.618  1.00  0.00    -0.410 C  
HETATM   24  C   UNL     1      -9.281  10.881  69.308  1.00  0.00    -0.006 C  
HETATM   25  C   UNL     1     -10.514  11.609  68.751  1.00  0.00    -0.204 C  
HETATM   26  H   UNL     1     -11.028  13.620  69.342  1.00  0.00     0.000 HD 
HETATM   27  N   UNL     1     -10.351  13.096  68.787  1.00  0.00    -0.182 N  
HETATM   28  O   UNL     1      -8.375  13.272  67.667  1.00  0.00    -0.155 OA 
HETATM   29  C   UNL     1     -10.804  11.111  67.321  1.00  0.00    -0.326 C  
ENDBRANCH   4  22
TORSDOF 1
ENDMDL
MODEL       30
REMARK 921   NORMALIZED FREE ENERGY PREDICTED BY IDOCK:   -5.60 KCAL/MOL
REMARK 922        TOTAL FREE ENERGY PREDICTED BY IDOCK:   -5.00 KCAL/MOL
REMARK 923 INTER-LIGAND FREE ENERGY PREDICTED BY IDOCK:   -5.94 KCAL/MOL
REMARK 924 INTRA-LIGAND FREE ENERGY PREDICTED BY IDOCK:    0.95 KCAL/MOL
REMARK 927      BINDING AFFINITY PREDICTED BY RF-SCORE:    0.00 PKD
ROOT
HETATM    1  C   UNL     1      -7.168   9.642  67.744  1.00  0.00    -0.085 C  
HETATM    2  C   UNL     1      -6.692   8.327  67.469  1.00  0.00    -0.063 C  
HETATM    3  C   UNL     1      -8.113   8.437  67.047  1.00  0.00    -0.104 C  
HETATM    4  C   UNL     1      -8.876  10.336  67.151  1.00  0.00    -0.141 C  
HETATM    5  C   UNL     1     -11.244   9.623  70.790  1.00  0.00    -0.403 C  
HETATM    6  C   UNL     1      -8.168   9.801  66.124  1.00  0.00    -0.120 C  
HETATM    7  C   UNL     1     -10.453   8.367  70.404  1.00  0.00    -0.228 C  
HETATM    8  C   UNL     1     -11.420   7.202  70.130  1.00  0.00    -0.245 C  
HETATM    9  C   UNL     1      -9.867   8.968  65.997  1.00  0.00    -0.312 C  
HETATM   10  C   UNL     1      -7.401  10.198  64.900  1.00  0.00    -0.136 C  
HETATM   11  C   UNL     1     -11.296   5.976  70.665  1.00  0.00    -0.301 C  
HETATM   12  O   UNL     1     -10.493   4.888  72.597  1.00  0.00    -0.192 OA 
HETATM   13  C   UNL     1     -10.591   8.790  67.646  1.00  0.00    -0.281 C  
HETATM   14  C   UNL     1     -10.314   5.741  71.742  1.00  0.00    -0.221 C  
HETATM   15  H   UNL     1      -8.253   6.188  71.616  1.00  0.00     0.000 HD 
HETATM   16  C   UNL     1      -9.630   8.553  69.069  1.00  0.00    -0.167 C  
HETATM   17  N   UNL     1      -9.205   6.553  71.652  1.00  0.00    -0.144 N  
HETATM   18  C   UNL     1      -8.227   9.443  69.249  1.00  0.00    -0.111 C  
HETATM   19  C   UNL     1      -7.413   8.860  70.418  1.00  0.00    -0.081 C  
HETATM   20  C   UNL     1      -8.217   8.807  71.717  1.00  0.00    -0.144 C  
HETATM   21  C   UNL     1      -9.509   7.987  71.615  1.00  0.00    -0.164 C  
ENDROOT
BRANCH   4  22
HETATM   22  C   UNL     1      -9.790  11.456  66.295  1.00  0.00    -0.218 C  
HETATM   23  C   UNL     1     -11.792  14.479  67.563  1.00  0.00    -0.404 C  
HETATM   24  C   UNL     1     -12.286  13.243  65.464  1.00  0.00    -0.533 C  
HETATM   25  C   UNL     1     -11.158  13.640  66.427  1.00  0.00    -0.303 C  
HETATM   26  H   UNL     1     -10.495  12.345  68.021  1.00  0.00     0.000 HD 
HETATM   27  N   UNL     1     -10.468  12.446  67.006  1.00  0.00    -0.220 N  
HETATM   28  O   UNL     1      -9.930  11.365  65.075  1.00  0.00    -0.242 OA 
HETATM   29  C   UNL     1     -10.162  14.566  65.700  1.00  0.00    -0.379 C  
ENDBRANCH   4  22
TORSDOF 1
ENDMDL
MODEL       31
REMARK 921   NORMALIZED FREE ENERGY PREDICTED BY IDOCK:   -5.59 KCAL/MOL
REMARK 922        TOTAL FREE ENERGY PREDICTED BY IDOCK:   -4.98 KCAL/MOL
REMARK 923 INTER-LIGAND FREE ENERGY PREDICTED BY IDOCK:   -6.06 KCAL/MOL
REMARK 924 INTRA-LIGAND FREE ENERGY PREDICTED BY IDOCK:    1.08 KCAL/MOL
REMARK 927      BINDING AFFINITY PREDICTED BY RF-SCORE:    0.00 PKD
ROOT
HETATM    1  C   UNL     1      -9.181   8.567  66.880  1.00  0.00    -0.197 C  
HETATM    2  C   UNL     1     -10.280   7.732  66.524  1.00  0.00    -0.195 C  
HETATM    3  C   UNL     1     -10.766   8.861  67.360  1.00  0.00    -0.225 C  
HETATM    4  C   UNL     1      -9.349  10.287  67.754  1.00  0.00    -0.156 C  
HETATM    5  C   UNL     1      -8.671   9.047  71.920  1.00  0.00     0.067 C  
HETATM    6  C   UNL     1     -10.134  10.206  66.649  1.00  0.00    -0.283 C  
HETATM    7  C   UNL     1      -9.698   8.132  71.243  1.00  0.00    -0.207 C  
HETATM    8  C   UNL     1     -11.040   8.205  71.993  1.00  0.00    -0.370 C  
HETATM    9  C   UNL     1     -11.314  10.793  68.013  1.00  0.00    -0.378 C  
HETATM   10  C   UNL     1     -10.240  10.727  65.249  1.00  0.00    -0.351 C  
HETATM   11  C   UNL     1     -11.741   7.131  72.394  1.00  0.00    -0.261 C  
HETATM   12  O   UNL     1     -11.440   4.901  73.098  1.00  0.00    -0.322 OA 
HETATM   13  C   UNL     1     -10.799  10.112  69.608  1.00  0.00    -0.299 C  
HETATM   14  C   UNL     1     -11.133   5.788  72.317  1.00  0.00    -0.276 C  
HETATM   15  H   UNL     1     -10.307   4.933  70.571  1.00  0.00     0.000 HD 
HETATM   16  C   UNL     1     -10.021   8.571  69.761  1.00  0.00    -0.191 C  
HETATM   17  N   UNL     1     -10.230   5.657  71.284  1.00  0.00    -0.212 N  
HETATM   18  C   UNL     1      -8.842   8.153  68.652  1.00  0.00    -0.134 C  
HETATM   19  C   UNL     1      -8.515   6.657  68.812  1.00  0.00    -0.123 C  
HETATM   20  C   UNL     1      -8.097   6.303  70.239  1.00  0.00    -0.116 C  
HETATM   21  C   UNL     1      -9.150   6.649  71.299  1.00  0.00    -0.151 C  
ENDROOT
BRANCH   4  22
HETATM   22  C   UNL     1      -9.101  11.949  67.788  1.00  0.00    -0.180 C  
HETATM   23  C   UNL     1     -11.145  14.774  66.178  1.00  0.00    -0.339 C  
HETATM   24  C   UNL     1      -8.724  14.921  66.721  1.00  0.00    -0.278 C  
HETATM   25  C   UNL     1     -10.046  14.260  67.139  1.00  0.00    -0.254 C  
HETATM   26  H   UNL     1     -10.627  12.303  66.441  1.00  0.00     0.000 HD 
HETATM   27  N   UNL     1      -9.974  12.767  67.072  1.00  0.00    -0.228 N  
HETATM   28  O   UNL     1      -8.127  12.436  68.363  1.00  0.00    -0.154 OA 
HETATM   29  C   UNL     1     -10.437  14.740  68.551  1.00  0.00    -0.249 C  
ENDBRANCH   4  22
TORSDOF 1
ENDMDL
MODEL       32
REMARK 921   NORMALIZED FREE ENERGY PREDICTED BY IDOCK:   -5.51 KCAL/MOL
REMARK 922        TOTAL FREE ENERGY PREDICTED BY IDOCK:   -4.90 KCAL/MOL
REMARK 923 INTER-LIGAND FREE ENERGY PREDICTED BY IDOCK:   -5.72 KCAL/MOL
REMARK 924 INTRA-LIGAND FREE ENERGY PREDICTED BY IDOCK:    0.82 KCAL/MOL
REMARK 927      BINDING AFFINITY PREDICTED BY RF-SCORE:    0.00 PKD
ROOT
HETATM    1  C   UNL     1      -7.555   9.776  69.848  1.00  0.00    -0.154 C  
HETATM    2  C   UNL     1      -6.739   8.692  69.409  1.00  0.00    -0.049 C  
HETATM    3  C   UNL     1      -8.131   8.494  68.924  1.00  0.00    -0.119 C  
HETATM    4  C   UNL     1      -9.374  10.086  69.264  1.00  0.00    -0.224 C  
HETATM    5  C   UNL     1     -11.531   8.211  72.609  1.00  0.00    -0.454 C  
HETATM    6  C   UNL     1      -8.531   9.925  68.213  1.00  0.00    -0.111 C  
HETATM    7  C   UNL     1     -10.428   7.283  72.088  1.00  0.00    -0.233 C  
HETATM    8  C   UNL     1     -11.044   5.965  71.587  1.00  0.00    -0.319 C  
HETATM    9  C   UNL     1      -9.944   8.709  67.862  1.00  0.00    -0.232 C  
HETATM   10  C   UNL     1      -7.875  10.697  67.109  1.00  0.00    -0.117 C  
HETATM   11  C   UNL     1     -10.607   4.744  71.940  1.00  0.00    -0.150 C  
HETATM   12  O   UNL     1      -9.578   3.610  73.733  1.00  0.00    -0.102 OA 
HETATM   13  C   UNL     1     -10.623   8.089  69.420  1.00  0.00    -0.210 C  
HETATM   14  C   UNL     1      -9.617   4.605  73.026  1.00  0.00    -0.129 C  
HETATM   15  H   UNL     1      -7.748   5.588  73.091  1.00  0.00     0.000 HD 
HETATM   16  C   UNL     1      -9.660   7.886  70.847  1.00  0.00    -0.172 C  
HETATM   17  N   UNL     1      -8.763   5.682  73.125  1.00  0.00    -0.120 N  
HETATM   18  C   UNL     1      -8.549   9.071  71.240  1.00  0.00    -0.221 C  
HETATM   19  C   UNL     1      -7.629   8.542  72.356  1.00  0.00    -0.088 C  
HETATM   20  C   UNL     1      -8.413   8.075  73.583  1.00  0.00    -0.317 C  
HETATM   21  C   UNL     1      -9.438   6.974  73.283  1.00  0.00    -0.166 C  
ENDROOT
BRANCH   4  22
HETATM   22  C   UNL     1     -10.539  11.050  68.531  1.00  0.00    -0.190 C  
HETATM   23  C   UNL     1     -10.117  14.163  66.321  1.00  0.00    -0.308 C  
HETATM   24  C   UNL     1     -12.129  13.675  67.696  1.00  0.00    -0.328 C  
HETATM   25  C   UNL     1     -10.971  13.023  66.925  1.00  0.00    -0.265 C  
HETATM   26  H   UNL     1      -9.136  12.425  67.890  1.00  0.00     0.000 HD 
HETATM   27  N   UNL     1     -10.120  12.167  67.808  1.00  0.00    -0.195 N  
HETATM   28  O   UNL     1     -11.740  10.831  68.689  1.00  0.00    -0.334 OA 
HETATM   29  C   UNL     1     -11.534  12.218  65.736  1.00  0.00    -0.417 C  
ENDBRANCH   4  22
TORSDOF 1
ENDMDL
MODEL       33
REMARK 921   NORMALIZED FREE ENERGY PREDICTED BY IDOCK:   -5.49 KCAL/MOL
REMARK 922        TOTAL FREE ENERGY PREDICTED BY IDOCK:   -4.88 KCAL/MOL
REMARK 923 INTER-LIGAND FREE ENERGY PREDICTED BY IDOCK:   -5.81 KCAL/MOL
REMARK 924 INTRA-LIGAND FREE ENERGY PREDICTED BY IDOCK:    0.93 KCAL/MOL
REMARK 927      BINDING AFFINITY PREDICTED BY RF-SCORE:    0.00 PKD
ROOT
HETATM    1  C   UNL     1     -11.664   9.868  71.428  1.00  0.00    -0.449 C  
HETATM    2  C   UNL     1     -12.783   9.312  70.741  1.00  0.00    -0.015 C  
HETATM    3  C   UNL     1     -11.532   8.683  70.241  1.00  0.00    -0.084 C  
HETATM    4  C   UNL     1      -9.853   9.195  71.297  1.00  0.00    -0.363 C  
HETATM    5  C   UNL     1      -8.283  11.953  68.249  1.00  0.00    -0.157 C  
HETATM    6  C   UNL     1     -10.733   8.209  71.602  1.00  0.00    -0.299 C  
HETATM    7  C   UNL     1      -9.631  11.370  67.809  1.00  0.00    -0.177 C  
HETATM    8  C   UNL     1      -9.461  10.590  66.494  1.00  0.00    -0.200 C  
HETATM    9  C   UNL     1      -9.769   7.526  70.117  1.00  0.00    -0.172 C  
HETATM   10  C   UNL     1     -11.151   7.322  72.734  1.00  0.00    -0.362 C  
HETATM   11  C   UNL     1     -10.240  10.754  65.412  1.00  0.00    -0.341 C  
HETATM   12  O   UNL     1     -11.518  12.395  64.302  1.00  0.00    -0.323 OA 
HETATM   13  C   UNL     1      -9.270   8.884  69.031  1.00  0.00    -0.140 C  
HETATM   14  C   UNL     1     -11.195  11.878  65.359  1.00  0.00    -0.295 C  
HETATM   15  H   UNL     1     -12.672  12.278  66.816  1.00  0.00     0.000 HD 
HETATM   16  C   UNL     1     -10.210  10.327  68.844  1.00  0.00    -0.220 C  
HETATM   17  N   UNL     1     -11.676  12.241  66.598  1.00  0.00    -0.374 N  
HETATM   18  C   UNL     1     -10.896  11.021  70.202  1.00  0.00     0.046 C  
HETATM   19  C   UNL     1     -11.902  12.098  69.758  1.00  0.00    -0.397 C  
HETATM   20  C   UNL     1     -11.265  13.149  68.849  1.00  0.00    -0.324 C  
HETATM   21  C   UNL     1     -10.635  12.571  67.576  1.00  0.00    -0.220 C  
ENDROOT
BRANCH   4  22
HETATM   22  C   UNL     1      -8.470   8.551  72.000  1.00  0.00    -0.165 C  
HETATM   23  C   UNL     1      -8.088   5.567  74.389  1.00  0.00    -0.104 C  
HETATM   24  C   UNL     1      -6.507   7.482  74.263  1.00  0.00    -0.088 C  
HETATM   25  C   UNL     1      -7.502   6.644  73.444  1.00  0.00    -0.087 C  
HETATM   26  H   UNL     1      -9.557   7.241  73.170  1.00  0.00     0.000 HD 
HETATM   27  N   UNL     1      -8.608   7.479  72.881  1.00  0.00    -0.122 N  
HETATM   28  O   UNL     1      -7.363   9.057  71.811  1.00  0.00    -0.301 OA 
HETATM   29  C   UNL     1      -6.746   5.890  72.332  1.00  0.00    -0.072 C  
ENDBRANCH   4  22
TORSDOF 1
ENDMDL
MODEL       34
REMARK 921   NORMALIZED FREE ENERGY PREDICTED BY IDOCK:   -5.38 KCAL/MOL
REMARK 922        TOTAL FREE ENERGY PREDICTED BY IDOCK:   -4.76 KCAL/MOL
REMARK 923 INTER-LIGAND FREE ENERGY PREDICTED BY IDOCK:   -5.60 KCAL/MOL
REMARK 924 INTRA-LIGAND FREE ENERGY PREDICTED BY IDOCK:    0.84 KCAL/MOL
REMARK 927      BINDING AFFINITY PREDICTED BY RF-SCORE:    0.00 PKD
ROOT
HETATM    1  C   UNL     1      -7.603   9.837  68.485  1.00  0.00    -0.080 C  
HETATM    2  C   UNL     1      -6.759   9.470  67.395  1.00  0.00    -0.071 C  
HETATM    3  C   UNL     1      -8.162   9.590  66.918  1.00  0.00    -0.113 C  
HETATM    4  C   UNL     1      -9.462  10.346  68.308  1.00  0.00    -0.153 C  
HETATM    5  C   UNL     1     -11.355   6.484  69.236  1.00  0.00    -0.359 C  
HETATM    6  C   UNL     1      -8.666  11.058  67.471  1.00  0.00    -0.128 C  
HETATM    7  C   UNL     1     -10.235   6.304  68.205  1.00  0.00    -0.198 C  
HETATM    8  C   UNL     1     -10.811   5.723  66.902  1.00  0.00    -0.337 C  
HETATM    9  C   UNL     1     -10.034  10.381  66.344  1.00  0.00    -0.277 C  
HETATM   10  C   UNL     1      -8.105  12.432  67.277  1.00  0.00    -0.182 C  
HETATM   11  C   UNL     1     -10.298   4.662  66.256  1.00  0.00    -0.293 C  
HETATM   12  O   UNL     1      -9.126   2.657  66.662  1.00  0.00    -0.149 OA 
HETATM   13  C   UNL     1     -10.603   8.778  66.961  1.00  0.00    -0.283 C  
HETATM   14  C   UNL     1      -9.250   3.848  66.901  1.00  0.00    -0.174 C  
HETATM   15  H   UNL     1      -7.429   4.603  67.662  1.00  0.00     0.000 HD 
HETATM   16  C   UNL     1      -9.561   7.672  67.793  1.00  0.00    -0.169 C  
HETATM   17  N   UNL     1      -8.445   4.572  67.753  1.00  0.00    -0.102 N  
HETATM   18  C   UNL     1      -8.490   8.274  68.926  1.00  0.00    -0.128 C  
HETATM   19  C   UNL     1      -7.491   7.166  69.308  1.00  0.00    -0.093 C  
HETATM   20  C   UNL     1      -8.189   5.902  69.809  1.00  0.00    -0.113 C  
HETATM   21  C   UNL     1      -9.173   5.294  68.801  1.00  0.00    -0.116 C  
ENDROOT
BRANCH   4  22
HETATM   22  C   UNL     1     -10.707  11.456  68.506  1.00  0.00    -0.201 C  
HETATM   23  C   UNL     1     -10.565  15.284  68.795  1.00  0.00    -0.240 C  
HETATM   24  C   UNL     1     -12.372  13.866  69.745  1.00  0.00    -0.330 C  
HETATM   25  C   UNL     1     -11.339  13.956  68.612  1.00  0.00    -0.278 C  
HETATM   26  H   UNL     1      -9.394  13.032  68.752  1.00  0.00     0.000 HD 
HETATM   27  N   UNL     1     -10.382  12.806  68.633  1.00  0.00    -0.215 N  
HETATM   28  O   UNL     1     -11.878  11.089  68.619  1.00  0.00    -0.413 OA 
HETATM   29  C   UNL     1     -12.068  14.055  67.257  1.00  0.00    -0.405 C  
ENDBRANCH   4  22
TORSDOF 1
ENDMDL
MODEL       35
REMARK 921   NORMALIZED FREE ENERGY PREDICTED BY IDOCK:   -5.36 KCAL/MOL
REMARK 922        TOTAL FREE ENERGY PREDICTED BY IDOCK:   -4.74 KCAL/MOL
REMARK 923 INTER-LIGAND FREE ENERGY PREDICTED BY IDOCK:   -5.57 KCAL/MOL
REMARK 924 INTRA-LIGAND FREE ENERGY PREDICTED BY IDOCK:    0.82 KCAL/MOL
REMARK 927      BINDING AFFINITY PREDICTED BY RF-SCORE:    0.00 PKD
ROOT
HETATM    1  C   UNL     1      -9.359  15.271  69.548  1.00  0.00    -0.198 C  
HETATM    2  C   UNL     1      -8.255  14.450  69.922  1.00  0.00     0.720 C  
HETATM    3  C   UNL     1      -8.196  14.725  68.462  1.00  0.00    -0.153 C  
HETATM    4  C   UNL     1      -9.576  16.090  67.807  1.00  0.00    -0.219 C  
HETATM    5  C   UNL     1     -12.230  13.119  65.940  1.00  0.00    -0.497 C  
HETATM    6  C   UNL     1      -8.358  16.361  68.341  1.00  0.00    -0.191 C  
HETATM    7  C   UNL     1     -11.036  12.432  66.612  1.00  0.00    -0.336 C  
HETATM    8  C   UNL     1     -10.224  11.649  65.565  1.00  0.00    -0.302 C  
HETATM    9  C   UNL     1      -7.967  15.704  66.604  1.00  0.00    -0.185 C  
HETATM   10  C   UNL     1      -7.568  17.479  68.947  1.00  0.00    -0.225 C  
HETATM   11  C   UNL     1      -9.843  10.369  65.707  1.00  0.00    -0.300 C  
HETATM   12  O   UNL     1     -10.524   8.353  66.722  1.00  0.00    -0.314 OA 
HETATM   13  C   UNL     1      -9.214  14.489  66.111  1.00  0.00    -0.175 C  
HETATM   14  C   UNL     1     -10.384   9.562  66.818  1.00  0.00    -0.228 C  
HETATM   15  H   UNL     1     -10.288  10.097  68.859  1.00  0.00     0.000 HD 
HETATM   16  C   UNL     1     -10.020  13.460  67.248  1.00  0.00    -0.232 C  
HETATM   17  N   UNL     1     -10.676  10.306  67.940  1.00  0.00    -0.244 N  
HETATM   18  C   UNL     1     -10.528  14.112  68.701  1.00  0.00    -0.250 C  
HETATM   19  C   UNL     1     -10.943  12.967  69.644  1.00  0.00     0.140 C  
HETATM   20  C   UNL     1     -12.012  12.065  69.027  1.00  0.00    -0.321 C  
HETATM   21  C   UNL     1     -11.593  11.425  67.698  1.00  0.00    -0.238 C  
ENDROOT
BRANCH   4  22
HETATM   22  C   UNL     1      -9.753  17.448  66.834  1.00  0.00    -0.286 C  
HETATM   23  C   UNL     1      -9.304  21.164  67.694  1.00  0.00    -0.032 C  
HETATM   24  C   UNL     1     -10.764  20.306  65.874  1.00  0.00    -0.144 C  
HETATM   25  C   UNL     1      -9.490  20.010  66.679  1.00  0.00    -0.404 C  
HETATM   26  H   UNL     1      -9.500  18.741  68.425  1.00  0.00     0.000 HD 
HETATM   27  N   UNL     1      -9.577  18.706  67.408  1.00  0.00    -0.292 N  
HETATM   28  O   UNL     1     -10.108  17.348  65.658  1.00  0.00    -0.566 OA 
HETATM   29  C   UNL     1      -8.267  20.048  65.741  1.00  0.00    -0.092 C  
ENDBRANCH   4  22
TORSDOF 1
ENDMDL
MODEL       36
REMARK 921   NORMALIZED FREE ENERGY PREDICTED BY IDOCK:   -5.35 KCAL/MOL
REMARK 922        TOTAL FREE ENERGY PREDICTED BY IDOCK:   -4.73 KCAL/MOL
REMARK 923 INTER-LIGAND FREE ENERGY PREDICTED BY IDOCK:   -5.58 KCAL/MOL
REMARK 924 INTRA-LIGAND FREE ENERGY PREDICTED BY IDOCK:    0.85 KCAL/MOL
REMARK 927      BINDING AFFINITY PREDICTED BY RF-SCORE:    0.00 PKD
ROOT
HETATM    1  C   UNL     1     -11.535   8.374  70.689  1.00  0.00    -0.235 C  
HETATM    2  C   UNL     1     -11.448   8.791  72.050  1.00  0.00    -0.441 C  
HETATM    3  C   UNL     1     -10.222   9.214  71.322  1.00  0.00    -0.400 C  
HETATM    4  C   UNL     1     -10.296   8.903  69.298  1.00  0.00    -0.221 C  
HETATM    5  C   UNL     1      -7.642   5.394  69.328  1.00  0.00    -0.077 C  
HETATM    6  C   UNL     1     -10.782   9.976  69.973  1.00  0.00    -0.348 C  
HETATM    7  C   UNL     1      -7.872   5.911  70.753  1.00  0.00    -0.102 C  
HETATM    8  C   UNL     1      -6.530   6.326  71.383  1.00  0.00    -0.050 C  
HETATM    9  C   UNL     1      -8.900  10.215  70.015  1.00  0.00    -0.008 C  
HETATM   10  C   UNL     1     -11.711  11.139  69.809  1.00  0.00    -0.419 C  
HETATM   11  C   UNL     1      -6.112   5.932  72.597  1.00  0.00    -0.041 C  
HETATM   12  O   UNL     1      -6.291   4.128  74.104  1.00  0.00    -0.038 OA 
HETATM   13  C   UNL     1      -8.075   8.605  70.040  1.00  0.00    -0.112 C  
HETATM   14  C   UNL     1      -6.850   4.878  73.321  1.00  0.00    -0.070 C  
HETATM   15  H   UNL     1      -8.918   4.931  73.753  1.00  0.00     0.000 HD 
HETATM   16  C   UNL     1      -8.773   7.208  70.792  1.00  0.00    -0.147 C  
HETATM   17  N   UNL     1      -8.198   4.863  73.034  1.00  0.00    -0.101 N  
HETATM   18  C   UNL     1     -10.404   6.913  70.582  1.00  0.00    -0.220 C  
HETATM   19  C   UNL     1     -10.842   5.809  71.561  1.00  0.00    -0.316 C  
HETATM   20  C   UNL     1     -10.015   4.533  71.406  1.00  0.00    -0.259 C  
HETATM   21  C   UNL     1      -8.509   4.741  71.606  1.00  0.00    -0.117 C  
ENDROOT
BRANCH   4  22
HETATM   22  C   UNL     1      -9.969   9.637  67.823  1.00  0.00    -0.171 C  
HETATM   23  C   UNL     1     -11.775  12.534  66.063  1.00  0.00    -0.472 C  
HETATM   24  C   UNL     1     -10.463  10.775  64.895  1.00  0.00    -0.324 C  
HETATM   25  C   UNL     1     -10.584  11.556  66.212  1.00  0.00    -0.263 C  
HETATM   26  H   UNL     1     -11.680  10.792  67.907  1.00  0.00     0.000 HD 
HETATM   27  N   UNL     1     -10.816  10.652  67.381  1.00  0.00    -0.283 N  
HETATM   28  O   UNL     1      -9.052   9.239  67.103  1.00  0.00    -0.128 OA 
HETATM   29  C   UNL     1      -9.326  12.423  66.414  1.00  0.00    -0.219 C  
ENDBRANCH   4  22
TORSDOF 1
ENDMDL
MODEL       37
REMARK 921   NORMALIZED FREE ENERGY PREDICTED BY IDOCK:   -5.34 KCAL/MOL
REMARK 922        TOTAL FREE ENERGY PREDICTED BY IDOCK:   -4.72 KCAL/MOL
REMARK 923 INTER-LIGAND FREE ENERGY PREDICTED BY IDOCK:   -6.03 KCAL/MOL
REMARK 924 INTRA-LIGAND FREE ENERGY PREDICTED BY IDOCK:    1.32 KCAL/MOL
REMARK 927      BINDING AFFINITY PREDICTED BY RF-SCORE:    0.00 PKD
ROOT
HETATM    1  C   UNL     1     -11.465  12.296  67.966  1.00  0.00    -0.378 C  
HETATM    2  C   UNL     1     -10.920  13.132  68.984  1.00  0.00    -0.241 C  
HETATM    3  C   UNL     1      -9.830  12.335  68.360  1.00  0.00    -0.199 C  
HETATM    4  C   UNL     1     -10.410  11.260  66.715  1.00  0.00    -0.278 C  
HETATM    5  C   UNL     1     -10.471   7.371  68.771  1.00  0.00    -0.215 C  
HETATM    6  C   UNL     1     -10.025  12.562  66.740  1.00  0.00    -0.234 C  
HETATM    7  C   UNL     1     -10.100   8.494  69.747  1.00  0.00    -0.197 C  
HETATM    8  C   UNL     1      -8.702   8.237  70.335  1.00  0.00    -0.139 C  
HETATM    9  C   UNL     1      -8.410  11.596  66.982  1.00  0.00    -0.169 C  
HETATM   10  C   UNL     1     -10.070  13.811  65.915  1.00  0.00    -0.325 C  
HETATM   11  C   UNL     1      -8.415   8.276  71.647  1.00  0.00    -0.193 C  
HETATM   12  O   UNL     1      -9.399   7.888  73.754  1.00  0.00    -0.280 OA 
HETATM   13  C   UNL     1      -8.742  10.055  67.871  1.00  0.00    -0.125 C  
HETATM   14  C   UNL     1      -9.508   8.363  72.635  1.00  0.00    -0.265 C  
HETATM   15  H   UNL     1     -11.013   9.846  72.645  1.00  0.00     0.000 HD 
HETATM   16  C   UNL     1     -10.008   9.905  69.045  1.00  0.00    -0.193 C  
HETATM   17  N   UNL     1     -10.613   9.040  72.165  1.00  0.00    -0.264 N  
HETATM   18  C   UNL     1     -11.490  10.606  68.722  1.00  0.00    -0.330 C  
HETATM   19  C   UNL     1     -12.339  10.594  70.006  1.00  0.00    -0.341 C  
HETATM   20  C   UNL     1     -12.495   9.188  70.586  1.00  0.00     0.064 C  
HETATM   21  C   UNL     1     -11.164   8.501  70.918  1.00  0.00    -0.266 C  
ENDROOT
BRANCH   4  22
HETATM   22  C   UNL     1      -9.955  10.873  65.145  1.00  0.00    -0.284 C  
HETATM   23  C   UNL     1      -6.486  10.025  63.730  1.00  0.00    -0.131 C  
HETATM   24  C   UNL     1      -8.353  10.988  62.400  1.00  0.00    -0.286 C  
HETATM   25  C   UNL     1      -8.028  10.102  63.612  1.00  0.00    -0.160 C  
HETATM   26  H   UNL     1      -7.945  10.884  65.622  1.00  0.00     0.000 HD 
HETATM   27  N   UNL     1      -8.604  10.650  64.879  1.00  0.00    -0.169 N  
HETATM   28  O   UNL     1     -10.776  10.862  64.227  1.00  0.00    -0.353 OA 
HETATM   29  C   UNL     1      -8.521   8.666  63.347  1.00  0.00    -0.081 C  
ENDBRANCH   4  22
TORSDOF 1
ENDMDL
MODEL       38
REMARK 921   NORMALIZED FREE ENERGY PREDICTED BY IDOCK:   -5.31 KCAL/MOL
REMARK 922        TOTAL FREE ENERGY PREDICTED BY IDOCK:   -4.68 KCAL/MOL
REMARK 923 INTER-LIGAND FREE ENERGY PREDICTED BY IDOCK:   -5.67 KCAL/MOL
REMARK 924 INTRA-LIGAND FREE ENERGY PREDICTED BY IDOCK:    0.98 KCAL/MOL
REMARK 927      BINDING AFFINITY PREDICTED BY RF-SCORE:    0.00 PKD
ROOT
HETATM    1  C   UNL     1     -12.236   7.867  71.977  1.00  0.00    -0.357 C  
HETATM    2  C   UNL     1     -13.283   7.481  71.090  1.00  0.00    -0.232 C  
HETATM    3  C   UNL     1     -11.991   6.932  70.600  1.00  0.00    -0.400 C  
HETATM    4  C   UNL     1     -10.423   7.191  71.893  1.00  0.00    -0.220 C  
HETATM    5  C   UNL     1      -8.547  10.449  69.609  1.00  0.00    -0.060 C  
HETATM    6  C   UNL     1     -11.334   6.184  71.914  1.00  0.00    -0.350 C  
HETATM    7  C   UNL     1      -9.846   9.994  68.935  1.00  0.00    -0.187 C  
HETATM    8  C   UNL     1      -9.549   9.480  67.516  1.00  0.00    -0.176 C  
HETATM    9  C   UNL     1     -10.229   5.780  70.425  1.00  0.00    -0.288 C  
HETATM   10  C   UNL     1     -11.865   5.105  72.805  1.00  0.00    -0.116 C  
HETATM   11  C   UNL     1     -10.216   9.869  66.416  1.00  0.00    -0.292 C  
HETATM   12  O   UNL     1     -11.371  11.723  65.529  1.00  0.00    -0.300 OA 
HETATM   13  C   UNL     1      -9.619   7.311  69.677  1.00  0.00    -0.155 C  
HETATM   14  C   UNL     1     -11.157  11.003  66.492  1.00  0.00    -0.106 C  
HETATM   15  H   UNL     1     -12.770  11.147  67.848  1.00  0.00     0.000 HD 
HETATM   16  C   UNL     1     -10.530   8.785  69.686  1.00  0.00    -0.220 C  
HETATM   17  N   UNL     1     -11.758  11.131  67.725  1.00  0.00    -0.215 N  
HETATM   18  C   UNL     1     -11.345   9.218  71.080  1.00  0.00    -0.390 C  
HETATM   19  C   UNL     1     -12.298  10.384  70.759  1.00  0.00    -0.463 C  
HETATM   20  C   UNL     1     -11.570  11.576  70.139  1.00  0.00    -0.336 C  
HETATM   21  C   UNL     1     -10.818  11.240  68.845  1.00  0.00    -0.208 C  
ENDROOT
BRANCH   4  22
HETATM   22  C   UNL     1      -9.120   6.390  72.588  1.00  0.00    -0.135 C  
HETATM   23  C   UNL     1      -5.363   7.158  72.369  1.00  0.00    -0.037 C  
HETATM   24  C   UNL     1      -6.316   4.905  72.805  1.00  0.00    -0.042 C  
HETATM   25  C   UNL     1      -6.570   6.409  72.983  1.00  0.00    -0.069 C  
HETATM   26  H   UNL     1      -7.743   7.553  71.579  1.00  0.00     0.000 HD 
HETATM   27  N   UNL     1      -7.832   6.849  72.311  1.00  0.00    -0.093 N  
HETATM   28  O   UNL     1      -9.282   5.373  73.263  1.00  0.00    -0.132 OA 
HETATM   29  C   UNL     1      -6.584   6.755  74.486  1.00  0.00    -0.087 C  
ENDBRANCH   4  22
TORSDOF 1
ENDMDL
MODEL       39
REMARK 921   NORMALIZED FREE ENERGY PREDICTED BY IDOCK:   -5.25 KCAL/MOL
REMARK 922        TOTAL FREE ENERGY PREDICTED BY IDOCK:   -4.63 KCAL/MOL
REMARK 923 INTER-LIGAND FREE ENERGY PREDICTED BY IDOCK:   -5.56 KCAL/MOL
REMARK 924 INTRA-LIGAND FREE ENERGY PREDICTED BY IDOCK:    0.94 KCAL/MOL
REMARK 927      BINDING AFFINITY PREDICTED BY RF-SCORE:    0.00 PKD
ROOT
HETATM    1  C   UNL     1     -12.563  13.815  66.361  1.00  0.00    -0.309 C  
HETATM    2  C   UNL     1     -12.842  14.929  65.515  1.00  0.00     0.339 C  
HETATM    3  C   UNL     1     -11.519  14.354  65.156  1.00  0.00    -0.362 C  
HETATM    4  C   UNL     1     -11.076  12.599  66.116  1.00  0.00    -0.327 C  
HETATM    5  C   UNL     1      -8.211  14.389  68.934  1.00  0.00    -0.082 C  
HETATM    6  C   UNL     1     -11.802  12.740  64.978  1.00  0.00    -0.423 C  
HETATM    7  C   UNL     1      -8.821  15.464  68.027  1.00  0.00    -0.165 C  
HETATM    8  C   UNL     1      -7.713  16.155  67.215  1.00  0.00    -0.212 C  
HETATM    9  C   UNL     1     -10.014  13.063  64.431  1.00  0.00    -0.131 C  
HETATM   10  C   UNL     1     -12.763  11.997  64.102  1.00  0.00    -0.361 C  
HETATM   11  C   UNL     1      -7.567  17.487  67.117  1.00  0.00    -0.225 C  
HETATM   12  O   UNL     1      -7.944  19.470  68.336  1.00  0.00    -0.322 OA 
HETATM   13  C   UNL     1      -9.082  13.818  65.785  1.00  0.00     0.468 C  
HETATM   14  C   UNL     1      -8.362  18.378  67.984  1.00  0.00    -0.272 C  
HETATM   15  H   UNL     1     -10.469  18.350  68.137  1.00  0.00     0.000 HD 
HETATM   16  C   UNL     1      -9.815  14.864  66.956  1.00  0.00    -0.239 C  
HETATM   17  N   UNL     1      -9.594  17.857  68.315  1.00  0.00    -0.299 N  
HETATM   18  C   UNL     1     -11.316  14.457  67.569  1.00  0.00    -0.345 C  
HETATM   19  C   UNL     1     -11.878  15.658  68.351  1.00  0.00    -0.211 C  
HETATM   20  C   UNL     1     -10.929  16.130  69.453  1.00  0.00    -0.333 C  
HETATM   21  C   UNL     1      -9.540  16.534  68.945  1.00  0.00    -0.261 C  
ENDROOT
BRANCH   4  22
HETATM   22  C   UNL     1     -10.469  11.054  65.859  1.00  0.00    -0.240 C  
HETATM   23  C   UNL     1      -8.713   8.665  68.302  1.00  0.00    -0.142 C  
HETATM   24  C   UNL     1      -8.399   8.639  65.836  1.00  0.00    -0.140 C  
HETATM   25  C   UNL     1      -9.402   8.973  66.950  1.00  0.00    -0.158 C  
HETATM   26  H   UNL     1      -9.623  10.968  67.742  1.00  0.00     0.000 HD 
HETATM   27  N   UNL     1      -9.825  10.407  66.914  1.00  0.00    -0.184 N  
HETATM   28  O   UNL     1     -10.514  10.528  64.746  1.00  0.00    -0.304 OA 
HETATM   29  C   UNL     1     -10.616   8.027  66.850  1.00  0.00    -0.324 C  
ENDBRANCH   4  22
TORSDOF 1
ENDMDL
MODEL       40
REMARK 921   NORMALIZED FREE ENERGY PREDICTED BY IDOCK:   -5.25 KCAL/MOL
REMARK 922        TOTAL FREE ENERGY PREDICTED BY IDOCK:   -4.62 KCAL/MOL
REMARK 923 INTER-LIGAND FREE ENERGY PREDICTED BY IDOCK:   -5.85 KCAL/MOL
REMARK 924 INTRA-LIGAND FREE ENERGY PREDICTED BY IDOCK:    1.23 KCAL/MOL
REMARK 927      BINDING AFFINITY PREDICTED BY RF-SCORE:    0.00 PKD
ROOT
HETATM    1  C   UNL     1      -7.907   9.147  65.890  1.00  0.00    -0.105 C  
HETATM    2  C   UNL     1      -8.437   7.992  65.243  1.00  0.00    -0.133 C  
HETATM    3  C   UNL     1      -9.547   8.771  65.852  1.00  0.00    -0.255 C  
HETATM    4  C   UNL     1      -8.981  10.587  66.613  1.00  0.00    -0.155 C  
HETATM    5  C   UNL     1      -9.130   9.327  70.826  1.00  0.00    -0.306 C  
HETATM    6  C   UNL     1      -9.310  10.314  65.325  1.00  0.00    -0.267 C  
HETATM    7  C   UNL     1      -9.471   8.156  69.898  1.00  0.00    -0.160 C  
HETATM    8  C   UNL     1     -10.890   7.644  70.199  1.00  0.00    -0.255 C  
HETATM    9  C   UNL     1     -10.970  10.282  66.244  1.00  0.00     0.131 C  
HETATM   10  C   UNL     1      -9.195  10.879  63.943  1.00  0.00    -0.222 C  
HETATM   11  C   UNL     1     -11.201   6.353  70.402  1.00  0.00    -0.435 C  
HETATM   12  O   UNL     1     -10.275   4.351  71.237  1.00  0.00    -0.161 OA 
HETATM   13  C   UNL     1     -10.723   9.707  67.941  1.00  0.00    -0.302 C  
HETATM   14  C   UNL     1     -10.124   5.355  70.559  1.00  0.00    -0.236 C  
HETATM   15  H   UNL     1      -8.558   5.040  69.177  1.00  0.00     0.000 HD 
HETATM   16  C   UNL     1      -9.488   8.571  68.374  1.00  0.00    -0.141 C  
HETATM   17  N   UNL     1      -8.982   5.672  69.856  1.00  0.00    -0.127 N  
HETATM   18  C   UNL     1      -7.971   8.735  67.693  1.00  0.00    -0.106 C  
HETATM   19  C   UNL     1      -7.149   7.468  67.994  1.00  0.00    -0.084 C  
HETATM   20  C   UNL     1      -7.065   7.172  69.492  1.00  0.00    -0.071 C  
HETATM   21  C   UNL     1      -8.430   6.994  70.167  1.00  0.00    -0.139 C  
ENDROOT
BRANCH   4  22
HETATM   22  C   UNL     1      -9.422  12.208  66.667  1.00  0.00    -0.223 C  
HETATM   23  C   UNL     1     -12.584  13.941  65.343  1.00  0.00    -0.538 C  
HETATM   24  C   UNL     1     -10.386  15.062  65.648  1.00  0.00    -0.374 C  
HETATM   25  C   UNL     1     -11.280  13.930  66.177  1.00  0.00    -0.303 C  
HETATM   26  H   UNL     1     -11.089  11.894  65.487  1.00  0.00     0.000 HD 
HETATM   27  N   UNL     1     -10.619  12.593  66.063  1.00  0.00    -0.266 N  
HETATM   28  O   UNL     1      -8.675  13.056  67.156  1.00  0.00    -0.196 OA 
HETATM   29  C   UNL     1     -11.687  14.233  67.633  1.00  0.00    -0.421 C  
ENDBRANCH   4  22
TORSDOF 1
ENDMDL
MODEL       41
REMARK 921   NORMALIZED FREE ENERGY PREDICTED BY IDOCK:   -5.24 KCAL/MOL
REMARK 922        TOTAL FREE ENERGY PREDICTED BY IDOCK:   -4.61 KCAL/MOL
REMARK 923 INTER-LIGAND FREE ENERGY PREDICTED BY IDOCK:   -5.70 KCAL/MOL
REMARK 924 INTRA-LIGAND FREE ENERGY PREDICTED BY IDOCK:    1.10 KCAL/MOL
REMARK 927      BINDING AFFINITY PREDICTED BY RF-SCORE:    0.00 PKD
ROOT
HETATM    1  C   UNL     1      -7.018  14.457  69.066  1.00  0.00    -0.114 C  
HETATM    2  C   UNL     1      -6.071  13.670  68.348  1.00  0.00    -0.096 C  
HETATM    3  C   UNL     1      -6.591  14.747  67.465  1.00  0.00    -0.123 C  
HETATM    4  C   UNL     1      -7.780  16.115  68.419  1.00  0.00    -0.154 C  
HETATM    5  C   UNL     1     -11.563  14.574  66.783  1.00  0.00    -0.388 C  
HETATM    6  C   UNL     1      -6.425  16.126  68.352  1.00  0.00    -0.119 C  
HETATM    7  C   UNL     1     -10.379  13.728  66.299  1.00  0.00    -0.294 C  
HETATM    8  C   UNL     1     -10.295  13.774  64.764  1.00  0.00    -0.422 C  
HETATM    9  C   UNL     1      -6.980  16.639  66.611  1.00  0.00    -0.243 C  
HETATM   10  C   UNL     1      -5.226  16.745  69.001  1.00  0.00    -0.128 C  
HETATM   11  C   UNL     1     -10.182  12.688  63.981  1.00  0.00    -0.363 C  
HETATM   12  O   UNL     1     -10.782  10.409  63.905  1.00  0.00     0.231 OA 
HETATM   13  C   UNL     1      -8.551  15.838  66.205  1.00  0.00    -0.307 C  
HETATM   14  C   UNL     1     -10.351  11.343  64.563  1.00  0.00    -0.313 C  
HETATM   15  H   UNL     1      -9.266  10.596  66.215  1.00  0.00     0.000 HD 
HETATM   16  C   UNL     1      -8.990  14.276  66.813  1.00  0.00    -0.249 C  
HETATM   17  N   UNL     1      -9.958  11.267  65.882  1.00  0.00    -0.224 N  
HETATM   18  C   UNL     1      -8.661  13.914  68.411  1.00  0.00    -0.169 C  
HETATM   19  C   UNL     1      -8.867  12.404  68.634  1.00  0.00     0.035 C  
HETATM   20  C   UNL     1     -10.267  11.943  68.228  1.00  0.00    -0.207 C  
HETATM   21  C   UNL     1     -10.617  12.234  66.764  1.00  0.00    -0.224 C  
ENDROOT
BRANCH   4  22
HETATM   22  C   UNL     1      -8.058  17.765  68.575  1.00  0.00    -0.297 C  
HETATM   23  C   UNL     1     -10.622  20.005  66.798  1.00  0.00    -0.454 C  
HETATM   24  C   UNL     1      -8.460  20.804  67.730  1.00  0.00    -0.031 C  
HETATM   25  C   UNL     1      -9.563  19.748  67.897  1.00  0.00    -0.373 C  
HETATM   26  H   UNL     1      -9.417  17.782  67.019  1.00  0.00     0.000 HD 
HETATM   27  N   UNL     1      -9.031  18.355  67.769  1.00  0.00    -0.278 N  
HETATM   28  O   UNL     1      -7.367  18.459  69.322  1.00  0.00    -0.187 OA 
HETATM   29  C   UNL     1     -10.273  19.955  69.250  1.00  0.00    -0.212 C  
ENDBRANCH   4  22
TORSDOF 1
ENDMDL
MODEL       42
REMARK 921   NORMALIZED FREE ENERGY PREDICTED BY IDOCK:   -5.21 KCAL/MOL
REMARK 922        TOTAL FREE ENERGY PREDICTED BY IDOCK:   -4.58 KCAL/MOL
REMARK 923 INTER-LIGAND FREE ENERGY PREDICTED BY IDOCK:   -5.58 KCAL/MOL
REMARK 924 INTRA-LIGAND FREE ENERGY PREDICTED BY IDOCK:    1.00 KCAL/MOL
REMARK 927      BINDING AFFINITY PREDICTED BY RF-SCORE:    0.00 PKD
ROOT
HETATM    1  C   UNL     1      -7.190  13.614  67.362  1.00  0.00    -0.108 C  
HETATM    2  C   UNL     1      -6.712  13.832  68.687  1.00  0.00    -0.099 C  
HETATM    3  C   UNL     1      -7.568  12.617  68.664  1.00  0.00    -0.083 C  
HETATM    4  C   UNL     1      -8.138  12.026  66.787  1.00  0.00    -0.081 C  
HETATM    5  C   UNL     1     -12.272  13.489  67.138  1.00  0.00    -0.328 C  
HETATM    6  C   UNL     1      -6.976  11.716  67.417  1.00  0.00    -0.117 C  
HETATM    7  C   UNL     1     -11.475  13.808  68.408  1.00  0.00    -0.351 C  
HETATM    8  C   UNL     1     -12.128  13.124  69.622  1.00  0.00    -0.317 C  
HETATM    9  C   UNL     1      -8.280  10.661  68.304  1.00  0.00    -0.120 C  
HETATM   10  C   UNL     1      -5.601  11.190  67.144  1.00  0.00    -0.065 C  
HETATM   11  C   UNL     1     -12.420  13.749  70.775  1.00  0.00    -0.441 C  
HETATM   12  O   UNL     1     -13.026  15.868  71.611  1.00  0.00    -0.465 OA 
HETATM   13  C   UNL     1      -9.870  11.524  68.309  1.00  0.00    -0.203 C  
HETATM   14  C   UNL     1     -12.318  15.219  70.858  1.00  0.00    -0.377 C  
HETATM   15  H   UNL     1     -10.594  16.341  70.375  1.00  0.00     0.000 HD 
HETATM   16  C   UNL     1      -9.998  13.251  68.356  1.00  0.00    -0.226 C  
HETATM   17  N   UNL     1     -11.348  15.745  70.033  1.00  0.00    -0.320 N  
HETATM   18  C   UNL     1      -8.958  14.160  67.414  1.00  0.00    -0.205 C  
HETATM   19  C   UNL     1      -9.062  15.636  67.837  1.00  0.00    -0.185 C  
HETATM   20  C   UNL     1     -10.496  16.162  67.762  1.00  0.00    -0.295 C  
HETATM   21  C   UNL     1     -11.493  15.376  68.621  1.00  0.00    -0.346 C  
ENDROOT
BRANCH   4  22
HETATM   22  C   UNL     1      -8.277  10.675  65.797  1.00  0.00    -0.161 C  
HETATM   23  C   UNL     1      -6.094   7.520  65.623  1.00  0.00    -0.038 C  
HETATM   24  C   UNL     1      -7.444   8.404  63.732  1.00  0.00    -0.120 C  
HETATM   25  C   UNL     1      -7.370   8.319  65.264  1.00  0.00    -0.081 C  
HETATM   26  H   UNL     1      -6.489   9.882  66.464  1.00  0.00     0.000 HD 
HETATM   27  N   UNL     1      -7.314   9.672  65.900  1.00  0.00    -0.097 N  
HETATM   28  O   UNL     1      -9.160  10.600  64.941  1.00  0.00    -0.188 OA 
HETATM   29  C   UNL     1      -8.565   7.500  65.793  1.00  0.00    -0.158 C  
ENDBRANCH   4  22
TORSDOF 1
ENDMDL
MODEL       43
REMARK 921   NORMALIZED FREE ENERGY PREDICTED BY IDOCK:   -5.19 KCAL/MOL
REMARK 922        TOTAL FREE ENERGY PREDICTED BY IDOCK:   -4.56 KCAL/MOL
REMARK 923 INTER-LIGAND FREE ENERGY PREDICTED BY IDOCK:   -5.49 KCAL/MOL
REMARK 924 INTRA-LIGAND FREE ENERGY PREDICTED BY IDOCK:    0.93 KCAL/MOL
REMARK 927      BINDING AFFINITY PREDICTED BY RF-SCORE:    0.00 PKD
ROOT
HETATM    1  C   UNL     1     -10.155  12.306  64.342  1.00  0.00    -0.296 C  
HETATM    2  C   UNL     1     -11.368  11.563  64.240  1.00  0.00    -0.320 C  
HETATM    3  C   UNL     1     -11.219  12.081  65.626  1.00  0.00    -0.377 C  
HETATM    4  C   UNL     1      -9.649  13.374  65.876  1.00  0.00    -0.127 C  
HETATM    5  C   UNL     1      -7.063  10.476  67.945  1.00  0.00    -0.083 C  
HETATM    6  C   UNL     1     -10.895  13.686  65.437  1.00  0.00    -0.302 C  
HETATM    7  C   UNL     1      -8.389   9.824  67.538  1.00  0.00    -0.114 C  
HETATM    8  C   UNL     1      -9.132   9.321  68.788  1.00  0.00    -0.136 C  
HETATM    9  C   UNL     1     -11.123  13.372  67.294  1.00  0.00    -0.300 C  
HETATM   10  C   UNL     1     -11.649  14.769  64.731  1.00  0.00    -0.418 C  
HETATM   11  C   UNL     1      -9.642   8.085  68.917  1.00  0.00    -0.152 C  
HETATM   12  O   UNL     1      -9.280   5.866  68.209  1.00  0.00    -0.117 OA 
HETATM   13  C   UNL     1      -9.940  12.126  67.859  1.00  0.00    -0.200 C  
HETATM   14  C   UNL     1      -9.320   7.050  67.915  1.00  0.00    -0.123 C  
HETATM   15  H   UNL     1      -9.621   7.248  65.834  1.00  0.00     0.000 HD 
HETATM   16  C   UNL     1      -9.379  10.840  66.842  1.00  0.00    -0.179 C  
HETATM   17  N   UNL     1      -9.104   7.562  66.654  1.00  0.00    -0.151 N  
HETATM   18  C   UNL     1      -9.000  11.181  65.250  1.00  0.00    -0.134 C  
HETATM   19  C   UNL     1      -8.812   9.858  64.487  1.00  0.00    -0.238 C  
HETATM   20  C   UNL     1      -7.760   8.957  65.135  1.00  0.00    -0.102 C  
HETATM   21  C   UNL     1      -8.066   8.596  66.594  1.00  0.00    -0.100 C  
ENDROOT
BRANCH   4  22
HETATM   22  C   UNL     1      -9.230  14.846  66.569  1.00  0.00    -0.285 C  
HETATM   23  C   UNL     1      -6.005  15.881  68.380  1.00  0.00    -0.106 C  
HETATM   24  C   UNL     1      -8.229  16.923  68.759  1.00  0.00    -0.244 C  
HETATM   25  C   UNL     1      -7.361  16.210  67.711  1.00  0.00    -0.135 C  
HETATM   26  H   UNL     1      -7.484  14.083  67.369  1.00  0.00     0.000 HD 
HETATM   27  N   UNL     1      -7.999  14.951  67.217  1.00  0.00    -0.199 N  
HETATM   28  O   UNL     1     -10.017  15.793  66.579  1.00  0.00    -0.247 OA 
HETATM   29  C   UNL     1      -7.056  17.178  66.550  1.00  0.00    -0.303 C  
ENDBRANCH   4  22
TORSDOF 1
ENDMDL
MODEL       44
REMARK 921   NORMALIZED FREE ENERGY PREDICTED BY IDOCK:   -5.17 KCAL/MOL
REMARK 922        TOTAL FREE ENERGY PREDICTED BY IDOCK:   -4.54 KCAL/MOL
REMARK 923 INTER-LIGAND FREE ENERGY PREDICTED BY IDOCK:   -5.49 KCAL/MOL
REMARK 924 INTRA-LIGAND FREE ENERGY PREDICTED BY IDOCK:    0.94 KCAL/MOL
REMARK 927      BINDING AFFINITY PREDICTED BY RF-SCORE:    0.00 PKD
ROOT
HETATM    1  C   UNL     1     -12.094  10.026  71.677  1.00  0.00    -0.420 C  
HETATM    2  C   UNL     1     -13.284   9.667  70.978  1.00  0.00    -0.298 C  
HETATM    3  C   UNL     1     -12.132   8.918  70.412  1.00  0.00     0.184 C  
HETATM    4  C   UNL     1     -10.387   9.138  71.463  1.00  0.00    -0.414 C  
HETATM    5  C   UNL     1      -8.512  11.874  68.572  1.00  0.00    -0.113 C  
HETATM    6  C   UNL     1     -11.384   8.254  71.721  1.00  0.00    -0.350 C  
HETATM    7  C   UNL     1      -9.929  11.500  68.123  1.00  0.00    -0.197 C  
HETATM    8  C   UNL     1      -9.878  10.796  66.756  1.00  0.00    -0.233 C  
HETATM    9  C   UNL     1     -10.535   7.557  70.174  1.00  0.00    -0.226 C  
HETATM   10  C   UNL     1     -11.899   7.353  72.801  1.00  0.00    -0.107 C  
HETATM   11  C   UNL     1     -10.643  11.133  65.704  1.00  0.00    -0.286 C  
HETATM   12  O   UNL     1     -11.712  12.996  64.732  1.00  0.00    -0.319 OA 
HETATM   13  C   UNL     1      -9.878   8.910  69.169  1.00  0.00    -0.180 C  
HETATM   14  C   UNL     1     -11.445  12.371  65.746  1.00  0.00    -0.370 C  
HETATM   15  H   UNL     1     -12.840  12.856  67.257  1.00  0.00     0.000 HD 
HETATM   16  C   UNL     1     -10.626  10.472  69.099  1.00  0.00    -0.258 C  
HETATM   17  N   UNL     1     -11.860  12.707  67.017  1.00  0.00    -0.379 N  
HETATM   18  C   UNL     1     -11.199  11.153  70.514  1.00  0.00     0.153 C  
HETATM   19  C   UNL     1     -12.063  12.378  70.164  1.00  0.00    -0.366 C  
HETATM   20  C   UNL     1     -11.307  13.399  69.313  1.00  0.00    -0.314 C  
HETATM   21  C   UNL     1     -10.773  12.832  67.992  1.00  0.00    -0.230 C  
ENDROOT
BRANCH   4  22
HETATM   22  C   UNL     1      -9.091   8.275  72.093  1.00  0.00    -0.212 C  
HETATM   23  C   UNL     1      -5.317   8.897  71.734  1.00  0.00    -0.048 C  
HETATM   24  C   UNL     1      -6.343   6.676  72.174  1.00  0.00    -0.049 C  
HETATM   25  C   UNL     1      -6.528   8.186  72.385  1.00  0.00    -0.078 C  
HETATM   26  H   UNL     1      -7.709   9.399  71.046  1.00  0.00     0.000 HD 
HETATM   27  N   UNL     1      -7.798   8.687  71.771  1.00  0.00    -0.117 N  
HETATM   28  O   UNL     1      -9.268   7.253  72.758  1.00  0.00    -0.136 OA 
HETATM   29  C   UNL     1      -6.469   8.506  73.892  1.00  0.00    -0.128 C  
ENDBRANCH   4  22
TORSDOF 1
ENDMDL
MODEL       45
REMARK 921   NORMALIZED FREE ENERGY PREDICTED BY IDOCK:   -5.17 KCAL/MOL
REMARK 922        TOTAL FREE ENERGY PREDICTED BY IDOCK:   -4.54 KCAL/MOL
REMARK 923 INTER-LIGAND FREE ENERGY PREDICTED BY IDOCK:   -5.61 KCAL/MOL
REMARK 924 INTRA-LIGAND FREE ENERGY PREDICTED BY IDOCK:    1.07 KCAL/MOL
REMARK 927      BINDING AFFINITY PREDICTED BY RF-SCORE:    0.00 PKD
ROOT
HETATM    1  C   UNL     1      -8.171  10.274  69.389  1.00  0.00    -0.171 C  
HETATM    2  C   UNL     1      -6.781  10.074  69.142  1.00  0.00    -0.055 C  
HETATM    3  C   UNL     1      -7.516  10.097  67.849  1.00  0.00    -0.088 C  
HETATM    4  C   UNL     1      -9.491  10.617  68.015  1.00  0.00    -0.164 C  
HETATM    5  C   UNL     1     -11.034   6.534  67.466  1.00  0.00    -0.444 C  
HETATM    6  C   UNL     1      -8.434  11.464  67.919  1.00  0.00    -0.139 C  
HETATM    7  C   UNL     1      -9.502   6.541  67.444  1.00  0.00    -0.135 C  
HETATM    8  C   UNL     1      -8.993   6.010  66.092  1.00  0.00    -0.160 C  
HETATM    9  C   UNL     1      -8.618  10.750  66.170  1.00  0.00    -0.171 C  
HETATM   10  C   UNL     1      -8.058  12.896  68.140  1.00  0.00    -0.158 C  
HETATM   11  C   UNL     1      -8.058   5.056  65.958  1.00  0.00    -0.108 C  
HETATM   12  O   UNL     1      -7.215   3.145  67.052  1.00  0.00    -0.057 OA 
HETATM   13  C   UNL     1      -9.252   9.058  66.259  1.00  0.00    -0.258 C  
HETATM   14  C   UNL     1      -7.610   4.296  67.142  1.00  0.00    -0.077 C  
HETATM   15  H   UNL     1      -6.860   5.159  68.918  1.00  0.00     0.000 HD 
HETATM   16  C   UNL     1      -8.897   7.993  67.580  1.00  0.00    -0.129 C  
HETATM   17  N   UNL     1      -7.667   5.025  68.310  1.00  0.00    -0.082 N  
HETATM   18  C   UNL     1      -8.929   8.604  69.135  1.00  0.00    -0.142 C  
HETATM   19  C   UNL     1      -8.308   7.570  70.091  1.00  0.00    -0.134 C  
HETATM   20  C   UNL     1      -9.001   6.210  70.005  1.00  0.00    -0.148 C  
HETATM   21  C   UNL     1      -8.987   5.592  68.602  1.00  0.00    -0.111 C  
ENDROOT
BRANCH   4  22
HETATM   22  C   UNL     1     -10.678  11.587  67.327  1.00  0.00    -0.244 C  
HETATM   23  C   UNL     1     -10.328  14.662  65.053  1.00  0.00    -0.432 C  
HETATM   24  C   UNL     1     -12.275  14.220  66.534  1.00  0.00    -0.419 C  
HETATM   25  C   UNL     1     -11.166  13.542  65.716  1.00  0.00    -0.297 C  
HETATM   26  H   UNL     1      -9.292  12.934  66.597  1.00  0.00     0.000 HD 
HETATM   27  N   UNL     1     -10.282  12.687  66.568  1.00  0.00    -0.239 N  
HETATM   28  O   UNL     1     -11.873  11.385  67.548  1.00  0.00    -0.614 OA 
HETATM   29  C   UNL     1     -11.797  12.728  64.569  1.00  0.00    -0.436 C  
ENDBRANCH   4  22
TORSDOF 1
ENDMDL
MODEL       46
REMARK 921   NORMALIZED FREE ENERGY PREDICTED BY IDOCK:   -5.17 KCAL/MOL
REMARK 922        TOTAL FREE ENERGY PREDICTED BY IDOCK:   -4.54 KCAL/MOL
REMARK 923 INTER-LIGAND FREE ENERGY PREDICTED BY IDOCK:   -5.47 KCAL/MOL
REMARK 924 INTRA-LIGAND FREE ENERGY PREDICTED BY IDOCK:    0.94 KCAL/MOL
REMARK 927      BINDING AFFINITY PREDICTED BY RF-SCORE:    0.00 PKD
ROOT
HETATM    1  C   UNL     1      -9.053   7.937  66.990  1.00  0.00    -0.162 C  
HETATM    2  C   UNL     1     -10.309   7.303  66.756  1.00  0.00    -0.311 C  
HETATM    3  C   UNL     1     -10.519   8.536  67.560  1.00  0.00    -0.328 C  
HETATM    4  C   UNL     1      -8.843   9.693  67.778  1.00  0.00    -0.125 C  
HETATM    5  C   UNL     1      -8.081   8.522  71.950  1.00  0.00    -0.185 C  
HETATM    6  C   UNL     1      -9.712   9.712  66.735  1.00  0.00    -0.252 C  
HETATM    7  C   UNL     1      -9.304   7.784  71.395  1.00  0.00    -0.165 C  
HETATM    8  C   UNL     1     -10.550   8.131  72.229  1.00  0.00    -0.378 C  
HETATM    9  C   UNL     1     -10.659  10.561  68.143  1.00  0.00    -0.240 C  
HETATM   10  C   UNL     1      -9.830  10.185  65.320  1.00  0.00    -0.388 C  
HETATM   11  C   UNL     1     -11.399   7.221  72.735  1.00  0.00    -0.318 C  
HETATM   12  O   UNL     1     -11.450   5.004  73.537  1.00  0.00    -0.286 OA 
HETATM   13  C   UNL     1     -10.154   9.863  69.734  1.00  0.00    -0.274 C  
HETATM   14  C   UNL     1     -11.049   5.788  72.690  1.00  0.00    -0.280 C  
HETATM   15  H   UNL     1     -10.528   4.725  70.941  1.00  0.00     0.000 HD 
HETATM   16  C   UNL     1      -9.656   8.213  69.916  1.00  0.00    -0.175 C  
HETATM   17  N   UNL     1     -10.267   5.452  71.607  1.00  0.00    -0.202 N  
HETATM   18  C   UNL     1      -8.660   7.541  68.755  1.00  0.00    -0.129 C  
HETATM   19  C   UNL     1      -8.595   6.018  68.973  1.00  0.00    -0.120 C  
HETATM   20  C   UNL     1      -8.140   5.652  70.385  1.00  0.00    -0.105 C  
HETATM   21  C   UNL     1      -9.029   6.228  71.494  1.00  0.00    -0.142 C  
ENDROOT
BRANCH   4  22
HETATM   22  C   UNL     1      -8.298  11.281  67.705  1.00  0.00    -0.125 C  
HETATM   23  C   UNL     1      -6.141  13.257  70.194  1.00  0.00    -0.107 C  
HETATM   24  C   UNL     1      -7.756  14.282  68.607  1.00  0.00    -0.135 C  
HETATM   25  C   UNL     1      -6.820  13.082  68.814  1.00  0.00    -0.102 C  
HETATM   26  H   UNL     1      -7.517  11.203  69.616  1.00  0.00     0.000 HD 
HETATM   27  N   UNL     1      -7.559  11.781  68.776  1.00  0.00    -0.123 N  
HETATM   28  O   UNL     1      -8.608  12.019  66.769  1.00  0.00    -0.189 OA 
HETATM   29  C   UNL     1      -5.694  13.119  67.761  1.00  0.00    -0.129 C  
ENDBRANCH   4  22
TORSDOF 1
ENDMDL
MODEL       47
REMARK 921   NORMALIZED FREE ENERGY PREDICTED BY IDOCK:   -5.15 KCAL/MOL
REMARK 922        TOTAL FREE ENERGY PREDICTED BY IDOCK:   -4.52 KCAL/MOL
REMARK 923 INTER-LIGAND FREE ENERGY PREDICTED BY IDOCK:   -5.35 KCAL/MOL
REMARK 924 INTRA-LIGAND FREE ENERGY PREDICTED BY IDOCK:    0.83 KCAL/MOL
REMARK 927      BINDING AFFINITY PREDICTED BY RF-SCORE:    0.00 PKD
ROOT
HETATM    1  C   UNL     1      -7.319  10.023  68.341  1.00  0.00    -0.077 C  
HETATM    2  C   UNL     1      -6.884  10.547  69.594  1.00  0.00    -0.117 C  
HETATM    3  C   UNL     1      -8.225   9.924  69.755  1.00  0.00    -0.191 C  
HETATM    4  C   UNL     1      -8.886   8.911  68.102  1.00  0.00    -0.134 C  
HETATM    5  C   UNL     1     -11.771  11.994  66.864  1.00  0.00    -0.342 C  
HETATM    6  C   UNL     1      -8.074   8.430  69.077  1.00  0.00    -0.116 C  
HETATM    7  C   UNL     1     -11.007  12.439  68.116  1.00  0.00    -0.263 C  
HETATM    8  C   UNL     1     -11.991  12.673  69.275  1.00  0.00    -0.301 C  
HETATM    9  C   UNL     1      -9.784   8.507  69.895  1.00  0.00    -0.179 C  
HETATM   10  C   UNL     1      -7.124   7.308  69.361  1.00  0.00    -0.074 C  
HETATM   11  C   UNL     1     -12.012  13.779  70.037  1.00  0.00    -0.407 C  
HETATM   12  O   UNL     1     -11.547  16.088  69.934  1.00  0.00    -0.324 OA 
HETATM   13  C   UNL     1     -10.737   9.879  69.201  1.00  0.00    -0.247 C  
HETATM   14  C   UNL     1     -11.203  14.952  69.650  1.00  0.00    -0.275 C  
HETATM   15  H   UNL     1      -9.123  14.917  69.285  1.00  0.00     0.000 HD 
HETATM   16  C   UNL     1      -9.998  11.341  68.636  1.00  0.00    -0.210 C  
HETATM   17  N   UNL     1     -10.048  14.618  68.978  1.00  0.00    -0.228 N  
HETATM   18  C   UNL     1      -8.585  11.236  67.749  1.00  0.00    -0.126 C  
HETATM   19  C   UNL     1      -7.975  12.643  67.615  1.00  0.00    -0.169 C  
HETATM   20  C   UNL     1      -8.953  13.645  67.000  1.00  0.00    -0.244 C  
HETATM   21  C   UNL     1     -10.262  13.795  67.783  1.00  0.00    -0.241 C  
ENDROOT
BRANCH   4  22
HETATM   22  C   UNL     1      -9.608   7.474  67.618  1.00  0.00    -0.143 C  
HETATM   23  C   UNL     1      -8.001   4.169  66.502  1.00  0.00    -0.098 C  
HETATM   24  C   UNL     1     -10.264   4.935  65.818  1.00  0.00    -0.207 C  
HETATM   25  C   UNL     1      -9.220   5.014  66.942  1.00  0.00    -0.120 C  
HETATM   26  H   UNL     1      -7.799   6.632  67.083  1.00  0.00     0.000 HD 
HETATM   27  N   UNL     1      -8.790   6.421  67.211  1.00  0.00    -0.109 N  
HETATM   28  O   UNL     1     -10.834   7.369  67.544  1.00  0.00    -0.242 OA 
HETATM   29  C   UNL     1      -9.782   4.347  68.214  1.00  0.00    -0.171 C  
ENDBRANCH   4  22
TORSDOF 1
ENDMDL
MODEL       48
REMARK 921   NORMALIZED FREE ENERGY PREDICTED BY IDOCK:   -5.15 KCAL/MOL
REMARK 922        TOTAL FREE ENERGY PREDICTED BY IDOCK:   -4.52 KCAL/MOL
REMARK 923 INTER-LIGAND FREE ENERGY PREDICTED BY IDOCK:   -5.34 KCAL/MOL
REMARK 924 INTRA-LIGAND FREE ENERGY PREDICTED BY IDOCK:    0.83 KCAL/MOL
REMARK 927      BINDING AFFINITY PREDICTED BY RF-SCORE:    0.00 PKD
ROOT
HETATM    1  C   UNL     1     -10.878   8.940  68.316  1.00  0.00    -0.048 C  
HETATM    2  C   UNL     1     -10.228   8.898  69.585  1.00  0.00    -0.209 C  
HETATM    3  C   UNL     1      -9.341   9.566  68.596  1.00  0.00    -0.142 C  
HETATM    4  C   UNL     1     -10.223   9.925  66.783  1.00  0.00    -0.301 C  
HETATM    5  C   UNL     1      -8.149   6.669  64.672  1.00  0.00    -0.088 C  
HETATM    6  C   UNL     1     -10.295  10.708  67.888  1.00  0.00    -0.231 C  
HETATM    7  C   UNL     1      -7.755   6.691  66.153  1.00  0.00    -0.095 C  
HETATM    8  C   UNL     1      -6.239   6.917  66.289  1.00  0.00    -0.045 C  
HETATM    9  C   UNL     1      -8.529  10.972  67.247  1.00  0.00    -0.130 C  
HETATM   10  C   UNL     1     -11.088  11.835  68.475  1.00  0.00    -0.288 C  
HETATM   11  C   UNL     1      -5.428   6.163  67.050  1.00  0.00    -0.009 C  
HETATM   12  O   UNL     1      -5.199   3.964  67.870  1.00  0.00    -0.007 OA 
HETATM   13  C   UNL     1      -7.933   9.464  66.445  1.00  0.00    -0.108 C  
HETATM   14  C   UNL     1      -5.936   4.912  67.647  1.00  0.00    -0.023 C  
HETATM   15  H   UNL     1      -7.658   4.765  68.862  1.00  0.00     0.000 HD 
HETATM   16  C   UNL     1      -8.429   7.880  66.945  1.00  0.00    -0.128 C  
HETATM   17  N   UNL     1      -7.283   4.953  67.932  1.00  0.00    -0.069 N  
HETATM   18  C   UNL     1     -10.036   7.624  67.324  1.00  0.00    -0.306 C  
HETATM   19  C   UNL     1     -10.176   6.251  68.006  1.00  0.00    -0.205 C  
HETATM   20  C   UNL     1      -9.611   5.117  67.150  1.00  0.00    -0.156 C  
HETATM   21  C   UNL     1      -8.132   5.291  66.786  1.00  0.00    -0.105 C  
ENDROOT
BRANCH   4  22
HETATM   22  C   UNL     1     -10.416  11.104  65.602  1.00  0.00    -0.248 C  
HETATM   23  C   UNL     1     -12.716  14.180  65.552  1.00  0.00    -0.468 C  
HETATM   24  C   UNL     1     -11.874  13.019  63.523  1.00  0.00    -0.582 C  
HETATM   25  C   UNL     1     -11.544  13.342  64.988  1.00  0.00    -0.317 C  
HETATM   26  H   UNL     1     -11.999  11.981  66.599  1.00  0.00     0.000 HD 
HETATM   27  N   UNL     1     -11.365  12.105  65.809  1.00  0.00    -0.344 N  
HETATM   28  O   UNL     1      -9.796  11.050  64.539  1.00  0.00    -0.243 OA 
HETATM   29  C   UNL     1     -10.293  14.241  65.047  1.00  0.00    -0.448 C  
ENDBRANCH   4  22
TORSDOF 1
ENDMDL
MODEL       49
REMARK 921   NORMALIZED FREE ENERGY PREDICTED BY IDOCK:   -5.13 KCAL/MOL
REMARK 922        TOTAL FREE ENERGY PREDICTED BY IDOCK:   -4.49 KCAL/MOL
REMARK 923 INTER-LIGAND FREE ENERGY PREDICTED BY IDOCK:   -5.46 KCAL/MOL
REMARK 924 INTRA-LIGAND FREE ENERGY PREDICTED BY IDOCK:    0.97 KCAL/MOL
REMARK 927      BINDING AFFINITY PREDICTED BY RF-SCORE:    0.00 PKD
ROOT
HETATM    1  C   UNL     1     -11.522  10.727  68.327  1.00  0.00    -0.353 C  
HETATM    2  C   UNL     1     -11.161  10.348  69.654  1.00  0.00    -0.333 C  
HETATM    3  C   UNL     1     -10.032  11.082  69.024  1.00  0.00    -0.184 C  
HETATM    4  C   UNL     1     -10.477  11.907  67.202  1.00  0.00    -0.249 C  
HETATM    5  C   UNL     1      -8.285   8.904  64.850  1.00  0.00    -0.161 C  
HETATM    6  C   UNL     1     -10.715  12.455  68.421  1.00  0.00    -0.254 C  
HETATM    7  C   UNL     1      -8.213   8.578  66.346  1.00  0.00    -0.108 C  
HETATM    8  C   UNL     1      -6.746   8.576  66.812  1.00  0.00    -0.061 C  
HETATM    9  C   UNL     1      -8.837  12.616  68.198  1.00  0.00    -0.194 C  
HETATM   10  C   UNL     1     -11.516  13.533  69.083  1.00  0.00    -0.345 C  
HETATM   11  C   UNL     1      -6.181   7.588  67.526  1.00  0.00    -0.049 C  
HETATM   12  O   UNL     1      -6.317   5.259  67.864  1.00  0.00    -0.037 OA 
HETATM   13  C   UNL     1      -8.214  11.235  67.209  1.00  0.00    -0.140 C  
HETATM   14  C   UNL     1      -6.907   6.318  67.723  1.00  0.00    -0.066 C  
HETATM   15  H   UNL     1      -8.853   6.151  68.527  1.00  0.00     0.000 HD 
HETATM   16  C   UNL     1      -8.936   9.660  67.241  1.00  0.00    -0.146 C  
HETATM   17  N   UNL     1      -8.276   6.473  67.750  1.00  0.00    -0.115 N  
HETATM   18  C   UNL     1     -10.603   9.540  67.244  1.00  0.00    -0.317 C  
HETATM   19  C   UNL     1     -10.999   8.087  67.564  1.00  0.00     0.035 C  
HETATM   20  C   UNL     1     -10.364   7.085  66.600  1.00  0.00    -0.215 C  
HETATM   21  C   UNL     1      -8.832   7.139  66.569  1.00  0.00    -0.141 C  
ENDROOT
BRANCH   4  22
HETATM   22  C   UNL     1     -10.316  13.314  66.299  1.00  0.00    -0.290 C  
HETATM   23  C   UNL     1     -10.608  16.985  67.392  1.00  0.00    -0.289 C  
HETATM   24  C   UNL     1     -11.031  16.165  65.084  1.00  0.00    -0.327 C  
HETATM   25  C   UNL     1     -10.227  15.892  66.364  1.00  0.00    -0.301 C  
HETATM   26  H   UNL     1     -10.904  14.511  67.877  1.00  0.00     0.000 HD 
HETATM   27  N   UNL     1     -10.519  14.540  66.933  1.00  0.00    -0.267 N  
HETATM   28  O   UNL     1     -10.103  13.273  65.086  1.00  0.00    -0.288 OA 
HETATM   29  C   UNL     1      -8.722  16.066  66.074  1.00  0.00    -0.267 C  
ENDBRANCH   4  22
TORSDOF 1
ENDMDL
MODEL       50
REMARK 921   NORMALIZED FREE ENERGY PREDICTED BY IDOCK:   -5.09 KCAL/MOL
REMARK 922        TOTAL FREE ENERGY PREDICTED BY IDOCK:   -4.46 KCAL/MOL
REMARK 923 INTER-LIGAND FREE ENERGY PREDICTED BY IDOCK:   -5.30 KCAL/MOL
REMARK 924 INTRA-LIGAND FREE ENERGY PREDICTED BY IDOCK:    0.84 KCAL/MOL
REMARK 927      BINDING AFFINITY PREDICTED BY RF-SCORE:    0.00 PKD
ROOT
HETATM    1  C   UNL     1     -11.128  12.494  65.916  1.00  0.00    -0.334 C  
HETATM    2  C   UNL     1     -10.326  13.039  64.870  1.00  0.00    -0.343 C  
HETATM    3  C   UNL     1      -9.448  12.554  65.968  1.00  0.00    -0.154 C  
HETATM    4  C   UNL     1     -10.432  11.524  67.440  1.00  0.00    -0.240 C  
HETATM    5  C   UNL     1     -10.308  14.796  70.379  1.00  0.00     0.302 C  
HETATM    6  C   UNL     1      -9.967  11.020  66.268  1.00  0.00    -0.269 C  
HETATM    7  C   UNL     1      -9.667  15.231  69.056  1.00  0.00    -0.234 C  
HETATM    8  C   UNL     1      -8.195  15.616  69.289  1.00  0.00    -0.253 C  
HETATM    9  C   UNL     1      -8.403  11.299  67.307  1.00  0.00    -0.145 C  
HETATM   10  C   UNL     1     -10.104   9.829  65.370  1.00  0.00    -0.196 C  
HETATM   11  C   UNL     1      -7.635  16.757  68.854  1.00  0.00    -0.239 C  
HETATM   12  O   UNL     1      -8.174  19.004  68.385  1.00  0.00    -0.320 OA 
HETATM   13  C   UNL     1      -8.638  12.717  68.405  1.00  0.00    -0.122 C  
HETATM   14  C   UNL     1      -8.486  17.827  68.298  1.00  0.00    -0.277 C  
HETATM   15  H   UNL     1      -9.854  17.579  66.708  1.00  0.00     0.000 HD 
HETATM   16  C   UNL     1      -9.633  14.072  67.984  1.00  0.00    -0.217 C  
HETATM   17  N   UNL     1      -9.619  17.352  67.674  1.00  0.00    -0.257 N  
HETATM   18  C   UNL     1     -11.102  13.789  67.238  1.00  0.00    -0.319 C  
HETATM   19  C   UNL     1     -11.658  15.124  66.709  1.00  0.00    -0.136 C  
HETATM   20  C   UNL     1     -11.779  16.179  67.808  1.00  0.00     0.208 C  
HETATM   21  C   UNL     1     -10.456  16.492  68.517  1.00  0.00    -0.302 C  
ENDROOT
BRANCH   4  22
HETATM   22  C   UNL     1     -10.346  10.137  68.384  1.00  0.00    -0.183 C  
HETATM   23  C   UNL     1     -10.869   6.460  67.407  1.00  0.00    -0.457 C  
HETATM   24  C   UNL     1     -11.217   7.373  69.693  1.00  0.00    -0.065 C  
HETATM   25  C   UNL     1     -10.412   7.558  68.397  1.00  0.00    -0.175 C  
HETATM   26  H   UNL     1     -11.022   8.932  66.849  1.00  0.00     0.000 HD 
HETATM   27  N   UNL     1     -10.629   8.908  67.790  1.00  0.00    -0.231 N  
HETATM   28  O   UNL     1     -10.117  10.203  69.593  1.00  0.00    -0.218 OA 
HETATM   29  C   UNL     1      -8.918   7.302  68.679  1.00  0.00    -0.128 C  
ENDBRANCH   4  22
TORSDOF 1
ENDMDL
MODEL       51
REMARK 921   NORMALIZED FREE ENERGY PREDICTED BY IDOCK:   -5.08 KCAL/MOL
REMARK 922        TOTAL FREE ENERGY PREDICTED BY IDOCK:   -4.45 KCAL/MOL
REMARK 923 INTER-LIGAND FREE ENERGY PREDICTED BY IDOCK:   -5.39 KCAL/MOL
REMARK 924 INTRA-LIGAND FREE ENERGY PREDICTED BY IDOCK:    0.94 KCAL/MOL
REMARK 927      BINDING AFFINITY PREDICTED BY RF-SCORE:    0.00 PKD
ROOT
HETATM    1  C   UNL     1     -11.529  15.303  69.664  1.00  0.00    -0.321 C  
HETATM    2  C   UNL     1     -10.932  14.992  70.921  1.00  0.00    -0.165 C  
HETATM    3  C   UNL     1      -9.868  15.300  69.929  1.00  0.00    -0.137 C  
HETATM    4  C   UNL     1     -10.567  16.003  68.137  1.00  0.00    -0.286 C  
HETATM    5  C   UNL     1      -9.886  12.253  65.938  1.00  0.00    -0.266 C  
HETATM    6  C   UNL     1     -10.329  16.732  69.256  1.00  0.00    -0.309 C  
HETATM    7  C   UNL     1      -9.499  12.094  67.412  1.00  0.00    -0.179 C  
HETATM    8  C   UNL     1      -8.008  11.731  67.527  1.00  0.00    -0.148 C  
HETATM    9  C   UNL     1      -8.599  16.328  68.590  1.00  0.00    -0.222 C  
HETATM   10  C   UNL     1     -10.636  18.061  69.874  1.00  0.00     1.067 C  
HETATM   11  C   UNL     1      -7.533  10.712  68.262  1.00  0.00    -0.091 C  
HETATM   12  O   UNL     1      -8.139   8.571  69.041  1.00  0.00    -0.111 OA 
HETATM   13  C   UNL     1      -8.620  14.724  67.754  1.00  0.00    -0.169 C  
HETATM   14  C   UNL     1      -8.467   9.731  68.847  1.00  0.00    -0.129 C  
HETATM   15  H   UNL     1     -10.108  10.214  70.087  1.00  0.00     0.000 HD 
HETATM   16  C   UNL     1      -9.670  13.431  68.235  1.00  0.00    -0.226 C  
HETATM   17  N   UNL     1      -9.698  10.268  69.155  1.00  0.00    -0.207 N  
HETATM   18  C   UNL     1     -11.253  13.789  68.636  1.00  0.00    -0.308 C  
HETATM   19  C   UNL     1     -11.891  12.554  69.298  1.00  0.00    -0.360 C  
HETATM   20  C   UNL     1     -11.802  11.310  68.414  1.00  0.00    -0.331 C  
HETATM   21  C   UNL     1     -10.369  10.924  68.028  1.00  0.00    -0.185 C  
ENDROOT
BRANCH   4  22
HETATM   22  C   UNL     1     -10.314  17.194  66.979  1.00  0.00    -0.308 C  
HETATM   23  C   UNL     1      -9.700  20.959  67.420  1.00  0.00    -0.367 C  
HETATM   24  C   UNL     1     -10.690  19.922  65.390  1.00  0.00    -0.180 C  
HETATM   25  C   UNL     1      -9.729  19.672  66.562  1.00  0.00    -0.399 C  
HETATM   26  H   UNL     1     -10.363  18.707  68.385  1.00  0.00     0.000 HD 
HETATM   27  N   UNL     1     -10.161  18.513  67.404  1.00  0.00    -0.335 N  
HETATM   28  O   UNL     1     -10.341  16.930  65.776  1.00  0.00    -0.459 OA 
HETATM   29  C   UNL     1      -8.299  19.471  66.021  1.00  0.00    -0.261 C  
ENDBRANCH   4  22
TORSDOF 1
ENDMDL
MODEL       52
REMARK 921   NORMALIZED FREE ENERGY PREDICTED BY IDOCK:   -5.05 KCAL/MOL
REMARK 922        TOTAL FREE ENERGY PREDICTED BY IDOCK:   -4.42 KCAL/MOL
REMARK 923 INTER-LIGAND FREE ENERGY PREDICTED BY IDOCK:   -5.55 KCAL/MOL
REMARK 924 INTRA-LIGAND FREE ENERGY PREDICTED BY IDOCK:    1.14 KCAL/MOL
REMARK 927      BINDING AFFINITY PREDICTED BY RF-SCORE:    0.00 PKD
ROOT
HETATM    1  C   UNL     1      -6.950  11.600  67.505  1.00  0.00    -0.104 C  
HETATM    2  C   UNL     1      -6.473  11.958  68.800  1.00  0.00    -0.071 C  
HETATM    3  C   UNL     1      -7.619  11.021  68.936  1.00  0.00    -0.134 C  
HETATM    4  C   UNL     1      -8.265  10.220  67.164  1.00  0.00    -0.121 C  
HETATM    5  C   UNL     1     -11.873  12.722  66.878  1.00  0.00    -0.440 C  
HETATM    6  C   UNL     1      -7.248   9.764  67.938  1.00  0.00    -0.084 C  
HETATM    7  C   UNL     1     -11.061  13.083  68.127  1.00  0.00    -0.285 C  
HETATM    8  C   UNL     1     -11.910  12.852  69.390  1.00  0.00    -0.371 C  
HETATM    9  C   UNL     1      -8.812   9.278  68.895  1.00  0.00    -0.135 C  
HETATM   10  C   UNL     1      -6.053   8.862  67.888  1.00  0.00    -0.051 C  
HETATM   11  C   UNL     1     -12.063  13.754  70.373  1.00  0.00    -0.421 C  
HETATM   12  O   UNL     1     -12.113  16.083  70.737  1.00  0.00    -0.380 OA 
HETATM   13  C   UNL     1     -10.117  10.497  68.602  1.00  0.00    -0.190 C  
HETATM   14  C   UNL     1     -11.578  15.135  70.184  1.00  0.00    -0.292 C  
HETATM   15  H   UNL     1      -9.604  15.659  69.644  1.00  0.00     0.000 HD 
HETATM   16  C   UNL     1      -9.784  12.172  68.308  1.00  0.00    -0.216 C  
HETATM   17  N   UNL     1     -10.478  15.217  69.359  1.00  0.00    -0.246 N  
HETATM   18  C   UNL     1      -8.510  12.574  67.303  1.00  0.00    -0.185 C  
HETATM   19  C   UNL     1      -8.234  14.084  67.426  1.00  0.00    -0.203 C  
HETATM   20  C   UNL     1      -9.473  14.928  67.131  1.00  0.00    -0.231 C  
HETATM   21  C   UNL     1     -10.670  14.614  68.037  1.00  0.00    -0.246 C  
ENDROOT
BRANCH   4  22
HETATM   22  C   UNL     1      -8.725   8.775  66.441  1.00  0.00    -0.139 C  
HETATM   23  C   UNL     1      -8.547   5.184  67.793  1.00  0.00    -0.103 C  
HETATM   24  C   UNL     1      -8.519   5.784  65.381  1.00  0.00    -0.151 C  
HETATM   25  C   UNL     1      -9.027   6.232  66.760  1.00  0.00    -0.125 C  
HETATM   26  H   UNL     1      -7.944   7.643  67.982  1.00  0.00     0.000 HD 
HETATM   27  N   UNL     1      -8.510   7.585  67.135  1.00  0.00    -0.120 N  
HETATM   28  O   UNL     1      -9.169   8.750  65.293  1.00  0.00    -0.157 OA 
HETATM   29  C   UNL     1     -10.568   6.196  66.778  1.00  0.00    -0.351 C  
ENDBRANCH   4  22
TORSDOF 1
ENDMDL
MODEL       53
REMARK 921   NORMALIZED FREE ENERGY PREDICTED BY IDOCK:   -4.78 KCAL/MOL
REMARK 922        TOTAL FREE ENERGY PREDICTED BY IDOCK:   -4.13 KCAL/MOL
REMARK 923 INTER-LIGAND FREE ENERGY PREDICTED BY IDOCK:   -5.13 KCAL/MOL
REMARK 924 INTRA-LIGAND FREE ENERGY PREDICTED BY IDOCK:    1.00 KCAL/MOL
REMARK 927      BINDING AFFINITY PREDICTED BY RF-SCORE:    0.00 PKD
ROOT
HETATM    1  C   UNL     1     -11.269   7.559  70.386  1.00  0.00    -0.270 C  
HETATM    2  C   UNL     1     -10.784   7.336  71.708  1.00  0.00    -0.243 C  
HETATM    3  C   UNL     1      -9.825   8.197  70.966  1.00  0.00    -0.212 C  
HETATM    4  C   UNL     1     -10.493   8.811  69.129  1.00  0.00    -0.230 C  
HETATM    5  C   UNL     1      -7.959   6.044  66.831  1.00  0.00    -0.102 C  
HETATM    6  C   UNL     1     -10.755   9.397  70.325  1.00  0.00    -0.299 C  
HETATM    7  C   UNL     1      -7.758   5.839  68.336  1.00  0.00    -0.096 C  
HETATM    8  C   UNL     1      -6.289   6.106  68.710  1.00  0.00    -0.041 C  
HETATM    9  C   UNL     1      -8.943   9.842  69.978  1.00  0.00    -0.255 C  
HETATM   10  C   UNL     1     -11.687  10.376  70.970  1.00  0.00    -0.430 C  
HETATM   11  C   UNL     1      -5.533   5.274  69.445  1.00  0.00    -0.007 C  
HETATM   12  O   UNL     1      -5.266   2.982  69.930  1.00  0.00    -0.007 OA 
HETATM   13  C   UNL     1      -8.153   8.515  69.036  1.00  0.00    -0.115 C  
HETATM   14  C   UNL     1      -6.029   3.920  69.763  1.00  0.00    -0.022 C  
HETATM   15  H   UNL     1      -7.877   3.498  70.695  1.00  0.00     0.000 HD 
HETATM   16  C   UNL     1      -8.603   6.850  69.207  1.00  0.00    -0.132 C  
HETATM   17  N   UNL     1      -7.401   3.854  69.866  1.00  0.00    -0.045 N  
HETATM   18  C   UNL     1     -10.225   6.463  69.321  1.00  0.00    -0.229 C  
HETATM   19  C   UNL     1     -10.359   4.991  69.752  1.00  0.00    -0.286 C  
HETATM   20  C   UNL     1      -9.617   4.041  68.812  1.00  0.00    -0.201 C  
HETATM   21  C   UNL     1      -8.119   4.338  68.683  1.00  0.00    -0.076 C  
ENDROOT
BRANCH   4  22
HETATM   22  C   UNL     1     -10.612  10.160  68.135  1.00  0.00    -0.223 C  
HETATM   23  C   UNL     1     -11.103  13.857  69.054  1.00  0.00    -0.302 C  
HETATM   24  C   UNL     1     -11.785  12.841  66.891  1.00  0.00    -0.447 C  
HETATM   25  C   UNL     1     -10.774  12.734  68.042  1.00  0.00    -0.230 C  
HETATM   26  H   UNL     1     -11.073  11.406  69.717  1.00  0.00     0.000 HD 
HETATM   27  N   UNL     1     -10.839  11.404  68.724  1.00  0.00    -0.197 N  
HETATM   28  O   UNL     1     -10.582  10.052  66.908  1.00  0.00    -0.236 OA 
HETATM   29  C   UNL     1      -9.356  13.022  67.510  1.00  0.00    -0.200 C  
ENDBRANCH   4  22
TORSDOF 1
ENDMDL
MODEL       54
REMARK 921   NORMALIZED FREE ENERGY PREDICTED BY IDOCK:   -4.76 KCAL/MOL
REMARK 922        TOTAL FREE ENERGY PREDICTED BY IDOCK:   -4.10 KCAL/MOL
REMARK 923 INTER-LIGAND FREE ENERGY PREDICTED BY IDOCK:   -4.94 KCAL/MOL
REMARK 924 INTRA-LIGAND FREE ENERGY PREDICTED BY IDOCK:    0.84 KCAL/MOL
REMARK 927      BINDING AFFINITY PREDICTED BY RF-SCORE:    0.00 PKD
ROOT
HETATM    1  C   UNL     1      -6.491  14.549  67.829  1.00  0.00    -0.181 C  
HETATM    2  C   UNL     1      -6.196  15.177  69.075  1.00  0.00    -0.099 C  
HETATM    3  C   UNL     1      -7.636  14.808  69.034  1.00  0.00    -0.141 C  
HETATM    4  C   UNL     1      -8.169  13.679  67.409  1.00  0.00    -0.187 C  
HETATM    5  C   UNL     1     -10.166  16.963  65.269  1.00  0.00     0.080 C  
HETATM    6  C   UNL     1      -7.646  13.225  68.577  1.00  0.00    -0.128 C  
HETATM    7  C   UNL     1      -9.567  17.462  66.589  1.00  0.00    -0.283 C  
HETATM    8  C   UNL     1     -10.682  18.020  67.492  1.00  0.00    -0.352 C  
HETATM    9  C   UNL     1      -9.430  13.694  69.020  1.00  0.00     0.247 C  
HETATM   10  C   UNL     1      -6.986  12.020  69.173  1.00  0.00    -0.066 C  
HETATM   11  C   UNL     1     -10.632  19.217  68.101  1.00  0.00    -0.342 C  
HETATM   12  O   UNL     1      -9.736  21.380  67.828  1.00  0.00    -0.019 OA 
HETATM   13  C   UNL     1      -9.974  15.083  67.995  1.00  0.00    -0.219 C  
HETATM   14  C   UNL     1      -9.565  20.174  67.752  1.00  0.00    -0.378 C  
HETATM   15  H   UNL     1      -7.495  19.754  67.820  1.00  0.00     0.000 HD 
HETATM   16  C   UNL     1      -8.888  16.307  67.425  1.00  0.00    -0.198 C  
HETATM   17  N   UNL     1      -8.390  19.563  67.369  1.00  0.00    -0.287 N  
HETATM   18  C   UNL     1      -7.385  15.847  66.859  1.00  0.00    -0.207 C  
HETATM   19  C   UNL     1      -6.510  17.103  66.688  1.00  0.00    -0.267 C  
HETATM   20  C   UNL     1      -7.160  18.145  65.778  1.00  0.00    -0.256 C  
HETATM   21  C   UNL     1      -8.537  18.617  66.259  1.00  0.00    -0.217 C  
ENDROOT
BRANCH   4  22
HETATM   22  C   UNL     1      -9.047  12.319  66.959  1.00  0.00    -0.201 C  
HETATM   23  C   UNL     1      -8.263   8.598  67.496  1.00  0.00    -0.110 C  
HETATM   24  C   UNL     1      -9.683   9.487  65.660  1.00  0.00    -0.361 C  
HETATM   25  C   UNL     1      -9.220   9.748  67.101  1.00  0.00    -0.138 C  
HETATM   26  H   UNL     1      -7.546  11.032  67.558  1.00  0.00     0.000 HD 
HETATM   27  N   UNL     1      -8.513  11.060  67.234  1.00  0.00    -0.128 N  
HETATM   28  O   UNL     1     -10.100  12.420  66.329  1.00  0.00    -0.231 OA 
HETATM   29  C   UNL     1     -10.429   9.663  68.054  1.00  0.00    -0.276 C  
ENDBRANCH   4  22
TORSDOF 1
ENDMDL
MODEL       55
REMARK 921   NORMALIZED FREE ENERGY PREDICTED BY IDOCK:   -4.70 KCAL/MOL
REMARK 922        TOTAL FREE ENERGY PREDICTED BY IDOCK:   -4.04 KCAL/MOL
REMARK 923 INTER-LIGAND FREE ENERGY PREDICTED BY IDOCK:   -5.01 KCAL/MOL
REMARK 924 INTRA-LIGAND FREE ENERGY PREDICTED BY IDOCK:    0.96 KCAL/MOL
REMARK 927      BINDING AFFINITY PREDICTED BY RF-SCORE:    0.00 PKD
ROOT
HETATM    1  C   UNL     1     -10.917  11.114  69.924  1.00  0.00    -0.162 C  
HETATM    2  C   UNL     1     -11.951  11.108  68.942  1.00  0.00    -0.367 C  
HETATM    3  C   UNL     1     -11.449   9.722  69.141  1.00  0.00     0.049 C  
HETATM    4  C   UNL     1     -10.129   9.522  70.695  1.00  0.00    -0.353 C  
HETATM    5  C   UNL     1      -6.556   9.185  68.149  1.00  0.00    -0.060 C  
HETATM    6  C   UNL     1     -11.483   9.500  70.774  1.00  0.00    -0.378 C  
HETATM    7  C   UNL     1      -7.810   9.401  67.295  1.00  0.00    -0.099 C  
HETATM    8  C   UNL     1      -8.008   8.210  66.342  1.00  0.00    -0.104 C  
HETATM    9  C   UNL     1     -11.038   7.832  69.987  1.00  0.00    -0.182 C  
HETATM   10  C   UNL     1     -12.600   9.621  71.764  1.00  0.00    -0.497 C  
HETATM   11  C   UNL     1      -8.229   8.327  65.022  1.00  0.00    -0.160 C  
HETATM   12  O   UNL     1      -7.744   9.739  63.197  1.00  0.00    -0.122 OA 
HETATM   13  C   UNL     1      -9.541   8.003  68.985  1.00  0.00    -0.156 C  
HETATM   14  C   UNL     1      -8.079   9.641  64.367  1.00  0.00    -0.141 C  
HETATM   15  H   UNL     1      -9.071  11.409  64.963  1.00  0.00     0.000 HD 
HETATM   16  C   UNL     1      -9.131   9.471  68.160  1.00  0.00    -0.128 C  
HETATM   17  N   UNL     1      -8.376  10.700  65.198  1.00  0.00    -0.152 N  
HETATM   18  C   UNL     1      -9.355  10.927  68.949  1.00  0.00    -0.169 C  
HETATM   19  C   UNL     1      -9.202  12.074  67.933  1.00  0.00    -0.190 C  
HETATM   20  C   UNL     1      -7.860  12.030  67.204  1.00  0.00    -0.168 C  
HETATM   21  C   UNL     1      -7.607  10.721  66.446  1.00  0.00    -0.141 C  
ENDROOT
BRANCH   4  22
HETATM   22  C   UNL     1      -9.764   8.557  72.021  1.00  0.00    -0.307 C  
HETATM   23  C   UNL     1      -6.517   6.701  72.893  1.00  0.00    -0.066 C  
HETATM   24  C   UNL     1      -8.778   6.025  73.674  1.00  0.00    -0.124 C  
HETATM   25  C   UNL     1      -7.925   7.232  73.253  1.00  0.00    -0.105 C  
HETATM   26  H   UNL     1      -7.935   8.003  71.238  1.00  0.00     0.000 HD 
HETATM   27  N   UNL     1      -8.510   7.951  72.079  1.00  0.00    -0.122 N  
HETATM   28  O   UNL     1     -10.607   8.319  72.887  1.00  0.00    -0.320 OA 
HETATM   29  C   UNL     1      -7.743   8.178  74.457  1.00  0.00    -0.285 C  
ENDBRANCH   4  22
TORSDOF 1
ENDMDL
MODEL       56
REMARK 921   NORMALIZED FREE ENERGY PREDICTED BY IDOCK:   -4.70 KCAL/MOL
REMARK 922        TOTAL FREE ENERGY PREDICTED BY IDOCK:   -4.04 KCAL/MOL
REMARK 923 INTER-LIGAND FREE ENERGY PREDICTED BY IDOCK:   -5.05 KCAL/MOL
REMARK 924 INTRA-LIGAND FREE ENERGY PREDICTED BY IDOCK:    1.01 KCAL/MOL
REMARK 927      BINDING AFFINITY PREDICTED BY RF-SCORE:    0.00 PKD
ROOT
HETATM    1  C   UNL     1      -7.871  13.948  68.498  1.00  0.00    -0.139 C  
HETATM    2  C   UNL     1      -7.215  13.135  67.527  1.00  0.00    -0.156 C  
HETATM    3  C   UNL     1      -7.576  14.442  66.917  1.00  0.00     0.370 C  
HETATM    4  C   UNL     1      -8.310  15.817  68.246  1.00  0.00    -0.163 C  
HETATM    5  C   UNL     1     -12.505  15.406  66.983  1.00  0.00     1.250 C  
HETATM    6  C   UNL     1      -7.004  15.567  67.975  1.00  0.00    -0.144 C  
HETATM    7  C   UNL     1     -11.606  14.445  66.197  1.00  0.00    -0.372 C  
HETATM    8  C   UNL     1     -11.690  14.761  64.693  1.00  0.00    -0.426 C  
HETATM    9  C   UNL     1      -7.625  16.499  66.443  1.00  0.00    -0.249 C  
HETATM   10  C   UNL     1      -5.630  15.798  68.524  1.00  0.00    -0.102 C  
HETATM   11  C   UNL     1     -11.916  13.842  63.739  1.00  0.00    -0.365 C  
HETATM   12  O   UNL     1     -13.018  11.786  63.395  1.00  0.00    -0.646 OA 
HETATM   13  C   UNL     1      -9.372  16.123  66.160  1.00  0.00    -0.372 C  
HETATM   14  C   UNL     1     -12.315  12.473  64.120  1.00  0.00    -0.462 C  
HETATM   15  H   UNL     1     -11.244  11.226  65.446  1.00  0.00     0.000 HD 
HETATM   16  C   UNL     1     -10.079  14.595  66.572  1.00  0.00    -0.286 C  
HETATM   17  N   UNL     1     -11.800  12.073  65.334  1.00  0.00    -0.277 N  
HETATM   18  C   UNL     1      -9.658  13.880  68.023  1.00  0.00    -0.219 C  
HETATM   19  C   UNL     1     -10.173  12.429  68.032  1.00  0.00    -0.219 C  
HETATM   20  C   UNL     1     -11.678  12.344  67.777  1.00  0.00    -0.413 C  
HETATM   21  C   UNL     1     -12.119  12.970  66.449  1.00  0.00    -0.358 C  
ENDROOT
BRANCH   4  22
HETATM   22  C   UNL     1      -8.188  17.429  68.702  1.00  0.00    -0.264 C  
HETATM   23  C   UNL     1      -5.175  19.807  68.550  1.00  0.00    -0.206 C  
HETATM   24  C   UNL     1      -7.071  20.035  70.142  1.00  0.00     0.148 C  
HETATM   25  C   UNL     1      -6.685  19.526  68.745  1.00  0.00    -0.307 C  
HETATM   26  H   UNL     1      -6.148  17.469  68.377  1.00  0.00     0.000 HD 
HETATM   27  N   UNL     1      -6.951  18.062  68.588  1.00  0.00    -0.251 N  
HETATM   28  O   UNL     1      -9.144  18.024  69.202  1.00  0.00    -0.089 OA 
HETATM   29  C   UNL     1      -7.428  20.350  67.674  1.00  0.00    -0.334 C  
ENDBRANCH   4  22
TORSDOF 1
ENDMDL
MODEL       57
REMARK 921   NORMALIZED FREE ENERGY PREDICTED BY IDOCK:   -4.65 KCAL/MOL
REMARK 922        TOTAL FREE ENERGY PREDICTED BY IDOCK:   -3.99 KCAL/MOL
REMARK 923 INTER-LIGAND FREE ENERGY PREDICTED BY IDOCK:   -4.98 KCAL/MOL
REMARK 924 INTRA-LIGAND FREE ENERGY PREDICTED BY IDOCK:    0.99 KCAL/MOL
REMARK 927      BINDING AFFINITY PREDICTED BY RF-SCORE:    0.00 PKD
ROOT
HETATM    1  C   UNL     1      -5.557  13.912  68.016  1.00  0.00    -0.125 C  
HETATM    2  C   UNL     1      -5.437  14.395  69.353  1.00  0.00    -0.089 C  
HETATM    3  C   UNL     1      -6.740  13.696  69.194  1.00  0.00    -0.109 C  
HETATM    4  C   UNL     1      -6.964  12.733  67.400  1.00  0.00    -0.132 C  
HETATM    5  C   UNL     1      -9.699  15.717  65.675  1.00  0.00    -0.348 C  
HETATM    6  C   UNL     1      -6.353  12.248  68.510  1.00  0.00    -0.057 C  
HETATM    7  C   UNL     1      -9.253  16.139  67.080  1.00  0.00    -0.227 C  
HETATM    8  C   UNL     1     -10.477  16.263  68.004  1.00  0.00    -0.293 C  
HETATM    9  C   UNL     1      -8.201  12.193  68.937  1.00  0.00     0.161 C  
HETATM   10  C   UNL     1      -5.418  11.164  68.953  1.00  0.00    -0.040 C  
HETATM   11  C   UNL     1     -10.731  17.327  68.783  1.00  0.00    -0.247 C  
HETATM   12  O   UNL     1     -10.399  19.660  68.870  1.00  0.00    -0.378 OA 
HETATM   13  C   UNL     1      -9.065  13.546  68.103  1.00  0.00    -0.199 C  
HETATM   14  C   UNL     1      -9.932  18.558  68.626  1.00  0.00    -0.383 C  
HETATM   15  H   UNL     1      -7.824  18.652  68.724  1.00  0.00     0.000 HD 
HETATM   16  C   UNL     1      -8.314  15.071  67.767  1.00  0.00    -0.158 C  
HETATM   17  N   UNL     1      -8.640  18.319  68.211  1.00  0.00    -0.279 N  
HETATM   18  C   UNL     1      -6.739  15.085  67.208  1.00  0.00     0.015 C  
HETATM   19  C   UNL     1      -6.202  16.527  67.262  1.00  0.00    -0.209 C  
HETATM   20  C   UNL     1      -7.085  17.505  66.485  1.00  0.00    -0.289 C  
HETATM   21  C   UNL     1      -8.540  17.547  66.969  1.00  0.00    -0.235 C  
ENDROOT
BRANCH   4  22
HETATM   22  C   UNL     1      -7.473  11.285  66.717  1.00  0.00    -0.146 C  
HETATM   23  C   UNL     1     -10.360  10.598  64.278  1.00  0.00    -0.325 C  
HETATM   24  C   UNL     1      -9.428   8.926  65.863  1.00  0.00    -0.303 C  
HETATM   25  C   UNL     1      -9.078  10.170  65.032  1.00  0.00    -0.205 C  
HETATM   26  H   UNL     1      -9.136  12.161  65.860  1.00  0.00     0.000 HD 
HETATM   27  N   UNL     1      -8.594  11.298  65.887  1.00  0.00    -0.140 N  
HETATM   28  O   UNL     1      -6.925  10.219  67.000  1.00  0.00    -0.085 OA 
HETATM   29  C   UNL     1      -8.039   9.794  63.956  1.00  0.00    -0.150 C  
ENDBRANCH   4  22
TORSDOF 1
ENDMDL
MODEL       58
REMARK 921   NORMALIZED FREE ENERGY PREDICTED BY IDOCK:   -4.63 KCAL/MOL
REMARK 922        TOTAL FREE ENERGY PREDICTED BY IDOCK:   -3.96 KCAL/MOL
REMARK 923 INTER-LIGAND FREE ENERGY PREDICTED BY IDOCK:   -5.08 KCAL/MOL
REMARK 924 INTRA-LIGAND FREE ENERGY PREDICTED BY IDOCK:    1.11 KCAL/MOL
REMARK 927      BINDING AFFINITY PREDICTED BY RF-SCORE:    0.00 PKD
ROOT
HETATM    1  C   UNL     1     -10.535  16.646  68.586  1.00  0.00    -0.323 C  
HETATM    2  C   UNL     1     -11.248  17.406  67.613  1.00  0.00     0.198 C  
HETATM    3  C   UNL     1     -10.343  16.447  66.927  1.00  0.00    -0.300 C  
HETATM    4  C   UNL     1      -9.426  15.112  68.181  1.00  0.00    -0.201 C  
HETATM    5  C   UNL     1      -5.493  17.081  68.066  1.00  0.00    -0.123 C  
HETATM    6  C   UNL     1     -10.663  14.994  67.635  1.00  0.00    -0.274 C  
HETATM    7  C   UNL     1      -6.514  17.861  67.231  1.00  0.00    -0.183 C  
HETATM    8  C   UNL     1      -6.050  17.929  65.765  1.00  0.00    -0.233 C  
HETATM    9  C   UNL     1      -9.484  14.666  66.185  1.00  0.00    -0.308 C  
HETATM   10  C   UNL     1     -11.942  14.230  67.788  1.00  0.00    -0.384 C  
HETATM   11  C   UNL     1      -5.995  19.059  65.041  1.00  0.00    -0.310 C  
HETATM   12  O   UNL     1      -5.648  21.379  65.283  1.00  0.00    -0.178 OA 
HETATM   13  C   UNL     1      -7.963  15.622  66.400  1.00  0.00     0.057 C  
HETATM   14  C   UNL     1      -6.181  20.365  65.704  1.00  0.00    -0.227 C  
HETATM   15  H   UNL     1      -7.848  20.889  66.893  1.00  0.00     0.000 HD 
HETATM   16  C   UNL     1      -7.930  17.163  67.191  1.00  0.00    -0.216 C  
HETATM   17  N   UNL     1      -7.017  20.304  66.798  1.00  0.00    -0.240 N  
HETATM   18  C   UNL     1      -8.833  17.372  68.582  1.00  0.00    -0.258 C  
HETATM   19  C   UNL     1      -8.876  18.871  68.930  1.00  0.00    -0.267 C  
HETATM   20  C   UNL     1      -7.479  19.476  69.069  1.00  0.00    -0.380 C  
HETATM   21  C   UNL     1      -6.611  19.329  67.814  1.00  0.00    -0.225 C  
ENDROOT
BRANCH   4  22
HETATM   22  C   UNL     1      -9.050  13.483  68.352  1.00  0.00    -0.155 C  
HETATM   23  C   UNL     1      -5.854  11.583  67.389  1.00  0.00    -0.081 C  
HETATM   24  C   UNL     1      -8.109  10.550  67.561  1.00  0.00    -0.107 C  
HETATM   25  C   UNL     1      -7.222  11.679  68.108  1.00  0.00    -0.085 C  
HETATM   26  H   UNL     1      -7.280  13.681  67.305  1.00  0.00     0.000 HD 
HETATM   27  N   UNL     1      -7.822  13.029  67.872  1.00  0.00    -0.134 N  
HETATM   28  O   UNL     1      -9.866  12.686  68.817  1.00  0.00    -0.116 OA 
HETATM   29  C   UNL     1      -6.949  11.440  69.606  1.00  0.00    -0.022 C  
ENDBRANCH   4  22
TORSDOF 1
ENDMDL
MODEL       59
REMARK 921   NORMALIZED FREE ENERGY PREDICTED BY IDOCK:   -4.57 KCAL/MOL
REMARK 922        TOTAL FREE ENERGY PREDICTED BY IDOCK:   -3.90 KCAL/MOL
REMARK 923 INTER-LIGAND FREE ENERGY PREDICTED BY IDOCK:   -4.80 KCAL/MOL
REMARK 924 INTRA-LIGAND FREE ENERGY PREDICTED BY IDOCK:    0.90 KCAL/MOL
REMARK 927      BINDING AFFINITY PREDICTED BY RF-SCORE:    0.00 PKD
ROOT
HETATM    1  C   UNL     1      -8.385   8.357  67.065  1.00  0.00    -0.114 C  
HETATM    2  C   UNL     1      -8.851   8.722  65.768  1.00  0.00    -0.233 C  
HETATM    3  C   UNL     1      -9.783   7.732  66.370  1.00  0.00    -0.219 C  
HETATM    4  C   UNL     1      -9.388   7.287  68.330  1.00  0.00    -0.135 C  
HETATM    5  C   UNL     1      -7.615   3.346  67.502  1.00  0.00    -0.069 C  
HETATM    6  C   UNL     1     -10.118   8.333  67.867  1.00  0.00    -0.252 C  
HETATM    7  C   UNL     1      -8.017   4.044  66.197  1.00  0.00    -0.094 C  
HETATM    8  C   UNL     1      -9.058   3.194  65.448  1.00  0.00    -0.150 C  
HETATM    9  C   UNL     1     -11.243   6.828  67.600  1.00  0.00    -0.220 C  
HETATM   10  C   UNL     1     -10.674   9.654  68.300  1.00  0.00    -0.262 C  
HETATM   11  C   UNL     1      -8.971   2.865  64.148  1.00  0.00    -0.105 C  
HETATM   12  O   UNL     1      -7.375   2.438  62.466  1.00  0.00    -0.035 OA 
HETATM   13  C   UNL     1     -10.239   5.361  67.262  1.00  0.00    -0.258 C  
HETATM   14  C   UNL     1      -7.725   3.135  63.405  1.00  0.00    -0.068 C  
HETATM   15  H   UNL     1      -6.785   5.022  63.268  1.00  0.00     0.000 HD 
HETATM   16  C   UNL     1      -8.713   5.440  66.443  1.00  0.00    -0.121 C  
HETATM   17  N   UNL     1      -7.044   4.240  63.869  1.00  0.00    -0.046 N  
HETATM   18  C   UNL     1      -7.654   6.672  66.834  1.00  0.00    -0.095 C  
HETATM   19  C   UNL     1      -6.520   6.705  65.793  1.00  0.00    -0.046 C  
HETATM   20  C   UNL     1      -5.802   5.361  65.674  1.00  0.00    -0.021 C  
HETATM   21  C   UNL     1      -6.724   4.195  65.299  1.00  0.00    -0.049 C  
ENDROOT
BRANCH   4  22
HETATM   22  C   UNL     1     -10.122   7.085  69.827  1.00  0.00    -0.189 C  
HETATM   23  C   UNL     1     -12.298   9.523  71.846  1.00  0.00    -0.450 C  
HETATM   24  C   UNL     1     -10.946   7.688  72.839  1.00  0.00    -0.456 C  
HETATM   25  C   UNL     1     -11.713   8.115  71.578  1.00  0.00    -0.286 C  
HETATM   26  H   UNL     1     -10.736   9.057  69.900  1.00  0.00     0.000 HD 
HETATM   27  N   UNL     1     -10.830   8.157  70.371  1.00  0.00    -0.234 N  
HETATM   28  O   UNL     1      -9.977   6.047  70.474  1.00  0.00    -0.175 OA 
HETATM   29  C   UNL     1     -12.914   7.173  71.363  1.00  0.00    -0.419 C  
ENDBRANCH   4  22
TORSDOF 1
ENDMDL
MODEL       60
REMARK 921   NORMALIZED FREE ENERGY PREDICTED BY IDOCK:   -4.56 KCAL/MOL
REMARK 922        TOTAL FREE ENERGY PREDICTED BY IDOCK:   -3.90 KCAL/MOL
REMARK 923 INTER-LIGAND FREE ENERGY PREDICTED BY IDOCK:   -4.84 KCAL/MOL
REMARK 924 INTRA-LIGAND FREE ENERGY PREDICTED BY IDOCK:    0.94 KCAL/MOL
REMARK 927      BINDING AFFINITY PREDICTED BY RF-SCORE:    0.00 PKD
ROOT
HETATM    1  C   UNL     1     -11.030   6.581  68.489  1.00  0.00    -0.360 C  
HETATM    2  C   UNL     1     -10.499   5.678  69.456  1.00  0.00    -0.372 C  
HETATM    3  C   UNL     1      -9.477   6.705  69.123  1.00  0.00    -0.136 C  
HETATM    4  C   UNL     1     -10.165   8.221  67.929  1.00  0.00    -0.276 C  
HETATM    5  C   UNL     1      -8.195   6.781  64.268  1.00  0.00     0.036 C  
HETATM    6  C   UNL     1     -10.267   8.143  69.280  1.00  0.00    -0.216 C  
HETATM    7  C   UNL     1      -7.930   5.825  65.437  1.00  0.00    -0.117 C  
HETATM    8  C   UNL     1      -6.418   5.733  65.707  1.00  0.00    -0.043 C  
HETATM    9  C   UNL     1      -8.436   8.537  68.975  1.00  0.00    -0.126 C  
HETATM   10  C   UNL     1     -11.010   8.740  70.435  1.00  0.00    -0.262 C  
HETATM   11  C   UNL     1      -5.742   4.579  65.834  1.00  0.00    -0.022 C  
HETATM   12  O   UNL     1      -5.770   2.343  65.086  1.00  0.00    -0.016 OA 
HETATM   13  C   UNL     1      -7.901   7.803  67.410  1.00  0.00    -0.118 C  
HETATM   14  C   UNL     1      -6.402   3.302  65.501  1.00  0.00    -0.032 C  
HETATM   15  H   UNL     1      -8.229   2.635  66.325  1.00  0.00     0.000 HD 
HETATM   16  C   UNL     1      -8.569   6.328  66.791  1.00  0.00    -0.116 C  
HETATM   17  N   UNL     1      -7.761   3.316  65.728  1.00  0.00    -0.081 N  
HETATM   18  C   UNL     1     -10.219   6.085  66.901  1.00  0.00    -0.261 C  
HETATM   19  C   UNL     1     -10.531   4.616  66.562  1.00  0.00    -0.171 C  
HETATM   20  C   UNL     1      -9.991   4.209  65.190  1.00  0.00    -0.218 C  
HETATM   21  C   UNL     1      -8.476   4.394  65.039  1.00  0.00    -0.124 C  
ENDROOT
BRANCH   4  22
HETATM   22  C   UNL     1     -10.156   9.892  67.754  1.00  0.00    -0.180 C  
HETATM   23  C   UNL     1     -10.628  12.037  64.604  1.00  0.00    -0.351 C  
HETATM   24  C   UNL     1      -9.371  12.758  66.623  1.00  0.00    -0.242 C  
HETATM   25  C   UNL     1     -10.526  11.869  66.139  1.00  0.00    -0.237 C  
HETATM   26  H   UNL     1     -10.259   9.775  65.694  1.00  0.00     0.000 HD 
HETATM   27  N   UNL     1     -10.305  10.429  66.476  1.00  0.00    -0.237 N  
HETATM   28  O   UNL     1      -9.943  10.632  68.716  1.00  0.00    -0.176 OA 
HETATM   29  C   UNL     1     -11.854  12.386  66.727  1.00  0.00    -0.385 C  
ENDBRANCH   4  22
TORSDOF 1
ENDMDL
MODEL       61
REMARK 921   NORMALIZED FREE ENERGY PREDICTED BY IDOCK:   -4.52 KCAL/MOL
REMARK 922        TOTAL FREE ENERGY PREDICTED BY IDOCK:   -3.85 KCAL/MOL
REMARK 923 INTER-LIGAND FREE ENERGY PREDICTED BY IDOCK:   -4.95 KCAL/MOL
REMARK 924 INTRA-LIGAND FREE ENERGY PREDICTED BY IDOCK:    1.10 KCAL/MOL
REMARK 927      BINDING AFFINITY PREDICTED BY RF-SCORE:    0.00 PKD
ROOT
HETATM    1  C   UNL     1      -6.778  14.034  69.092  1.00  0.00    -0.112 C  
HETATM    2  C   UNL     1      -5.760  13.628  68.180  1.00  0.00    -0.116 C  
HETATM    3  C   UNL     1      -6.876  14.260  67.428  1.00  0.00    -0.042 C  
HETATM    4  C   UNL     1      -8.310  15.116  68.614  1.00  0.00    -0.160 C  
HETATM    5  C   UNL     1     -11.284  11.928  68.022  1.00  0.00    -0.317 C  
HETATM    6  C   UNL     1      -7.147  15.686  68.207  1.00  0.00    -0.116 C  
HETATM    7  C   UNL     1      -9.984  11.601  67.279  1.00  0.00    -0.210 C  
HETATM    8  C   UNL     1     -10.260  11.472  65.771  1.00  0.00    -0.293 C  
HETATM    9  C   UNL     1      -8.230  15.681  66.649  1.00  0.00    -0.284 C  
HETATM   10  C   UNL     1      -6.233  16.831  68.518  1.00  0.00    -0.144 C  
HETATM   11  C   UNL     1      -9.852  10.439  65.014  1.00  0.00    -0.384 C  
HETATM   12  O   UNL     1      -9.391   8.131  65.151  1.00  0.00     0.273 OA 
HETATM   13  C   UNL     1      -9.336  14.249  66.672  1.00  0.00    -0.302 C  
HETATM   14  C   UNL     1      -9.284   9.238  65.656  1.00  0.00    -0.231 C  
HETATM   15  H   UNL     1      -7.655   9.243  67.001  1.00  0.00     0.000 HD 
HETATM   16  C   UNL     1      -8.902  12.743  67.412  1.00  0.00    -0.190 C  
HETATM   17  N   UNL     1      -8.625   9.512  66.834  1.00  0.00    -0.127 N  
HETATM   18  C   UNL     1      -8.113  12.770  68.885  1.00  0.00     0.214 C  
HETATM   19  C   UNL     1      -7.582  11.357  69.193  1.00  0.00    -0.038 C  
HETATM   20  C   UNL     1      -8.688  10.302  69.164  1.00  0.00    -0.176 C  
HETATM   21  C   UNL     1      -9.436  10.221  67.828  1.00  0.00    -0.148 C  
ENDROOT
BRANCH   4  22
HETATM   22  C   UNL     1      -9.243  16.503  68.790  1.00  0.00    -0.252 C  
HETATM   23  C   UNL     1      -8.900  19.930  67.090  1.00  0.00    -0.407 C  
HETATM   24  C   UNL     1      -9.960  19.557  69.307  1.00  0.00    -0.344 C  
HETATM   25  C   UNL     1      -9.678  18.902  67.947  1.00  0.00    -0.327 C  
HETATM   26  H   UNL     1      -7.969  17.627  67.615  1.00  0.00     0.000 HD 
HETATM   27  N   UNL     1      -8.875  17.647  68.084  1.00  0.00    -0.261 N  
HETATM   28  O   UNL     1     -10.184  16.541  69.583  1.00  0.00    -0.238 OA 
HETATM   29  C   UNL     1     -11.010  18.639  67.216  1.00  0.00    -0.221 C  
ENDBRANCH   4  22
TORSDOF 1
ENDMDL
MODEL       62
REMARK 921   NORMALIZED FREE ENERGY PREDICTED BY IDOCK:   -4.50 KCAL/MOL
REMARK 922        TOTAL FREE ENERGY PREDICTED BY IDOCK:   -3.83 KCAL/MOL
REMARK 923 INTER-LIGAND FREE ENERGY PREDICTED BY IDOCK:   -4.81 KCAL/MOL
REMARK 924 INTRA-LIGAND FREE ENERGY PREDICTED BY IDOCK:    0.98 KCAL/MOL
REMARK 927      BINDING AFFINITY PREDICTED BY RF-SCORE:    0.00 PKD
ROOT
HETATM    1  C   UNL     1     -11.091   7.515  71.416  1.00  0.00    -0.262 C  
HETATM    2  C   UNL     1     -12.176   7.059  70.611  1.00  0.00    -0.289 C  
HETATM    3  C   UNL     1     -10.916   6.416  70.154  1.00  0.00    -0.395 C  
HETATM    4  C   UNL     1      -9.301   6.778  71.361  1.00  0.00    -0.157 C  
HETATM    5  C   UNL     1      -7.411   9.684  68.652  1.00  0.00    -0.074 C  
HETATM    6  C   UNL     1     -10.237   5.809  71.528  1.00  0.00    -0.255 C  
HETATM    7  C   UNL     1      -8.743   9.193  68.075  1.00  0.00    -0.129 C  
HETATM    8  C   UNL     1      -8.506   8.505  66.719  1.00  0.00    -0.111 C  
HETATM    9  C   UNL     1      -9.193   5.198  70.066  1.00  0.00    -0.180 C  
HETATM   10  C   UNL     1     -10.769   4.860  72.556  1.00  0.00    -0.258 C  
HETATM   11  C   UNL     1      -9.197   8.781  65.600  1.00  0.00    -0.244 C  
HETATM   12  O   UNL     1     -10.328  10.553  64.532  1.00  0.00    -0.348 OA 
HETATM   13  C   UNL     1      -8.565   6.610  69.125  1.00  0.00    -0.130 C  
HETATM   14  C   UNL     1     -10.104   9.945  65.567  1.00  0.00    -0.227 C  
HETATM   15  H   UNL     1     -11.668  10.299  66.942  1.00  0.00     0.000 HD 
HETATM   16  C   UNL     1      -9.435   8.102  68.984  1.00  0.00    -0.155 C  
HETATM   17  N   UNL     1     -10.661  10.236  66.793  1.00  0.00    -0.214 N  
HETATM   18  C   UNL     1     -10.192   8.722  70.338  1.00  0.00    -0.228 C  
HETATM   19  C   UNL     1     -11.123   9.871  69.909  1.00  0.00    -0.318 C  
HETATM   20  C   UNL     1     -10.383  10.958  69.130  1.00  0.00    -0.228 C  
HETATM   21  C   UNL     1      -9.683  10.448  67.865  1.00  0.00    -0.149 C  
ENDROOT
BRANCH   4  22
HETATM   22  C   UNL     1      -7.998   6.025  72.109  1.00  0.00    -0.106 C  
HETATM   23  C   UNL     1      -7.769   2.559  73.746  1.00  0.00    -0.050 C  
HETATM   24  C   UNL     1      -6.330   4.495  74.343  1.00  0.00    -0.052 C  
HETATM   25  C   UNL     1      -7.125   3.854  73.196  1.00  0.00    -0.058 C  
HETATM   26  H   UNL     1      -9.153   4.432  72.737  1.00  0.00     0.000 HD 
HETATM   27  N   UNL     1      -8.191   4.765  72.674  1.00  0.00    -0.110 N  
HETATM   28  O   UNL     1      -6.915   6.599  72.231  1.00  0.00    -0.067 OA 
HETATM   29  C   UNL     1      -6.157   3.423  72.076  1.00  0.00    -0.013 C  
ENDBRANCH   4  22
TORSDOF 1
ENDMDL
MODEL       63
REMARK 921   NORMALIZED FREE ENERGY PREDICTED BY IDOCK:   -4.49 KCAL/MOL
REMARK 922        TOTAL FREE ENERGY PREDICTED BY IDOCK:   -3.82 KCAL/MOL
REMARK 923 INTER-LIGAND FREE ENERGY PREDICTED BY IDOCK:   -4.86 KCAL/MOL
REMARK 924 INTRA-LIGAND FREE ENERGY PREDICTED BY IDOCK:    1.03 KCAL/MOL
REMARK 927      BINDING AFFINITY PREDICTED BY RF-SCORE:    0.00 PKD
ROOT
HETATM    1  C   UNL     1      -9.517  11.713  65.932  1.00  0.00    -0.246 C  
HETATM    2  C   UNL     1     -10.044  10.694  65.085  1.00  0.00    -0.374 C  
HETATM    3  C   UNL     1     -10.682  10.603  66.425  1.00  0.00    -0.198 C  
HETATM    4  C   UNL     1     -10.213  12.148  67.686  1.00  0.00    -0.206 C  
HETATM    5  C   UNL     1      -7.423   9.816  70.163  1.00  0.00    -0.170 C  
HETATM    6  C   UNL     1     -11.192  12.137  66.747  1.00  0.00    -0.375 C  
HETATM    7  C   UNL     1      -7.978   8.959  69.020  1.00  0.00    -0.106 C  
HETATM    8  C   UNL     1      -8.736   7.749  69.592  1.00  0.00    -0.135 C  
HETATM    9  C   UNL     1     -11.861  11.019  68.127  1.00  0.00    -0.195 C  
HETATM   10  C   UNL     1     -12.094  13.058  65.985  1.00  0.00    -0.493 C  
HETATM   11  C   UNL     1      -8.541   6.479  69.198  1.00  0.00    -0.129 C  
HETATM   12  O   UNL     1      -6.862   5.058  68.351  1.00  0.00    -0.053 OA 
HETATM   13  C   UNL     1     -10.491  10.177  68.955  1.00  0.00    -0.239 C  
HETATM   14  C   UNL     1      -7.403   6.151  68.318  1.00  0.00    -0.086 C  
HETATM   15  H   UNL     1      -7.009   7.073  66.458  1.00  0.00     0.000 HD 
HETATM   16  C   UNL     1      -9.031   9.734  68.134  1.00  0.00    -0.119 C  
HETATM   17  N   UNL     1      -7.056   7.182  67.471  1.00  0.00    -0.086 N  
HETATM   18  C   UNL     1      -8.353  10.819  67.059  1.00  0.00    -0.129 C  
HETATM   19  C   UNL     1      -7.253  10.103  66.253  1.00  0.00    -0.111 C  
HETATM   20  C   UNL     1      -6.195   9.466  67.154  1.00  0.00    -0.065 C  
HETATM   21  C   UNL     1      -6.759   8.446  68.151  1.00  0.00    -0.065 C  
ENDROOT
BRANCH   4  22
HETATM   22  C   UNL     1     -10.890  13.239  68.770  1.00  0.00    -0.243 C  
HETATM   23  C   UNL     1     -10.091  16.952  69.343  1.00  0.00    -0.162 C  
HETATM   24  C   UNL     1     -11.056  15.438  71.061  1.00  0.00    -0.377 C  
HETATM   25  C   UNL     1     -10.973  15.697  69.549  1.00  0.00    -0.281 C  
HETATM   26  H   UNL     1      -9.524  14.712  68.290  1.00  0.00     0.000 HD 
HETATM   27  N   UNL     1     -10.382  14.537  68.813  1.00  0.00    -0.240 N  
HETATM   28  O   UNL     1     -11.760  12.888  69.568  1.00  0.00    -0.303 OA 
HETATM   29  C   UNL     1     -12.374  16.050  69.010  1.00  0.00     0.327 C  
ENDBRANCH   4  22
TORSDOF 1
ENDMDL
MODEL       64
REMARK 921   NORMALIZED FREE ENERGY PREDICTED BY IDOCK:   -4.46 KCAL/MOL
REMARK 922        TOTAL FREE ENERGY PREDICTED BY IDOCK:   -3.79 KCAL/MOL
REMARK 923 INTER-LIGAND FREE ENERGY PREDICTED BY IDOCK:   -4.76 KCAL/MOL
REMARK 924 INTRA-LIGAND FREE ENERGY PREDICTED BY IDOCK:    0.97 KCAL/MOL
REMARK 927      BINDING AFFINITY PREDICTED BY RF-SCORE:    0.00 PKD
ROOT
HETATM    1  C   UNL     1     -10.155   5.433  67.409  1.00  0.00    -0.223 C  
HETATM    2  C   UNL     1      -9.212   5.427  66.340  1.00  0.00    -0.150 C  
HETATM    3  C   UNL     1      -8.489   5.446  67.639  1.00  0.00    -0.105 C  
HETATM    4  C   UNL     1      -9.696   5.212  69.277  1.00  0.00    -0.242 C  
HETATM    5  C   UNL     1      -9.562   9.440  70.488  1.00  0.00    -0.330 C  
HETATM    6  C   UNL     1      -9.168   4.224  68.510  1.00  0.00    -0.194 C  
HETATM    7  C   UNL     1      -8.762   9.220  69.199  1.00  0.00    -0.139 C  
HETATM    8  C   UNL     1      -7.291   9.612  69.422  1.00  0.00    -0.081 C  
HETATM    9  C   UNL     1      -7.692   4.875  69.509  1.00  0.00    -0.067 C  
HETATM   10  C   UNL     1      -9.324   2.765  68.211  1.00  0.00    -0.258 C  
HETATM   11  C   UNL     1      -6.592  10.421  68.608  1.00  0.00    -0.052 C  
HETATM   12  O   UNL     1      -6.882  12.246  67.143  1.00  0.00    -0.147 OA 
HETATM   13  C   UNL     1      -7.904   6.641  69.842  1.00  0.00    -0.115 C  
HETATM   14  C   UNL     1      -7.288  11.165  67.540  1.00  0.00    -0.102 C  
HETATM   15  H   UNL     1      -8.516  10.290  66.060  1.00  0.00     0.000 HD 
HETATM   16  C   UNL     1      -8.730   7.706  68.752  1.00  0.00    -0.128 C  
HETATM   17  N   UNL     1      -8.394  10.506  67.049  1.00  0.00    -0.127 N  
HETATM   18  C   UNL     1     -10.140   7.177  68.027  1.00  0.00    -0.201 C  
HETATM   19  C   UNL     1     -10.522   8.159  66.905  1.00  0.00    -0.379 C  
HETATM   20  C   UNL     1     -10.653   9.596  67.410  1.00  0.00    -0.333 C  
HETATM   21  C   UNL     1      -9.381  10.141  68.070  1.00  0.00    -0.141 C  
ENDROOT
BRANCH   4  22
HETATM   22  C   UNL     1      -9.824   4.385  70.734  1.00  0.00    -0.203 C  
HETATM   23  C   UNL     1     -10.163   5.744  74.310  1.00  0.00    -0.294 C  
HETATM   24  C   UNL     1      -9.194   3.529  73.731  1.00  0.00    -0.102 C  
HETATM   25  C   UNL     1     -10.206   4.593  73.277  1.00  0.00    -0.169 C  
HETATM   26  H   UNL     1      -9.702   6.124  71.843  1.00  0.00     0.000 HD 
HETATM   27  N   UNL     1      -9.889   5.124  71.915  1.00  0.00    -0.171 N  
HETATM   28  O   UNL     1      -9.781   3.155  70.774  1.00  0.00    -0.171 OA 
HETATM   29  C   UNL     1     -11.630   4.005  73.333  1.00  0.00    -0.133 C  
ENDBRANCH   4  22
TORSDOF 1
ENDMDL
MODEL       65
REMARK 921   NORMALIZED FREE ENERGY PREDICTED BY IDOCK:   -4.38 KCAL/MOL
REMARK 922        TOTAL FREE ENERGY PREDICTED BY IDOCK:   -3.71 KCAL/MOL
REMARK 923 INTER-LIGAND FREE ENERGY PREDICTED BY IDOCK:   -4.75 KCAL/MOL
REMARK 924 INTRA-LIGAND FREE ENERGY PREDICTED BY IDOCK:    1.04 KCAL/MOL
REMARK 927      BINDING AFFINITY PREDICTED BY RF-SCORE:    0.00 PKD
ROOT
HETATM    1  C   UNL     1      -9.904   9.451  70.513  1.00  0.00    -0.331 C  
HETATM    2  C   UNL     1     -10.758  10.046  69.538  1.00  0.00    -0.269 C  
HETATM    3  C   UNL     1     -11.001   8.580  69.582  1.00  0.00    -0.093 C  
HETATM    4  C   UNL     1     -10.028   7.611  71.102  1.00  0.00    -0.188 C  
HETATM    5  C   UNL     1      -6.934   5.826  68.531  1.00  0.00    -0.068 C  
HETATM    6  C   UNL     1     -11.226   8.243  71.179  1.00  0.00    -0.296 C  
HETATM    7  C   UNL     1      -7.880   6.709  67.708  1.00  0.00    -0.112 C  
HETATM    8  C   UNL     1      -8.578   5.864  66.628  1.00  0.00    -0.119 C  
HETATM    9  C   UNL     1     -11.602   6.655  70.211  1.00  0.00    -0.454 C  
HETATM   10  C   UNL     1     -12.195   8.795  72.178  1.00  0.00    -0.448 C  
HETATM   11  C   UNL     1      -8.644   6.203  65.329  1.00  0.00    -0.082 C  
HETATM   12  O   UNL     1      -7.440   7.370  63.673  1.00  0.00    -0.089 OA 
HETATM   13  C   UNL     1     -10.158   6.173  69.234  1.00  0.00    -0.218 C  
HETATM   14  C   UNL     1      -7.842   7.334  64.825  1.00  0.00    -0.126 C  
HETATM   15  H   UNL     1      -7.885   9.293  65.615  1.00  0.00     0.000 HD 
HETATM   16  C   UNL     1      -9.045   7.328  68.576  1.00  0.00    -0.136 C  
HETATM   17  N   UNL     1      -7.633   8.317  65.768  1.00  0.00    -0.080 N  
HETATM   18  C   UNL     1      -8.578   8.623  69.522  1.00  0.00    -0.131 C  
HETATM   19  C   UNL     1      -7.836   9.644  68.641  1.00  0.00    -0.081 C  
HETATM   20  C   UNL     1      -6.646   9.023  67.909  1.00  0.00    -0.060 C  
HETATM   21  C   UNL     1      -7.019   7.838  67.010  1.00  0.00    -0.077 C  
ENDROOT
BRANCH   4  22
HETATM   22  C   UNL     1     -10.247   6.466  72.312  1.00  0.00    -0.185 C  
HETATM   23  C   UNL     1      -9.065   2.816  72.488  1.00  0.00    -0.120 C  
HETATM   24  C   UNL     1     -11.046   3.714  73.691  1.00  0.00    -0.317 C  
HETATM   25  C   UNL     1      -9.666   4.089  73.130  1.00  0.00    -0.126 C  
HETATM   26  H   UNL     1      -9.416   4.958  71.171  1.00  0.00     0.000 HD 
HETATM   27  N   UNL     1      -9.752   5.178  72.109  1.00  0.00    -0.158 N  
HETATM   28  O   UNL     1     -10.899   6.726  73.324  1.00  0.00    -0.282 OA 
HETATM   29  C   UNL     1      -8.728   4.481  74.290  1.00  0.00    -0.106 C  
ENDBRANCH   4  22
TORSDOF 1
ENDMDL
MODEL       66
REMARK 921   NORMALIZED FREE ENERGY PREDICTED BY IDOCK:   -4.36 KCAL/MOL
REMARK 922        TOTAL FREE ENERGY PREDICTED BY IDOCK:   -3.69 KCAL/MOL
REMARK 923 INTER-LIGAND FREE ENERGY PREDICTED BY IDOCK:   -4.62 KCAL/MOL
REMARK 924 INTRA-LIGAND FREE ENERGY PREDICTED BY IDOCK:    0.93 KCAL/MOL
REMARK 927      BINDING AFFINITY PREDICTED BY RF-SCORE:    0.00 PKD
ROOT
HETATM    1  C   UNL     1      -9.209   9.358  68.486  1.00  0.00    -0.131 C  
HETATM    2  C   UNL     1     -10.150   9.494  67.423  1.00  0.00    -0.262 C  
HETATM    3  C   UNL     1     -10.581   8.396  68.328  1.00  0.00    -0.163 C  
HETATM    4  C   UNL     1      -9.466   8.230  70.039  1.00  0.00    -0.167 C  
HETATM    5  C   UNL     1      -7.230   4.677  68.725  1.00  0.00    -0.053 C  
HETATM    6  C   UNL     1     -10.525   9.055  69.838  1.00  0.00    -0.226 C  
HETATM    7  C   UNL     1      -8.189   5.149  67.627  1.00  0.00    -0.099 C  
HETATM    8  C   UNL     1      -9.201   4.036  67.299  1.00  0.00    -0.187 C  
HETATM    9  C   UNL     1     -11.304   7.333  70.004  1.00  0.00    -0.195 C  
HETATM   10  C   UNL     1     -11.188  10.270  70.410  1.00  0.00    -0.407 C  
HETATM   11  C   UNL     1      -9.479   3.610  66.056  1.00  0.00    -0.167 C  
HETATM   12  O   UNL     1      -8.481   3.362  63.934  1.00  0.00    -0.090 OA 
HETATM   13  C   UNL     1     -10.167   6.079  69.368  1.00  0.00    -0.269 C  
HETATM   14  C   UNL     1      -8.645   4.058  64.923  1.00  0.00    -0.115 C  
HETATM   15  H   UNL     1      -8.256   6.076  64.434  1.00  0.00     0.000 HD 
HETATM   16  C   UNL     1      -9.060   6.390  68.071  1.00  0.00    -0.113 C  
HETATM   17  N   UNL     1      -8.117   5.318  65.102  1.00  0.00    -0.115 N  
HETATM   18  C   UNL     1      -8.237   7.845  68.049  1.00  0.00    -0.127 C  
HETATM   19  C   UNL     1      -7.553   8.010  66.679  1.00  0.00    -0.093 C  
HETATM   20  C   UNL     1      -6.632   6.837  66.345  1.00  0.00    -0.048 C  
HETATM   21  C   UNL     1      -7.338   5.476  66.334  1.00  0.00    -0.079 C  
ENDROOT
BRANCH   4  22
HETATM   22  C   UNL     1      -9.595   8.026  71.702  1.00  0.00    -0.167 C  
HETATM   23  C   UNL     1      -7.613   5.730  74.058  1.00  0.00    -0.092 C  
HETATM   24  C   UNL     1      -9.918   6.549  74.499  1.00  0.00    -0.358 C  
HETATM   25  C   UNL     1      -8.597   6.895  73.795  1.00  0.00    -0.142 C  
HETATM   26  H   UNL     1      -8.254   6.455  71.711  1.00  0.00     0.000 HD 
HETATM   27  N   UNL     1      -8.778   7.081  72.322  1.00  0.00    -0.125 N  
HETATM   28  O   UNL     1     -10.443   8.635  72.355  1.00  0.00    -0.320 OA 
HETATM   29  C   UNL     1      -7.979   8.148  74.448  1.00  0.00    -0.308 C  
ENDBRANCH   4  22
TORSDOF 1
ENDMDL
MODEL       67
REMARK 921   NORMALIZED FREE ENERGY PREDICTED BY IDOCK:   -4.32 KCAL/MOL
REMARK 922        TOTAL FREE ENERGY PREDICTED BY IDOCK:   -3.64 KCAL/MOL
REMARK 923 INTER-LIGAND FREE ENERGY PREDICTED BY IDOCK:   -4.65 KCAL/MOL
REMARK 924 INTRA-LIGAND FREE ENERGY PREDICTED BY IDOCK:    1.01 KCAL/MOL
REMARK 927      BINDING AFFINITY PREDICTED BY RF-SCORE:    0.00 PKD
ROOT
HETATM    1  C   UNL     1      -9.864  16.934  68.570  1.00  0.00    -0.267 C  
HETATM    2  C   UNL     1      -9.983  16.391  69.883  1.00  0.00     0.136 C  
HETATM    3  C   UNL     1      -8.764  15.845  69.229  1.00  0.00    -0.250 C  
HETATM    4  C   UNL     1      -8.317  16.710  67.427  1.00  0.00    -0.190 C  
HETATM    5  C   UNL     1      -9.708  13.320  64.991  1.00  0.00     0.065 C  
HETATM    6  C   UNL     1      -7.971  17.170  68.656  1.00  0.00    -0.265 C  
HETATM    7  C   UNL     1      -9.934  13.044  66.482  1.00  0.00    -0.262 C  
HETATM    8  C   UNL     1      -9.150  11.790  66.908  1.00  0.00    -0.192 C  
HETATM    9  C   UNL     1      -6.836  15.674  68.384  1.00  0.00    -0.115 C  
HETATM   10  C   UNL     1      -7.481  18.404  69.348  1.00  0.00     0.088 C  
HETATM   11  C   UNL     1      -9.680  10.766  67.598  1.00  0.00    -0.185 C  
HETATM   12  O   UNL     1     -11.721   9.631  67.921  1.00  0.00     0.400 OA 
HETATM   13  C   UNL     1      -7.680  14.438  67.367  1.00  0.00    -0.207 C  
HETATM   14  C   UNL     1     -11.140  10.698  67.804  1.00  0.00    -0.321 C  
HETATM   15  H   UNL     1     -12.312  12.233  68.660  1.00  0.00     0.000 HD 
HETATM   16  C   UNL     1      -9.397  14.208  67.405  1.00  0.00    -0.215 C  
HETATM   17  N   UNL     1     -11.738  11.938  67.871  1.00  0.00    -0.319 N  
HETATM   18  C   UNL     1     -10.387  15.554  67.452  1.00  0.00    -0.266 C  
HETATM   19  C   UNL     1     -11.825  15.106  67.771  1.00  0.00    -0.165 C  
HETATM   20  C   UNL     1     -12.341  14.061  66.782  1.00  0.00    -0.368 C  
HETATM   21  C   UNL     1     -11.480  12.795  66.710  1.00  0.00    -0.343 C  
ENDROOT
BRANCH   4  22
HETATM   22  C   UNL     1      -7.047  17.348  66.531  1.00  0.00    -0.265 C  
HETATM   23  C   UNL     1      -6.856  20.614  64.518  1.00  0.00    -0.054 C  
HETATM   24  C   UNL     1      -5.486  18.592  64.055  1.00  0.00    -0.089 C  
HETATM   25  C   UNL     1      -6.203  19.371  65.169  1.00  0.00    -0.272 C  
HETATM   26  H   UNL     1      -8.210  18.891  65.799  1.00  0.00     0.000 HD 
HETATM   27  N   UNL     1      -7.252  18.545  65.845  1.00  0.00    -0.253 N  
HETATM   28  O   UNL     1      -5.983  16.741  66.412  1.00  0.00    -0.306 OA 
HETATM   29  C   UNL     1      -5.165  19.897  66.180  1.00  0.00    -0.172 C  
ENDBRANCH   4  22
TORSDOF 1
ENDMDL
MODEL       68
REMARK 921   NORMALIZED FREE ENERGY PREDICTED BY IDOCK:   -4.31 KCAL/MOL
REMARK 922        TOTAL FREE ENERGY PREDICTED BY IDOCK:   -3.63 KCAL/MOL
REMARK 923 INTER-LIGAND FREE ENERGY PREDICTED BY IDOCK:   -4.56 KCAL/MOL
REMARK 924 INTRA-LIGAND FREE ENERGY PREDICTED BY IDOCK:    0.93 KCAL/MOL
REMARK 927      BINDING AFFINITY PREDICTED BY RF-SCORE:    0.00 PKD
ROOT
HETATM    1  C   UNL     1     -10.908   9.575  69.049  1.00  0.00    -0.184 C  
HETATM    2  C   UNL     1     -10.786   9.991  70.407  1.00  0.00    -0.369 C  
HETATM    3  C   UNL     1      -9.439   9.950  69.779  1.00  0.00    -0.254 C  
HETATM    4  C   UNL     1      -9.464   9.605  67.759  1.00  0.00    -0.146 C  
HETATM    5  C   UNL     1      -8.158   5.413  68.047  1.00  0.00    -0.096 C  
HETATM    6  C   UNL     1      -9.608  10.804  68.380  1.00  0.00    -0.177 C  
HETATM    7  C   UNL     1      -8.304   6.032  69.442  1.00  0.00    -0.115 C  
HETATM    8  C   UNL     1      -6.952   5.996  70.176  1.00  0.00    -0.069 C  
HETATM    9  C   UNL     1      -7.764  10.399  68.574  1.00  0.00    -0.101 C  
HETATM   10  C   UNL     1     -10.076  12.203  68.127  1.00  0.00    -0.206 C  
HETATM   11  C   UNL     1      -6.782   5.532  71.425  1.00  0.00    -0.056 C  
HETATM   12  O   UNL     1      -7.669   3.951  72.932  1.00  0.00    -0.071 OA 
HETATM   13  C   UNL     1      -7.534   8.608  68.685  1.00  0.00    -0.096 C  
HETATM   14  C   UNL     1      -7.883   4.815  72.097  1.00  0.00    -0.104 C  
HETATM   15  H   UNL     1      -9.838   5.574  72.357  1.00  0.00     0.000 HD 
HETATM   16  C   UNL     1      -8.716   7.556  69.392  1.00  0.00    -0.137 C  
HETATM   17  N   UNL     1      -9.132   5.241  71.700  1.00  0.00    -0.137 N  
HETATM   18  C   UNL     1     -10.331   7.816  69.052  1.00  0.00    -0.219 C  
HETATM   19  C   UNL     1     -11.187   6.961  70.004  1.00  0.00    -0.347 C  
HETATM   20  C   UNL     1     -10.828   5.477  69.932  1.00  0.00    -0.298 C  
HETATM   21  C   UNL     1      -9.359   5.176  70.253  1.00  0.00    -0.156 C  
ENDROOT
BRANCH   4  22
HETATM   22  C   UNL     1      -8.800  10.129  66.308  1.00  0.00    -0.148 C  
HETATM   23  C   UNL     1      -8.112   8.177  63.072  1.00  0.00    -0.135 C  
HETATM   24  C   UNL     1      -6.875  10.214  63.778  1.00  0.00    -0.109 C  
HETATM   25  C   UNL     1      -8.230   9.497  63.872  1.00  0.00    -0.161 C  
HETATM   26  H   UNL     1      -8.743   8.216  65.531  1.00  0.00     0.000 HD 
HETATM   27  N   UNL     1      -8.610   9.198  65.287  1.00  0.00    -0.157 N  
HETATM   28  O   UNL     1      -8.414  11.290  66.166  1.00  0.00    -0.173 OA 
HETATM   29  C   UNL     1      -9.310  10.343  63.168  1.00  0.00    -0.340 C  
ENDBRANCH   4  22
TORSDOF 1
ENDMDL
MODEL       69
REMARK 921   NORMALIZED FREE ENERGY PREDICTED BY IDOCK:   -4.30 KCAL/MOL
REMARK 922        TOTAL FREE ENERGY PREDICTED BY IDOCK:   -3.62 KCAL/MOL
REMARK 923 INTER-LIGAND FREE ENERGY PREDICTED BY IDOCK:   -4.55 KCAL/MOL
REMARK 924 INTRA-LIGAND FREE ENERGY PREDICTED BY IDOCK:    0.93 KCAL/MOL
REMARK 927      BINDING AFFINITY PREDICTED BY RF-SCORE:    0.00 PKD
ROOT
HETATM    1  C   UNL     1     -11.680  10.761  68.782  1.00  0.00    -0.315 C  
HETATM    2  C   UNL     1     -11.792  11.581  69.943  1.00  0.00    -0.430 C  
HETATM    3  C   UNL     1     -10.385  11.591  69.464  1.00  0.00     0.203 C  
HETATM    4  C   UNL     1     -10.104  10.656  67.663  1.00  0.00    -0.208 C  
HETATM    5  C   UNL     1      -8.255   7.044  69.364  1.00  0.00    -0.132 C  
HETATM    6  C   UNL     1     -10.496  11.941  67.857  1.00  0.00    -0.225 C  
HETATM    7  C   UNL     1      -8.664   8.017  70.475  1.00  0.00    -0.135 C  
HETATM    8  C   UNL     1      -7.425   8.443  71.281  1.00  0.00    -0.093 C  
HETATM    9  C   UNL     1      -8.653  11.945  68.308  1.00  0.00    -0.162 C  
HETATM   10  C   UNL     1     -11.125  13.094  67.139  1.00  0.00    -0.305 C  
HETATM   11  C   UNL     1      -7.350   8.413  72.622  1.00  0.00    -0.115 C  
HETATM   12  O   UNL     1      -8.184   7.228  74.482  1.00  0.00    -0.159 OA 
HETATM   13  C   UNL     1      -8.184  10.340  69.000  1.00  0.00    -0.139 C  
HETATM   14  C   UNL     1      -8.412   7.750  73.402  1.00  0.00    -0.196 C  
HETATM   15  H   UNL     1     -10.473   8.194  73.260  1.00  0.00     0.000 HD 
HETATM   16  C   UNL     1      -9.281   9.358  69.913  1.00  0.00    -0.226 C  
HETATM   17  N   UNL     1      -9.649   7.810  72.798  1.00  0.00    -0.197 N  
HETATM   18  C   UNL     1     -10.861   9.216  69.387  1.00  0.00    -0.165 C  
HETATM   19  C   UNL     1     -11.698   8.549  70.494  1.00  0.00    -0.082 C  
HETATM   20  C   UNL     1     -11.124   7.200  70.924  1.00  0.00    -0.290 C  
HETATM   21  C   UNL     1      -9.680   7.273  71.434  1.00  0.00    -0.164 C  
ENDROOT
BRANCH   4  22
HETATM   22  C   UNL     1      -9.344  10.827  66.174  1.00  0.00    -0.183 C  
HETATM   23  C   UNL     1      -8.058   8.143  63.746  1.00  0.00    -0.112 C  
HETATM   24  C   UNL     1      -7.164  10.458  63.889  1.00  0.00     0.021 C  
HETATM   25  C   UNL     1      -8.425   9.606  64.095  1.00  0.00    -0.180 C  
HETATM   26  H   UNL     1      -8.969   8.802  66.022  1.00  0.00     0.000 HD 
HETATM   27  N   UNL     1      -8.927   9.679  65.502  1.00  0.00    -0.170 N  
HETATM   28  O   UNL     1      -9.086  11.941  65.715  1.00  0.00    -0.163 OA 
HETATM   29  C   UNL     1      -9.510  10.040  63.089  1.00  0.00    -0.229 C  
ENDBRANCH   4  22
TORSDOF 1
ENDMDL
MODEL       70
REMARK 921   NORMALIZED FREE ENERGY PREDICTED BY IDOCK:   -4.30 KCAL/MOL
REMARK 922        TOTAL FREE ENERGY PREDICTED BY IDOCK:   -3.62 KCAL/MOL
REMARK 923 INTER-LIGAND FREE ENERGY PREDICTED BY IDOCK:   -4.50 KCAL/MOL
REMARK 924 INTRA-LIGAND FREE ENERGY PREDICTED BY IDOCK:    0.89 KCAL/MOL
REMARK 927      BINDING AFFINITY PREDICTED BY RF-SCORE:    0.00 PKD
ROOT
HETATM    1  C   UNL     1     -10.369  11.645  66.387  1.00  0.00    -0.266 C  
HETATM    2  C   UNL     1     -10.861  10.650  67.281  1.00  0.00    -0.345 C  
HETATM    3  C   UNL     1      -9.614  11.241  67.835  1.00  0.00    -0.182 C  
HETATM    4  C   UNL     1      -8.913  12.857  66.788  1.00  0.00    -0.182 C  
HETATM    5  C   UNL     1      -5.615  10.683  64.848  1.00  0.00    -0.104 C  
HETATM    6  C   UNL     1      -9.859  12.869  67.761  1.00  0.00    -0.221 C  
HETATM    7  C   UNL     1      -6.441   9.740  65.730  1.00  0.00    -0.083 C  
HETATM    8  C   UNL     1      -5.550   9.134  66.828  1.00  0.00    -0.040 C  
HETATM    9  C   UNL     1      -8.233  12.586  68.698  1.00  0.00     0.001 C  
HETATM   10  C   UNL     1     -10.944  13.732  68.327  1.00  0.00    -0.269 C  
HETATM   11  C   UNL     1      -5.483   7.822  67.109  1.00  0.00    -0.032 C  
HETATM   12  O   UNL     1      -5.690   5.711  66.079  1.00  0.00    -0.013 OA 
HETATM   13  C   UNL     1      -7.080  11.653  67.662  1.00  0.00    -0.095 C  
HETATM   14  C   UNL     1      -6.124   6.845  66.207  1.00  0.00    -0.035 C  
HETATM   15  H   UNL     1      -8.153   6.891  65.623  1.00  0.00     0.000 HD 
HETATM   16  C   UNL     1      -7.605  10.484  66.496  1.00  0.00    -0.128 C  
HETATM   17  N   UNL     1      -7.240   7.343  65.572  1.00  0.00    -0.064 N  
HETATM   18  C   UNL     1      -8.932  10.838  65.544  1.00  0.00    -0.210 C  
HETATM   19  C   UNL     1      -9.375   9.560  64.809  1.00  0.00    -0.235 C  
HETATM   20  C   UNL     1      -8.244   8.939  63.990  1.00  0.00    -0.168 C  
HETATM   21  C   UNL     1      -7.004   8.577  64.816  1.00  0.00    -0.073 C  
ENDROOT
BRANCH   4  22
HETATM   22  C   UNL     1      -8.305  14.411  66.981  1.00  0.00    -0.145 C  
HETATM   23  C   UNL     1      -9.961  17.804  66.275  1.00  0.00    -0.322 C  
HETATM   24  C   UNL     1      -7.508  17.403  66.255  1.00  0.00    -0.354 C  
HETATM   25  C   UNL     1      -8.831  16.935  66.879  1.00  0.00    -0.225 C  
HETATM   26  H   UNL     1      -9.954  15.272  66.084  1.00  0.00     0.000 HD 
HETATM   27  N   UNL     1      -9.102  15.490  66.602  1.00  0.00    -0.255 N  
HETATM   28  O   UNL     1      -7.152  14.601  67.373  1.00  0.00    -0.190 OA 
HETATM   29  C   UNL     1      -8.817  17.223  68.394  1.00  0.00    -0.269 C  
ENDBRANCH   4  22
TORSDOF 1
ENDMDL
MODEL       71
REMARK 921   NORMALIZED FREE ENERGY PREDICTED BY IDOCK:   -4.27 KCAL/MOL
REMARK 922        TOTAL FREE ENERGY PREDICTED BY IDOCK:   -3.59 KCAL/MOL
REMARK 923 INTER-LIGAND FREE ENERGY PREDICTED BY IDOCK:   -4.65 KCAL/MOL
REMARK 924 INTRA-LIGAND FREE ENERGY PREDICTED BY IDOCK:    1.07 KCAL/MOL
REMARK 927      BINDING AFFINITY PREDICTED BY RF-SCORE:    0.00 PKD
ROOT
HETATM    1  C   UNL     1      -7.925   9.196  71.733  1.00  0.00     0.247 C  
HETATM    2  C   UNL     1      -6.726   8.436  71.862  1.00  0.00    -0.083 C  
HETATM    3  C   UNL     1      -7.272   8.270  70.490  1.00  0.00    -0.045 C  
HETATM    4  C   UNL     1      -8.862   9.490  70.064  1.00  0.00    -0.246 C  
HETATM    5  C   UNL     1     -11.900   6.322  70.380  1.00  0.00    -0.177 C  
HETATM    6  C   UNL     1      -7.546   9.807  69.964  1.00  0.00    -0.169 C  
HETATM    7  C   UNL     1     -10.505   5.768  70.693  1.00  0.00    -0.331 C  
HETATM    8  C   UNL     1     -10.147   4.655  69.693  1.00  0.00    -0.232 C  
HETATM    9  C   UNL     1      -7.857   8.646  68.495  1.00  0.00    -0.108 C  
HETATM   10  C   UNL     1      -6.633  10.988  69.844  1.00  0.00    -0.142 C  
HETATM   11  C   UNL     1      -9.681   3.445  70.045  1.00  0.00    -0.114 C  
HETATM   12  O   UNL     1      -9.800   1.870  71.796  1.00  0.00    -0.131 OA 
HETATM   13  C   UNL     1      -9.138   7.442  68.923  1.00  0.00    -0.136 C  
HETATM   14  C   UNL     1      -9.690   3.040  71.464  1.00  0.00    -0.153 C  
HETATM   15  H   UNL     1      -8.806   4.135  73.040  1.00  0.00     0.000 HD 
HETATM   16  C   UNL     1      -9.369   6.854  70.537  1.00  0.00    -0.159 C  
HETATM   17  N   UNL     1      -9.541   4.098  72.334  1.00  0.00    -0.133 N  
HETATM   18  C   UNL     1      -9.279   7.937  71.807  1.00  0.00    -0.194 C  
HETATM   19  C   UNL     1      -9.225   7.151  73.130  1.00  0.00    -0.179 C  
HETATM   20  C   UNL     1     -10.408   6.196  73.287  1.00  0.00    -0.242 C  
HETATM   21  C   UNL     1     -10.530   5.167  72.156  1.00  0.00    -0.220 C  
ENDROOT
BRANCH   4  22
HETATM   22  C   UNL     1      -9.479  10.516  68.886  1.00  0.00    -0.193 C  
HETATM   23  C   UNL     1     -12.004  13.393  69.210  1.00  0.00    -0.367 C  
HETATM   24  C   UNL     1     -11.622  12.081  67.133  1.00  0.00    -0.387 C  
HETATM   25  C   UNL     1     -10.947  12.586  68.418  1.00  0.00    -0.248 C  
HETATM   26  H   UNL     1     -10.819  11.379  70.202  1.00  0.00     0.000 HD 
HETATM   27  N   UNL     1     -10.433  11.462  69.261  1.00  0.00    -0.129 N  
HETATM   28  O   UNL     1      -9.163  10.392  67.703  1.00  0.00    -0.147 OA 
HETATM   29  C   UNL     1      -9.821  13.575  68.053  1.00  0.00    -0.238 C  
ENDBRANCH   4  22
TORSDOF 1
ENDMDL
MODEL       72
REMARK 921   NORMALIZED FREE ENERGY PREDICTED BY IDOCK:   -4.25 KCAL/MOL
REMARK 922        TOTAL FREE ENERGY PREDICTED BY IDOCK:   -3.57 KCAL/MOL
REMARK 923 INTER-LIGAND FREE ENERGY PREDICTED BY IDOCK:   -4.40 KCAL/MOL
REMARK 924 INTRA-LIGAND FREE ENERGY PREDICTED BY IDOCK:    0.83 KCAL/MOL
REMARK 927      BINDING AFFINITY PREDICTED BY RF-SCORE:    0.00 PKD
ROOT
HETATM    1  C   UNL     1     -10.743   7.338  68.455  1.00  0.00    -0.165 C  
HETATM    2  C   UNL     1     -10.879   6.379  67.409  1.00  0.00    -0.457 C  
HETATM    3  C   UNL     1      -9.485   6.353  67.927  1.00  0.00    -0.115 C  
HETATM    4  C   UNL     1      -9.188   7.501  69.597  1.00  0.00    -0.146 C  
HETATM    5  C   UNL     1      -7.088  10.744  67.492  1.00  0.00    -0.089 C  
HETATM    6  C   UNL     1      -9.652   6.226  69.561  1.00  0.00    -0.163 C  
HETATM    7  C   UNL     1      -7.531   9.657  66.507  1.00  0.00    -0.094 C  
HETATM    8  C   UNL     1      -6.302   9.058  65.800  1.00  0.00    -0.060 C  
HETATM    9  C   UNL     1      -7.804   6.057  69.169  1.00  0.00    -0.099 C  
HETATM   10  C   UNL     1     -10.366   5.216  70.406  1.00  0.00    -0.326 C  
HETATM   11  C   UNL     1      -6.196   8.905  64.469  1.00  0.00    -0.066 C  
HETATM   12  O   UNL     1      -6.916   9.878  62.446  1.00  0.00    -0.103 OA 
HETATM   13  C   UNL     1      -7.224   7.526  68.288  1.00  0.00    -0.093 C  
HETATM   14  C   UNL     1      -7.200   9.518  63.578  1.00  0.00    -0.105 C  
HETATM   15  H   UNL     1      -9.286   9.215  63.717  1.00  0.00     0.000 HD 
HETATM   16  C   UNL     1      -8.240   8.439  67.221  1.00  0.00    -0.112 C  
HETATM   17  N   UNL     1      -8.451   9.610  64.149  1.00  0.00    -0.165 N  
HETATM   18  C   UNL     1      -9.819   8.740  67.678  1.00  0.00    -0.228 C  
HETATM   19  C   UNL     1     -10.590   9.300  66.468  1.00  0.00    -0.117 C  
HETATM   20  C   UNL     1      -9.926  10.546  65.882  1.00  0.00    -0.313 C  
HETATM   21  C   UNL     1      -8.478  10.324  65.429  1.00  0.00    -0.161 C  
ENDROOT
BRANCH   4  22
HETATM   22  C   UNL     1      -8.473   7.485  71.118  1.00  0.00    -0.117 C  
HETATM   23  C   UNL     1      -9.958   6.513  74.523  1.00  0.00    -0.358 C  
HETATM   24  C   UNL     1      -8.056   8.083  74.213  1.00  0.00    -0.312 C  
HETATM   25  C   UNL     1      -8.763   6.862  73.605  1.00  0.00    -0.138 C  
HETATM   26  H   UNL     1     -10.258   7.048  72.060  1.00  0.00     0.000 HD 
HETATM   27  N   UNL     1      -9.254   7.131  72.217  1.00  0.00    -0.132 N  
HETATM   28  O   UNL     1      -7.308   7.853  71.278  1.00  0.00    -0.063 OA 
HETATM   29  C   UNL     1      -7.813   5.648  73.638  1.00  0.00    -0.105 C  
ENDBRANCH   4  22
TORSDOF 1
ENDMDL
MODEL       73
REMARK 921   NORMALIZED FREE ENERGY PREDICTED BY IDOCK:   -4.24 KCAL/MOL
REMARK 922        TOTAL FREE ENERGY PREDICTED BY IDOCK:   -3.56 KCAL/MOL
REMARK 923 INTER-LIGAND FREE ENERGY PREDICTED BY IDOCK:   -4.49 KCAL/MOL
REMARK 924 INTRA-LIGAND FREE ENERGY PREDICTED BY IDOCK:    0.93 KCAL/MOL
REMARK 927      BINDING AFFINITY PREDICTED BY RF-SCORE:    0.00 PKD
ROOT
HETATM    1  C   UNL     1     -10.204  11.927  65.796  1.00  0.00    -0.276 C  
HETATM    2  C   UNL     1     -11.564  11.532  65.971  1.00  0.00     0.024 C  
HETATM    3  C   UNL     1     -11.076  12.194  67.210  1.00  0.00    -0.341 C  
HETATM    4  C   UNL     1      -9.217  13.036  67.038  1.00  0.00    -0.232 C  
HETATM    5  C   UNL     1      -7.136   9.895  69.310  1.00  0.00    -0.069 C  
HETATM    6  C   UNL     1     -10.400  13.603  66.690  1.00  0.00    -0.275 C  
HETATM    7  C   UNL     1      -8.629   9.572  69.182  1.00  0.00    -0.140 C  
HETATM    8  C   UNL     1      -9.268   9.482  70.579  1.00  0.00    -0.284 C  
HETATM    9  C   UNL     1     -10.405  13.648  68.587  1.00  0.00    -0.223 C  
HETATM   10  C   UNL     1     -10.964  14.731  65.882  1.00  0.00    -0.335 C  
HETATM   11  C   UNL     1     -10.041   8.465  70.992  1.00  0.00    -0.242 C  
HETATM   12  O   UNL     1     -10.354   6.149  70.675  1.00  0.00    -0.197 OA 
HETATM   13  C   UNL     1      -9.494  12.228  69.239  1.00  0.00     0.757 C  
HETATM   14  C   UNL     1     -10.146   7.242  70.172  1.00  0.00    -0.189 C  
HETATM   15  H   UNL     1     -10.710   7.198  68.137  1.00  0.00     0.000 HD 
HETATM   16  C   UNL     1      -9.434  10.700  68.423  1.00  0.00    -0.165 C  
HETATM   17  N   UNL     1     -10.009   7.480  68.822  1.00  0.00    -0.167 N  
HETATM   18  C   UNL     1      -9.236  10.682  66.764  1.00  0.00    -0.174 C  
HETATM   19  C   UNL     1      -9.502   9.257  66.245  1.00  0.00    -0.284 C  
HETATM   20  C   UNL     1      -8.618   8.214  66.929  1.00  0.00    -0.126 C  
HETATM   21  C   UNL     1      -8.771   8.174  68.454  1.00  0.00    -0.134 C  
ENDROOT
BRANCH   4  22
HETATM   22  C   UNL     1      -8.344  14.427  67.393  1.00  0.00    -0.201 C  
HETATM   23  C   UNL     1      -9.218  18.111  66.744  1.00  0.00    -0.281 C  
HETATM   24  C   UNL     1      -6.904  17.228  66.947  1.00  0.00    -0.231 C  
HETATM   25  C   UNL     1      -8.354  17.008  67.402  1.00  0.00    -0.191 C  
HETATM   26  H   UNL     1      -9.683  15.640  66.392  1.00  0.00     0.000 HD 
HETATM   27  N   UNL     1      -8.869  15.660  67.006  1.00  0.00    -0.209 N  
HETATM   28  O   UNL     1      -7.228  14.365  67.910  1.00  0.00    -0.125 OA 
HETATM   29  C   UNL     1      -8.454  17.220  68.926  1.00  0.00    -0.175 C  
ENDBRANCH   4  22
TORSDOF 1
ENDMDL
MODEL       74
REMARK 921   NORMALIZED FREE ENERGY PREDICTED BY IDOCK:   -4.22 KCAL/MOL
REMARK 922        TOTAL FREE ENERGY PREDICTED BY IDOCK:   -3.53 KCAL/MOL
REMARK 923 INTER-LIGAND FREE ENERGY PREDICTED BY IDOCK:   -4.49 KCAL/MOL
REMARK 924 INTRA-LIGAND FREE ENERGY PREDICTED BY IDOCK:    0.96 KCAL/MOL
REMARK 927      BINDING AFFINITY PREDICTED BY RF-SCORE:    0.00 PKD
ROOT
HETATM    1  C   UNL     1     -12.092  13.438  71.114  1.00  0.00    -0.096 C  
HETATM    2  C   UNL     1     -13.363  13.948  70.717  1.00  0.00    -0.038 C  
HETATM    3  C   UNL     1     -13.000  12.796  69.852  1.00  0.00     0.825 C  
HETATM    4  C   UNL     1     -11.313  11.796  70.446  1.00  0.00     0.273 C  
HETATM    5  C   UNL     1      -8.726  13.457  67.299  1.00  0.00    -0.219 C  
HETATM    6  C   UNL     1     -12.575  11.602  70.906  1.00  0.00    -0.409 C  
HETATM    7  C   UNL     1     -10.140  14.039  67.200  1.00  0.00    -0.259 C  
HETATM    8  C   UNL     1     -10.757  13.690  65.834  1.00  0.00    -0.281 C  
HETATM    9  C   UNL     1     -12.592  10.839  69.169  1.00  0.00     0.444 C  
HETATM   10  C   UNL     1     -13.324  10.974  72.040  1.00  0.00    -0.393 C  
HETATM   11  C   UNL     1     -11.344  14.582  65.020  1.00  0.00    -0.377 C  
HETATM   12  O   UNL     1     -11.251  16.861  64.423  1.00  0.00    -1.159 OA 
HETATM   13  C   UNL     1     -11.450  11.738  68.091  1.00  0.00    -0.382 C  
HETATM   14  C   UNL     1     -11.234  16.025  65.312  1.00  0.00    -0.112 C  
HETATM   15  H   UNL     1     -11.779  16.932  67.140  1.00  0.00     0.000 HD 
HETATM   16  C   UNL     1     -11.126  13.430  68.274  1.00  0.00    -0.289 C  
HETATM   17  N   UNL     1     -11.139  16.301  66.658  1.00  0.00    -0.004 N  
HETATM   18  C   UNL     1     -10.925  14.048  69.814  1.00  0.00    -0.022 C  
HETATM   19  C   UNL     1     -10.941  15.586  69.741  1.00  0.00    -0.299 C  
HETATM   20  C   UNL     1      -9.891  16.132  68.773  1.00  0.00    -0.230 C  
HETATM   21  C   UNL     1     -10.038  15.612  67.338  1.00  0.00    -0.251 C  
ENDROOT
BRANCH   4  22
HETATM   22  C   UNL     1     -10.694  10.255  70.698  1.00  0.00    -0.055 C  
HETATM   23  C   UNL     1      -7.538   8.608  69.256  1.00  0.00    -0.094 C  
HETATM   24  C   UNL     1      -9.548   7.365  70.026  1.00  0.00    -0.168 C  
HETATM   25  C   UNL     1      -8.728   8.646  70.244  1.00  0.00    -0.147 C  
HETATM   26  H   UNL     1      -9.221  10.508  69.272  1.00  0.00     0.000 HD 
HETATM   27  N   UNL     1      -9.541   9.880  70.009  1.00  0.00    -0.236 N  
HETATM   28  O   UNL     1     -11.281   9.440  71.411  1.00  0.00    -0.330 OA 
HETATM   29  C   UNL     1      -8.123   8.635  71.662  1.00  0.00    -0.183 C  
ENDBRANCH   4  22
TORSDOF 1
ENDMDL
MODEL       75
REMARK 921   NORMALIZED FREE ENERGY PREDICTED BY IDOCK:   -4.22 KCAL/MOL
REMARK 922        TOTAL FREE ENERGY PREDICTED BY IDOCK:   -3.53 KCAL/MOL
REMARK 923 INTER-LIGAND FREE ENERGY PREDICTED BY IDOCK:   -4.65 KCAL/MOL
REMARK 924 INTRA-LIGAND FREE ENERGY PREDICTED BY IDOCK:    1.12 KCAL/MOL
REMARK 927      BINDING AFFINITY PREDICTED BY RF-SCORE:    0.00 PKD
ROOT
HETATM    1  C   UNL     1     -10.098   6.643  69.105  1.00  0.00    -0.185 C  
HETATM    2  C   UNL     1     -11.486   6.553  68.791  1.00  0.00    -0.099 C  
HETATM    3  C   UNL     1     -10.687   6.442  67.542  1.00  0.00    -0.396 C  
HETATM    4  C   UNL     1      -8.666   6.308  67.846  1.00  0.00    -0.114 C  
HETATM    5  C   UNL     1      -7.798  10.447  66.631  1.00  0.00    -0.120 C  
HETATM    6  C   UNL     1      -9.559   5.287  67.872  1.00  0.00    -0.161 C  
HETATM    7  C   UNL     1      -9.304  10.170  66.572  1.00  0.00    -0.200 C  
HETATM    8  C   UNL     1      -9.819  10.369  65.136  1.00  0.00    -0.378 C  
HETATM    9  C   UNL     1      -9.402   5.718  66.031  1.00  0.00    -0.134 C  
HETATM   10  C   UNL     1      -9.702   3.869  68.331  1.00  0.00    -0.115 C  
HETATM   11  C   UNL     1     -10.892  11.111  64.814  1.00  0.00    -0.277 C  
HETATM   12  O   UNL     1     -12.100  13.002  65.535  1.00  0.00    -0.400 OA 
HETATM   13  C   UNL     1      -9.065   7.485  65.839  1.00  0.00    -0.086 C  
HETATM   14  C   UNL     1     -11.524  11.968  65.835  1.00  0.00    -0.333 C  
HETATM   15  H   UNL     1     -12.216  11.299  67.715  1.00  0.00     0.000 HD 
HETATM   16  C   UNL     1      -9.664   8.678  66.944  1.00  0.00    -0.278 C  
HETATM   17  N   UNL     1     -11.410  11.467  67.113  1.00  0.00    -0.293 N  
HETATM   18  C   UNL     1      -9.616   8.351  68.582  1.00  0.00    -0.153 C  
HETATM   19  C   UNL     1     -10.453   9.408  69.327  1.00  0.00    -0.230 C  
HETATM   20  C   UNL     1      -9.992  10.834  69.023  1.00  0.00    -0.214 C  
HETATM   21  C   UNL     1     -10.032  11.195  67.533  1.00  0.00    -0.181 C  
ENDROOT
BRANCH   4  22
HETATM   22  C   UNL     1      -7.297   5.458  67.368  1.00  0.00    -0.083 C  
HETATM   23  C   UNL     1      -7.002   2.249  65.279  1.00  0.00    -0.048 C  
HETATM   24  C   UNL     1      -5.319   3.005  66.945  1.00  0.00    -0.016 C  
HETATM   25  C   UNL     1      -6.389   3.497  65.959  1.00  0.00    -0.032 C  
HETATM   26  H   UNL     1      -8.415   3.914  66.572  1.00  0.00     0.000 HD 
HETATM   27  N   UNL     1      -7.465   4.279  66.643  1.00  0.00    -0.080 N  
HETATM   28  O   UNL     1      -6.171   5.817  67.714  1.00  0.00    -0.027 OA 
HETATM   29  C   UNL     1      -5.719   4.322  64.842  1.00  0.00    -0.014 C  
ENDBRANCH   4  22
TORSDOF 1
ENDMDL
MODEL       76
REMARK 921   NORMALIZED FREE ENERGY PREDICTED BY IDOCK:   -4.21 KCAL/MOL
REMARK 922        TOTAL FREE ENERGY PREDICTED BY IDOCK:   -3.53 KCAL/MOL
REMARK 923 INTER-LIGAND FREE ENERGY PREDICTED BY IDOCK:   -4.51 KCAL/MOL
REMARK 924 INTRA-LIGAND FREE ENERGY PREDICTED BY IDOCK:    0.98 KCAL/MOL
REMARK 927      BINDING AFFINITY PREDICTED BY RF-SCORE:    0.00 PKD
ROOT
HETATM    1  C   UNL     1     -10.636   6.988  70.686  1.00  0.00    -0.246 C  
HETATM    2  C   UNL     1     -11.858   6.729  69.998  1.00  0.00    -0.265 C  
HETATM    3  C   UNL     1     -10.713   6.513  69.074  1.00  0.00    -0.324 C  
HETATM    4  C   UNL     1      -8.876   6.608  69.974  1.00  0.00    -0.141 C  
HETATM    5  C   UNL     1      -7.860  10.591  68.407  1.00  0.00    -0.110 C  
HETATM    6  C   UNL     1      -9.690   5.524  69.904  1.00  0.00    -0.233 C  
HETATM    7  C   UNL     1      -9.264  10.174  67.956  1.00  0.00    -0.142 C  
HETATM    8  C   UNL     1      -9.326  10.118  66.419  1.00  0.00    -0.209 C  
HETATM    9  C   UNL     1      -9.000   5.700  68.146  1.00  0.00    -0.111 C  
HETATM   10  C   UNL     1      -9.905   4.179  70.527  1.00  0.00    -0.252 C  
HETATM   11  C   UNL     1     -10.281  10.706  65.680  1.00  0.00    -0.319 C  
HETATM   12  O   UNL     1     -11.732  12.564  65.695  1.00  0.00    -0.381 OA 
HETATM   13  C   UNL     1      -8.697   7.444  67.774  1.00  0.00    -0.126 C  
HETATM   14  C   UNL     1     -11.230  11.640  66.316  1.00  0.00    -0.271 C  
HETATM   15  H   UNL     1     -12.431  11.187  67.994  1.00  0.00     0.000 HD 
HETATM   16  C   UNL     1      -9.655   8.724  68.444  1.00  0.00    -0.157 C  
HETATM   17  N   UNL     1     -11.488  11.339  67.635  1.00  0.00    -0.287 N  
HETATM   18  C   UNL     1     -10.093   8.641  70.055  1.00  0.00    -0.195 C  
HETATM   19  C   UNL     1     -11.161   9.713  70.338  1.00  0.00    -0.346 C  
HETATM   20  C   UNL     1     -10.692  11.116  69.953  1.00  0.00     0.033 C  
HETATM   21  C   UNL     1     -10.293  11.256  68.479  1.00  0.00    -0.203 C  
ENDROOT
BRANCH   4  22
HETATM   22  C   UNL     1      -7.392   5.826  70.065  1.00  0.00    -0.074 C  
HETATM   23  C   UNL     1      -6.580   2.073  69.962  1.00  0.00    -0.029 C  
HETATM   24  C   UNL     1      -5.159   3.791  71.060  1.00  0.00     0.000 C  
HETATM   25  C   UNL     1      -6.162   3.562  69.919  1.00  0.00    -0.028 C  
HETATM   26  H   UNL     1      -8.271   3.958  70.142  1.00  0.00     0.000 HD 
HETATM   27  N   UNL     1      -7.372   4.431  70.052  1.00  0.00    -0.046 N  
HETATM   28  O   UNL     1      -6.346   6.458  70.219  1.00  0.00    -0.037 OA 
HETATM   29  C   UNL     1      -5.458   3.782  68.564  1.00  0.00    -0.013 C  
ENDBRANCH   4  22
TORSDOF 1
ENDMDL
MODEL       77
REMARK 921   NORMALIZED FREE ENERGY PREDICTED BY IDOCK:   -4.12 KCAL/MOL
REMARK 922        TOTAL FREE ENERGY PREDICTED BY IDOCK:   -3.42 KCAL/MOL
REMARK 923 INTER-LIGAND FREE ENERGY PREDICTED BY IDOCK:   -4.39 KCAL/MOL
REMARK 924 INTRA-LIGAND FREE ENERGY PREDICTED BY IDOCK:    0.96 KCAL/MOL
REMARK 927      BINDING AFFINITY PREDICTED BY RF-SCORE:    0.00 PKD
ROOT
HETATM    1  C   UNL     1      -9.610   2.898  68.337  1.00  0.00    -0.111 C  
HETATM    2  C   UNL     1      -8.426   2.115  68.199  1.00  0.00    -0.089 C  
HETATM    3  C   UNL     1      -8.099   3.391  68.888  1.00  0.00    -0.071 C  
HETATM    4  C   UNL     1      -9.732   4.524  69.380  1.00  0.00    -0.272 C  
HETATM    5  C   UNL     1      -9.158   7.480  66.172  1.00  0.00    -0.179 C  
HETATM    6  C   UNL     1      -9.206   3.503  70.103  1.00  0.00    -0.224 C  
HETATM    7  C   UNL     1      -8.089   6.385  66.097  1.00  0.00    -0.117 C  
HETATM    8  C   UNL     1      -6.690   7.006  66.257  1.00  0.00    -0.053 C  
HETATM    9  C   UNL     1      -7.968   4.922  70.336  1.00  0.00    -0.070 C  
HETATM   10  C   UNL     1      -9.540   2.569  71.224  1.00  0.00    -0.224 C  
HETATM   11  C   UNL     1      -5.657   6.765  65.432  1.00  0.00    -0.030 C  
HETATM   12  O   UNL     1      -5.190   6.231  63.184  1.00  0.00    -0.017 OA 
HETATM   13  C   UNL     1      -7.933   5.959  68.853  1.00  0.00    -0.102 C  
HETATM   14  C   UNL     1      -5.882   6.034  64.170  1.00  0.00    -0.022 C  
HETATM   15  H   UNL     1      -6.794   4.134  64.019  1.00  0.00     0.000 HD 
HETATM   16  C   UNL     1      -8.216   5.328  67.264  1.00  0.00    -0.104 C  
HETATM   17  N   UNL     1      -6.912   5.121  64.245  1.00  0.00    -0.048 N  
HETATM   18  C   UNL     1      -9.443   4.215  67.048  1.00  0.00    -0.215 C  
HETATM   19  C   UNL     1      -9.314   3.595  65.644  1.00  0.00    -0.162 C  
HETATM   20  C   UNL     1      -9.310   4.652  64.540  1.00  0.00    -0.071 C  
HETATM   21  C   UNL     1      -8.192   5.691  64.678  1.00  0.00    -0.129 C  
ENDROOT
BRANCH   4  22
HETATM   22  C   UNL     1     -10.407   5.421  70.631  1.00  0.00    -0.262 C  
HETATM   23  C   UNL     1     -11.534   9.092  70.694  1.00  0.00    -0.291 C  
HETATM   24  C   UNL     1     -10.815   7.805  72.695  1.00  0.00    -0.413 C  
HETATM   25  C   UNL     1     -11.466   7.674  71.310  1.00  0.00    -0.269 C  
HETATM   26  H   UNL     1     -10.327   7.177  69.545  1.00  0.00     0.000 HD 
HETATM   27  N   UNL     1     -10.688   6.768  70.408  1.00  0.00    -0.230 N  
HETATM   28  O   UNL     1     -10.579   4.929  71.747  1.00  0.00    -0.181 OA 
HETATM   29  C   UNL     1     -12.922   7.192  71.469  1.00  0.00    -0.431 C  
ENDBRANCH   4  22
TORSDOF 1
ENDMDL
MODEL       78
REMARK 921   NORMALIZED FREE ENERGY PREDICTED BY IDOCK:   -4.08 KCAL/MOL
REMARK 922        TOTAL FREE ENERGY PREDICTED BY IDOCK:   -3.39 KCAL/MOL
REMARK 923 INTER-LIGAND FREE ENERGY PREDICTED BY IDOCK:   -4.50 KCAL/MOL
REMARK 924 INTRA-LIGAND FREE ENERGY PREDICTED BY IDOCK:    1.11 KCAL/MOL
REMARK 927      BINDING AFFINITY PREDICTED BY RF-SCORE:    0.00 PKD
ROOT
HETATM    1  C   UNL     1      -9.148   8.348  66.266  1.00  0.00    -0.241 C  
HETATM    2  C   UNL     1      -7.949   9.068  66.542  1.00  0.00    -0.103 C  
HETATM    3  C   UNL     1      -7.753   7.632  66.874  1.00  0.00    -0.103 C  
HETATM    4  C   UNL     1      -9.303   6.418  66.308  1.00  0.00    -0.149 C  
HETATM    5  C   UNL     1     -10.928   5.914  70.365  1.00  0.00    -0.376 C  
HETATM    6  C   UNL     1      -8.264   6.822  65.533  1.00  0.00    -0.131 C  
HETATM    7  C   UNL     1      -9.714   6.849  70.380  1.00  0.00    -0.177 C  
HETATM    8  C   UNL     1      -8.608   6.259  71.273  1.00  0.00    -0.124 C  
HETATM    9  C   UNL     1      -7.497   5.542  66.706  1.00  0.00    -0.087 C  
HETATM   10  C   UNL     1      -7.840   6.918  64.100  1.00  0.00    -0.104 C  
HETATM   11  C   UNL     1      -7.970   6.943  72.237  1.00  0.00    -0.093 C  
HETATM   12  O   UNL     1      -8.309   8.698  73.775  1.00  0.00    -0.363 OA 
HETATM   13  C   UNL     1      -8.355   5.575  68.298  1.00  0.00    -0.098 C  
HETATM   14  C   UNL     1      -8.461   8.275  72.639  1.00  0.00    -0.183 C  
HETATM   15  H   UNL     1      -8.773   9.897  71.322  1.00  0.00     0.000 HD 
HETATM   16  C   UNL     1      -9.056   7.018  68.954  1.00  0.00    -0.134 C  
HETATM   17  N   UNL     1      -9.068   8.965  71.612  1.00  0.00    -0.248 N  
HETATM   18  C   UNL     1      -9.895   8.040  67.932  1.00  0.00    -0.204 C  
HETATM   19  C   UNL     1     -10.165   9.367  68.664  1.00  0.00    -0.222 C  
HETATM   20  C   UNL     1     -10.905   9.161  69.986  1.00  0.00    -0.256 C  
HETATM   21  C   UNL     1     -10.172   8.243  70.972  1.00  0.00    -0.191 C  
ENDROOT
BRANCH   4  22
HETATM   22  C   UNL     1      -9.647   4.955  65.557  1.00  0.00    -0.132 C  
HETATM   23  C   UNL     1      -7.351   2.625  63.543  1.00  0.00    -0.056 C  
HETATM   24  C   UNL     1      -9.817   2.758  63.264  1.00  0.00    -0.106 C  
HETATM   25  C   UNL     1      -8.677   2.934  64.278  1.00  0.00    -0.095 C  
HETATM   26  H   UNL     1      -7.779   4.854  64.680  1.00  0.00     0.000 HD 
HETATM   27  N   UNL     1      -8.634   4.320  64.839  1.00  0.00    -0.121 N  
HETATM   28  O   UNL     1     -10.785   4.485  65.567  1.00  0.00    -0.283 OA 
HETATM   29  C   UNL     1      -8.816   1.881  65.396  1.00  0.00    -0.120 C  
ENDBRANCH   4  22
TORSDOF 1
ENDMDL
MODEL       79
REMARK 921   NORMALIZED FREE ENERGY PREDICTED BY IDOCK:   -4.07 KCAL/MOL
REMARK 922        TOTAL FREE ENERGY PREDICTED BY IDOCK:   -3.37 KCAL/MOL
REMARK 923 INTER-LIGAND FREE ENERGY PREDICTED BY IDOCK:   -4.21 KCAL/MOL
REMARK 924 INTRA-LIGAND FREE ENERGY PREDICTED BY IDOCK:    0.83 KCAL/MOL
REMARK 927      BINDING AFFINITY PREDICTED BY RF-SCORE:    0.00 PKD
ROOT
HETATM    1  C   UNL     1     -11.218   8.797  68.587  1.00  0.00     0.401 C  
HETATM    2  C   UNL     1     -11.043   8.197  69.869  1.00  0.00    -0.102 C  
HETATM    3  C   UNL     1      -9.822   8.966  69.512  1.00  0.00    -0.180 C  
HETATM    4  C   UNL     1     -10.004  10.089  67.808  1.00  0.00    -0.203 C  
HETATM    5  C   UNL     1      -7.608   7.394  65.288  1.00  0.00    -0.098 C  
HETATM    6  C   UNL     1     -10.383  10.449  69.061  1.00  0.00    -0.232 C  
HETATM    7  C   UNL     1      -7.739   6.833  66.708  1.00  0.00    -0.106 C  
HETATM    8  C   UNL     1      -6.346   6.687  67.345  1.00  0.00    -0.044 C  
HETATM    9  C   UNL     1      -8.489  10.552  69.102  1.00  0.00    -0.152 C  
HETATM   10  C   UNL     1     -11.234  11.446  69.785  1.00  0.00    -0.266 C  
HETATM   11  C   UNL     1      -5.906   5.573  67.953  1.00  0.00    -0.017 C  
HETATM   12  O   UNL     1      -6.148   3.228  67.887  1.00  0.00    -0.026 OA 
HETATM   13  C   UNL     1      -7.781   9.317  67.985  1.00  0.00    -0.088 C  
HETATM   14  C   UNL     1      -6.686   4.324  67.849  1.00  0.00    -0.051 C  
HETATM   15  H   UNL     1      -8.724   4.125  68.368  1.00  0.00     0.000 HD 
HETATM   16  C   UNL     1      -8.543   7.793  67.670  1.00  0.00    -0.123 C  
HETATM   17  N   UNL     1      -8.042   4.537  67.732  1.00  0.00    -0.098 N  
HETATM   18  C   UNL     1     -10.199   7.754  67.447  1.00  0.00    -0.320 C  
HETATM   19  C   UNL     1     -10.673   6.289  67.475  1.00  0.00    -0.398 C  
HETATM   20  C   UNL     1      -9.945   5.424  66.447  1.00  0.00    -0.218 C  
HETATM   21  C   UNL     1      -8.421   5.408  66.615  1.00  0.00    -0.108 C  
ENDROOT
BRANCH   4  22
HETATM   22  C   UNL     1      -9.689  11.612  67.173  1.00  0.00    -0.181 C  
HETATM   23  C   UNL     1     -11.537  14.935  67.719  1.00  0.00    -0.358 C  
HETATM   24  C   UNL     1     -10.201  14.382  65.697  1.00  0.00    -0.371 C  
HETATM   25  C   UNL     1     -10.333  14.111  67.203  1.00  0.00    -0.265 C  
HETATM   26  H   UNL     1     -11.415  12.412  67.977  1.00  0.00     0.000 HD 
HETATM   27  N   UNL     1     -10.551  12.660  67.495  1.00  0.00    -0.219 N  
HETATM   28  O   UNL     1      -8.766  11.792  66.377  1.00  0.00    -0.193 OA 
HETATM   29  C   UNL     1      -9.086  14.649  67.934  1.00  0.00    -0.189 C  
ENDBRANCH   4  22
TORSDOF 1
ENDMDL
MODEL       80
REMARK 921   NORMALIZED FREE ENERGY PREDICTED BY IDOCK:   -4.06 KCAL/MOL
REMARK 922        TOTAL FREE ENERGY PREDICTED BY IDOCK:   -3.36 KCAL/MOL
REMARK 923 INTER-LIGAND FREE ENERGY PREDICTED BY IDOCK:   -4.53 KCAL/MOL
REMARK 924 INTRA-LIGAND FREE ENERGY PREDICTED BY IDOCK:    1.17 KCAL/MOL
REMARK 927      BINDING AFFINITY PREDICTED BY RF-SCORE:    0.00 PKD
ROOT
HETATM    1  C   UNL     1      -6.996  11.550  67.713  1.00  0.00    -0.078 C  
HETATM    2  C   UNL     1      -6.412  12.373  68.721  1.00  0.00    -0.084 C  
HETATM    3  C   UNL     1      -7.320  11.381  69.356  1.00  0.00     0.012 C  
HETATM    4  C   UNL     1      -8.053   9.967  68.067  1.00  0.00    -0.108 C  
HETATM    5  C   UNL     1     -12.081  11.715  67.793  1.00  0.00     0.089 C  
HETATM    6  C   UNL     1      -6.863   9.932  68.719  1.00  0.00    -0.054 C  
HETATM    7  C   UNL     1     -11.179  12.572  68.689  1.00  0.00    -0.319 C  
HETATM    8  C   UNL     1     -11.770  12.648  70.108  1.00  0.00    -0.247 C  
HETATM    9  C   UNL     1      -8.143   9.573  70.073  1.00  0.00    -0.176 C  
HETATM   10  C   UNL     1      -5.536   9.237  68.697  1.00  0.00    -0.040 C  
HETATM   11  C   UNL     1     -11.948  13.791  70.791  1.00  0.00    -0.318 C  
HETATM   12  O   UNL     1     -12.396  16.081  70.454  1.00  0.00    -0.297 OA 
HETATM   13  C   UNL     1      -9.689  10.438  69.703  1.00  0.00    -0.158 C  
HETATM   14  C   UNL     1     -11.775  15.088  70.109  1.00  0.00    -0.299 C  
HETATM   15  H   UNL     1     -10.043  15.676  69.051  1.00  0.00     0.000 HD 
HETATM   16  C   UNL     1      -9.736  11.955  68.868  1.00  0.00     0.041 C  
HETATM   17  N   UNL     1     -10.846  15.049  69.092  1.00  0.00    -0.241 N  
HETATM   18  C   UNL     1      -8.729  12.180  67.553  1.00  0.00    -0.173 C  
HETATM   19  C   UNL     1      -8.737  13.671  67.167  1.00  0.00    -0.224 C  
HETATM   20  C   UNL     1     -10.147  14.193  66.893  1.00  0.00    -0.258 C  
HETATM   21  C   UNL     1     -11.111  14.028  68.073  1.00  0.00    -0.263 C  
ENDROOT
BRANCH   4  22
HETATM   22  C   UNL     1      -8.325   8.316  67.912  1.00  0.00    -0.128 C  
HETATM   23  C   UNL     1     -11.276   6.184  69.136  1.00  0.00    -0.409 C  
HETATM   24  C   UNL     1      -8.978   5.319  68.750  1.00  0.00    -0.125 C  
HETATM   25  C   UNL     1      -9.989   6.383  68.299  1.00  0.00    -0.140 C  
HETATM   26  H   UNL     1     -10.002   8.380  69.116  1.00  0.00     0.000 HD 
HETATM   27  N   UNL     1      -9.468   7.772  68.495  1.00  0.00    -0.147 N  
HETATM   28  O   UNL     1      -7.499   7.583  67.367  1.00  0.00    -0.098 OA 
HETATM   29  C   UNL     1     -10.378   6.132  66.828  1.00  0.00    -0.292 C  
ENDBRANCH   4  22
TORSDOF 1
ENDMDL
MODEL       81
REMARK 921   NORMALIZED FREE ENERGY PREDICTED BY IDOCK:   -4.01 KCAL/MOL
REMARK 922        TOTAL FREE ENERGY PREDICTED BY IDOCK:   -3.31 KCAL/MOL
REMARK 923 INTER-LIGAND FREE ENERGY PREDICTED BY IDOCK:   -4.22 KCAL/MOL
REMARK 924 INTRA-LIGAND FREE ENERGY PREDICTED BY IDOCK:    0.91 KCAL/MOL
REMARK 927      BINDING AFFINITY PREDICTED BY RF-SCORE:    0.00 PKD
ROOT
HETATM    1  C   UNL     1     -10.273   9.807  70.181  1.00  0.00    -0.328 C  
HETATM    2  C   UNL     1     -11.589  10.085  69.707  1.00  0.00    -0.193 C  
HETATM    3  C   UNL     1     -11.109   8.807  69.117  1.00  0.00     0.139 C  
HETATM    4  C   UNL     1      -9.330   8.142  69.885  1.00  0.00    -0.159 C  
HETATM    5  C   UNL     1      -6.922   9.293  66.388  1.00  0.00    -0.084 C  
HETATM    6  C   UNL     1     -10.567   7.933  70.404  1.00  0.00    -0.228 C  
HETATM    7  C   UNL     1      -8.388   9.694  66.191  1.00  0.00    -0.122 C  
HETATM    8  C   UNL     1      -8.964   8.983  64.953  1.00  0.00    -0.170 C  
HETATM    9  C   UNL     1     -10.504   6.797  68.886  1.00  0.00    -0.229 C  
HETATM   10  C   UNL     1     -11.249   7.508  71.668  1.00  0.00    -0.275 C  
HETATM   11  C   UNL     1      -9.638   9.605  63.971  1.00  0.00     0.149 C  
HETATM   12  O   UNL     1      -9.777  11.686  62.872  1.00  0.00    -0.382 OA 
HETATM   13  C   UNL     1      -9.458   7.536  67.607  1.00  0.00    -0.159 C  
HETATM   14  C   UNL     1      -9.676  11.079  63.927  1.00  0.00    -0.292 C  
HETATM   15  H   UNL     1     -10.313  12.320  65.514  1.00  0.00     0.000 HD 
HETATM   16  C   UNL     1      -9.308   9.250  67.396  1.00  0.00    -0.153 C  
HETATM   17  N   UNL     1      -9.611  11.663  65.173  1.00  0.00    -0.217 N  
HETATM   18  C   UNL     1      -9.173  10.218  68.751  1.00  0.00    -0.166 C  
HETATM   19  C   UNL     1      -9.345  11.690  68.333  1.00  0.00    -0.191 C  
HETATM   20  C   UNL     1      -8.355  12.104  67.244  1.00  0.00    -0.179 C  
HETATM   21  C   UNL     1      -8.447  11.259  65.967  1.00  0.00    -0.102 C  
ENDROOT
BRANCH   4  22
HETATM   22  C   UNL     1      -8.558   6.768  70.465  1.00  0.00    -0.142 C  
HETATM   23  C   UNL     1      -9.576   4.387  73.302  1.00  0.00    -0.142 C  
HETATM   24  C   UNL     1      -7.238   4.752  72.541  1.00  0.00    -0.082 C  
HETATM   25  C   UNL     1      -8.703   4.760  72.079  1.00  0.00    -0.124 C  
HETATM   26  H   UNL     1      -9.886   6.564  72.034  1.00  0.00     0.000 HD 
HETATM   27  N   UNL     1      -9.118   6.097  71.552  1.00  0.00    -0.143 N  
HETATM   28  O   UNL     1      -7.478   6.399  70.000  1.00  0.00    -0.086 OA 
HETATM   29  C   UNL     1      -8.918   3.651  71.030  1.00  0.00    -0.159 C  
ENDBRANCH   4  22
TORSDOF 1
ENDMDL
MODEL       82
REMARK 921   NORMALIZED FREE ENERGY PREDICTED BY IDOCK:   -4.00 KCAL/MOL
REMARK 922        TOTAL FREE ENERGY PREDICTED BY IDOCK:   -3.30 KCAL/MOL
REMARK 923 INTER-LIGAND FREE ENERGY PREDICTED BY IDOCK:   -4.31 KCAL/MOL
REMARK 924 INTRA-LIGAND FREE ENERGY PREDICTED BY IDOCK:    1.01 KCAL/MOL
REMARK 927      BINDING AFFINITY PREDICTED BY RF-SCORE:    0.00 PKD
ROOT
HETATM    1  C   UNL     1      -7.190   8.599  72.418  1.00  0.00    -0.019 C  
HETATM    2  C   UNL     1      -6.179   7.653  72.758  1.00  0.00    -0.059 C  
HETATM    3  C   UNL     1      -6.747   7.314  71.426  1.00  0.00    -0.051 C  
HETATM    4  C   UNL     1      -8.043   8.717  70.683  1.00  0.00    -0.127 C  
HETATM    5  C   UNL     1     -11.682   6.387  71.512  1.00  0.00    -0.369 C  
HETATM    6  C   UNL     1      -6.689   8.726  70.579  1.00  0.00    -0.044 C  
HETATM    7  C   UNL     1     -10.436   5.637  71.998  1.00  0.00    -0.270 C  
HETATM    8  C   UNL     1     -10.321   4.286  71.270  1.00  0.00    -0.005 C  
HETATM    9  C   UNL     1      -7.237   7.368  69.373  1.00  0.00    -0.083 C  
HETATM   10  C   UNL     1      -5.547   9.640  70.257  1.00  0.00    -0.042 C  
HETATM   11  C   UNL     1     -10.122   3.110  71.888  1.00  0.00    -0.152 C  
HETATM   12  O   UNL     1     -10.573   2.004  73.921  1.00  0.00    -0.114 OA 
HETATM   13  C   UNL     1      -8.744   6.574  69.982  1.00  0.00    -0.140 C  
HETATM   14  C   UNL     1     -10.218   3.028  73.358  1.00  0.00    -0.126 C  
HETATM   15  H   UNL     1      -9.124   4.228  74.710  1.00  0.00     0.000 HD 
HETATM   16  C   UNL     1      -9.096   6.406  71.671  1.00  0.00    -0.144 C  
HETATM   17  N   UNL     1      -9.850   4.194  73.993  1.00  0.00    -0.116 N  
HETATM   18  C   UNL     1      -8.780   7.692  72.690  1.00  0.00    -0.182 C  
HETATM   19  C   UNL     1      -8.895   7.214  74.149  1.00  0.00    -0.245 C  
HETATM   20  C   UNL     1     -10.254   6.579  74.447  1.00  0.00    -0.334 C  
HETATM   21  C   UNL     1     -10.589   5.380  73.552  1.00  0.00    -0.270 C  
ENDROOT
BRANCH   4  22
HETATM   22  C   UNL     1      -8.427   9.573  69.290  1.00  0.00    -0.139 C  
HETATM   23  C   UNL     1     -11.360  11.955  68.599  1.00  0.00    -0.331 C  
HETATM   24  C   UNL     1     -10.155  10.662  66.852  1.00  0.00    -0.260 C  
HETATM   25  C   UNL     1      -9.996  11.325  68.228  1.00  0.00    -0.195 C  
HETATM   26  H   UNL     1     -10.226  10.225  70.070  1.00  0.00     0.000 HD 
HETATM   27  N   UNL     1      -9.590  10.343  69.281  1.00  0.00    -0.216 N  
HETATM   28  O   UNL     1      -7.748   9.465  68.268  1.00  0.00    -0.082 OA 
HETATM   29  C   UNL     1      -8.987  12.487  68.126  1.00  0.00    -0.199 C  
ENDBRANCH   4  22
TORSDOF 1
ENDMDL
MODEL       83
REMARK 921   NORMALIZED FREE ENERGY PREDICTED BY IDOCK:   -3.92 KCAL/MOL
REMARK 922        TOTAL FREE ENERGY PREDICTED BY IDOCK:   -3.22 KCAL/MOL
REMARK 923 INTER-LIGAND FREE ENERGY PREDICTED BY IDOCK:   -4.22 KCAL/MOL
REMARK 924 INTRA-LIGAND FREE ENERGY PREDICTED BY IDOCK:    1.00 KCAL/MOL
REMARK 927      BINDING AFFINITY PREDICTED BY RF-SCORE:    0.00 PKD
ROOT
HETATM    1  C   UNL     1      -7.755  10.102  69.961  1.00  0.00    -0.150 C  
HETATM    2  C   UNL     1      -6.774   9.081  70.135  1.00  0.00    -0.047 C  
HETATM    3  C   UNL     1      -6.459   9.868  68.913  1.00  0.00    -0.045 C  
HETATM    4  C   UNL     1      -7.635  11.526  68.654  1.00  0.00    -0.134 C  
HETATM    5  C   UNL     1     -10.103   9.778  65.459  1.00  0.00    -0.242 C  
HETATM    6  C   UNL     1      -6.509  11.439  69.407  1.00  0.00    -0.108 C  
HETATM    7  C   UNL     1      -9.076   8.760  65.968  1.00  0.00    -0.265 C  
HETATM    8  C   UNL     1      -8.146   8.333  64.819  1.00  0.00    -0.151 C  
HETATM    9  C   UNL     1      -5.873  11.431  67.620  1.00  0.00    -0.053 C  
HETATM   10  C   UNL     1      -5.770  12.157  70.494  1.00  0.00    -0.160 C  
HETATM   11  C   UNL     1      -7.865   7.056  64.509  1.00  0.00    -0.118 C  
HETATM   12  O   UNL     1      -8.815   4.899  64.575  1.00  0.00    -0.152 OA 
HETATM   13  C   UNL     1      -7.085  10.635  66.538  1.00  0.00    -0.133 C  
HETATM   14  C   UNL     1      -8.626   5.963  65.144  1.00  0.00    -0.091 C  
HETATM   15  H   UNL     1      -8.841   5.691  67.228  1.00  0.00     0.000 HD 
HETATM   16  C   UNL     1      -8.125   9.358  67.078  1.00  0.00    -0.105 C  
HETATM   17  N   UNL     1      -9.059   6.268  66.416  1.00  0.00    -0.151 N  
HETATM   18  C   UNL     1      -8.829   9.479  68.589  1.00  0.00    -0.132 C  
HETATM   19  C   UNL     1      -9.457   8.122  68.958  1.00  0.00    -0.155 C  
HETATM   20  C   UNL     1     -10.457   7.640  67.907  1.00  0.00    -0.270 C  
HETATM   21  C   UNL     1      -9.860   7.493  66.502  1.00  0.00    -0.156 C  
ENDROOT
BRANCH   4  22
HETATM   22  C   UNL     1      -7.572  13.158  68.261  1.00  0.00    -0.139 C  
HETATM   23  C   UNL     1     -10.430  15.639  67.605  1.00  0.00    -0.283 C  
HETATM   24  C   UNL     1      -8.134  15.857  66.676  1.00  0.00    -0.298 C  
HETATM   25  C   UNL     1      -8.940  15.310  67.864  1.00  0.00    -0.170 C  
HETATM   26  H   UNL     1      -9.613  13.261  67.953  1.00  0.00     0.000 HD 
HETATM   27  N   UNL     1      -8.770  13.832  68.024  1.00  0.00    -0.172 N  
HETATM   28  O   UNL     1      -6.496  13.735  68.104  1.00  0.00    -0.095 OA 
HETATM   29  C   UNL     1      -8.540  16.063  69.149  1.00  0.00    -0.247 C  
ENDBRANCH   4  22
TORSDOF 1
ENDMDL
MODEL       84
REMARK 921   NORMALIZED FREE ENERGY PREDICTED BY IDOCK:   -3.83 KCAL/MOL
REMARK 922        TOTAL FREE ENERGY PREDICTED BY IDOCK:   -3.12 KCAL/MOL
REMARK 923 INTER-LIGAND FREE ENERGY PREDICTED BY IDOCK:   -4.11 KCAL/MOL
REMARK 924 INTRA-LIGAND FREE ENERGY PREDICTED BY IDOCK:    0.99 KCAL/MOL
REMARK 927      BINDING AFFINITY PREDICTED BY RF-SCORE:    0.00 PKD
ROOT
HETATM    1  C   UNL     1     -10.261   5.320  68.057  1.00  0.00    -0.204 C  
HETATM    2  C   UNL     1      -9.639   4.715  66.926  1.00  0.00    -0.197 C  
HETATM    3  C   UNL     1      -8.609   5.022  67.953  1.00  0.00    -0.103 C  
HETATM    4  C   UNL     1      -9.371   5.673  69.739  1.00  0.00    -0.176 C  
HETATM    5  C   UNL     1      -8.311   9.898  69.118  1.00  0.00    -0.145 C  
HETATM    6  C   UNL     1      -9.211   4.384  69.348  1.00  0.00    -0.200 C  
HETATM    7  C   UNL     1      -7.913   9.055  67.901  1.00  0.00    -0.102 C  
HETATM    8  C   UNL     1      -6.393   9.143  67.676  1.00  0.00    -0.059 C  
HETATM    9  C   UNL     1      -7.447   4.980  69.716  1.00  0.00    -0.056 C  
HETATM   10  C   UNL     1      -9.651   2.994  69.689  1.00  0.00    -0.091 C  
HETATM   11  C   UNL     1      -5.820   9.424  66.494  1.00  0.00    -0.058 C  
HETATM   12  O   UNL     1      -6.209  10.626  64.503  1.00  0.00    -0.057 OA 
HETATM   13  C   UNL     1      -7.305   6.745  69.350  1.00  0.00    -0.092 C  
HETATM   14  C   UNL     1      -6.652   9.883  65.365  1.00  0.00    -0.099 C  
HETATM   15  H   UNL     1      -8.335   8.855  64.608  1.00  0.00     0.000 HD 
HETATM   16  C   UNL     1      -8.220   7.518  68.098  1.00  0.00    -0.125 C  
HETATM   17  N   UNL     1      -7.931   9.372  65.389  1.00  0.00    -0.103 N  
HETATM   18  C   UNL     1      -9.831   7.114  67.914  1.00  0.00    -0.170 C  
HETATM   19  C   UNL     1     -10.344   7.696  66.584  1.00  0.00    -0.258 C  
HETATM   20  C   UNL     1     -10.127   9.207  66.489  1.00  0.00    -0.357 C  
HETATM   21  C   UNL     1      -8.662   9.635  66.633  1.00  0.00    -0.134 C  
ENDROOT
BRANCH   4  22
HETATM   22  C   UNL     1      -9.236   5.470  71.402  1.00  0.00    -0.146 C  
HETATM   23  C   UNL     1      -8.168   7.979  74.107  1.00  0.00    -0.318 C  
HETATM   24  C   UNL     1      -7.943   5.512  74.307  1.00  0.00    -0.105 C  
HETATM   25  C   UNL     1      -8.778   6.628  73.662  1.00  0.00    -0.125 C  
HETATM   26  H   UNL     1      -8.399   7.341  71.661  1.00  0.00     0.000 HD 
HETATM   27  N   UNL     1      -8.775   6.540  72.168  1.00  0.00    -0.131 N  
HETATM   28  O   UNL     1      -9.461   4.381  71.931  1.00  0.00    -0.132 OA 
HETATM   29  C   UNL     1     -10.213   6.587  74.224  1.00  0.00    -0.373 C  
ENDBRANCH   4  22
TORSDOF 1
ENDMDL
MODEL       85
REMARK 921   NORMALIZED FREE ENERGY PREDICTED BY IDOCK:   -3.72 KCAL/MOL
REMARK 922        TOTAL FREE ENERGY PREDICTED BY IDOCK:   -3.01 KCAL/MOL
REMARK 923 INTER-LIGAND FREE ENERGY PREDICTED BY IDOCK:   -4.28 KCAL/MOL
REMARK 924 INTRA-LIGAND FREE ENERGY PREDICTED BY IDOCK:    1.27 KCAL/MOL
REMARK 927      BINDING AFFINITY PREDICTED BY RF-SCORE:    0.00 PKD
ROOT
HETATM    1  C   UNL     1     -10.090  12.045  66.836  1.00  0.00    -0.224 C  
HETATM    2  C   UNL     1     -10.950  11.362  65.926  1.00  0.00    -0.268 C  
HETATM    3  C   UNL     1     -11.605  11.446  67.258  1.00  0.00    -0.232 C  
HETATM    4  C   UNL     1     -10.605  12.610  68.615  1.00  0.00    -0.245 C  
HETATM    5  C   UNL     1      -8.994   9.236  70.934  1.00  0.00    -0.273 C  
HETATM    6  C   UNL     1     -11.490  13.036  67.678  1.00  0.00    -0.369 C  
HETATM    7  C   UNL     1      -9.810   8.731  69.739  1.00  0.00    -0.189 C  
HETATM    8  C   UNL     1     -10.991   7.878  70.234  1.00  0.00    -0.249 C  
HETATM    9  C   UNL     1     -12.571  12.185  68.985  1.00  0.00     0.706 C  
HETATM   10  C   UNL     1     -11.946  14.278  66.978  1.00  0.00    -0.463 C  
HETATM   11  C   UNL     1     -11.293   6.658  69.759  1.00  0.00    -0.412 C  
HETATM   12  O   UNL     1     -10.275   4.749  68.820  1.00  0.00    -0.117 OA 
HETATM   13  C   UNL     1     -11.654  10.830  69.756  1.00  0.00    -0.393 C  
HETATM   14  C   UNL     1     -10.350   5.967  68.858  1.00  0.00    -0.218 C  
HETATM   15  H   UNL     1      -9.586   6.773  67.060  1.00  0.00     0.000 HD 
HETATM   16  C   UNL     1     -10.460   9.905  68.906  1.00  0.00    -0.229 C  
HETATM   17  N   UNL     1      -9.611   6.831  68.078  1.00  0.00    -0.119 N  
HETATM   18  C   UNL     1      -9.389  10.704  67.901  1.00  0.00    -0.154 C  
HETATM   19  C   UNL     1      -8.634   9.667  67.050  1.00  0.00    -0.131 C  
HETATM   20  C   UNL     1      -7.926   8.617  67.907  1.00  0.00    -0.107 C  
HETATM   21  C   UNL     1      -8.864   7.839  68.837  1.00  0.00    -0.135 C  
ENDROOT
BRANCH   4  22
HETATM   22  C   UNL     1     -10.832  13.812  69.767  1.00  0.00     0.217 C  
HETATM   23  C   UNL     1     -14.064  15.022  71.452  1.00  0.00    -0.576 C  
HETATM   24  C   UNL     1     -12.026  16.413  71.154  1.00  0.00    -0.010 C  
HETATM   25  C   UNL     1     -12.522  14.970  71.335  1.00  0.00    -0.329 C  
HETATM   26  H   UNL     1     -12.890  13.660  69.661  1.00  0.00     0.000 HD 
HETATM   27  N   UNL     1     -12.131  14.094  70.188  1.00  0.00    -0.325 N  
HETATM   28  O   UNL     1      -9.888  14.488  70.178  1.00  0.00     0.468 OA 
HETATM   29  C   UNL     1     -11.998  14.410  72.673  1.00  0.00     0.090 C  
ENDBRANCH   4  22
TORSDOF 1
ENDMDL
MODEL       86
REMARK 921   NORMALIZED FREE ENERGY PREDICTED BY IDOCK:   -3.72 KCAL/MOL
REMARK 922        TOTAL FREE ENERGY PREDICTED BY IDOCK:   -3.00 KCAL/MOL
REMARK 923 INTER-LIGAND FREE ENERGY PREDICTED BY IDOCK:   -4.15 KCAL/MOL
REMARK 924 INTRA-LIGAND FREE ENERGY PREDICTED BY IDOCK:    1.15 KCAL/MOL
REMARK 927      BINDING AFFINITY PREDICTED BY RF-SCORE:    0.00 PKD
ROOT
HETATM    1  C   UNL     1     -10.361   5.690  67.525  1.00  0.00    -0.277 C  
HETATM    2  C   UNL     1      -9.474   5.708  66.409  1.00  0.00    -0.170 C  
HETATM    3  C   UNL     1      -8.685   5.691  67.669  1.00  0.00    -0.107 C  
HETATM    4  C   UNL     1      -9.808   5.419  69.361  1.00  0.00    -0.252 C  
HETATM    5  C   UNL     1      -9.591   9.614  70.671  1.00  0.00    -0.214 C  
HETATM    6  C   UNL     1      -9.325   4.450  68.543  1.00  0.00    -0.203 C  
HETATM    7  C   UNL     1      -8.859   9.425  69.337  1.00  0.00    -0.159 C  
HETATM    8  C   UNL     1      -7.376   9.806  69.494  1.00  0.00    -0.092 C  
HETATM    9  C   UNL     1      -7.796   5.069  69.481  1.00  0.00    -0.068 C  
HETATM   10  C   UNL     1      -9.503   3.000  68.215  1.00  0.00    -0.216 C  
HETATM   11  C   UNL     1      -6.717  10.633  68.666  1.00  0.00    -0.057 C  
HETATM   12  O   UNL     1      -7.072  12.496  67.265  1.00  0.00    -0.148 OA 
HETATM   13  C   UNL     1      -7.981   6.826  69.869  1.00  0.00    -0.120 C  
HETATM   14  C   UNL     1      -7.463  11.406  67.655  1.00  0.00    -0.103 C  
HETATM   15  H   UNL     1      -8.769  10.574  66.218  1.00  0.00     0.000 HD 
HETATM   16  C   UNL     1      -8.857   7.922  68.851  1.00  0.00    -0.142 C  
HETATM   17  N   UNL     1      -8.596  10.764  67.205  1.00  0.00    -0.130 N  
HETATM   18  C   UNL     1     -10.305   7.418  68.186  1.00  0.00    -0.235 C  
HETATM   19  C   UNL     1     -10.740   8.430  67.110  1.00  0.00    -0.222 C  
HETATM   20  C   UNL     1     -10.837   9.854  67.658  1.00  0.00    -0.318 C  
HETATM   21  C   UNL     1      -9.530  10.376  68.266  1.00  0.00    -0.148 C  
ENDROOT
BRANCH   4  22
HETATM   22  C   UNL     1      -9.864   4.556  70.801  1.00  0.00    -0.210 C  
HETATM   23  C   UNL     1      -7.598   1.721  72.059  1.00  0.00    -0.040 C  
HETATM   24  C   UNL     1      -9.956   2.059  72.768  1.00  0.00    -0.184 C  
HETATM   25  C   UNL     1      -8.698   2.789  72.275  1.00  0.00    -0.074 C  
HETATM   26  H   UNL     1      -8.378   3.256  70.193  1.00  0.00     0.000 HD 
HETATM   27  N   UNL     1      -8.942   3.529  70.998  1.00  0.00    -0.087 N  
HETATM   28  O   UNL     1     -10.747   4.764  71.634  1.00  0.00    -0.088 OA 
HETATM   29  C   UNL     1      -8.184   3.732  73.382  1.00  0.00    -0.088 C  
ENDBRANCH   4  22
TORSDOF 1
ENDMDL
MODEL       87
REMARK 921   NORMALIZED FREE ENERGY PREDICTED BY IDOCK:   -3.64 KCAL/MOL
REMARK 922        TOTAL FREE ENERGY PREDICTED BY IDOCK:   -2.93 KCAL/MOL
REMARK 923 INTER-LIGAND FREE ENERGY PREDICTED BY IDOCK:   -3.98 KCAL/MOL
REMARK 924 INTRA-LIGAND FREE ENERGY PREDICTED BY IDOCK:    1.05 KCAL/MOL
REMARK 927      BINDING AFFINITY PREDICTED BY RF-SCORE:    0.00 PKD
ROOT
HETATM    1  C   UNL     1      -6.504   9.450  67.763  1.00  0.00    -0.059 C  
HETATM    2  C   UNL     1      -5.789  10.610  68.182  1.00  0.00    -0.042 C  
HETATM    3  C   UNL     1      -6.775  10.231  69.228  1.00  0.00    -0.063 C  
HETATM    4  C   UNL     1      -7.716   8.444  68.889  1.00  0.00    -0.105 C  
HETATM    5  C   UNL     1     -11.530  10.228  67.612  1.00  0.00     0.122 C  
HETATM    6  C   UNL     1      -6.511   8.625  69.486  1.00  0.00    -0.040 C  
HETATM    7  C   UNL     1     -10.500  11.319  67.927  1.00  0.00    -0.218 C  
HETATM    8  C   UNL     1     -11.018  12.217  69.065  1.00  0.00    -0.255 C  
HETATM    9  C   UNL     1      -7.765   9.206  70.787  1.00  0.00    -0.162 C  
HETATM   10  C   UNL     1      -5.274   7.878  69.876  1.00  0.00    -0.023 C  
HETATM   11  C   UNL     1     -11.037  13.559  69.019  1.00  0.00    -0.293 C  
HETATM   12  O   UNL     1     -11.239  15.341  67.488  1.00  0.00    -0.320 OA 
HETATM   13  C   UNL     1      -9.218   9.909  69.970  1.00  0.00    -0.224 C  
HETATM   14  C   UNL     1     -10.748  14.254  67.749  1.00  0.00    -0.251 C  
HETATM   15  H   UNL     1      -9.008  13.971  66.586  1.00  0.00     0.000 HD 
HETATM   16  C   UNL     1      -9.129  10.731  68.447  1.00  0.00    -0.164 C  
HETATM   17  N   UNL     1      -9.874  13.564  66.938  1.00  0.00    -0.250 N  
HETATM   18  C   UNL     1      -8.160  10.092  67.244  1.00  0.00    -0.114 C  
HETATM   19  C   UNL     1      -8.016  11.129  66.115  1.00  0.00    -0.090 C  
HETATM   20  C   UNL     1      -9.369  11.583  65.567  1.00  0.00    -0.203 C  
HETATM   21  C   UNL     1     -10.295  12.195  66.625  1.00  0.00    -0.208 C  
ENDROOT
BRANCH   4  22
HETATM   22  C   UNL     1      -8.179   7.014  69.642  1.00  0.00    -0.131 C  
HETATM   23  C   UNL     1      -9.408   3.714  68.108  1.00  0.00    -0.236 C  
HETATM   24  C   UNL     1      -9.970   4.498  70.399  1.00  0.00    -0.284 C  
HETATM   25  C   UNL     1      -8.898   4.560  69.300  1.00  0.00    -0.090 C  
HETATM   26  H   UNL     1      -8.812   6.170  67.866  1.00  0.00     0.000 HD 
HETATM   27  N   UNL     1      -8.637   5.963  68.849  1.00  0.00    -0.111 N  
HETATM   28  O   UNL     1      -8.192   6.916  70.869  1.00  0.00    -0.115 OA 
HETATM   29  C   UNL     1      -7.607   3.882  69.801  1.00  0.00    -0.052 C  
ENDBRANCH   4  22
TORSDOF 1
ENDMDL
MODEL       88
REMARK 921   NORMALIZED FREE ENERGY PREDICTED BY IDOCK:   -3.58 KCAL/MOL
REMARK 922        TOTAL FREE ENERGY PREDICTED BY IDOCK:   -2.85 KCAL/MOL
REMARK 923 INTER-LIGAND FREE ENERGY PREDICTED BY IDOCK:   -3.78 KCAL/MOL
REMARK 924 INTRA-LIGAND FREE ENERGY PREDICTED BY IDOCK:    0.93 KCAL/MOL
REMARK 927      BINDING AFFINITY PREDICTED BY RF-SCORE:    0.00 PKD
ROOT
HETATM    1  C   UNL     1      -6.614  12.592  69.212  1.00  0.00    -0.089 C  
HETATM    2  C   UNL     1      -5.546  12.514  68.270  1.00  0.00    -0.060 C  
HETATM    3  C   UNL     1      -6.750  13.084  67.609  1.00  0.00    -0.158 C  
HETATM    4  C   UNL     1      -8.299  13.488  68.886  1.00  0.00     0.178 C  
HETATM    5  C   UNL     1     -10.732  10.026  67.681  1.00  0.00    -0.340 C  
HETATM    6  C   UNL     1      -7.242  14.294  68.614  1.00  0.00    -0.125 C  
HETATM    7  C   UNL     1      -9.398  10.039  66.927  1.00  0.00    -0.188 C  
HETATM    8  C   UNL     1      -9.653  10.131  65.412  1.00  0.00    -0.325 C  
HETATM    9  C   UNL     1      -8.313  14.390  67.050  1.00  0.00    -0.172 C  
HETATM   10  C   UNL     1      -6.521  15.496  69.139  1.00  0.00    -0.128 C  
HETATM   11  C   UNL     1      -9.088   9.322  64.500  1.00  0.00    -0.145 C  
HETATM   12  O   UNL     1      -8.266   7.126  64.252  1.00  0.00    -0.080 OA 
HETATM   13  C   UNL     1      -9.178  12.821  66.800  1.00  0.00    -0.225 C  
HETATM   14  C   UNL     1      -8.336   8.132  64.941  1.00  0.00    -0.123 C  
HETATM   15  H   UNL     1      -6.725   8.158  66.309  1.00  0.00     0.000 HD 
HETATM   16  C   UNL     1      -8.510  11.296  67.281  1.00  0.00    -0.144 C  
HETATM   17  N   UNL     1      -7.726   8.297  66.166  1.00  0.00    -0.094 N  
HETATM   18  C   UNL     1      -7.733  11.190  68.757  1.00  0.00    -0.136 C  
HETATM   19  C   UNL     1      -6.984   9.846  68.832  1.00  0.00    -0.062 C  
HETATM   20  C   UNL     1      -7.909   8.652  68.595  1.00  0.00    -0.107 C  
HETATM   21  C   UNL     1      -8.637   8.688  67.245  1.00  0.00    -0.125 C  
ENDROOT
BRANCH   4  22
HETATM   22  C   UNL     1      -9.439  14.660  69.273  1.00  0.00     0.006 C  
HETATM   23  C   UNL     1     -13.021  14.260  70.602  1.00  0.00    -0.318 C  
HETATM   24  C   UNL     1     -12.213  16.215  69.297  1.00  0.00     0.191 C  
HETATM   25  C   UNL     1     -11.773  15.116  70.275  1.00  0.00    -0.300 C  
HETATM   26  H   UNL     1     -10.916  13.253  69.604  1.00  0.00     0.000 HD 
HETATM   27  N   UNL     1     -10.702  14.246  69.697  1.00  0.00    -0.079 N  
HETATM   28  O   UNL     1      -9.202  15.858  69.113  1.00  0.00    -0.225 OA 
HETATM   29  C   UNL     1     -11.320  15.758  71.601  1.00  0.00    -0.408 C  
ENDBRANCH   4  22
TORSDOF 1
ENDMDL
MODEL       89
REMARK 921   NORMALIZED FREE ENERGY PREDICTED BY IDOCK:   -3.50 KCAL/MOL
REMARK 922        TOTAL FREE ENERGY PREDICTED BY IDOCK:   -2.78 KCAL/MOL
REMARK 923 INTER-LIGAND FREE ENERGY PREDICTED BY IDOCK:   -3.61 KCAL/MOL
REMARK 924 INTRA-LIGAND FREE ENERGY PREDICTED BY IDOCK:    0.84 KCAL/MOL
REMARK 927      BINDING AFFINITY PREDICTED BY RF-SCORE:    0.00 PKD
ROOT
HETATM    1  C   UNL     1      -6.186  13.809  67.907  1.00  0.00    -0.160 C  
HETATM    2  C   UNL     1      -5.639  14.078  69.197  1.00  0.00    -0.081 C  
HETATM    3  C   UNL     1      -7.099  14.358  69.209  1.00  0.00    -0.124 C  
HETATM    4  C   UNL     1      -8.079  13.793  67.501  1.00  0.00    -0.192 C  
HETATM    5  C   UNL     1      -8.507  17.872  65.908  1.00  0.00     0.090 C  
HETATM    6  C   UNL     1      -7.788  13.006  68.568  1.00  0.00    -0.105 C  
HETATM    7  C   UNL     1      -7.740  17.886  67.235  1.00  0.00    -0.218 C  
HETATM    8  C   UNL     1      -8.501  18.732  68.271  1.00  0.00    -0.357 C  
HETATM    9  C   UNL     1      -9.197  14.117  69.183  1.00  0.00     0.202 C  
HETATM   10  C   UNL     1      -7.698  11.566  68.970  1.00  0.00    -0.034 C  
HETATM   11  C   UNL     1      -7.940  19.701  69.014  1.00  0.00    -0.234 C  
HETATM   12  O   UNL     1      -6.210  21.301  68.942  1.00  0.00     0.003 OA 
HETATM   13  C   UNL     1      -9.108  15.731  68.370  1.00  0.00    -0.188 C  
HETATM   14  C   UNL     1      -6.570  20.157  68.711  1.00  0.00    -0.303 C  
HETATM   15  H   UNL     1      -4.876  18.900  68.588  1.00  0.00     0.000 HD 
HETATM   16  C   UNL     1      -7.609  16.450  67.879  1.00  0.00    -0.158 C  
HETATM   17  N   UNL     1      -5.772  19.168  68.179  1.00  0.00    -0.202 N  
HETATM   18  C   UNL     1      -6.451  15.482  67.162  1.00  0.00     0.089 C  
HETATM   19  C   UNL     1      -5.126  16.263  67.084  1.00  0.00    -0.009 C  
HETATM   20  C   UNL     1      -5.280  17.596  66.351  1.00  0.00    -0.217 C  
HETATM   21  C   UNL     1      -6.319  18.533  66.977  1.00  0.00    -0.178 C  
ENDROOT
BRANCH   4  22
HETATM   22  C   UNL     1      -9.457  13.005  66.952  1.00  0.00    -0.242 C  
HETATM   23  C   UNL     1      -9.977   9.311  66.035  1.00  0.00    -0.325 C  
HETATM   24  C   UNL     1     -11.311  11.193  65.108  1.00  0.00     0.117 C  
HETATM   25  C   UNL     1     -10.512  10.732  66.337  1.00  0.00    -0.233 C  
HETATM   26  H   UNL     1      -8.435  11.241  66.618  1.00  0.00     0.000 HD 
HETATM   27  N   UNL     1      -9.370  11.648  66.641  1.00  0.00    -0.188 N  
HETATM   28  O   UNL     1     -10.505  13.620  66.748  1.00  0.00    -0.266 OA 
HETATM   29  C   UNL     1     -11.460  10.597  67.545  1.00  0.00    -0.097 C  
ENDBRANCH   4  22
TORSDOF 1
ENDMDL
MODEL       90
REMARK 921   NORMALIZED FREE ENERGY PREDICTED BY IDOCK:   -3.42 KCAL/MOL
REMARK 922        TOTAL FREE ENERGY PREDICTED BY IDOCK:   -2.69 KCAL/MOL
REMARK 923 INTER-LIGAND FREE ENERGY PREDICTED BY IDOCK:   -3.98 KCAL/MOL
REMARK 924 INTRA-LIGAND FREE ENERGY PREDICTED BY IDOCK:    1.29 KCAL/MOL
REMARK 927      BINDING AFFINITY PREDICTED BY RF-SCORE:    0.00 PKD
ROOT
HETATM    1  C   UNL     1      -7.378   8.080  70.127  1.00  0.00    -0.061 C  
HETATM    2  C   UNL     1      -6.040   7.821  69.706  1.00  0.00    -0.027 C  
HETATM    3  C   UNL     1      -6.787   8.483  68.604  1.00  0.00    -0.063 C  
HETATM    4  C   UNL     1      -8.654   9.141  69.130  1.00  0.00    -0.133 C  
HETATM    5  C   UNL     1     -10.818   5.911  67.070  1.00  0.00    -0.379 C  
HETATM    6  C   UNL     1      -7.482   9.802  69.306  1.00  0.00    -0.090 C  
HETATM    7  C   UNL     1      -9.304   5.723  66.929  1.00  0.00    -0.132 C  
HETATM    8  C   UNL     1      -8.908   5.749  65.442  1.00  0.00    -0.093 C  
HETATM    9  C   UNL     1      -7.805   9.921  67.440  1.00  0.00    -0.098 C  
HETATM   10  C   UNL     1      -6.885  10.944  70.068  1.00  0.00    -0.093 C  
HETATM   11  C   UNL     1      -8.133   4.825  64.850  1.00  0.00    -0.105 C  
HETATM   12  O   UNL     1      -7.576   2.538  64.984  1.00  0.00    -0.070 OA 
HETATM   13  C   UNL     1      -8.691   8.448  66.873  1.00  0.00    -0.137 C  
HETATM   14  C   UNL     1      -7.786   3.586  65.574  1.00  0.00    -0.089 C  
HETATM   15  H   UNL     1      -6.880   3.514  67.481  1.00  0.00     0.000 HD 
HETATM   16  C   UNL     1      -8.480   6.891  67.603  1.00  0.00    -0.122 C  
HETATM   17  N   UNL     1      -7.709   3.757  66.939  1.00  0.00    -0.080 N  
HETATM   18  C   UNL     1      -8.388   6.789  69.268  1.00  0.00    -0.125 C  
HETATM   19  C   UNL     1      -7.917   5.376  69.657  1.00  0.00    -0.095 C  
HETATM   20  C   UNL     1      -8.813   4.283  69.075  1.00  0.00    -0.136 C  
HETATM   21  C   UNL     1      -8.920   4.317  67.546  1.00  0.00    -0.117 C  
ENDROOT
BRANCH   4  22
HETATM   22  C   UNL     1      -9.690  10.457  69.003  1.00  0.00    -0.206 C  
HETATM   23  C   UNL     1      -9.610  13.422  66.562  1.00  0.00    -0.277 C  
HETATM   24  C   UNL     1     -10.638  13.488  68.825  1.00  0.00    -0.237 C  
HETATM   25  C   UNL     1     -10.308  12.562  67.644  1.00  0.00    -0.218 C  
HETATM   26  H   UNL     1      -8.506  11.376  67.580  1.00  0.00     0.000 HD 
HETATM   27  N   UNL     1      -9.411  11.435  68.048  1.00  0.00    -0.165 N  
HETATM   28  O   UNL     1     -10.632  10.605  69.783  1.00  0.00    -0.238 OA 
HETATM   29  C   UNL     1     -11.616  12.041  67.016  1.00  0.00    -0.387 C  
ENDBRANCH   4  22
TORSDOF 1
ENDMDL
MODEL       91
REMARK 921   NORMALIZED FREE ENERGY PREDICTED BY IDOCK:   -3.32 KCAL/MOL
REMARK 922        TOTAL FREE ENERGY PREDICTED BY IDOCK:   -2.58 KCAL/MOL
REMARK 923 INTER-LIGAND FREE ENERGY PREDICTED BY IDOCK:   -3.85 KCAL/MOL
REMARK 924 INTRA-LIGAND FREE ENERGY PREDICTED BY IDOCK:    1.27 KCAL/MOL
REMARK 927      BINDING AFFINITY PREDICTED BY RF-SCORE:    0.00 PKD
ROOT
HETATM    1  C   UNL     1      -8.097  10.219  68.940  1.00  0.00    -0.123 C  
HETATM    2  C   UNL     1      -7.015   9.863  69.798  1.00  0.00    -0.095 C  
HETATM    3  C   UNL     1      -6.949   9.051  68.554  1.00  0.00    -0.064 C  
HETATM    4  C   UNL     1      -8.292   9.611  67.112  1.00  0.00    -0.121 C  
HETATM    5  C   UNL     1     -11.029   6.229  67.769  1.00  0.00    -0.427 C  
HETATM    6  C   UNL     1      -7.067  10.151  67.333  1.00  0.00    -0.084 C  
HETATM    7  C   UNL     1      -9.853   6.173  68.752  1.00  0.00    -0.160 C  
HETATM    8  C   UNL     1      -9.064   4.868  68.552  1.00  0.00    -0.143 C  
HETATM    9  C   UNL     1      -6.696   8.467  66.540  1.00  0.00    -0.067 C  
HETATM   10  C   UNL     1      -6.246  11.362  67.012  1.00  0.00    -0.123 C  
HETATM   11  C   UNL     1      -8.718   4.034  69.547  1.00  0.00    -0.124 C  
HETATM   12  O   UNL     1      -9.453   3.294  71.661  1.00  0.00    -0.126 OA 
HETATM   13  C   UNL     1      -7.975   7.275  67.001  1.00  0.00    -0.109 C  
HETATM   14  C   UNL     1      -9.280   4.231  70.897  1.00  0.00    -0.137 C  
HETATM   15  H   UNL     1      -9.168   6.028  72.002  1.00  0.00     0.000 HD 
HETATM   16  C   UNL     1      -8.809   7.335  68.519  1.00  0.00    -0.129 C  
HETATM   17  N   UNL     1      -9.551   5.550  71.187  1.00  0.00    -0.159 N  
HETATM   18  C   UNL     1      -9.297   8.821  69.108  1.00  0.00    -0.149 C  
HETATM   19  C   UNL     1      -9.743   8.655  70.573  1.00  0.00    -0.210 C  
HETATM   20  C   UNL     1     -10.837   7.599  70.731  1.00  0.00    -0.246 C  
HETATM   21  C   UNL     1     -10.437   6.209  70.222  1.00  0.00    -0.229 C  
ENDROOT
BRANCH   4  22
HETATM   22  C   UNL     1      -8.432   9.922  65.467  1.00  0.00    -0.140 C  
HETATM   23  C   UNL     1      -6.042   9.053  62.589  1.00  0.00    -0.094 C  
HETATM   24  C   UNL     1      -7.654  10.945  62.558  1.00  0.00    -0.054 C  
HETATM   25  C   UNL     1      -7.407   9.540  63.130  1.00  0.00    -0.110 C  
HETATM   26  H   UNL     1      -6.527   9.227  65.074  1.00  0.00     0.000 HD 
HETATM   27  N   UNL     1      -7.388   9.539  64.626  1.00  0.00    -0.108 N  
HETATM   28  O   UNL     1      -9.394  10.545  65.015  1.00  0.00    -0.188 OA 
HETATM   29  C   UNL     1      -8.471   8.568  62.581  1.00  0.00    -0.132 C  
ENDBRANCH   4  22
TORSDOF 1
ENDMDL
MODEL       92
REMARK 921   NORMALIZED FREE ENERGY PREDICTED BY IDOCK:   -3.07 KCAL/MOL
REMARK 922        TOTAL FREE ENERGY PREDICTED BY IDOCK:   -2.32 KCAL/MOL
REMARK 923 INTER-LIGAND FREE ENERGY PREDICTED BY IDOCK:   -3.57 KCAL/MOL
REMARK 924 INTRA-LIGAND FREE ENERGY PREDICTED BY IDOCK:    1.25 KCAL/MOL
REMARK 927      BINDING AFFINITY PREDICTED BY RF-SCORE:    0.00 PKD
ROOT
HETATM    1  C   UNL     1     -11.273   8.378  69.486  1.00  0.00     0.148 C  
HETATM    2  C   UNL     1     -10.592   7.648  70.503  1.00  0.00    -0.229 C  
HETATM    3  C   UNL     1      -9.702   8.718  69.980  1.00  0.00    -0.182 C  
HETATM    4  C   UNL     1     -10.616  10.012  68.681  1.00  0.00    -0.239 C  
HETATM    5  C   UNL     1      -8.760   8.335  65.062  1.00  0.00    -0.048 C  
HETATM    6  C   UNL     1     -10.619  10.086  70.036  1.00  0.00    -0.344 C  
HETATM    7  C   UNL     1      -8.324   7.553  66.306  1.00  0.00    -0.134 C  
HETATM    8  C   UNL     1      -6.796   7.632  66.466  1.00  0.00    -0.062 C  
HETATM    9  C   UNL     1      -8.861  10.607  69.548  1.00  0.00     0.029 C  
HETATM   10  C   UNL     1     -11.340  10.746  71.171  1.00  0.00     0.395 C  
HETATM   11  C   UNL     1      -6.001   6.568  66.669  1.00  0.00    -0.028 C  
HETATM   12  O   UNL     1      -5.855   4.266  66.179  1.00  0.00    -0.021 OA 
HETATM   13  C   UNL     1      -8.361   9.744  68.038  1.00  0.00    -0.110 C  
HETATM   14  C   UNL     1      -6.551   5.205  66.532  1.00  0.00    -0.049 C  
HETATM   15  H   UNL     1      -8.243   4.476  67.565  1.00  0.00     0.000 HD 
HETATM   16  C   UNL     1      -8.918   8.152  67.641  1.00  0.00    -0.135 C  
HETATM   17  N   UNL     1      -7.886   5.122  66.861  1.00  0.00    -0.099 N  
HETATM   18  C   UNL     1     -10.524   7.774  67.905  1.00  0.00    -0.263 C  
HETATM   19  C   UNL     1     -10.710   6.253  67.757  1.00  0.00    -0.383 C  
HETATM   20  C   UNL     1     -10.225   5.737  66.402  1.00  0.00    -0.192 C  
HETATM   21  C   UNL     1      -8.750   6.041  66.114  1.00  0.00    -0.146 C  
ENDROOT
BRANCH   4  22
HETATM   22  C   UNL     1     -10.785  11.645  68.321  1.00  0.00    -0.213 C  
HETATM   23  C   UNL     1      -8.213  14.134  66.929  1.00  0.00     0.007 C  
HETATM   24  C   UNL     1     -10.177  14.766  68.315  1.00  0.00    -0.227 C  
HETATM   25  C   UNL     1      -9.660  13.732  67.304  1.00  0.00    -0.237 C  
HETATM   26  H   UNL     1      -8.771  11.865  67.919  1.00  0.00     0.000 HD 
HETATM   27  N   UNL     1      -9.669  12.345  67.865  1.00  0.00    -0.198 N  
HETATM   28  O   UNL     1     -11.845  12.236  68.528  1.00  0.00    -0.316 OA 
HETATM   29  C   UNL     1     -10.491  13.819  66.008  1.00  0.00    -0.297 C  
ENDBRANCH   4  22
TORSDOF 1
ENDMDL
MODEL       93
REMARK 921   NORMALIZED FREE ENERGY PREDICTED BY IDOCK:   -3.03 KCAL/MOL
REMARK 922        TOTAL FREE ENERGY PREDICTED BY IDOCK:   -2.27 KCAL/MOL
REMARK 923 INTER-LIGAND FREE ENERGY PREDICTED BY IDOCK:   -3.20 KCAL/MOL
REMARK 924 INTRA-LIGAND FREE ENERGY PREDICTED BY IDOCK:    0.92 KCAL/MOL
REMARK 927      BINDING AFFINITY PREDICTED BY RF-SCORE:    0.00 PKD
ROOT
HETATM    1  C   UNL     1      -9.905   3.978  68.300  1.00  0.00    -0.056 C  
HETATM    2  C   UNL     1      -9.297   2.713  68.553  1.00  0.00    -0.251 C  
HETATM    3  C   UNL     1      -8.276   3.787  68.674  1.00  0.00    -0.084 C  
HETATM    4  C   UNL     1      -9.037   5.686  68.578  1.00  0.00    -0.118 C  
HETATM    5  C   UNL     1      -7.660   6.469  64.473  1.00  0.00    -0.101 C  
HETATM    6  C   UNL     1      -8.958   4.898  69.680  1.00  0.00    -0.137 C  
HETATM    7  C   UNL     1      -7.292   5.045  64.905  1.00  0.00    -0.067 C  
HETATM    8  C   UNL     1      -5.764   4.864  64.865  1.00  0.00    -0.014 C  
HETATM    9  C   UNL     1      -7.167   5.443  69.372  1.00  0.00    -0.065 C  
HETATM   10  C   UNL     1      -9.506   4.769  71.068  1.00  0.00    -0.227 C  
HETATM   11  C   UNL     1      -5.141   3.838  64.263  1.00  0.00    -0.008 C  
HETATM   12  O   UNL     1      -5.390   2.343  62.457  1.00  0.00    -0.003 OA 
HETATM   13  C   UNL     1      -6.889   5.669  67.598  1.00  0.00    -0.060 C  
HETATM   14  C   UNL     1      -5.908   2.917  63.402  1.00  0.00    -0.010 C  
HETATM   15  H   UNL     1      -7.640   1.865  63.998  1.00  0.00     0.000 HD 
HETATM   16  C   UNL     1      -7.713   4.733  66.395  1.00  0.00    -0.091 C  
HETATM   17  N   UNL     1      -7.220   2.772  63.794  1.00  0.00    -0.048 N  
HETATM   18  C   UNL     1      -9.344   4.425  66.594  1.00  0.00    -0.169 C  
HETATM   19  C   UNL     1      -9.778   3.354  65.576  1.00  0.00    -0.034 C  
HETATM   20  C   UNL     1      -9.451   3.754  64.137  1.00  0.00    -0.156 C  
HETATM   21  C   UNL     1      -7.963   4.032  63.892  1.00  0.00    -0.088 C  
ENDROOT
BRANCH   4  22
HETATM   22  C   UNL     1      -8.961   7.193  69.317  1.00  0.00    -0.138 C  
HETATM   23  C   UNL     1     -11.637   9.088  71.316  1.00  0.00    -0.387 C  
HETATM   24  C   UNL     1      -9.770  10.171  70.085  1.00  0.00    -0.071 C  
HETATM   25  C   UNL     1     -10.182   8.891  70.827  1.00  0.00    -0.226 C  
HETATM   26  H   UNL     1     -10.970   7.166  69.799  1.00  0.00     0.000 HD 
HETATM   27  N   UNL     1     -10.103   7.683  69.949  1.00  0.00    -0.195 N  
HETATM   28  O   UNL     1      -7.949   7.892  69.238  1.00  0.00    -0.113 OA 
HETATM   29  C   UNL     1      -9.312   8.726  72.090  1.00  0.00    -0.277 C  
ENDBRANCH   4  22
TORSDOF 1
ENDMDL
MODEL       94
REMARK 921   NORMALIZED FREE ENERGY PREDICTED BY IDOCK:   -3.01 KCAL/MOL
REMARK 922        TOTAL FREE ENERGY PREDICTED BY IDOCK:   -2.26 KCAL/MOL
REMARK 923 INTER-LIGAND FREE ENERGY PREDICTED BY IDOCK:   -3.25 KCAL/MOL
REMARK 924 INTRA-LIGAND FREE ENERGY PREDICTED BY IDOCK:    1.00 KCAL/MOL
REMARK 927      BINDING AFFINITY PREDICTED BY RF-SCORE:    0.00 PKD
ROOT
HETATM    1  C   UNL     1      -8.975   5.775  71.253  1.00  0.00    -0.147 C  
HETATM    2  C   UNL     1      -7.554   5.753  71.362  1.00  0.00    -0.105 C  
HETATM    3  C   UNL     1      -7.964   6.859  70.456  1.00  0.00    -0.114 C  
HETATM    4  C   UNL     1      -9.986   7.180  70.384  1.00  0.00    -0.191 C  
HETATM    5  C   UNL     1     -10.552   5.321  66.436  1.00  0.00    -0.338 C  
HETATM    6  C   UNL     1      -9.118   7.679  71.300  1.00  0.00    -0.146 C  
HETATM    7  C   UNL     1      -9.085   5.229  66.873  1.00  0.00    -0.113 C  
HETATM    8  C   UNL     1      -8.189   5.964  65.861  1.00  0.00    -0.127 C  
HETATM    9  C   UNL     1      -8.756   8.675  69.726  1.00  0.00    -0.132 C  
HETATM   10  C   UNL     1      -9.085   8.320  72.653  1.00  0.00    -0.327 C  
HETATM   11  C   UNL     1      -7.083   5.438  65.310  1.00  0.00    -0.066 C  
HETATM   12  O   UNL     1      -6.163   3.367  64.658  1.00  0.00    -0.022 OA 
HETATM   13  C   UNL     1      -9.058   7.651  68.266  1.00  0.00    -0.136 C  
HETATM   14  C   UNL     1      -6.781   4.005  65.495  1.00  0.00    -0.052 C  
HETATM   15  H   UNL     1      -6.637   3.033  67.365  1.00  0.00     0.000 HD 
HETATM   16  C   UNL     1      -8.818   5.935  68.261  1.00  0.00    -0.110 C  
HETATM   17  N   UNL     1      -7.242   3.503  66.692  1.00  0.00    -0.066 N  
HETATM   18  C   UNL     1      -9.321   5.049  69.586  1.00  0.00    -0.184 C  
HETATM   19  C   UNL     1      -8.749   3.623  69.480  1.00  0.00    -0.127 C  
HETATM   20  C   UNL     1      -9.131   2.940  68.167  1.00  0.00    -0.226 C  
HETATM   21  C   UNL     1      -8.678   3.701  66.916  1.00  0.00    -0.117 C  
ENDROOT
BRANCH   4  22
HETATM   22  C   UNL     1     -11.148   8.393  70.422  1.00  0.00    -0.231 C  
HETATM   23  C   UNL     1     -14.313   8.701  72.576  1.00  0.00    -0.347 C  
HETATM   24  C   UNL     1     -14.015   9.768  70.351  1.00  0.00     0.864 C  
HETATM   25  C   UNL     1     -13.263   9.285  71.600  1.00  0.00    -0.388 C  
HETATM   26  H   UNL     1     -12.357   7.330  71.716  1.00  0.00     0.000 HD 
HETATM   27  N   UNL     1     -12.242   8.242  71.273  1.00  0.00    -0.289 N  
HETATM   28  O   UNL     1     -11.085   9.360  69.661  1.00  0.00    -0.222 OA 
HETATM   29  C   UNL     1     -12.623  10.493  72.314  1.00  0.00     0.205 C  
ENDBRANCH   4  22
TORSDOF 1
ENDMDL
MODEL       95
REMARK 921   NORMALIZED FREE ENERGY PREDICTED BY IDOCK:   -2.98 KCAL/MOL
REMARK 922        TOTAL FREE ENERGY PREDICTED BY IDOCK:   -2.22 KCAL/MOL
REMARK 923 INTER-LIGAND FREE ENERGY PREDICTED BY IDOCK:   -3.15 KCAL/MOL
REMARK 924 INTRA-LIGAND FREE ENERGY PREDICTED BY IDOCK:    0.93 KCAL/MOL
REMARK 927      BINDING AFFINITY PREDICTED BY RF-SCORE:    0.00 PKD
ROOT
HETATM    1  C   UNL     1      -8.152   9.132  71.651  1.00  0.00     0.156 C  
HETATM    2  C   UNL     1      -7.654   8.766  72.936  1.00  0.00     0.165 C  
HETATM    3  C   UNL     1      -7.076   7.864  71.905  1.00  0.00    -0.072 C  
HETATM    4  C   UNL     1      -7.502   8.409  69.976  1.00  0.00    -0.063 C  
HETATM    5  C   UNL     1     -10.520   5.275  69.326  1.00  0.00    -0.255 C  
HETATM    6  C   UNL     1      -6.488   8.880  70.747  1.00  0.00    -0.052 C  
HETATM    7  C   UNL     1      -9.973   5.211  70.756  1.00  0.00    -0.285 C  
HETATM    8  C   UNL     1      -9.310   3.844  71.004  1.00  0.00    -0.222 C  
HETATM    9  C   UNL     1      -5.942   7.122  70.285  1.00  0.00    -0.024 C  
HETATM   10  C   UNL     1      -5.505  10.006  70.827  1.00  0.00    -0.069 C  
HETATM   11  C   UNL     1      -9.565   3.062  72.066  1.00  0.00    -0.216 C  
HETATM   12  O   UNL     1     -11.291   2.527  73.580  1.00  0.00    -0.217 OA 
HETATM   13  C   UNL     1      -7.391   6.055  70.103  1.00  0.00    -0.078 C  
HETATM   14  C   UNL     1     -10.685   3.393  72.968  1.00  0.00    -0.134 C  
HETATM   15  H   UNL     1     -10.950   5.252  73.935  1.00  0.00     0.000 HD 
HETATM   16  C   UNL     1      -8.841   6.280  71.024  1.00  0.00    -0.136 C  
HETATM   17  N   UNL     1     -10.937   4.745  73.050  1.00  0.00    -0.258 N  
HETATM   18  C   UNL     1      -9.411   7.834  71.258  1.00  0.00    -0.173 C  
HETATM   19  C   UNL     1     -10.519   7.804  72.327  1.00  0.00    -0.303 C  
HETATM   20  C   UNL     1     -11.648   6.838  71.967  1.00  0.00    -0.327 C  
HETATM   21  C   UNL     1     -11.184   5.391  71.758  1.00  0.00    -0.018 C  
ENDROOT
BRANCH   4  22
HETATM   22  C   UNL     1      -6.804   8.610  68.461  1.00  0.00    -0.064 C  
HETATM   23  C   UNL     1      -8.301   8.037  64.970  1.00  0.00    -0.121 C  
HETATM   24  C   UNL     1      -5.876   7.914  65.500  1.00  0.00    -0.038 C  
HETATM   25  C   UNL     1      -7.198   8.579  65.911  1.00  0.00    -0.076 C  
HETATM   26  H   UNL     1      -8.438   7.796  67.494  1.00  0.00     0.000 HD 
HETATM   27  N   UNL     1      -7.557   8.284  67.333  1.00  0.00    -0.096 N  
HETATM   28  O   UNL     1      -5.630   8.960  68.341  1.00  0.00    -0.037 OA 
HETATM   29  C   UNL     1      -7.111  10.098  65.658  1.00  0.00    -0.133 C  
ENDBRANCH   4  22
TORSDOF 1
ENDMDL
MODEL       96
REMARK 921   NORMALIZED FREE ENERGY PREDICTED BY IDOCK:   -2.89 KCAL/MOL
REMARK 922        TOTAL FREE ENERGY PREDICTED BY IDOCK:   -2.13 KCAL/MOL
REMARK 923 INTER-LIGAND FREE ENERGY PREDICTED BY IDOCK:   -3.14 KCAL/MOL
REMARK 924 INTRA-LIGAND FREE ENERGY PREDICTED BY IDOCK:    1.02 KCAL/MOL
REMARK 927      BINDING AFFINITY PREDICTED BY RF-SCORE:    0.00 PKD
ROOT
HETATM    1  C   UNL     1      -8.307   5.598  67.515  1.00  0.00    -0.100 C  
HETATM    2  C   UNL     1      -7.623   5.949  66.314  1.00  0.00    -0.094 C  
HETATM    3  C   UNL     1      -6.878   6.485  67.484  1.00  0.00    -0.076 C  
HETATM    4  C   UNL     1      -7.599   5.861  69.298  1.00  0.00    -0.089 C  
HETATM    5  C   UNL     1      -9.554   9.675  70.292  1.00  0.00    -0.307 C  
HETATM    6  C   UNL     1      -6.721   5.198  68.502  1.00  0.00    -0.050 C  
HETATM    7  C   UNL     1      -8.903   9.746  68.906  1.00  0.00    -0.140 C  
HETATM    8  C   UNL     1      -7.837  10.855  68.883  1.00  0.00    -0.142 C  
HETATM    9  C   UNL     1      -5.701   6.621  69.233  1.00  0.00    -0.017 C  
HETATM   10  C   UNL     1      -6.127   3.840  68.292  1.00  0.00    -0.031 C  
HETATM   11  C   UNL     1      -7.756  11.806  67.937  1.00  0.00    -0.125 C  
HETATM   12  O   UNL     1      -9.112  13.044  66.458  1.00  0.00    -0.214 OA 
HETATM   13  C   UNL     1      -6.763   8.058  69.518  1.00  0.00    -0.038 C  
HETATM   14  C   UNL     1      -8.850  11.961  66.958  1.00  0.00    -0.190 C  
HETATM   15  H   UNL     1      -9.596  10.418  65.724  1.00  0.00     0.000 HD 
HETATM   16  C   UNL     1      -8.136   8.418  68.525  1.00  0.00    -0.123 C  
HETATM   17  N   UNL     1      -9.497  10.779  66.672  1.00  0.00    -0.172 N  
HETATM   18  C   UNL     1      -9.135   7.165  68.049  1.00  0.00    -0.132 C  
HETATM   19  C   UNL     1     -10.093   7.677  66.958  1.00  0.00    -0.338 C  
HETATM   20  C   UNL     1     -10.896   8.895  67.415  1.00  0.00    -0.096 C  
HETATM   21  C   UNL     1     -10.030  10.084  67.848  1.00  0.00    -0.154 C  
ENDROOT
BRANCH   4  22
HETATM   22  C   UNL     1      -7.116   5.261  70.791  1.00  0.00    -0.064 C  
HETATM   23  C   UNL     1      -9.197   4.533  73.936  1.00  0.00    -0.110 C  
HETATM   24  C   UNL     1      -6.769   5.068  73.946  1.00  0.00    -0.070 C  
HETATM   25  C   UNL     1      -7.892   4.436  73.109  1.00  0.00    -0.091 C  
HETATM   26  H   UNL     1      -8.986   5.551  71.621  1.00  0.00     0.000 HD 
HETATM   27  N   UNL     1      -8.073   5.131  71.797  1.00  0.00    -0.114 N  
HETATM   28  O   UNL     1      -5.933   5.013  71.026  1.00  0.00    -0.016 OA 
HETATM   29  C   UNL     1      -7.606   2.934  72.914  1.00  0.00    -0.050 C  
ENDBRANCH   4  22
TORSDOF 1
ENDMDL
MODEL       97
REMARK 921   NORMALIZED FREE ENERGY PREDICTED BY IDOCK:   -2.46 KCAL/MOL
REMARK 922        TOTAL FREE ENERGY PREDICTED BY IDOCK:   -1.67 KCAL/MOL
REMARK 923 INTER-LIGAND FREE ENERGY PREDICTED BY IDOCK:   -2.53 KCAL/MOL
REMARK 924 INTRA-LIGAND FREE ENERGY PREDICTED BY IDOCK:    0.86 KCAL/MOL
REMARK 927      BINDING AFFINITY PREDICTED BY RF-SCORE:    0.00 PKD
ROOT
HETATM    1  C   UNL     1     -11.734  14.744  69.218  1.00  0.00    -0.347 C  
HETATM    2  C   UNL     1     -11.843  14.013  70.437  1.00  0.00    -0.356 C  
HETATM    3  C   UNL     1     -10.411  14.297  70.156  1.00  0.00     0.688 C  
HETATM    4  C   UNL     1     -10.099  15.549  68.565  1.00  0.00    -0.211 C  
HETATM    5  C   UNL     1      -8.791  12.381  65.805  1.00  0.00     0.399 C  
HETATM    6  C   UNL     1     -10.362  15.914  69.845  1.00  0.00    -0.282 C  
HETATM    7  C   UNL     1      -9.174  11.789  67.167  1.00  0.00    -0.179 C  
HETATM    8  C   UNL     1      -7.960  11.078  67.789  1.00  0.00    -0.115 C  
HETATM    9  C   UNL     1      -8.569  15.296  69.898  1.00  0.00     0.166 C  
HETATM   10  C   UNL     1     -10.805  17.091  70.659  1.00  0.00     0.680 C  
HETATM   11  C   UNL     1      -7.990   9.831  68.290  1.00  0.00    -0.096 C  
HETATM   12  O   UNL     1      -9.086   7.764  68.004  1.00  0.00    -0.130 OA 
HETATM   13  C   UNL     1      -8.332  13.987  68.671  1.00  0.00    -0.104 C  
HETATM   14  C   UNL     1      -9.175   8.980  68.068  1.00  0.00    -0.135 C  
HETATM   15  H   UNL     1     -11.157   9.515  68.564  1.00  0.00     0.000 HD 
HETATM   16  C   UNL     1      -9.596  12.894  68.214  1.00  0.00    -0.212 C  
HETATM   17  N   UNL     1     -10.348   9.695  67.970  1.00  0.00    -0.205 N  
HETATM   18  C   UNL     1     -11.138  13.498  67.986  1.00  0.00    -0.283 C  
HETATM   19  C   UNL     1     -12.124  12.321  67.876  1.00  0.00    -0.052 C  
HETATM   20  C   UNL     1     -11.735  11.338  66.771  1.00  0.00     0.253 C  
HETATM   21  C   UNL     1     -10.334  10.738  66.939  1.00  0.00    -0.241 C  
ENDROOT
BRANCH   4  22
HETATM   22  C   UNL     1      -9.215  16.892  68.076  1.00  0.00    -0.235 C  
HETATM   23  C   UNL     1     -10.263  20.581  67.864  1.00  0.00    -0.263 C  
HETATM   24  C   UNL     1      -8.473  19.544  66.486  1.00  0.00    -0.365 C  
HETATM   25  C   UNL     1      -9.195  19.461  67.840  1.00  0.00    -0.320 C  
HETATM   26  H   UNL     1     -10.863  18.134  68.175  1.00  0.00     0.000 HD 
HETATM   27  N   UNL     1      -9.851  18.132  68.045  1.00  0.00    -0.309 N  
HETATM   28  O   UNL     1      -8.056  16.780  67.676  1.00  0.00    -0.172 OA 
HETATM   29  C   UNL     1      -8.200  19.777  68.974  1.00  0.00    -0.100 C  
ENDBRANCH   4  22
TORSDOF 1
ENDMDL
MODEL       98
REMARK 921   NORMALIZED FREE ENERGY PREDICTED BY IDOCK:   -2.34 KCAL/MOL
REMARK 922        TOTAL FREE ENERGY PREDICTED BY IDOCK:   -1.54 KCAL/MOL
REMARK 923 INTER-LIGAND FREE ENERGY PREDICTED BY IDOCK:   -2.49 KCAL/MOL
REMARK 924 INTRA-LIGAND FREE ENERGY PREDICTED BY IDOCK:    0.95 KCAL/MOL
REMARK 927      BINDING AFFINITY PREDICTED BY RF-SCORE:    0.00 PKD
ROOT
HETATM    1  C   UNL     1     -10.011   7.610  67.392  1.00  0.00    -0.252 C  
HETATM    2  C   UNL     1     -10.329   8.344  66.212  1.00  0.00     0.145 C  
HETATM    3  C   UNL     1      -8.986   7.724  66.062  1.00  0.00    -0.185 C  
HETATM    4  C   UNL     1      -8.482   6.436  67.573  1.00  0.00    -0.116 C  
HETATM    5  C   UNL     1      -5.684   9.198  69.547  1.00  0.00    -0.034 C  
HETATM    6  C   UNL     1      -9.211   6.143  66.467  1.00  0.00    -0.161 C  
HETATM    7  C   UNL     1      -6.331   9.863  68.327  1.00  0.00    -0.054 C  
HETATM    8  C   UNL     1      -5.247  10.261  67.310  1.00  0.00    -0.041 C  
HETATM    9  C   UNL     1      -7.435   6.311  65.820  1.00  0.00    -0.082 C  
HETATM   10  C   UNL     1     -10.145   5.107  65.920  1.00  0.00    -0.154 C  
HETATM   11  C   UNL     1      -5.148  11.477  66.748  1.00  0.00    -0.116 C  
HETATM   12  O   UNL     1      -5.596  13.748  67.196  1.00  0.00    -0.233 OA 
HETATM   13  C   UNL     1      -6.532   7.525  66.811  1.00  0.00    -0.056 C  
HETATM   14  C   UNL     1      -5.975  12.589  67.256  1.00  0.00    -0.110 C  
HETATM   15  H   UNL     1      -8.080  12.547  67.433  1.00  0.00     0.000 HD 
HETATM   16  C   UNL     1      -7.302   8.892  67.548  1.00  0.00    -0.081 C  
HETATM   17  N   UNL     1      -7.188  12.177  67.763  1.00  0.00    -0.102 N  
HETATM   18  C   UNL     1      -8.788   8.677  68.282  1.00  0.00    -0.142 C  
HETATM   19  C   UNL     1      -9.393  10.057  68.598  1.00  0.00    -0.156 C  
HETATM   20  C   UNL     1      -8.462  10.918  69.451  1.00  0.00     0.075 C  
HETATM   21  C   UNL     1      -7.088  11.164  68.817  1.00  0.00    -0.093 C  
ENDROOT
BRANCH   4  22
HETATM   22  C   UNL     1      -7.820   4.920  67.870  1.00  0.00    -0.086 C  
HETATM   23  C   UNL     1      -9.371   1.852  69.583  1.00  0.00    -0.158 C  
HETATM   24  C   UNL     1      -6.934   2.328  69.484  1.00  0.00    -0.033 C  
HETATM   25  C   UNL     1      -8.264   2.533  68.743  1.00  0.00    -0.055 C  
HETATM   26  H   UNL     1      -9.452   4.318  68.984  1.00  0.00     0.000 HD 
HETATM   27  N   UNL     1      -8.586   3.982  68.561  1.00  0.00    -0.091 N  
HETATM   28  O   UNL     1      -6.657   4.661  67.559  1.00  0.00    -0.044 OA 
HETATM   29  C   UNL     1      -8.219   1.794  67.391  1.00  0.00    -0.072 C  
ENDBRANCH   4  22
TORSDOF 1
ENDMDL
MODEL       99
REMARK 921   NORMALIZED FREE ENERGY PREDICTED BY IDOCK:   -2.24 KCAL/MOL
REMARK 922        TOTAL FREE ENERGY PREDICTED BY IDOCK:   -1.44 KCAL/MOL
REMARK 923 INTER-LIGAND FREE ENERGY PREDICTED BY IDOCK:   -2.39 KCAL/MOL
REMARK 924 INTRA-LIGAND FREE ENERGY PREDICTED BY IDOCK:    0.95 KCAL/MOL
REMARK 927      BINDING AFFINITY PREDICTED BY RF-SCORE:    0.00 PKD
ROOT
HETATM    1  C   UNL     1      -7.951   6.856  70.651  1.00  0.00    -0.109 C  
HETATM    2  C   UNL     1      -6.953   5.935  71.085  1.00  0.00    -0.068 C  
HETATM    3  C   UNL     1      -6.383   6.828  70.043  1.00  0.00    -0.039 C  
HETATM    4  C   UNL     1      -7.616   8.366  69.487  1.00  0.00    -0.090 C  
HETATM    5  C   UNL     1      -8.784   6.581  65.639  1.00  0.00    -0.102 C  
HETATM    6  C   UNL     1      -6.766   8.350  70.545  1.00  0.00    -0.037 C  
HETATM    7  C   UNL     1      -7.843   5.645  66.407  1.00  0.00    -0.101 C  
HETATM    8  C   UNL     1      -6.567   5.394  65.584  1.00  0.00    -0.041 C  
HETATM    9  C   UNL     1      -5.627   8.524  69.037  1.00  0.00    -0.039 C  
HETATM   10  C   UNL     1      -6.479   9.069  71.826  1.00  0.00    -0.033 C  
HETATM   11  C   UNL     1      -6.056   4.176  65.337  1.00  0.00    -0.024 C  
HETATM   12  O   UNL     1      -6.716   1.932  65.045  1.00  0.00    -0.026 OA 
HETATM   13  C   UNL     1      -6.355   7.678  67.614  1.00  0.00    -0.050 C  
HETATM   14  C   UNL     1      -6.835   2.970  65.676  1.00  0.00    -0.048 C  
HETATM   15  H   UNL     1      -7.631   2.543  67.586  1.00  0.00     0.000 HD 
HETATM   16  C   UNL     1      -7.347   6.266  67.772  1.00  0.00    -0.084 C  
HETATM   17  N   UNL     1      -7.663   3.145  66.764  1.00  0.00    -0.076 N  
HETATM   18  C   UNL     1      -8.482   6.214  68.998  1.00  0.00    -0.118 C  
HETATM   19  C   UNL     1      -9.024   4.778  69.116  1.00  0.00    -0.133 C  
HETATM   20  C   UNL     1      -9.598   4.263  67.796  1.00  0.00    -0.210 C  
HETATM   21  C   UNL     1      -8.594   4.271  66.637  1.00  0.00    -0.112 C  
ENDROOT
BRANCH   4  22
HETATM   22  C   UNL     1      -7.635  10.018  69.180  1.00  0.00    -0.096 C  
HETATM   23  C   UNL     1      -8.905  11.934  66.103  1.00  0.00    -0.063 C  
HETATM   24  C   UNL     1      -7.147  12.764  67.651  1.00  0.00    -0.145 C  
HETATM   25  C   UNL     1      -8.400  11.879  67.565  1.00  0.00    -0.158 C  
HETATM   26  H   UNL     1      -8.285   9.749  67.238  1.00  0.00     0.000 HD 
HETATM   27  N   UNL     1      -8.113  10.462  67.948  1.00  0.00    -0.102 N  
HETATM   28  O   UNL     1      -7.164  10.821  69.987  1.00  0.00    -0.121 OA 
HETATM   29  C   UNL     1      -9.517  12.482  68.439  1.00  0.00    -0.167 C  
ENDBRANCH   4  22
TORSDOF 1
ENDMDL
MODEL      100
REMARK 921   NORMALIZED FREE ENERGY PREDICTED BY IDOCK:   -2.23 KCAL/MOL
REMARK 922        TOTAL FREE ENERGY PREDICTED BY IDOCK:   -1.43 KCAL/MOL
REMARK 923 INTER-LIGAND FREE ENERGY PREDICTED BY IDOCK:   -2.75 KCAL/MOL
REMARK 924 INTRA-LIGAND FREE ENERGY PREDICTED BY IDOCK:    1.32 KCAL/MOL
REMARK 927      BINDING AFFINITY PREDICTED BY RF-SCORE:    0.00 PKD
ROOT
HETATM    1  C   UNL     1     -11.541   6.222  72.673  1.00  0.00    -0.213 C  
HETATM    2  C   UNL     1     -12.764   6.050  71.960  1.00  0.00     0.328 C  
HETATM    3  C   UNL     1     -11.628   5.600  71.112  1.00  0.00     0.249 C  
HETATM    4  C   UNL     1      -9.823   5.554  72.079  1.00  0.00    -0.204 C  
HETATM    5  C   UNL     1      -8.253   9.199  70.179  1.00  0.00    -0.161 C  
HETATM    6  C   UNL     1     -10.768   4.580  72.078  1.00  0.00    -0.020 C  
HETATM    7  C   UNL     1      -9.684   8.917  69.709  1.00  0.00    -0.180 C  
HETATM    8  C   UNL     1      -9.705   8.714  68.184  1.00  0.00    -0.178 C  
HETATM    9  C   UNL     1     -10.006   4.488  70.343  1.00  0.00    -0.284 C  
HETATM   10  C   UNL     1     -11.173   3.342  72.818  1.00  0.00     0.209 C  
HETATM   11  C   UNL     1     -10.554   9.338  67.350  1.00  0.00    -0.324 C  
HETATM   12  O   UNL     1     -11.753  11.356  67.122  1.00  0.00    -0.556 OA 
HETATM   13  C   UNL     1      -9.469   6.134  69.818  1.00  0.00    -0.168 C  
HETATM   14  C   UNL     1     -11.394  10.444  67.851  1.00  0.00    -0.173 C  
HETATM   15  H   UNL     1     -12.694  10.317  69.510  1.00  0.00     0.000 HD 
HETATM   16  C   UNL     1     -10.274   7.585  70.319  1.00  0.00    -0.204 C  
HETATM   17  N   UNL     1     -11.729  10.313  69.181  1.00  0.00    -0.106 N  
HETATM   18  C   UNL     1     -10.769   7.721  71.909  1.00  0.00    -0.272 C  
HETATM   19  C   UNL     1     -11.699   8.942  72.040  1.00  0.00    -0.438 C  
HETATM   20  C   UNL     1     -11.041  10.229  71.542  1.00  0.00     0.591 C  
HETATM   21  C   UNL     1     -10.581  10.167  70.080  1.00  0.00    -0.281 C  
ENDROOT
BRANCH   4  22
HETATM   22  C   UNL     1      -8.456   4.606  72.309  1.00  0.00    -0.118 C  
HETATM   23  C   UNL     1      -6.798   2.068  69.950  1.00  0.00    -0.033 C  
HETATM   24  C   UNL     1      -6.626   2.007  72.429  1.00  0.00    -0.014 C  
HETATM   25  C   UNL     1      -6.805   2.945  71.226  1.00  0.00    -0.032 C  
HETATM   26  H   UNL     1      -8.749   3.580  70.540  1.00  0.00     0.000 HD 
HETATM   27  N   UNL     1      -8.084   3.717  71.301  1.00  0.00    -0.063 N  
HETATM   28  O   UNL     1      -7.836   4.629  73.373  1.00  0.00    -0.093 OA 
HETATM   29  C   UNL     1      -5.587   3.885  71.120  1.00  0.00    -0.012 C  
ENDBRANCH   4  22
TORSDOF 1
ENDMDL
MODEL      101
REMARK 921   NORMALIZED FREE ENERGY PREDICTED BY IDOCK:   -1.53 KCAL/MOL
REMARK 922        TOTAL FREE ENERGY PREDICTED BY IDOCK:   -0.69 KCAL/MOL
REMARK 923 INTER-LIGAND FREE ENERGY PREDICTED BY IDOCK:   -1.63 KCAL/MOL
REMARK 924 INTRA-LIGAND FREE ENERGY PREDICTED BY IDOCK:    0.94 KCAL/MOL
REMARK 927      BINDING AFFINITY PREDICTED BY RF-SCORE:    0.00 PKD
ROOT
HETATM    1  C   UNL     1      -9.793   8.423  68.320  1.00  0.00    -0.189 C  
HETATM    2  C   UNL     1     -10.308   7.500  69.278  1.00  0.00    -0.209 C  
HETATM    3  C   UNL     1      -8.835   7.619  69.445  1.00  0.00    -0.139 C  
HETATM    4  C   UNL     1      -7.975   9.088  68.305  1.00  0.00    -0.104 C  
HETATM    5  C   UNL     1      -6.227   6.337  65.350  1.00  0.00    -0.037 C  
HETATM    6  C   UNL     1      -8.555   9.241  69.523  1.00  0.00    -0.147 C  
HETATM    7  C   UNL     1      -7.031   5.563  66.401  1.00  0.00    -0.064 C  
HETATM    8  C   UNL     1      -6.112   4.577  67.143  1.00  0.00    -0.031 C  
HETATM    9  C   UNL     1      -6.913   8.368  69.899  1.00  0.00    -0.043 C  
HETATM   10  C   UNL     1      -9.104  10.296  70.433  1.00  0.00     0.596 C  
HETATM   11  C   UNL     1      -6.393   3.277  67.331  1.00  0.00    -0.036 C  
HETATM   12  O   UNL     1      -7.544   1.483  66.324  1.00  0.00    -0.059 OA 
HETATM   13  C   UNL     1      -6.457   7.292  68.518  1.00  0.00    -0.040 C  
HETATM   14  C   UNL     1      -7.538   2.665  66.629  1.00  0.00    -0.071 C  
HETATM   15  H   UNL     1      -9.524   3.382  66.701  1.00  0.00     0.000 HD 
HETATM   16  C   UNL     1      -7.632   6.501  67.520  1.00  0.00    -0.105 C  
HETATM   17  N   UNL     1      -8.567   3.550  66.391  1.00  0.00    -0.112 N  
HETATM   18  C   UNL     1      -8.986   7.356  67.041  1.00  0.00    -0.142 C  
HETATM   19  C   UNL     1     -10.002   6.378  66.423  1.00  0.00    -0.096 C  
HETATM   20  C   UNL     1      -9.405   5.574  65.268  1.00  0.00     0.107 C  
HETATM   21  C   UNL     1      -8.168   4.754  65.655  1.00  0.00    -0.113 C  
ENDROOT
BRANCH   4  22
HETATM   22  C   UNL     1      -6.872  10.354  68.370  1.00  0.00    -0.064 C  
HETATM   23  C   UNL     1      -7.420  14.120  67.848  1.00  0.00    -0.158 C  
HETATM   24  C   UNL     1      -5.264  12.944  67.466  1.00  0.00    -0.046 C  
HETATM   25  C   UNL     1      -6.558  12.914  68.293  1.00  0.00    -0.091 C  
HETATM   26  H   UNL     1      -8.267  11.730  67.715  1.00  0.00     0.000 HD 
HETATM   27  N   UNL     1      -7.323  11.644  68.092  1.00  0.00    -0.086 N  
HETATM   28  O   UNL     1      -5.676  10.148  68.579  1.00  0.00    -0.039 OA 
HETATM   29  C   UNL     1      -6.223  13.138  69.781  1.00  0.00    -0.108 C  
ENDBRANCH   4  22
TORSDOF 1
ENDMDL
MODEL      102
REMARK 921   NORMALIZED FREE ENERGY PREDICTED BY IDOCK:   -1.40 KCAL/MOL
REMARK 922        TOTAL FREE ENERGY PREDICTED BY IDOCK:   -0.55 KCAL/MOL
REMARK 923 INTER-LIGAND FREE ENERGY PREDICTED BY IDOCK:   -1.49 KCAL/MOL
REMARK 924 INTRA-LIGAND FREE ENERGY PREDICTED BY IDOCK:    0.94 KCAL/MOL
REMARK 927      BINDING AFFINITY PREDICTED BY RF-SCORE:    0.00 PKD
ROOT
HETATM    1  C   UNL     1      -7.582  13.972  67.514  1.00  0.00    -0.195 C  
HETATM    2  C   UNL     1      -7.370  14.183  68.908  1.00  0.00    -0.122 C  
HETATM    3  C   UNL     1      -8.830  14.138  68.630  1.00  0.00    -0.132 C  
HETATM    4  C   UNL     1      -9.305  13.600  66.712  1.00  0.00    -0.269 C  
HETATM    5  C   UNL     1     -10.380  17.661  65.405  1.00  0.00     0.164 C  
HETATM    6  C   UNL     1      -9.042  12.763  67.747  1.00  0.00    -0.197 C  
HETATM    7  C   UNL     1      -9.904  17.670  66.862  1.00  0.00    -0.306 C  
HETATM    8  C   UNL     1     -11.027  18.190  67.777  1.00  0.00    -0.105 C  
HETATM    9  C   UNL     1     -10.766  13.456  68.135  1.00  0.00    -0.267 C  
HETATM   10  C   UNL     1      -8.691  11.337  68.040  1.00  0.00    -0.144 C  
HETATM   11  C   UNL     1     -10.863  19.153  68.700  1.00  0.00     0.513 C  
HETATM   12  O   UNL     1      -9.582  21.084  69.131  1.00  0.00     1.182 OA 
HETATM   13  C   UNL     1     -10.910  15.142  67.497  1.00  0.00    -0.301 C  
HETATM   14  C   UNL     1      -9.609  19.929  68.736  1.00  0.00    -0.220 C  
HETATM   15  H   UNL     1      -7.674  19.094  68.876  1.00  0.00     0.000 HD 
HETATM   16  C   UNL     1      -9.561  16.225  67.399  1.00  0.00    -0.230 C  
HETATM   17  N   UNL     1      -8.513  19.213  68.308  1.00  0.00    -0.319 N  
HETATM   18  C   UNL     1      -8.091  15.630  66.869  1.00  0.00    -0.290 C  
HETATM   19  C   UNL     1      -7.000  16.682  67.141  1.00  0.00    -0.226 C  
HETATM   20  C   UNL     1      -7.324  18.034  66.504  1.00  0.00    -0.273 C  
HETATM   21  C   UNL     1      -8.655  18.636  66.968  1.00  0.00    -0.276 C  
ENDROOT
BRANCH   4  22
HETATM   22  C   UNL     1     -10.326  12.611  65.817  1.00  0.00    -0.279 C  
HETATM   23  C   UNL     1     -12.554  13.460  62.806  1.00  0.00     1.030 C  
HETATM   24  C   UNL     1     -12.980  11.593  64.390  1.00  0.00     0.656 C  
HETATM   25  C   UNL     1     -11.872  12.448  63.757  1.00  0.00    -0.502 C  
HETATM   26  H   UNL     1     -11.073  14.201  64.729  1.00  0.00     0.000 HD 
HETATM   27  N   UNL     1     -11.072  13.182  64.786  1.00  0.00    -0.315 N  
HETATM   28  O   UNL     1     -10.480  11.424  66.108  1.00  0.00    -0.240 OA 
HETATM   29  C   UNL     1     -10.972  11.556  62.878  1.00  0.00     0.170 C  
ENDBRANCH   4  22
TORSDOF 1
ENDMDL
MODEL      103
REMARK 921   NORMALIZED FREE ENERGY PREDICTED BY IDOCK:   -0.84 KCAL/MOL
REMARK 922        TOTAL FREE ENERGY PREDICTED BY IDOCK:    0.04 KCAL/MOL
REMARK 923 INTER-LIGAND FREE ENERGY PREDICTED BY IDOCK:   -0.88 KCAL/MOL
REMARK 924 INTRA-LIGAND FREE ENERGY PREDICTED BY IDOCK:    0.93 KCAL/MOL
REMARK 927      BINDING AFFINITY PREDICTED BY RF-SCORE:    0.00 PKD
ROOT
HETATM    1  C   UNL     1      -9.999   7.310  67.960  1.00  0.00    -0.186 C  
HETATM    2  C   UNL     1     -11.327   7.654  67.572  1.00  0.00     0.632 C  
HETATM    3  C   UNL     1     -10.386   7.988  66.470  1.00  0.00    -0.144 C  
HETATM    4  C   UNL     1      -8.469   7.333  66.774  1.00  0.00    -0.121 C  
HETATM    5  C   UNL     1      -6.839  11.294  67.779  1.00  0.00    -0.074 C  
HETATM    6  C   UNL     1      -9.498   6.618  66.252  1.00  0.00    -0.120 C  
HETATM    7  C   UNL     1      -8.346  11.380  67.516  1.00  0.00    -0.137 C  
HETATM    8  C   UNL     1      -8.619  12.328  66.335  1.00  0.00     0.037 C  
HETATM    9  C   UNL     1      -9.022   7.823  64.866  1.00  0.00     0.439 C  
HETATM   10  C   UNL     1      -9.911   5.210  65.953  1.00  0.00    -0.145 C  
HETATM   11  C   UNL     1      -9.516  13.328  66.361  1.00  0.00    -0.225 C  
HETATM   12  O   UNL     1     -10.521  14.854  67.850  1.00  0.00    -0.245 OA 
HETATM   13  C   UNL     1      -8.405   9.367  65.579  1.00  0.00    -0.139 C  
HETATM   14  C   UNL     1     -10.152  13.710  67.636  1.00  0.00    -0.242 C  
HETATM   15  H   UNL     1     -11.192  12.386  68.912  1.00  0.00     0.000 HD 
HETATM   16  C   UNL     1      -8.971   9.992  67.093  1.00  0.00    -0.146 C  
HETATM   17  N   UNL     1     -10.293  12.655  68.511  1.00  0.00    -0.235 N  
HETATM   18  C   UNL     1      -9.202   8.931  68.363  1.00  0.00    -0.140 C  
HETATM   19  C   UNL     1      -9.970   9.655  69.485  1.00  0.00    -0.223 C  
HETATM   20  C   UNL     1      -9.266  10.934  69.939  1.00  0.00     0.779 C  
HETATM   21  C   UNL     1      -9.043  11.953  68.816  1.00  0.00     0.051 C  
ENDROOT
BRANCH   4  22
HETATM   22  C   UNL     1      -7.187   6.557  66.013  1.00  0.00    -0.071 C  
HETATM   23  C   UNL     1      -7.133   3.272  64.024  1.00  0.00    -0.049 C  
HETATM   24  C   UNL     1      -5.173   4.229  65.215  1.00  0.00    -0.009 C  
HETATM   25  C   UNL     1      -6.480   4.593  64.496  1.00  0.00    -0.039 C  
HETATM   26  H   UNL     1      -8.333   4.899  65.559  1.00  0.00     0.000 HD 
HETATM   27  N   UNL     1      -7.425   5.333  65.389  1.00  0.00    -0.076 N  
HETATM   28  O   UNL     1      -6.044   7.011  66.068  1.00  0.00    -0.034 OA 
HETATM   29  C   UNL     1      -6.160   5.404  63.224  1.00  0.00    -0.021 C  
ENDBRANCH   4  22
TORSDOF 1
ENDMDL
MODEL      104
REMARK 921   NORMALIZED FREE ENERGY PREDICTED BY IDOCK:   -0.46 KCAL/MOL
REMARK 922        TOTAL FREE ENERGY PREDICTED BY IDOCK:    0.45 KCAL/MOL
REMARK 923 INTER-LIGAND FREE ENERGY PREDICTED BY IDOCK:   -0.79 KCAL/MOL
REMARK 924 INTRA-LIGAND FREE ENERGY PREDICTED BY IDOCK:    1.24 KCAL/MOL
REMARK 927      BINDING AFFINITY PREDICTED BY RF-SCORE:    0.00 PKD
ROOT
HETATM    1  C   UNL     1     -10.631  16.517  66.299  1.00  0.00    -0.223 C  
HETATM    2  C   UNL     1     -12.010  16.864  66.191  1.00  0.00     2.610 C  
HETATM    3  C   UNL     1     -11.383  17.659  67.279  1.00  0.00     0.627 C  
HETATM    4  C   UNL     1      -9.348  17.456  67.403  1.00  0.00    -0.237 C  
HETATM    5  C   UNL     1      -9.415  14.855  70.951  1.00  0.00     1.963 C  
HETATM    6  C   UNL     1     -10.031  18.306  66.595  1.00  0.00    -0.370 C  
HETATM    7  C   UNL     1     -10.840  15.203  70.508  1.00  0.00    -0.230 C  
HETATM    8  C   UNL     1     -11.574  15.947  71.638  1.00  0.00    -0.541 C  
HETATM    9  C   UNL     1     -10.207  19.069  68.323  1.00  0.00    -0.460 C  
HETATM   10  C   UNL     1      -9.852  19.162  65.379  1.00  0.00     0.837 C  
HETATM   11  C   UNL     1     -12.797  15.620  72.088  1.00  0.00    -0.517 C  
HETATM   12  O   UNL     1     -14.216  13.757  72.359  1.00  0.00    -0.648 OA 
HETATM   13  C   UNL     1     -10.223  17.763  69.574  1.00  0.00     0.127 C  
HETATM   14  C   UNL     1     -13.428  14.361  71.649  1.00  0.00    -0.372 C  
HETATM   15  H   UNL     1     -13.724  13.796  69.634  1.00  0.00     0.000 HD 
HETATM   16  C   UNL     1     -10.871  16.184  69.271  1.00  0.00    -0.310 C  
HETATM   17  N   UNL     1     -13.052  13.977  70.380  1.00  0.00    -0.083 N  
HETATM   18  C   UNL     1     -10.542  15.448  67.807  1.00  0.00    -0.274 C  
HETATM   19  C   UNL     1     -11.446  14.211  67.655  1.00  0.00    -0.364 C  
HETATM   20  C   UNL     1     -11.295  13.236  68.823  1.00  0.00    -0.331 C  
HETATM   21  C   UNL     1     -11.603  13.853  70.192  1.00  0.00    -0.179 C  
ENDROOT
BRANCH   4  22
HETATM   22  C   UNL     1      -7.927  18.335  67.582  1.00  0.00    -0.241 C  
HETATM   23  C   UNL     1      -6.514  20.123  70.674  1.00  0.00    -0.153 C  
HETATM   24  C   UNL     1      -6.002  20.755  68.325  1.00  0.00    -0.373 C  
HETATM   25  C   UNL     1      -6.379  19.574  69.233  1.00  0.00    -0.311 C  
HETATM   26  H   UNL     1      -8.422  18.932  69.497  1.00  0.00     0.000 HD 
HETATM   27  N   UNL     1      -7.664  18.933  68.814  1.00  0.00    -0.338 N  
HETATM   28  O   UNL     1      -7.169  18.521  66.629  1.00  0.00    -0.201 OA 
HETATM   29  C   UNL     1      -5.223  18.554  69.256  1.00  0.00    -0.199 C  
ENDBRANCH   4  22
TORSDOF 1
ENDMDL
MODEL      105
REMARK 921   NORMALIZED FREE ENERGY PREDICTED BY IDOCK:   -0.44 KCAL/MOL
REMARK 922        TOTAL FREE ENERGY PREDICTED BY IDOCK:    0.46 KCAL/MOL
REMARK 923 INTER-LIGAND FREE ENERGY PREDICTED BY IDOCK:   -0.59 KCAL/MOL
REMARK 924 INTRA-LIGAND FREE ENERGY PREDICTED BY IDOCK:    1.05 KCAL/MOL
REMARK 927      BINDING AFFINITY PREDICTED BY RF-SCORE:    0.00 PKD
ROOT
HETATM    1  C   UNL     1      -6.768  10.723  66.962  1.00  0.00    -0.090 C  
HETATM    2  C   UNL     1      -6.114  10.206  65.804  1.00  0.00    -0.098 C  
HETATM    3  C   UNL     1      -7.484   9.636  65.897  1.00  0.00    -0.099 C  
HETATM    4  C   UNL     1      -8.642  10.463  67.370  1.00  0.00    -0.125 C  
HETATM    5  C   UNL     1      -8.311   7.042  70.117  1.00  0.00    -0.138 C  
HETATM    6  C   UNL     1      -8.464  10.942  66.112  1.00  0.00    -0.171 C  
HETATM    7  C   UNL     1      -7.492   6.797  68.845  1.00  0.00    -0.096 C  
HETATM    8  C   UNL     1      -8.012   5.543  68.120  1.00  0.00    -0.096 C  
HETATM    9  C   UNL     1      -9.586   9.430  65.878  1.00  0.00    -0.338 C  
HETATM   10  C   UNL     1      -8.650  12.184  65.296  1.00  0.00     0.994 C  
HETATM   11  C   UNL     1      -7.229   4.538  67.693  1.00  0.00    -0.065 C  
HETATM   12  O   UNL     1      -5.216   3.429  68.218  1.00  0.00    -0.011 OA 
HETATM   13  C   UNL     1      -9.211   8.184  67.135  1.00  0.00    -0.175 C  
HETATM   14  C   UNL     1      -5.812   4.488  68.101  1.00  0.00    -0.026 C  
HETATM   15  H   UNL     1      -4.418   6.050  67.819  1.00  0.00     0.000 HD 
HETATM   16  C   UNL     1      -7.624   7.972  67.799  1.00  0.00    -0.102 C  
HETATM   17  N   UNL     1      -5.259   5.734  68.301  1.00  0.00    -0.003 N  
HETATM   18  C   UNL     1      -6.724   9.329  68.177  1.00  0.00    -0.060 C  
HETATM   19  C   UNL     1      -5.273   8.901  68.468  1.00  0.00    -0.037 C  
HETATM   20  C   UNL     1      -5.189   7.843  69.568  1.00  0.00    -0.023 C  
HETATM   21  C   UNL     1      -5.984   6.567  69.266  1.00  0.00    -0.022 C  
ENDROOT
BRANCH   4  22
HETATM   22  C   UNL     1     -10.178  11.072  67.677  1.00  0.00    -0.182 C  
HETATM   23  C   UNL     1     -11.461  13.112  70.667  1.00  0.00     0.571 C  
HETATM   24  C   UNL     1     -12.885  11.660  69.238  1.00  0.00     0.964 C  
HETATM   25  C   UNL     1     -11.620  12.531  69.242  1.00  0.00    -0.319 C  
HETATM   26  H   UNL     1      -9.654  11.705  69.572  1.00  0.00     0.000 HD 
HETATM   27  N   UNL     1     -10.399  11.748  68.876  1.00  0.00    -0.173 N  
HETATM   28  O   UNL     1     -11.113  10.862  66.903  1.00  0.00    -0.259 OA 
HETATM   29  C   UNL     1     -11.820  13.733  68.297  1.00  0.00    -0.413 C  
ENDBRANCH   4  22
TORSDOF 1
ENDMDL
MODEL      106
REMARK 921   NORMALIZED FREE ENERGY PREDICTED BY IDOCK:    1.01 KCAL/MOL
REMARK 922        TOTAL FREE ENERGY PREDICTED BY IDOCK:    2.00 KCAL/MOL
REMARK 923 INTER-LIGAND FREE ENERGY PREDICTED BY IDOCK:    0.82 KCAL/MOL
REMARK 924 INTRA-LIGAND FREE ENERGY PREDICTED BY IDOCK:    1.18 KCAL/MOL
REMARK 927      BINDING AFFINITY PREDICTED BY RF-SCORE:    0.00 PKD
ROOT
HETATM    1  C   UNL     1      -8.315   8.511  65.036  1.00  0.00    -0.175 C  
HETATM    2  C   UNL     1      -8.862   7.240  64.689  1.00  0.00     0.559 C  
HETATM    3  C   UNL     1      -9.642   7.826  65.811  1.00  0.00     0.264 C  
HETATM    4  C   UNL     1      -9.135   9.757  66.270  1.00  0.00    -0.192 C  
HETATM    5  C   UNL     1      -6.898   8.735  69.918  1.00  0.00    -0.042 C  
HETATM    6  C   UNL     1     -10.007   9.353  65.311  1.00  0.00     0.079 C  
HETATM    7  C   UNL     1      -7.424   7.469  69.233  1.00  0.00    -0.091 C  
HETATM    8  C   UNL     1      -8.370   6.713  70.183  1.00  0.00    -0.135 C  
HETATM    9  C   UNL     1     -10.937   9.056  66.938  1.00  0.00     0.199 C  
HETATM   10  C   UNL     1     -10.714   9.849  64.088  1.00  0.00     2.387 C  
HETATM   11  C   UNL     1      -8.279   5.399  70.452  1.00  0.00    -0.105 C  
HETATM   12  O   UNL     1      -6.692   3.663  70.610  1.00  0.00    -0.031 OA 
HETATM   13  C   UNL     1      -9.764   8.637  68.250  1.00  0.00    -0.171 C  
HETATM   14  C   UNL     1      -7.100   4.637  69.998  1.00  0.00    -0.049 C  
HETATM   15  H   UNL     1      -6.413   4.550  68.001  1.00  0.00     0.000 HD 
HETATM   16  C   UNL     1      -8.286   7.785  67.947  1.00  0.00    -0.123 C  
HETATM   17  N   UNL     1      -6.552   5.126  68.831  1.00  0.00    -0.046 N  
HETATM   18  C   UNL     1      -7.382   8.197  66.603  1.00  0.00    -0.082 C  
HETATM   19  C   UNL     1      -6.292   7.131  66.388  1.00  0.00    -0.047 C  
HETATM   20  C   UNL     1      -5.412   6.942  67.623  1.00  0.00    -0.016 C  
HETATM   21  C   UNL     1      -6.188   6.545  68.885  1.00  0.00    -0.030 C  
ENDROOT
BRANCH   4  22
HETATM   22  C   UNL     1      -9.794  11.263  66.616  1.00  0.00    -0.205 C  
HETATM   23  C   UNL     1     -11.164  12.645  69.928  1.00  0.00     0.099 C  
HETATM   24  C   UNL     1     -11.868  13.428  67.677  1.00  0.00    -0.394 C  
HETATM   25  C   UNL     1     -10.696  12.823  68.464  1.00  0.00    -0.253 C  
HETATM   26  H   UNL     1     -10.329  10.697  68.530  1.00  0.00     0.000 HD 
HETATM   27  N   UNL     1     -10.268  11.502  67.906  1.00  0.00    -0.180 N  
HETATM   28  O   UNL     1      -9.932  12.116  65.738  1.00  0.00    -0.242 OA 
HETATM   29  C   UNL     1      -9.525  13.825  68.495  1.00  0.00    -0.162 C  
ENDBRANCH   4  22
TORSDOF 1
ENDMDL
MODEL      107
REMARK 921   NORMALIZED FREE ENERGY PREDICTED BY IDOCK:    1.72 KCAL/MOL
REMARK 922        TOTAL FREE ENERGY PREDICTED BY IDOCK:    2.76 KCAL/MOL
REMARK 923 INTER-LIGAND FREE ENERGY PREDICTED BY IDOCK:    1.45 KCAL/MOL
REMARK 924 INTRA-LIGAND FREE ENERGY PREDICTED BY IDOCK:    1.31 KCAL/MOL
REMARK 927      BINDING AFFINITY PREDICTED BY RF-SCORE:    0.00 PKD
ROOT
HETATM    1  C   UNL     1     -10.474  16.035  64.895  1.00  0.00    -0.124 C  
HETATM    2  C   UNL     1     -11.833  15.617  65.011  1.00  0.00     0.140 C  
HETATM    3  C   UNL     1     -11.303  15.961  66.357  1.00  0.00     0.222 C  
HETATM    4  C   UNL     1      -9.439  16.810  66.336  1.00  0.00    -0.307 C  
HETATM    5  C   UNL     1      -7.333  13.206  67.727  1.00  0.00    -0.143 C  
HETATM    6  C   UNL     1     -10.624  17.450  66.169  1.00  0.00    -0.208 C  
HETATM    7  C   UNL     1      -8.833  12.931  67.571  1.00  0.00    -0.192 C  
HETATM    8  C   UNL     1      -9.433  12.513  68.925  1.00  0.00     0.242 C  
HETATM    9  C   UNL     1     -10.576  17.040  68.021  1.00  0.00    -0.373 C  
HETATM   10  C   UNL     1     -11.197  18.741  65.671  1.00  0.00     0.720 C  
HETATM   11  C   UNL     1     -10.207  11.430  69.107  1.00  0.00    -0.084 C  
HETATM   12  O   UNL     1     -10.556   9.260  68.255  1.00  0.00    -0.216 OA 
HETATM   13  C   UNL     1      -9.663  15.500  68.287  1.00  0.00    -0.201 C  
HETATM   14  C   UNL     1     -10.349  10.440  68.022  1.00  0.00    -0.179 C  
HETATM   15  H   UNL     1     -10.971  10.886  66.053  1.00  0.00     0.000 HD 
HETATM   16  C   UNL     1      -9.645  14.211  67.128  1.00  0.00    -0.244 C  
HETATM   17  N   UNL     1     -10.248  10.993  66.764  1.00  0.00    -0.220 N  
HETATM   18  C   UNL     1      -9.494  14.590  65.508  1.00  0.00     0.042 C  
HETATM   19  C   UNL     1      -9.792  13.332  64.671  1.00  0.00    -0.000 C  
HETATM   20  C   UNL     1      -8.901  12.151  65.060  1.00  0.00     0.820 C  
HETATM   21  C   UNL     1      -9.012  11.748  66.535  1.00  0.00    -0.196 C  
ENDROOT
BRANCH   4  22
HETATM   22  C   UNL     1      -8.540  18.072  66.985  1.00  0.00    -0.245 C  
HETATM   23  C   UNL     1      -8.049  19.109  70.651  1.00  0.00     2.558 C  
HETATM   24  C   UNL     1      -7.854  20.653  68.713  1.00  0.00     0.679 C  
HETATM   25  C   UNL     1      -7.686  19.190  69.149  1.00  0.00    -0.212 C  
HETATM   26  H   UNL     1      -9.250  17.725  68.894  1.00  0.00     0.000 HD 
HETATM   27  N   UNL     1      -8.565  18.266  68.366  1.00  0.00    -0.295 N  
HETATM   28  O   UNL     1      -7.933  18.862  66.260  1.00  0.00    -0.279 OA 
HETATM   29  C   UNL     1      -6.202  18.785  69.033  1.00  0.00    -0.257 C  
ENDBRANCH   4  22
TORSDOF 1
ENDMDL
MODEL      108
REMARK 921   NORMALIZED FREE ENERGY PREDICTED BY IDOCK:    1.75 KCAL/MOL
REMARK 922        TOTAL FREE ENERGY PREDICTED BY IDOCK:    2.78 KCAL/MOL
REMARK 923 INTER-LIGAND FREE ENERGY PREDICTED BY IDOCK:    1.64 KCAL/MOL
REMARK 924 INTRA-LIGAND FREE ENERGY PREDICTED BY IDOCK:    1.15 KCAL/MOL
REMARK 927      BINDING AFFINITY PREDICTED BY RF-SCORE:    0.00 PKD
ROOT
HETATM    1  C   UNL     1     -10.884  13.048  69.310  1.00  0.00    -0.048 C  
HETATM    2  C   UNL     1      -9.642  13.376  69.930  1.00  0.00     2.201 C  
HETATM    3  C   UNL     1      -9.406  13.014  68.507  1.00  0.00    -0.078 C  
HETATM    4  C   UNL     1     -11.116  12.752  67.411  1.00  0.00    -0.312 C  
HETATM    5  C   UNL     1     -10.881   8.359  67.336  1.00  0.00    -0.091 C  
HETATM    6  C   UNL     1     -10.486  13.927  67.662  1.00  0.00    -0.245 C  
HETATM    7  C   UNL     1      -9.724   8.949  68.151  1.00  0.00    -0.180 C  
HETATM    8  C   UNL     1      -8.379   8.548  67.519  1.00  0.00    -0.128 C  
HETATM    9  C   UNL     1      -9.368  13.062  66.396  1.00  0.00    -0.189 C  
HETATM   10  C   UNL     1     -10.710  15.407  67.621  1.00  0.00    -0.292 C  
HETATM   11  C   UNL     1      -7.352   8.017  68.202  1.00  0.00    -0.096 C  
HETATM   12  O   UNL     1      -6.901   6.665  70.080  1.00  0.00    -0.057 OA 
HETATM   13  C   UNL     1      -9.460  11.269  66.617  1.00  0.00    -0.204 C  
HETATM   14  C   UNL     1      -7.547   7.582  69.599  1.00  0.00    -0.094 C  
HETATM   15  H   UNL     1      -8.298   8.802  71.151  1.00  0.00     0.000 HD 
HETATM   16  C   UNL     1      -9.730  10.529  68.160  1.00  0.00    -0.166 C  
HETATM   17  N   UNL     1      -8.494   8.323  70.273  1.00  0.00    -0.123 N  
HETATM   18  C   UNL     1     -10.864  11.201  69.187  1.00  0.00    -0.284 C  
HETATM   19  C   UNL     1     -10.719  10.561  70.580  1.00  0.00     0.045 C  
HETATM   20  C   UNL     1     -10.835   9.038  70.534  1.00  0.00    -0.296 C  
HETATM   21  C   UNL     1      -9.805   8.364  69.619  1.00  0.00    -0.184 C  
ENDROOT
BRANCH   4  22
HETATM   22  C   UNL     1     -11.832  13.136  65.940  1.00  0.00    -0.406 C  
HETATM   23  C   UNL     1     -11.667  11.300  62.571  1.00  0.00     1.595 C  
HETATM   24  C   UNL     1     -12.093  13.735  62.828  1.00  0.00     1.359 C  
HETATM   25  C   UNL     1     -12.264  12.372  63.514  1.00  0.00    -0.563 C  
HETATM   26  H   UNL     1     -10.841  11.618  64.950  1.00  0.00     0.000 HD 
HETATM   27  N   UNL     1     -11.573  12.320  64.840  1.00  0.00    -0.340 N  
HETATM   28  O   UNL     1     -12.505  14.159  65.808  1.00  0.00    -0.466 OA 
HETATM   29  C   UNL     1     -13.766  12.050  63.651  1.00  0.00     1.281 C  
ENDBRANCH   4  22
TORSDOF 1
ENDMDL
MODEL      109
REMARK 921   NORMALIZED FREE ENERGY PREDICTED BY IDOCK:    3.24 KCAL/MOL
REMARK 922        TOTAL FREE ENERGY PREDICTED BY IDOCK:    4.36 KCAL/MOL
REMARK 923 INTER-LIGAND FREE ENERGY PREDICTED BY IDOCK:    3.16 KCAL/MOL
REMARK 924 INTRA-LIGAND FREE ENERGY PREDICTED BY IDOCK:    1.21 KCAL/MOL
REMARK 927      BINDING AFFINITY PREDICTED BY RF-SCORE:    0.00 PKD
ROOT
HETATM    1  C   UNL     1     -10.414  16.600  70.539  1.00  0.00     0.579 C  
HETATM    2  C   UNL     1     -11.031  17.840  70.203  1.00  0.00     1.601 C  
HETATM    3  C   UNL     1     -11.126  16.910  69.047  1.00  0.00    -0.086 C  
HETATM    4  C   UNL     1     -10.501  15.001  69.450  1.00  0.00    -0.254 C  
HETATM    5  C   UNL     1      -6.666  15.371  67.325  1.00  0.00    -0.096 C  
HETATM    6  C   UNL     1     -11.734  15.517  69.683  1.00  0.00    -0.371 C  
HETATM    7  C   UNL     1      -7.442  16.692  67.276  1.00  0.00    -0.197 C  
HETATM    8  C   UNL     1      -7.735  17.075  65.815  1.00  0.00     0.344 C  
HETATM    9  C   UNL     1     -11.673  15.295  67.800  1.00  0.00    -0.206 C  
HETATM   10  C   UNL     1     -12.987  15.250  70.459  1.00  0.00    -0.380 C  
HETATM   11  C   UNL     1      -7.486  18.284  65.286  1.00  0.00     0.795 C  
HETATM   12  O   UNL     1      -6.008  20.109  65.493  1.00  0.00    -0.180 OA 
HETATM   13  C   UNL     1      -9.978  15.523  67.208  1.00  0.00    -0.238 C  
HETATM   14  C   UNL     1      -6.698  19.271  66.050  1.00  0.00    -0.232 C  
HETATM   15  H   UNL     1      -7.151  19.923  68.008  1.00  0.00     0.000 HD 
HETATM   16  C   UNL     1      -8.854  16.595  67.976  1.00  0.00    -0.206 C  
HETATM   17  N   UNL     1      -6.851  19.150  67.414  1.00  0.00    -0.203 N  
HETATM   18  C   UNL     1      -8.793  16.634  69.646  1.00  0.00     0.530 C  
HETATM   19  C   UNL     1      -7.951  17.845  70.087  1.00  0.00     2.317 C  
HETATM   20  C   UNL     1      -6.551  17.833  69.472  1.00  0.00    -0.147 C  
HETATM   21  C   UNL     1      -6.546  17.815  67.939  1.00  0.00    -0.189 C  
ENDROOT
BRANCH   4  22
HETATM   22  C   UNL     1     -10.918  13.387  69.240  1.00  0.00    -0.109 C  
HETATM   23  C   UNL     1     -10.593  11.149  66.135  1.00  0.00    -0.305 C  
HETATM   24  C   UNL     1     -12.257  10.807  67.950  1.00  0.00     1.137 C  
HETATM   25  C   UNL     1     -10.856  11.359  67.646  1.00  0.00    -0.237 C  
HETATM   26  H   UNL     1     -10.508  13.445  67.216  1.00  0.00     0.000 HD 
HETATM   27  N   UNL     1     -10.740  12.812  67.982  1.00  0.00    -0.224 N  
HETATM   28  O   UNL     1     -11.444  12.741  70.147  1.00  0.00    -0.116 OA 
HETATM   29  C   UNL     1      -9.799  10.523  68.397  1.00  0.00    -0.171 C  
ENDBRANCH   4  22
TORSDOF 1
ENDMDL
MODEL      110
REMARK 921   NORMALIZED FREE ENERGY PREDICTED BY IDOCK:    3.49 KCAL/MOL
REMARK 922        TOTAL FREE ENERGY PREDICTED BY IDOCK:    4.63 KCAL/MOL
REMARK 923 INTER-LIGAND FREE ENERGY PREDICTED BY IDOCK:    3.66 KCAL/MOL
REMARK 924 INTRA-LIGAND FREE ENERGY PREDICTED BY IDOCK:    0.97 KCAL/MOL
REMARK 927      BINDING AFFINITY PREDICTED BY RF-SCORE:    0.00 PKD
ROOT
HETATM    1  C   UNL     1     -12.100  14.556  68.896  1.00  0.00    -0.272 C  
HETATM    2  C   UNL     1     -12.412  13.199  69.206  1.00  0.00     0.168 C  
HETATM    3  C   UNL     1     -10.966  13.314  68.877  1.00  0.00    -0.278 C  
HETATM    4  C   UNL     1     -10.306  15.239  68.644  1.00  0.00    -0.232 C  
HETATM    5  C   UNL     1     -10.079  15.063  64.254  1.00  0.00     1.566 C  
HETATM    6  C   UNL     1     -10.424  14.557  69.812  1.00  0.00     0.049 C  
HETATM    7  C   UNL     1     -10.606  13.741  64.822  1.00  0.00    -0.444 C  
HETATM    8  C   UNL     1      -9.662  12.590  64.433  1.00  0.00     0.035 C  
HETATM    9  C   UNL     1      -8.909  13.782  68.975  1.00  0.00     0.273 C  
HETATM   10  C   UNL     1     -10.471  14.773  71.293  1.00  0.00     1.086 C  
HETATM   11  C   UNL     1     -10.068  11.433  63.883  1.00  0.00    -0.393 C  
HETATM   12  O   UNL     1     -11.753  10.556  62.487  1.00  0.00     2.107 OA 
HETATM   13  C   UNL     1      -9.105  13.833  67.177  1.00  0.00    -0.243 C  
HETATM   14  C   UNL     1     -11.460  11.292  63.416  1.00  0.00     0.168 C  
HETATM   15  H   UNL     1     -13.174  11.639  64.602  1.00  0.00     0.000 HD 
HETATM   16  C   UNL     1     -10.652  13.731  66.401  1.00  0.00    -0.284 C  
HETATM   17  N   UNL     1     -12.357  12.043  64.144  1.00  0.00    -0.375 N  
HETATM   18  C   UNL     1     -11.935  14.581  67.053  1.00  0.00    -0.371 C  
HETATM   19  C   UNL     1     -13.238  14.112  66.380  1.00  0.00     1.245 C  
HETATM   20  C   UNL     1     -13.187  14.248  64.858  1.00  0.00     0.475 C  
HETATM   21  C   UNL     1     -12.037  13.473  64.203  1.00  0.00    -0.435 C  
ENDROOT
BRANCH   4  22
HETATM   22  C   UNL     1      -9.058  16.282  69.066  1.00  0.00    -0.255 C  
HETATM   23  C   UNL     1      -8.043  19.650  67.522  1.00  0.00    -0.333 C  
HETATM   24  C   UNL     1      -6.493  18.134  68.739  1.00  0.00    -0.221 C  
HETATM   25  C   UNL     1      -7.961  18.577  68.635  1.00  0.00    -0.309 C  
HETATM   26  H   UNL     1      -9.405  17.509  67.440  1.00  0.00     0.000 HD 
HETATM   27  N   UNL     1      -8.870  17.436  68.306  1.00  0.00    -0.257 N  
HETATM   28  O   UNL     1      -8.273  16.003  69.973  1.00  0.00     0.365 OA 
HETATM   29  C   UNL     1      -8.382  19.271  69.946  1.00  0.00     0.831 C  
ENDBRANCH   4  22
TORSDOF 1
ENDMDL
MODEL      111
REMARK 921   NORMALIZED FREE ENERGY PREDICTED BY IDOCK:    5.38 KCAL/MOL
REMARK 922        TOTAL FREE ENERGY PREDICTED BY IDOCK:    6.62 KCAL/MOL
REMARK 923 INTER-LIGAND FREE ENERGY PREDICTED BY IDOCK:    5.78 KCAL/MOL
REMARK 924 INTRA-LIGAND FREE ENERGY PREDICTED BY IDOCK:    0.85 KCAL/MOL
REMARK 927      BINDING AFFINITY PREDICTED BY RF-SCORE:    0.00 PKD
ROOT
HETATM    1  C   UNL     1     -11.586   5.809  68.517  1.00  0.00     1.220 C  
HETATM    2  C   UNL     1     -12.617   6.493  67.809  1.00  0.00     6.777 C  
HETATM    3  C   UNL     1     -11.295   7.054  67.424  1.00  0.00     0.054 C  
HETATM    4  C   UNL     1      -9.692   6.019  68.171  1.00  0.00    -0.137 C  
HETATM    5  C   UNL     1      -8.716   8.971  71.283  1.00  0.00    -0.240 C  
HETATM    6  C   UNL     1     -10.382   5.738  67.036  1.00  0.00    -0.303 C  
HETATM    7  C   UNL     1      -9.959   9.403  70.498  1.00  0.00    -0.328 C  
HETATM    8  C   UNL     1      -9.703  10.758  69.815  1.00  0.00     0.228 C  
HETATM    9  C   UNL     1      -9.367   7.278  66.592  1.00  0.00    -0.215 C  
HETATM   10  C   UNL     1     -10.605   4.639  66.044  1.00  0.00    -0.244 C  
HETATM   11  C   UNL     1     -10.535  11.811  69.889  1.00  0.00     0.834 C  
HETATM   12  O   UNL     1     -12.109  12.808  71.334  1.00  0.00     0.066 OA 
HETATM   13  C   UNL     1      -9.142   8.311  68.060  1.00  0.00    -0.139 C  
HETATM   14  C   UNL     1     -11.668  11.785  70.835  1.00  0.00     0.448 C  
HETATM   15  H   UNL     1     -13.142  10.273  70.914  1.00  0.00     0.000 HD 
HETATM   16  C   UNL     1     -10.319   8.404  69.328  1.00  0.00    -0.220 C  
HETATM   17  N   UNL     1     -12.162  10.518  71.057  1.00  0.00    -0.368 N  
HETATM   18  C   UNL     1     -11.066   6.998  69.836  1.00  0.00    -0.301 C  
HETATM   19  C   UNL     1     -12.255   7.364  70.743  1.00  0.00    -0.204 C  
HETATM   20  C   UNL     1     -11.836   8.238  71.926  1.00  0.00    -0.380 C  
HETATM   21  C   UNL     1     -11.160   9.552  71.518  1.00  0.00    -0.336 C  
ENDROOT
BRANCH   4  22
HETATM   22  C   UNL     1      -8.197   5.383  67.743  1.00  0.00    -0.100 C  
HETATM   23  C   UNL     1      -7.253   1.809  66.699  1.00  0.00    -0.055 C  
HETATM   24  C   UNL     1      -5.686   3.431  67.744  1.00  0.00    -0.022 C  
HETATM   25  C   UNL     1      -6.934   3.315  66.855  1.00  0.00    -0.054 C  
HETATM   26  H   UNL     1      -8.934   3.455  67.654  1.00  0.00     0.000 HD 
HETATM   27  N   UNL     1      -8.112   4.023  67.446  1.00  0.00    -0.091 N  
HETATM   28  O   UNL     1      -7.180   6.076  67.765  1.00  0.00    -0.072 OA 
HETATM   29  C   UNL     1      -6.611   3.846  65.444  1.00  0.00    -0.040 C  
ENDBRANCH   4  22
TORSDOF 1
ENDMDL
MODEL      112
REMARK 921   NORMALIZED FREE ENERGY PREDICTED BY IDOCK:    5.75 KCAL/MOL
REMARK 922        TOTAL FREE ENERGY PREDICTED BY IDOCK:    7.02 KCAL/MOL
REMARK 923 INTER-LIGAND FREE ENERGY PREDICTED BY IDOCK:    6.09 KCAL/MOL
REMARK 924 INTRA-LIGAND FREE ENERGY PREDICTED BY IDOCK:    0.93 KCAL/MOL
REMARK 927      BINDING AFFINITY PREDICTED BY RF-SCORE:    0.00 PKD
ROOT
HETATM    1  C   UNL     1     -10.746  16.186  70.884  1.00  0.00     0.233 C  
HETATM    2  C   UNL     1     -11.406  17.340  70.370  1.00  0.00     1.378 C  
HETATM    3  C   UNL     1     -11.556  16.214  69.410  1.00  0.00    -0.261 C  
HETATM    4  C   UNL     1     -10.871  14.415  70.110  1.00  0.00     0.105 C  
HETATM    5  C   UNL     1      -7.186  14.420  67.706  1.00  0.00    -0.188 C  
HETATM    6  C   UNL     1     -12.097  14.956  70.326  1.00  0.00    -0.379 C  
HETATM    7  C   UNL     1      -7.988  15.705  67.470  1.00  0.00    -0.184 C  
HETATM    8  C   UNL     1      -8.380  15.813  65.986  1.00  0.00     0.243 C  
HETATM    9  C   UNL     1     -12.150  14.396  68.514  1.00  0.00    -0.278 C  
HETATM   10  C   UNL     1     -13.293  14.826  71.218  1.00  0.00    -0.465 C  
HETATM   11  C   UNL     1      -8.188  16.908  65.232  1.00  0.00     2.257 C  
HETATM   12  O   UNL     1      -6.734  18.751  65.008  1.00  0.00    -0.514 OA 
HETATM   13  C   UNL     1     -10.501  14.524  67.781  1.00  0.00    -0.242 C  
HETATM   14  C   UNL     1      -7.372  18.023  65.752  1.00  0.00    -0.126 C  
HETATM   15  H   UNL     1      -7.713  19.017  67.584  1.00  0.00     0.000 HD 
HETATM   16  C   UNL     1      -9.351  15.727  68.267  1.00  0.00    -0.193 C  
HETATM   17  N   UNL     1      -7.437  18.151  67.122  1.00  0.00    -0.206 N  
HETATM   18  C   UNL     1      -9.186  16.069  69.895  1.00  0.00     0.341 C  
HETATM   19  C   UNL     1      -8.340  17.346  70.053  1.00  0.00     2.085 C  
HETATM   20  C   UNL     1      -6.982  17.233  69.360  1.00  0.00    -0.123 C  
HETATM   21  C   UNL     1      -7.073  16.936  67.858  1.00  0.00    -0.152 C  
ENDROOT
BRANCH   4  22
HETATM   22  C   UNL     1     -11.270  12.787  70.223  1.00  0.00     0.656 C  
HETATM   23  C   UNL     1      -9.053   9.678  69.808  1.00  0.00    -0.232 C  
HETATM   24  C   UNL     1     -11.506   9.721  69.411  1.00  0.00    -0.015 C  
HETATM   25  C   UNL     1     -10.374  10.367  70.225  1.00  0.00     0.031 C  
HETATM   26  H   UNL     1      -9.396  12.184  69.596  1.00  0.00     0.000 HD 
HETATM   27  N   UNL     1     -10.276  11.839  69.979  1.00  0.00     1.236 N  
HETATM   28  O   UNL     1     -12.429  12.428  70.435  1.00  0.00    -0.239 OA 
HETATM   29  C   UNL     1     -10.578  10.060  71.722  1.00  0.00     1.325 C  
ENDBRANCH   4  22
TORSDOF 1
ENDMDL
MODEL      113
REMARK 921   NORMALIZED FREE ENERGY PREDICTED BY IDOCK:    6.17 KCAL/MOL
REMARK 922        TOTAL FREE ENERGY PREDICTED BY IDOCK:    7.46 KCAL/MOL
REMARK 923 INTER-LIGAND FREE ENERGY PREDICTED BY IDOCK:    6.50 KCAL/MOL
REMARK 924 INTRA-LIGAND FREE ENERGY PREDICTED BY IDOCK:    0.96 KCAL/MOL
REMARK 927      BINDING AFFINITY PREDICTED BY RF-SCORE:    0.00 PKD
ROOT
HETATM    1  C   UNL     1      -9.381   9.247  69.635  1.00  0.00    -0.187 C  
HETATM    2  C   UNL     1      -9.499   7.862  69.953  1.00  0.00    -0.160 C  
HETATM    3  C   UNL     1      -8.101   8.159  69.543  1.00  0.00    -0.119 C  
HETATM    4  C   UNL     1      -7.706  10.153  69.286  1.00  0.00    -0.126 C  
HETATM    5  C   UNL     1      -7.711  10.002  64.888  1.00  0.00    -0.138 C  
HETATM    6  C   UNL     1      -7.669   9.463  70.454  1.00  0.00    -0.163 C  
HETATM    7  C   UNL     1      -8.031   8.624  65.477  1.00  0.00    -0.108 C  
HETATM    8  C   UNL     1      -6.972   7.602  65.028  1.00  0.00    -0.058 C  
HETATM    9  C   UNL     1      -6.118   8.886  69.526  1.00  0.00    -0.036 C  
HETATM   10  C   UNL     1      -7.658   9.673  71.937  1.00  0.00     1.267 C  
HETATM   11  C   UNL     1      -7.258   6.403  64.495  1.00  0.00    -0.061 C  
HETATM   12  O   UNL     1      -8.895   5.316  63.191  1.00  0.00    -0.064 OA 
HETATM   13  C   UNL     1      -6.422   8.910  67.743  1.00  0.00    -0.060 C  
HETATM   14  C   UNL     1      -8.646   6.084  64.107  1.00  0.00     0.205 C  
HETATM   15  H   UNL     1     -10.319   6.212  65.391  1.00  0.00     0.000 HD 
HETATM   16  C   UNL     1      -7.985   8.611  67.056  1.00  0.00    -0.096 C  
HETATM   17  N   UNL     1      -9.588   6.716  64.889  1.00  0.00     1.404 N  
HETATM   18  C   UNL     1      -9.326   9.291  67.785  1.00  0.00    -0.145 C  
HETATM   19  C   UNL     1     -10.595   8.658  67.185  1.00  0.00    -0.304 C  
HETATM   20  C   UNL     1     -10.649   8.798  65.663  1.00  0.00     1.897 C  
HETATM   21  C   UNL     1      -9.450   8.175  64.939  1.00  0.00     1.189 C  
ENDROOT
BRANCH   4  22
HETATM   22  C   UNL     1      -6.579  11.347  69.641  1.00  0.00    -0.128 C  
HETATM   23  C   UNL     1      -7.018  14.649  71.554  1.00  0.00     1.655 C  
HETATM   24  C   UNL     1      -5.274  14.241  69.830  1.00  0.00    -0.092 C  
HETATM   25  C   UNL     1      -6.138  13.557  70.899  1.00  0.00     0.041 C  
HETATM   26  H   UNL     1      -8.017  12.606  70.427  1.00  0.00     0.000 HD 
HETATM   27  N   UNL     1      -7.009  12.488  70.318  1.00  0.00     0.934 N  
HETATM   28  O   UNL     1      -5.415  11.263  69.247  1.00  0.00    -0.041 OA 
HETATM   29  C   UNL     1      -5.231  12.996  72.013  1.00  0.00    -0.009 C  
ENDBRANCH   4  22
TORSDOF 1
ENDMDL
MODEL      114
REMARK 921   NORMALIZED FREE ENERGY PREDICTED BY IDOCK:    6.61 KCAL/MOL
REMARK 922        TOTAL FREE ENERGY PREDICTED BY IDOCK:    7.93 KCAL/MOL
REMARK 923 INTER-LIGAND FREE ENERGY PREDICTED BY IDOCK:    6.63 KCAL/MOL
REMARK 924 INTRA-LIGAND FREE ENERGY PREDICTED BY IDOCK:    1.30 KCAL/MOL
REMARK 927      BINDING AFFINITY PREDICTED BY RF-SCORE:    0.00 PKD
ROOT
HETATM    1  C   UNL     1      -9.851  14.670  66.803  1.00  0.00    -0.262 C  
HETATM    2  C   UNL     1      -9.377  15.488  65.736  1.00  0.00    -0.292 C  
HETATM    3  C   UNL     1      -8.221  14.864  66.433  1.00  0.00     0.374 C  
HETATM    4  C   UNL     1      -8.742  13.468  67.839  1.00  0.00    -0.183 C  
HETATM    5  C   UNL     1      -7.920  16.055  71.302  1.00  0.00     4.932 C  
HETATM    6  C   UNL     1      -8.597  13.261  66.506  1.00  0.00     0.168 C  
HETATM    7  C   UNL     1      -7.672  16.810  69.992  1.00  0.00     1.367 C  
HETATM    8  C   UNL     1      -6.204  17.264  69.917  1.00  0.00    -0.126 C  
HETATM    9  C   UNL     1      -6.819  13.453  67.141  1.00  0.00     0.282 C  
HETATM   10  C   UNL     1      -8.938  12.277  65.431  1.00  0.00     0.486 C  
HETATM   11  C   UNL     1      -5.814  18.515  69.620  1.00  0.00    -0.254 C  
HETATM   12  O   UNL     1      -6.523  20.755  69.820  1.00  0.00    -0.160 OA 
HETATM   13  C   UNL     1      -6.788  14.585  68.552  1.00  0.00    -0.096 C  
HETATM   14  C   UNL     1      -6.814  19.599  69.556  1.00  0.00    -0.315 C  
HETATM   15  H   UNL     1      -8.554  19.569  68.358  1.00  0.00     0.000 HD 
HETATM   16  C   UNL     1      -7.898  15.906  68.716  1.00  0.00    -0.185 C  
HETATM   17  N   UNL     1      -8.059  19.168  69.154  1.00  0.00    -0.213 N  
HETATM   18  C   UNL     1      -9.505  15.659  68.329  1.00  0.00    -0.200 C  
HETATM   19  C   UNL     1     -10.221  17.021  68.274  1.00  0.00    -0.326 C  
HETATM   20  C   UNL     1     -10.069  17.810  69.574  1.00  0.00     0.126 C  
HETATM   21  C   UNL     1      -8.613  18.082  69.970  1.00  0.00     2.114 C  
ENDROOT
BRANCH   4  22
HETATM   22  C   UNL     1      -8.364  11.928  68.395  1.00  0.00    -0.157 C  
HETATM   23  C   UNL     1      -5.163   9.860  67.921  1.00  0.00    -0.035 C  
HETATM   24  C   UNL     1      -7.417   8.893  68.328  1.00  0.00    -0.087 C  
HETATM   25  C   UNL     1      -6.533  10.122  68.592  1.00  0.00    -0.052 C  
HETATM   26  H   UNL     1      -6.592  11.874  67.335  1.00  0.00     0.000 HD 
HETATM   27  N   UNL     1      -7.134  11.375  68.040  1.00  0.00    -0.072 N  
HETATM   28  O   UNL     1      -9.181  11.263  69.034  1.00  0.00    -0.111 OA 
HETATM   29  C   UNL     1      -6.264  10.247  70.106  1.00  0.00    -0.099 C  
ENDBRANCH   4  22
TORSDOF 1
ENDMDL
MODEL      115
REMARK 921   NORMALIZED FREE ENERGY PREDICTED BY IDOCK:    9.22 KCAL/MOL
REMARK 922        TOTAL FREE ENERGY PREDICTED BY IDOCK:   10.69 KCAL/MOL
REMARK 923 INTER-LIGAND FREE ENERGY PREDICTED BY IDOCK:    9.78 KCAL/MOL
REMARK 924 INTRA-LIGAND FREE ENERGY PREDICTED BY IDOCK:    0.91 KCAL/MOL
REMARK 927      BINDING AFFINITY PREDICTED BY RF-SCORE:    0.00 PKD
ROOT
HETATM    1  C   UNL     1      -8.464  19.243  70.376  1.00  0.00     1.890 C  
HETATM    2  C   UNL     1      -8.554  20.660  70.253  1.00  0.00     2.241 C  
HETATM    3  C   UNL     1      -9.460  20.018  69.264  1.00  0.00     0.065 C  
HETATM    4  C   UNL     1      -9.630  17.987  69.475  1.00  0.00     0.386 C  
HETATM    5  C   UNL     1      -7.093  17.006  66.017  1.00  0.00    -0.017 C  
HETATM    6  C   UNL     1     -10.335  18.934  70.145  1.00  0.00     1.271 C  
HETATM    7  C   UNL     1      -7.173  18.524  66.216  1.00  0.00    -0.288 C  
HETATM    8  C   UNL     1      -7.782  19.185  64.967  1.00  0.00     1.355 C  
HETATM    9  C   UNL     1     -11.069  18.961  68.396  1.00  0.00     0.689 C  
HETATM   10  C   UNL     1     -11.197  19.113  71.356  1.00  0.00     5.516 C  
HETATM   11  C   UNL     1      -7.244  20.240  64.332  1.00  0.00     0.660 C  
HETATM   12  O   UNL     1      -5.157  21.237  63.873  1.00  0.00    -0.195 OA 
HETATM   13  C   UNL     1      -9.793  18.538  67.185  1.00  0.00    -0.335 C  
HETATM   14  C   UNL     1      -5.887  20.696  64.690  1.00  0.00    -0.261 C  
HETATM   15  H   UNL     1      -5.259  21.209  66.641  1.00  0.00     0.000 HD 
HETATM   16  C   UNL     1      -8.121  18.932  67.412  1.00  0.00    -0.280 C  
HETATM   17  N   UNL     1      -5.566  20.469  66.010  1.00  0.00    -0.179 N  
HETATM   18  C   UNL     1      -7.443  18.718  68.925  1.00  0.00    -0.321 C  
HETATM   19  C   UNL     1      -6.061  19.396  68.953  1.00  0.00    -0.272 C  
HETATM   20  C   UNL     1      -5.140  18.884  67.845  1.00  0.00    -0.168 C  
HETATM   21  C   UNL     1      -5.705  19.071  66.432  1.00  0.00    -0.157 C  
ENDROOT
BRANCH   4  22
HETATM   22  C   UNL     1     -10.754  16.739  69.511  1.00  0.00    -0.273 C  
HETATM   23  C   UNL     1     -11.855  14.506  72.435  1.00  0.00     0.004 C  
HETATM   24  C   UNL     1     -11.970  13.848  70.041  1.00  0.00    -0.404 C  
HETATM   25  C   UNL     1     -12.019  15.050  70.996  1.00  0.00    -0.322 C  
HETATM   26  H   UNL     1     -10.271  16.230  71.454  1.00  0.00     0.000 HD 
HETATM   27  N   UNL     1     -10.939  16.043  70.705  1.00  0.00    -0.276 N  
HETATM   28  O   UNL     1     -11.347  16.385  68.491  1.00  0.00    -0.371 OA 
HETATM   29  C   UNL     1     -13.415  15.704  70.929  1.00  0.00    -0.185 C  
ENDBRANCH   4  22
TORSDOF 1
ENDMDL
MODEL      116
REMARK 921   NORMALIZED FREE ENERGY PREDICTED BY IDOCK:   12.80 KCAL/MOL
REMARK 922        TOTAL FREE ENERGY PREDICTED BY IDOCK:   14.48 KCAL/MOL
REMARK 923 INTER-LIGAND FREE ENERGY PREDICTED BY IDOCK:   13.49 KCAL/MOL
REMARK 924 INTRA-LIGAND FREE ENERGY PREDICTED BY IDOCK:    0.99 KCAL/MOL
REMARK 927      BINDING AFFINITY PREDICTED BY RF-SCORE:    0.00 PKD
ROOT
HETATM    1  C   UNL     1     -10.703  16.448  69.390  1.00  0.00    -0.324 C  
HETATM    2  C   UNL     1     -12.120  16.373  69.536  1.00  0.00     0.453 C  
HETATM    3  C   UNL     1     -11.539  15.006  69.617  1.00  0.00    -0.333 C  
HETATM    4  C   UNL     1      -9.492  14.964  69.669  1.00  0.00     0.060 C  
HETATM    5  C   UNL     1      -9.009  13.639  65.501  1.00  0.00     1.074 C  
HETATM    6  C   UNL     1     -10.327  15.136  70.725  1.00  0.00     0.240 C  
HETATM    7  C   UNL     1     -10.491  13.834  65.839  1.00  0.00    -0.300 C  
HETATM    8  C   UNL     1     -11.248  12.506  65.663  1.00  0.00    -0.352 C  
HETATM    9  C   UNL     1     -10.500  13.296  70.292  1.00  0.00     2.024 C  
HETATM   10  C   UNL     1     -10.333  15.606  72.147  1.00  0.00     2.189 C  
HETATM   11  C   UNL     1     -12.389  12.373  64.967  1.00  0.00    -0.441 C  
HETATM   12  O   UNL     1     -13.533  13.297  63.124  1.00  0.00     1.241 OA 
HETATM   13  C   UNL     1     -10.271  13.058  68.513  1.00  0.00    -0.218 C  
HETATM   14  C   UNL     1     -12.874  13.490  64.133  1.00  0.00     0.229 C  
HETATM   15  H   UNL     1     -13.211  15.457  64.826  1.00  0.00     0.000 HD 
HETATM   16  C   UNL     1     -10.723  14.254  67.343  1.00  0.00    -0.282 C  
HETATM   17  N   UNL     1     -12.526  14.729  64.627  1.00  0.00    -0.344 N  
HETATM   18  C   UNL     1     -10.386  15.860  67.664  1.00  0.00    -0.281 C  
HETATM   19  C   UNL     1     -11.127  16.740  66.641  1.00  0.00     0.287 C  
HETATM   20  C   UNL     1     -10.782  16.369  65.198  1.00  0.00    -0.309 C  
HETATM   21  C   UNL     1     -11.087  14.909  64.842  1.00  0.00    -0.414 C  
ENDROOT
BRANCH   4  22
HETATM   22  C   UNL     1      -8.191  14.258  70.464  1.00  0.00     2.353 C  
HETATM   23  C   UNL     1      -5.142  15.898  72.126  1.00  0.00     0.352 C  
HETATM   24  C   UNL     1      -5.174  13.587  71.213  1.00  0.00    -0.178 C  
HETATM   25  C   UNL     1      -6.052  14.679  71.844  1.00  0.00     0.415 C  
HETATM   26  H   UNL     1      -7.202  16.062  70.652  1.00  0.00     0.000 HD 
HETATM   27  N   UNL     1      -7.176  15.084  70.944  1.00  0.00     0.855 N  
HETATM   28  O   UNL     1      -8.088  13.034  70.555  1.00  0.00     3.505 OA 
HETATM   29  C   UNL     1      -6.574  14.193  73.211  1.00  0.00     1.989 C  
ENDBRANCH   4  22
TORSDOF 1
ENDMDL
MODEL      117
REMARK 921   NORMALIZED FREE ENERGY PREDICTED BY IDOCK:   16.86 KCAL/MOL
REMARK 922        TOTAL FREE ENERGY PREDICTED BY IDOCK:   18.78 KCAL/MOL
REMARK 923 INTER-LIGAND FREE ENERGY PREDICTED BY IDOCK:   17.53 KCAL/MOL
REMARK 924 INTRA-LIGAND FREE ENERGY PREDICTED BY IDOCK:    1.25 KCAL/MOL
REMARK 927      BINDING AFFINITY PREDICTED BY RF-SCORE:    0.00 PKD
ROOT
HETATM    1  C   UNL     1      -7.206  12.139  67.168  1.00  0.00    -0.117 C  
HETATM    2  C   UNL     1      -7.203  12.192  68.593  1.00  0.00    -0.109 C  
HETATM    3  C   UNL     1      -8.498  12.713  68.080  1.00  0.00    -0.177 C  
HETATM    4  C   UNL     1      -8.758  12.480  66.062  1.00  0.00     0.364 C  
HETATM    5  C   UNL     1      -8.017  16.701  65.066  1.00  0.00     4.303 C  
HETATM    6  C   UNL     1      -9.021  11.561  67.025  1.00  0.00    -0.174 C  
HETATM    7  C   UNL     1      -7.859  16.464  66.572  1.00  0.00    -0.323 C  
HETATM    8  C   UNL     1      -8.870  17.328  67.348  1.00  0.00    -0.222 C  
HETATM    9  C   UNL     1     -10.416  12.834  67.206  1.00  0.00    -0.238 C  
HETATM   10  C   UNL     1      -9.274  10.096  67.207  1.00  0.00    -0.154 C  
HETATM   11  C   UNL     1      -8.549  18.116  68.388  1.00  0.00    -0.310 C  
HETATM   12  O   UNL     1      -6.763  19.400  69.236  1.00  0.00    -0.312 OA 
HETATM   13  C   UNL     1      -9.815  14.477  66.747  1.00  0.00    -0.271 C  
HETATM   14  C   UNL     1      -7.130  18.360  68.713  1.00  0.00    -0.283 C  
HETATM   15  H   UNL     1      -5.694  16.851  69.067  1.00  0.00     0.000 HD 
HETATM   16  C   UNL     1      -8.172  14.974  66.991  1.00  0.00    -0.246 C  
HETATM   17  N   UNL     1      -6.308  17.303  68.389  1.00  0.00    -0.158 N  
HETATM   18  C   UNL     1      -6.946  13.894  66.641  1.00  0.00     1.896 C  
HETATM   19  C   UNL     1      -5.621  14.443  67.202  1.00  0.00     0.892 C  
HETATM   20  C   UNL     1      -5.305  15.844  66.679  1.00  0.00     1.043 C  
HETATM   21  C   UNL     1      -6.390  16.883  66.987  1.00  0.00    -0.194 C  
ENDROOT
BRANCH   4  22
HETATM   22  C   UNL     1      -9.877  11.990  64.908  1.00  0.00    -0.175 C  
HETATM   23  C   UNL     1     -13.627  11.244  65.280  1.00  0.00     7.262 C  
HETATM   24  C   UNL     1     -12.162  10.261  63.529  1.00  0.00     5.644 C  
HETATM   25  C   UNL     1     -12.362  11.494  64.423  1.00  0.00     0.331 C  
HETATM   26  H   UNL     1     -11.359  11.716  66.321  1.00  0.00     0.000 HD 
HETATM   27  N   UNL     1     -11.187  11.737  65.315  1.00  0.00    -0.288 N  
HETATM   28  O   UNL     1      -9.540  11.779  63.742  1.00  0.00    -0.232 OA 
HETATM   29  C   UNL     1     -12.663  12.724  63.543  1.00  0.00    -0.223 C  
ENDBRANCH   4  22
TORSDOF 1
ENDMDL
MODEL      118
REMARK 921   NORMALIZED FREE ENERGY PREDICTED BY IDOCK:   17.26 KCAL/MOL
REMARK 922        TOTAL FREE ENERGY PREDICTED BY IDOCK:   19.20 KCAL/MOL
REMARK 923 INTER-LIGAND FREE ENERGY PREDICTED BY IDOCK:   18.17 KCAL/MOL
REMARK 924 INTRA-LIGAND FREE ENERGY PREDICTED BY IDOCK:    1.02 KCAL/MOL
REMARK 927      BINDING AFFINITY PREDICTED BY RF-SCORE:    0.00 PKD
ROOT
HETATM    1  C   UNL     1     -12.326   6.841  72.539  1.00  0.00     0.118 C  
HETATM    2  C   UNL     1     -13.696   7.167  72.320  1.00  0.00     0.094 C  
HETATM    3  C   UNL     1     -13.077   6.741  71.037  1.00  0.00    -0.004 C  
HETATM    4  C   UNL     1     -11.174   6.006  71.225  1.00  0.00    -0.323 C  
HETATM    5  C   UNL     1      -9.194   9.593  69.623  1.00  0.00    -0.225 C  
HETATM    6  C   UNL     1     -12.331   5.315  71.390  1.00  0.00     2.350 C  
HETATM    7  C   UNL     1     -10.712   9.793  69.681  1.00  0.00    -0.264 C  
HETATM    8  C   UNL     1     -11.261  10.057  68.267  1.00  0.00    -0.195 C  
HETATM    9  C   UNL     1     -12.205   5.567  69.513  1.00  0.00     4.620 C  
HETATM   10  C   UNL     1     -12.859   4.040  71.972  1.00  0.00     5.249 C  
HETATM   11  C   UNL     1     -12.081  11.074  67.953  1.00  0.00     0.356 C  
HETATM   12  O   UNL     1     -12.591  13.286  68.590  1.00  0.00     0.189 OA 
HETATM   13  C   UNL     1     -11.364   7.128  69.156  1.00  0.00     0.084 C  
HETATM   14  C   UNL     1     -12.334  12.144  68.937  1.00  0.00     0.252 C  
HETATM   15  H   UNL     1     -13.035  11.833  70.905  1.00  0.00     0.000 HD 
HETATM   16  C   UNL     1     -11.477   8.511  70.195  1.00  0.00     0.002 C  
HETATM   17  N   UNL     1     -12.271  11.708  70.243  1.00  0.00    -0.332 N  
HETATM   18  C   UNL     1     -11.393   8.282  71.849  1.00  0.00    -0.372 C  
HETATM   19  C   UNL     1     -11.802   9.588  72.554  1.00  0.00     0.617 C  
HETATM   20  C   UNL     1     -10.957  10.781  72.106  1.00  0.00     4.837 C  
HETATM   21  C   UNL     1     -11.010  11.048  70.597  1.00  0.00     0.679 C  
ENDROOT
BRANCH   4  22
HETATM   22  C   UNL     1     -10.175   4.748  70.734  1.00  0.00    -0.176 C  
HETATM   23  C   UNL     1      -6.468   4.107  71.509  1.00  0.00    -0.019 C  
HETATM   24  C   UNL     1      -7.649   3.270  69.489  1.00  0.00    -0.047 C  
HETATM   25  C   UNL     1      -7.845   3.662  70.961  1.00  0.00    -0.051 C  
HETATM   26  H   UNL     1      -8.496   5.633  71.551  1.00  0.00     0.000 HD 
HETATM   27  N   UNL     1      -8.835   4.772  71.119  1.00  0.00    -0.117 N  
HETATM   28  O   UNL     1     -10.587   3.861  69.985  1.00  0.00     0.911 OA 
HETATM   29  C   UNL     1      -8.261   2.419  71.774  1.00  0.00    -0.059 C  
ENDBRANCH   4  22
TORSDOF 1
ENDMDL
MODEL      119
REMARK 921   NORMALIZED FREE ENERGY PREDICTED BY IDOCK:   25.03 KCAL/MOL
REMARK 922        TOTAL FREE ENERGY PREDICTED BY IDOCK:   27.42 KCAL/MOL
REMARK 923 INTER-LIGAND FREE ENERGY PREDICTED BY IDOCK:   26.55 KCAL/MOL
REMARK 924 INTRA-LIGAND FREE ENERGY PREDICTED BY IDOCK:    0.87 KCAL/MOL
REMARK 927      BINDING AFFINITY PREDICTED BY RF-SCORE:    0.00 PKD
ROOT
HETATM    1  C   UNL     1     -11.246  10.597  65.115  1.00  0.00     0.576 C  
HETATM    2  C   UNL     1     -11.800   9.420  64.530  1.00  0.00    10.603 C  
HETATM    3  C   UNL     1     -11.073   9.060  65.776  1.00  0.00     2.961 C  
HETATM    4  C   UNL     1     -10.425  10.668  66.867  1.00  0.00    -0.304 C  
HETATM    5  C   UNL     1      -6.202  10.276  65.698  1.00  0.00    -0.113 C  
HETATM    6  C   UNL     1     -11.657  10.101  66.913  1.00  0.00     1.273 C  
HETATM    7  C   UNL     1      -7.057   9.209  65.005  1.00  0.00    -0.092 C  
HETATM    8  C   UNL     1      -6.572   7.805  65.409  1.00  0.00    -0.044 C  
HETATM    9  C   UNL     1     -10.540   8.856  67.809  1.00  0.00    -0.266 C  
HETATM   10  C   UNL     1     -13.054  10.372  67.379  1.00  0.00     9.649 C  
HETATM   11  C   UNL     1      -6.307   6.818  64.537  1.00  0.00    -0.039 C  
HETATM   12  O   UNL     1      -5.552   6.470  62.331  1.00  0.00    -0.023 OA 
HETATM   13  C   UNL     1      -8.875   8.904  67.104  1.00  0.00    -0.133 C  
HETATM   14  C   UNL     1      -6.264   7.108  63.091  1.00  0.00    -0.045 C  
HETATM   15  H   UNL     1      -7.822   8.021  61.994  1.00  0.00     0.000 HD 
HETATM   16  C   UNL     1      -8.575   9.270  65.437  1.00  0.00    -0.178 C  
HETATM   17  N   UNL     1      -7.109   8.130  62.715  1.00  0.00    -0.086 N  
HETATM   18  C   UNL     1      -9.441  10.504  64.716  1.00  0.00    -0.312 C  
HETATM   19  C   UNL     1      -9.218  10.448  63.194  1.00  0.00    -0.314 C  
HETATM   20  C   UNL     1      -7.737  10.507  62.821  1.00  0.00    -0.118 C  
HETATM   21  C   UNL     1      -6.895   9.386  63.441  1.00  0.00    -0.097 C  
ENDROOT
BRANCH   4  22
HETATM   22  C   UNL     1     -10.350  11.277  68.431  1.00  0.00    -0.192 C  
HETATM   23  C   UNL     1     -13.184  12.343  70.793  1.00  0.00     0.377 C  
HETATM   24  C   UNL     1     -10.863  13.228  70.889  1.00  0.00     2.905 C  
HETATM   25  C   UNL     1     -11.703  12.000  70.506  1.00  0.00     0.040 C  
HETATM   26  H   UNL     1     -12.380  11.653  68.486  1.00  0.00     0.000 HD 
HETATM   27  N   UNL     1     -11.539  11.637  69.064  1.00  0.00    -0.287 N  
HETATM   28  O   UNL     1      -9.268  11.481  68.984  1.00  0.00    -0.042 OA 
HETATM   29  C   UNL     1     -11.337  10.819  71.427  1.00  0.00     0.851 C  
ENDBRANCH   4  22
TORSDOF 1
ENDMDL
MODEL      120
REMARK 921   NORMALIZED FREE ENERGY PREDICTED BY IDOCK:   30.96 KCAL/MOL
REMARK 922        TOTAL FREE ENERGY PREDICTED BY IDOCK:   33.70 KCAL/MOL
REMARK 923 INTER-LIGAND FREE ENERGY PREDICTED BY IDOCK:   32.43 KCAL/MOL
REMARK 924 INTRA-LIGAND FREE ENERGY PREDICTED BY IDOCK:    1.26 KCAL/MOL
REMARK 927      BINDING AFFINITY PREDICTED BY RF-SCORE:    0.00 PKD
ROOT
HETATM    1  C   UNL     1      -8.901  18.001  69.435  1.00  0.00     0.458 C  
HETATM    2  C   UNL     1      -8.322  17.452  70.617  1.00  0.00     4.853 C  
HETATM    3  C   UNL     1      -7.637  16.890  69.423  1.00  0.00     0.044 C  
HETATM    4  C   UNL     1      -8.188  17.759  67.651  1.00  0.00    -0.230 C  
HETATM    5  C   UNL     1     -10.705  14.405  66.320  1.00  0.00    -0.307 C  
HETATM    6  C   UNL     1      -7.240  18.206  68.514  1.00  0.00    -0.274 C  
HETATM    7  C   UNL     1     -10.119  14.124  67.709  1.00  0.00    -0.239 C  
HETATM    8  C   UNL     1      -9.249  12.856  67.665  1.00  0.00    -0.193 C  
HETATM    9  C   UNL     1      -6.442  16.694  67.693  1.00  0.00    -0.174 C  
HETATM   10  C   UNL     1      -6.439  19.429  68.842  1.00  0.00    -0.312 C  
HETATM   11  C   UNL     1      -9.355  11.837  68.534  1.00  0.00    -0.158 C  
HETATM   12  O   UNL     1     -10.942  10.732  69.883  1.00  0.00    -0.267 OA 
HETATM   13  C   UNL     1      -7.714  15.477  67.274  1.00  0.00    -0.244 C  
HETATM   14  C   UNL     1     -10.490  11.791  69.475  1.00  0.00     0.290 C  
HETATM   15  H   UNL     1     -11.014  13.339  70.814  1.00  0.00     0.000 HD 
HETATM   16  C   UNL     1      -9.159  15.275  68.208  1.00  0.00    -0.181 C  
HETATM   17  N   UNL     1     -10.945  13.039  69.841  1.00  0.00     0.288 N  
HETATM   18  C   UNL     1      -9.955  16.636  68.763  1.00  0.00    -0.265 C  
HETATM   19  C   UNL     1     -11.018  16.209  69.791  1.00  0.00    -0.349 C  
HETATM   20  C   UNL     1     -11.994  15.178  69.223  1.00  0.00    -0.322 C  
HETATM   21  C   UNL     1     -11.320  13.898  68.714  1.00  0.00    -0.277 C  
ENDROOT
BRANCH   4  22
HETATM   22  C   UNL     1      -7.566  18.382  66.220  1.00  0.00    -0.256 C  
HETATM   23  C   UNL     1      -5.712  16.604  63.365  1.00  0.00    10.149 C  
HETATM   24  C   UNL     1      -5.465  19.014  63.918  1.00  0.00    -0.300 C  
HETATM   25  C   UNL     1      -6.442  17.830  63.964  1.00  0.00     4.727 C  
HETATM   26  H   UNL     1      -6.668  16.591  65.716  1.00  0.00     0.000 HD 
HETATM   27  N   UNL     1      -6.885  17.522  65.359  1.00  0.00     0.363 N  
HETATM   28  O   UNL     1      -7.635  19.585  65.965  1.00  0.00    -0.295 OA 
HETATM   29  C   UNL     1      -7.645  18.118  63.044  1.00  0.00    15.904 C  
ENDBRANCH   4  22
TORSDOF 1
ENDMDL
MODEL      121
REMARK 921   NORMALIZED FREE ENERGY PREDICTED BY IDOCK:   43.16 KCAL/MOL
REMARK 922        TOTAL FREE ENERGY PREDICTED BY IDOCK:   46.62 KCAL/MOL
REMARK 923 INTER-LIGAND FREE ENERGY PREDICTED BY IDOCK:   45.35 KCAL/MOL
REMARK 924 INTRA-LIGAND FREE ENERGY PREDICTED BY IDOCK:    1.27 KCAL/MOL
REMARK 927      BINDING AFFINITY PREDICTED BY RF-SCORE:    0.00 PKD
ROOT
HETATM    1  C   UNL     1     -12.370  11.982  70.016  1.00  0.00    -0.179 C  
HETATM    2  C   UNL     1     -12.465  10.611  69.636  1.00  0.00    -0.121 C  
HETATM    3  C   UNL     1     -11.070  11.084  69.438  1.00  0.00    -0.320 C  
HETATM    4  C   UNL     1     -10.708  12.965  70.165  1.00  0.00     1.347 C  
HETATM    5  C   UNL     1     -10.678  14.925  66.226  1.00  0.00    -0.320 C  
HETATM    6  C   UNL     1     -10.668  11.803  70.865  1.00  0.00     3.275 C  
HETATM    7  C   UNL     1     -10.978  13.429  66.084  1.00  0.00    -0.285 C  
HETATM    8  C   UNL     1      -9.898  12.757  65.219  1.00  0.00    -0.118 C  
HETATM    9  C   UNL     1      -9.100  11.755  69.798  1.00  0.00     1.838 C  
HETATM   10  C   UNL     1     -10.672  11.282  72.269  1.00  0.00     9.055 C  
HETATM   11  C   UNL     1     -10.159  11.952  64.175  1.00  0.00    -0.338 C  
HETATM   12  O   UNL     1     -11.766  11.598  62.487  1.00  0.00     0.784 OA 
HETATM   13  C   UNL     1      -9.391  12.621  68.237  1.00  0.00    -0.195 C  
HETATM   14  C   UNL     1     -11.538  11.840  63.662  1.00  0.00    -0.424 C  
HETATM   15  H   UNL     1     -13.222  11.321  64.826  1.00  0.00     0.000 HD 
HETATM   16  C   UNL     1     -10.943  12.666  67.467  1.00  0.00    -0.280 C  
HETATM   17  N   UNL     1     -12.496  12.012  64.636  1.00  0.00    -0.215 N  
HETATM   18  C   UNL     1     -12.302  12.901  68.411  1.00  0.00     0.213 C  
HETATM   19  C   UNL     1     -13.555  12.616  67.563  1.00  0.00     7.857 C  
HETATM   20  C   UNL     1     -13.600  13.462  66.291  1.00  0.00     3.272 C  
HETATM   21  C   UNL     1     -12.385  13.273  65.376  1.00  0.00    -0.479 C  
ENDROOT
BRANCH   4  22
HETATM   22  C   UNL     1      -9.606  13.860  71.063  1.00  0.00     5.489 C  
HETATM   23  C   UNL     1      -5.945  14.735  70.296  1.00  0.00    -0.160 C  
HETATM   24  C   UNL     1      -6.910  14.595  72.583  1.00  0.00     2.577 C  
HETATM   25  C   UNL     1      -7.247  14.905  71.116  1.00  0.00     1.570 C  
HETATM   26  H   UNL     1      -8.050  13.413  69.779  1.00  0.00     0.000 HD 
HETATM   27  N   UNL     1      -8.305  13.993  70.579  1.00  0.00     2.610 N  
HETATM   28  O   UNL     1      -9.907  14.323  72.164  1.00  0.00     4.610 OA 
HETATM   29  C   UNL     1      -7.660  16.384  70.984  1.00  0.00     4.285 C  
ENDBRANCH   4  22
TORSDOF 1
ENDMDL
MODEL      122
REMARK 921   NORMALIZED FREE ENERGY PREDICTED BY IDOCK:   46.72 KCAL/MOL
REMARK 922        TOTAL FREE ENERGY PREDICTED BY IDOCK:   50.39 KCAL/MOL
REMARK 923 INTER-LIGAND FREE ENERGY PREDICTED BY IDOCK:   49.33 KCAL/MOL
REMARK 924 INTRA-LIGAND FREE ENERGY PREDICTED BY IDOCK:    1.05 KCAL/MOL
REMARK 927      BINDING AFFINITY PREDICTED BY RF-SCORE:    0.00 PKD
ROOT
HETATM    1  C   UNL     1     -11.307  11.591  69.366  1.00  0.00    -0.355 C  
HETATM    2  C   UNL     1     -12.074  11.773  70.554  1.00  0.00    -0.439 C  
HETATM    3  C   UNL     1     -12.612  12.647  69.478  1.00  0.00     0.399 C  
HETATM    4  C   UNL     1     -11.773  12.326  67.637  1.00  0.00    -0.403 C  
HETATM    5  C   UNL     1      -9.268  15.943  67.694  1.00  0.00    -0.208 C  
HETATM    6  C   UNL     1     -12.808  11.642  68.187  1.00  0.00     2.720 C  
HETATM    7  C   UNL     1     -10.057  15.809  69.002  1.00  0.00    -0.225 C  
HETATM    8  C   UNL     1     -10.976  17.030  69.187  1.00  0.00    -0.054 C  
HETATM    9  C   UNL     1     -13.559  13.319  67.714  1.00  0.00     7.064 C  
HETATM   10  C   UNL     1     -13.584  10.370  68.034  1.00  0.00    10.822 C  
HETATM   11  C   UNL     1     -11.046  17.759  70.313  1.00  0.00     1.964 C  
HETATM   12  O   UNL     1      -9.724  18.447  72.140  1.00  0.00     6.265 OA 
HETATM   13  C   UNL     1     -12.305  14.616  67.850  1.00  0.00     0.080 C  
HETATM   14  C   UNL     1     -10.058  17.545  71.388  1.00  0.00     4.481 C  
HETATM   15  H   UNL     1      -9.650  15.683  72.300  1.00  0.00     0.000 HD 
HETATM   16  C   UNL     1     -11.018  14.556  69.009  1.00  0.00    -0.272 C  
HETATM   17  N   UNL     1      -9.597  16.248  71.452  1.00  0.00     3.770 N  
HETATM   18  C   UNL     1     -10.240  13.100  69.271  1.00  0.00     0.357 C  
HETATM   19  C   UNL     1      -9.355  13.225  70.524  1.00  0.00     5.544 C  
HETATM   20  C   UNL     1      -8.363  14.384  70.422  1.00  0.00     1.850 C  
HETATM   21  C   UNL     1      -9.023  15.750  70.198  1.00  0.00     0.705 C  
ENDROOT
BRANCH   4  22
HETATM   22  C   UNL     1     -12.154  12.132  66.012  1.00  0.00    -0.020 C  
HETATM   23  C   UNL     1     -11.830  14.613  63.098  1.00  0.00     1.791 C  
HETATM   24  C   UNL     1     -13.451  12.730  63.171  1.00  0.00     1.936 C  
HETATM   25  C   UNL     1     -12.070  13.191  63.661  1.00  0.00    -0.513 C  
HETATM   26  H   UNL     1     -11.782  14.119  65.587  1.00  0.00     0.000 HD 
HETATM   27  N   UNL     1     -11.984  13.218  65.154  1.00  0.00    -0.359 N  
HETATM   28  O   UNL     1     -12.648  11.084  65.594  1.00  0.00     2.381 OA 
HETATM   29  C   UNL     1     -10.980  12.286  63.052  1.00  0.00     0.053 C  
ENDBRANCH   4  22
TORSDOF 1
ENDMDL
