MODEL        1
REMARK 921   NORMALIZED FREE ENERGY PREDICTED BY IDOCK:   -6.39 KCAL/MOL
REMARK 922        TOTAL FREE ENERGY PREDICTED BY IDOCK:  -10.86 KCAL/MOL
REMARK 923 INTER-LIGAND FREE ENERGY PREDICTED BY IDOCK:   -9.75 KCAL/MOL
REMARK 924 INTRA-LIGAND FREE ENERGY PREDICTED BY IDOCK:   -1.11 KCAL/MOL
REMARK 927      BINDING AFFINITY PREDICTED BY RF-SCORE:    0.00 PKD
ROOT
HETATM    1  C   UNL     1     -10.653   5.943  68.275  1.00  0.00    -0.310 C  
HETATM    2  C   UNL     1     -11.108   6.691  69.516  1.00  0.00    -0.378 C  
ENDROOT
BRANCH   2   3
HETATM    3  C   UNL     1     -10.738   5.930  70.786  1.00  0.00    -0.344 C  
BRANCH   3   4
HETATM    4  C   UNL     1     -11.634   6.344  71.949  1.00  0.00    -0.367 C  
BRANCH   4   5
HETATM    5  C   UNL     1     -12.756   7.259  71.471  1.00  0.00    -0.422 C  
BRANCH   5   6
HETATM    6  C   UNL     1     -12.806   8.540  72.300  1.00  0.00    -0.404 C  
BRANCH   6   7
HETATM    7  C   UNL     1     -13.608   9.611  71.572  1.00  0.00    -0.376 C  
BRANCH   7   8
HETATM    8  C   UNL     1     -12.965  10.991  71.731  1.00  0.00    -0.544 C  
BRANCH   8   9
HETATM    9  C   UNL     1     -12.234  11.400  70.479  1.00  0.00    -0.478 A  
HETATM   10  C   UNL     1     -11.721  10.421  69.623  1.00  0.00    -0.283 A  
HETATM   11  C   UNL     1     -10.991  10.779  68.495  1.00  0.00    -0.291 A  
HETATM   12  C   UNL     1     -10.792  12.124  68.166  1.00  0.00    -0.256 A  
HETATM   13  C   UNL     1     -12.032  12.747  70.166  1.00  0.00    -0.371 A  
HETATM   14  C   UNL     1     -11.319  13.104  69.018  1.00  0.00    -0.332 A  
BRANCH  12  15
HETATM   15  C   UNL     1      -9.954  12.541  66.977  1.00  0.00    -0.217 C  
BRANCH  15  16
HETATM   16  C   UNL     1     -10.138  14.013  66.571  1.00  0.00    -0.287 C  
HETATM   17  C   UNL     1     -10.898  14.314  65.257  1.00  0.00    -0.355 C  
HETATM   18  C   UNL     1     -10.899  15.859  65.068  1.00  0.00    -0.426 C  
HETATM   19  N   UNL     1     -10.211  13.709  64.084  1.00  0.00    -0.728 NA 
HETATM   20  C   UNL     1     -12.371  13.822  65.304  1.00  0.00    -0.464 C  
HETATM   21  O   UNL     1     -11.510  16.222  63.832  1.00  0.00    -1.484 OA 
HETATM   22  O   UNL     1     -12.459  12.402  65.381  1.00  0.00    -0.637 OA 
HETATM   23  H1  UNL     1     -10.712  13.907  63.218  1.00  0.00     0.000 HD 
HETATM   24  H2  UNL     1     -10.065  12.707  64.211  1.00  0.00     0.000 HD 
HETATM   25  H   UNL     1     -13.361  12.101  65.410  1.00  0.00     0.000 HD 
HETATM   26  H   UNL     1     -11.511  17.165  63.717  1.00  0.00     0.000 HD 
ENDBRANCH  15  16
ENDBRANCH  12  15
ENDBRANCH   8   9
ENDBRANCH   7   8
ENDBRANCH   6   7
ENDBRANCH   5   6
ENDBRANCH   4   5
ENDBRANCH   3   4
ENDBRANCH   2   3
TORSDOF 9
ENDMDL
MODEL        2
REMARK 921   NORMALIZED FREE ENERGY PREDICTED BY IDOCK:   -6.39 KCAL/MOL
REMARK 922        TOTAL FREE ENERGY PREDICTED BY IDOCK:  -10.86 KCAL/MOL
REMARK 923 INTER-LIGAND FREE ENERGY PREDICTED BY IDOCK:   -9.45 KCAL/MOL
REMARK 924 INTRA-LIGAND FREE ENERGY PREDICTED BY IDOCK:   -1.40 KCAL/MOL
REMARK 927      BINDING AFFINITY PREDICTED BY RF-SCORE:    0.00 PKD
ROOT
HETATM    1  C   UNL     1     -11.683  10.921  69.700  1.00  0.00    -0.403 C  
HETATM    2  C   UNL     1     -12.112  10.286  71.011  1.00  0.00    -0.487 C  
ENDROOT
BRANCH   2   3
HETATM    3  C   UNL     1     -13.157  11.139  71.723  1.00  0.00    -0.536 C  
BRANCH   3   4
HETATM    4  C   UNL     1     -12.881  12.625  71.514  1.00  0.00    -0.368 C  
BRANCH   4   5
HETATM    5  C   UNL     1     -13.850  13.476  72.329  1.00  0.00    -0.680 C  
BRANCH   5   6
HETATM    6  C   UNL     1     -13.214  14.810  72.713  1.00  0.00    -0.581 C  
BRANCH   6   7
HETATM    7  C   UNL     1     -11.823  14.930  72.104  1.00  0.00    -0.394 C  
BRANCH   7   8
HETATM    8  C   UNL     1     -11.684  16.213  71.282  1.00  0.00    -0.480 C  
BRANCH   8   9
HETATM    9  C   UNL     1     -11.322  15.910  69.852  1.00  0.00    -0.348 A  
HETATM   10  C   UNL     1     -12.022  14.922  69.153  1.00  0.00    -0.313 A  
HETATM   11  C   UNL     1     -11.662  14.587  67.852  1.00  0.00    -0.381 A  
HETATM   12  C   UNL     1     -10.622  15.257  67.199  1.00  0.00    -0.302 A  
HETATM   13  C   UNL     1     -10.275  16.579  69.213  1.00  0.00    -0.290 A  
HETATM   14  C   UNL     1      -9.931  16.257  67.898  1.00  0.00    -0.241 A  
BRANCH  12  15
HETATM   15  C   UNL     1     -10.173  14.873  65.806  1.00  0.00    -0.358 C  
BRANCH  15  16
HETATM   16  C   UNL     1     -11.300  14.316  64.920  1.00  0.00    -0.372 C  
HETATM   17  C   UNL     1     -11.140  12.882  64.358  1.00  0.00    -0.361 C  
HETATM   18  C   UNL     1     -12.387  12.593  63.472  1.00  0.00    -0.496 C  
HETATM   19  N   UNL     1      -9.930  12.769  63.500  1.00  0.00    -0.687 NA 
HETATM   20  C   UNL     1     -11.078  11.813  65.484  1.00  0.00    -0.280 C  
HETATM   21  O   UNL     1     -12.282  11.317  62.843  1.00  0.00    -0.884 OA 
HETATM   22  O   UNL     1      -9.910  11.951  66.289  1.00  0.00    -0.214 OA 
HETATM   23  H1  UNL     1      -9.824  11.824  63.130  1.00  0.00     0.000 HD 
HETATM   24  H2  UNL     1      -9.092  13.073  63.995  1.00  0.00     0.000 HD 
HETATM   25  H   UNL     1      -9.872  11.297  66.978  1.00  0.00     0.000 HD 
HETATM   26  H   UNL     1     -13.042  11.140  62.302  1.00  0.00     0.000 HD 
ENDBRANCH  15  16
ENDBRANCH  12  15
ENDBRANCH   8   9
ENDBRANCH   7   8
ENDBRANCH   6   7
ENDBRANCH   5   6
ENDBRANCH   4   5
ENDBRANCH   3   4
ENDBRANCH   2   3
TORSDOF 9
ENDMDL
MODEL        3
REMARK 921   NORMALIZED FREE ENERGY PREDICTED BY IDOCK:   -6.38 KCAL/MOL
REMARK 922        TOTAL FREE ENERGY PREDICTED BY IDOCK:  -10.85 KCAL/MOL
REMARK 923 INTER-LIGAND FREE ENERGY PREDICTED BY IDOCK:   -9.25 KCAL/MOL
REMARK 924 INTRA-LIGAND FREE ENERGY PREDICTED BY IDOCK:   -1.60 KCAL/MOL
REMARK 927      BINDING AFFINITY PREDICTED BY RF-SCORE:    0.00 PKD
ROOT
HETATM    1  C   UNL     1     -12.612  13.876  71.038  1.00  0.00    -0.444 C  
HETATM    2  C   UNL     1     -12.409  12.423  70.650  1.00  0.00    -0.367 C  
ENDROOT
BRANCH   2   3
HETATM    3  C   UNL     1     -12.955  11.483  71.722  1.00  0.00    -0.500 C  
BRANCH   3   4
HETATM    4  C   UNL     1     -13.237  10.100  71.141  1.00  0.00    -0.438 C  
BRANCH   4   5
HETATM    5  C   UNL     1     -13.175   9.033  72.228  1.00  0.00    -0.519 C  
BRANCH   5   6
HETATM    6  C   UNL     1     -12.106   7.990  71.910  1.00  0.00    -0.359 C  
BRANCH   6   7
HETATM    7  C   UNL     1     -10.715   8.596  72.053  1.00  0.00    -0.427 C  
BRANCH   7   8
HETATM    8  C   UNL     1      -9.767   8.073  70.971  1.00  0.00    -0.185 C  
BRANCH   8   9
HETATM    9  C   UNL     1      -9.978   8.794  69.665  1.00  0.00    -0.191 A  
HETATM   10  C   UNL     1     -10.349   8.073  68.526  1.00  0.00    -0.229 A  
HETATM   11  C   UNL     1     -10.489   8.713  67.300  1.00  0.00    -0.360 A  
HETATM   12  C   UNL     1     -10.307  10.095  67.185  1.00  0.00    -0.295 A  
HETATM   13  C   UNL     1      -9.783  10.173  69.561  1.00  0.00    -0.251 A  
HETATM   14  C   UNL     1      -9.948  10.817  68.332  1.00  0.00    -0.174 A  
BRANCH  12  15
HETATM   15  C   UNL     1     -10.397  10.806  65.852  1.00  0.00    -0.302 C  
BRANCH  15  16
HETATM   16  C   UNL     1     -11.326  12.031  65.862  1.00  0.00    -0.391 C  
HETATM   17  C   UNL     1     -11.412  12.886  64.574  1.00  0.00    -0.344 C  
HETATM   18  C   UNL     1     -12.376  14.072  64.872  1.00  0.00    -0.427 C  
HETATM   19  N   UNL     1     -10.085  13.453  64.212  1.00  0.00    -0.748 NA 
HETATM   20  C   UNL     1     -11.976  12.082  63.371  1.00  0.00    -0.471 C  
HETATM   21  O   UNL     1     -12.449  14.962  63.760  1.00  0.00    -1.048 OA 
HETATM   22  O   UNL     1     -11.102  11.030  62.972  1.00  0.00    -0.782 OA 
HETATM   23  H1  UNL     1     -10.141  14.017  63.363  1.00  0.00     0.000 HD 
HETATM   24  H2  UNL     1      -9.376  12.725  64.131  1.00  0.00     0.000 HD 
HETATM   25  H   UNL     1     -11.448  10.538  62.236  1.00  0.00     0.000 HD 
HETATM   26  H   UNL     1     -13.037  15.686  63.942  1.00  0.00     0.000 HD 
ENDBRANCH  15  16
ENDBRANCH  12  15
ENDBRANCH   8   9
ENDBRANCH   7   8
ENDBRANCH   6   7
ENDBRANCH   5   6
ENDBRANCH   4   5
ENDBRANCH   3   4
ENDBRANCH   2   3
TORSDOF 9
ENDMDL
MODEL        4
REMARK 921   NORMALIZED FREE ENERGY PREDICTED BY IDOCK:   -6.38 KCAL/MOL
REMARK 922        TOTAL FREE ENERGY PREDICTED BY IDOCK:  -10.84 KCAL/MOL
REMARK 923 INTER-LIGAND FREE ENERGY PREDICTED BY IDOCK:   -8.85 KCAL/MOL
REMARK 924 INTRA-LIGAND FREE ENERGY PREDICTED BY IDOCK:   -1.99 KCAL/MOL
REMARK 927      BINDING AFFINITY PREDICTED BY RF-SCORE:    0.00 PKD
ROOT
HETATM    1  C   UNL     1     -10.799   7.377  67.085  1.00  0.00    -0.340 C  
HETATM    2  C   UNL     1     -10.354   6.298  68.056  1.00  0.00    -0.236 C  
ENDROOT
BRANCH   2   3
HETATM    3  C   UNL     1     -11.234   6.279  69.302  1.00  0.00    -0.458 C  
BRANCH   3   4
HETATM    4  C   UNL     1     -10.421   5.911  70.539  1.00  0.00    -0.319 C  
BRANCH   4   5
HETATM    5  C   UNL     1     -11.038   6.516  71.795  1.00  0.00    -0.299 C  
BRANCH   5   6
HETATM    6  C   UNL     1     -12.406   7.122  71.493  1.00  0.00    -0.406 C  
BRANCH   6   7
HETATM    7  C   UNL     1     -12.437   8.591  71.897  1.00  0.00    -0.402 C  
BRANCH   7   8
HETATM    8  C   UNL     1     -11.055   9.234  71.759  1.00  0.00    -0.398 C  
BRANCH   8   9
HETATM    9  C   UNL     1     -10.893   9.897  70.416  1.00  0.00    -0.380 A  
HETATM   10  C   UNL     1     -11.968  10.587  69.848  1.00  0.00    -0.339 A  
HETATM   11  C   UNL     1     -11.856  11.153  68.583  1.00  0.00    -0.357 A  
HETATM   12  C   UNL     1     -10.655  11.085  67.869  1.00  0.00    -0.244 A  
HETATM   13  C   UNL     1      -9.691   9.814  69.708  1.00  0.00    -0.256 A  
HETATM   14  C   UNL     1      -9.574  10.405  68.447  1.00  0.00    -0.153 A  
BRANCH  12  15
HETATM   15  C   UNL     1     -10.524  11.643  66.468  1.00  0.00    -0.276 C  
BRANCH  15  16
HETATM   16  C   UNL     1     -10.287  13.161  66.422  1.00  0.00    -0.289 C  
HETATM   17  C   UNL     1     -10.896  13.955  65.242  1.00  0.00    -0.333 C  
HETATM   18  C   UNL     1     -10.470  15.442  65.417  1.00  0.00    -0.402 C  
HETATM   19  N   UNL     1     -10.364  13.477  63.937  1.00  0.00    -0.616 NA 
HETATM   20  C   UNL     1     -12.448  13.886  65.224  1.00  0.00    -0.478 C  
HETATM   21  O   UNL     1     -10.921  16.236  64.322  1.00  0.00    -1.086 OA 
HETATM   22  O   UNL     1     -12.923  12.566  64.973  1.00  0.00    -0.779 OA 
HETATM   23  H1  UNL     1     -10.766  14.000  63.158  1.00  0.00     0.000 HD 
HETATM   24  H2  UNL     1     -10.501  12.473  63.823  1.00  0.00     0.000 HD 
HETATM   25  H   UNL     1     -13.872  12.524  64.963  1.00  0.00     0.000 HD 
HETATM   26  H   UNL     1     -10.661  17.143  64.429  1.00  0.00     0.000 HD 
ENDBRANCH  15  16
ENDBRANCH  12  15
ENDBRANCH   8   9
ENDBRANCH   7   8
ENDBRANCH   6   7
ENDBRANCH   5   6
ENDBRANCH   4   5
ENDBRANCH   3   4
ENDBRANCH   2   3
TORSDOF 9
ENDMDL
MODEL        5
REMARK 921   NORMALIZED FREE ENERGY PREDICTED BY IDOCK:   -6.34 KCAL/MOL
REMARK 922        TOTAL FREE ENERGY PREDICTED BY IDOCK:  -10.78 KCAL/MOL
REMARK 923 INTER-LIGAND FREE ENERGY PREDICTED BY IDOCK:   -9.14 KCAL/MOL
REMARK 924 INTRA-LIGAND FREE ENERGY PREDICTED BY IDOCK:   -1.64 KCAL/MOL
REMARK 927      BINDING AFFINITY PREDICTED BY RF-SCORE:    0.00 PKD
ROOT
HETATM    1  C   UNL     1     -13.068  13.348  71.763  1.00  0.00    -0.479 C  
HETATM    2  C   UNL     1     -12.337  12.622  70.648  1.00  0.00    -0.375 C  
ENDROOT
BRANCH   2   3
HETATM    3  C   UNL     1     -12.855  11.196  70.483  1.00  0.00    -0.213 C  
BRANCH   3   4
HETATM    4  C   UNL     1     -12.919  10.482  71.829  1.00  0.00    -0.582 C  
BRANCH   4   5
HETATM    5  C   UNL     1     -13.057   8.975  71.638  1.00  0.00    -0.420 C  
BRANCH   5   6
HETATM    6  C   UNL     1     -11.915   8.230  72.325  1.00  0.00    -0.448 C  
BRANCH   6   7
HETATM    7  C   UNL     1     -10.572   8.809  71.899  1.00  0.00    -0.425 C  
BRANCH   7   8
HETATM    8  C   UNL     1      -9.940   7.982  70.777  1.00  0.00    -0.202 C  
BRANCH   8   9
HETATM    9  C   UNL     1      -9.990   8.716  69.462  1.00  0.00    -0.196 A  
HETATM   10  C   UNL     1      -9.657  10.073  69.412  1.00  0.00    -0.237 A  
HETATM   11  C   UNL     1      -9.756  10.781  68.219  1.00  0.00    -0.172 A  
HETATM   12  C   UNL     1     -10.146  10.145  67.036  1.00  0.00    -0.277 A  
HETATM   13  C   UNL     1     -10.392   8.072  68.289  1.00  0.00    -0.240 A  
HETATM   14  C   UNL     1     -10.466   8.781  67.087  1.00  0.00    -0.354 A  
BRANCH  12  15
HETATM   15  C   UNL     1     -10.317  10.905  65.738  1.00  0.00    -0.303 C  
BRANCH  15  16
HETATM   16  C   UNL     1     -11.226  12.139  65.854  1.00  0.00    -0.384 C  
HETATM   17  C   UNL     1     -11.436  13.007  64.590  1.00  0.00    -0.336 C  
HETATM   18  C   UNL     1     -12.351  14.199  64.995  1.00  0.00    -0.440 C  
HETATM   19  N   UNL     1     -10.147  13.565  64.098  1.00  0.00    -0.761 NA 
HETATM   20  C   UNL     1     -12.130  12.220  63.444  1.00  0.00    -0.516 C  
HETATM   21  O   UNL     1     -12.529  15.101  63.905  1.00  0.00    -0.991 OA 
HETATM   22  O   UNL     1     -11.313  11.163  62.949  1.00  0.00    -0.798 OA 
HETATM   23  H1  UNL     1     -10.285  14.137  63.264  1.00  0.00     0.000 HD 
HETATM   24  H2  UNL     1      -9.458  12.830  63.938  1.00  0.00     0.000 HD 
HETATM   25  H   UNL     1     -11.737  10.682  62.248  1.00  0.00     0.000 HD 
HETATM   26  H   UNL     1     -13.088  15.828  64.153  1.00  0.00     0.000 HD 
ENDBRANCH  15  16
ENDBRANCH  12  15
ENDBRANCH   8   9
ENDBRANCH   7   8
ENDBRANCH   6   7
ENDBRANCH   5   6
ENDBRANCH   4   5
ENDBRANCH   3   4
ENDBRANCH   2   3
TORSDOF 9
ENDMDL
MODEL        6
REMARK 921   NORMALIZED FREE ENERGY PREDICTED BY IDOCK:   -6.24 KCAL/MOL
REMARK 922        TOTAL FREE ENERGY PREDICTED BY IDOCK:  -10.64 KCAL/MOL
REMARK 923 INTER-LIGAND FREE ENERGY PREDICTED BY IDOCK:   -9.06 KCAL/MOL
REMARK 924 INTRA-LIGAND FREE ENERGY PREDICTED BY IDOCK:   -1.58 KCAL/MOL
REMARK 927      BINDING AFFINITY PREDICTED BY RF-SCORE:    0.00 PKD
ROOT
HETATM    1  C   UNL     1      -8.907   8.061  73.202  1.00  0.00    -0.318 C  
HETATM    2  C   UNL     1      -9.731   6.795  73.053  1.00  0.00    -0.182 C  
ENDROOT
BRANCH   2   3
HETATM    3  C   UNL     1      -9.730   6.301  71.610  1.00  0.00    -0.177 C  
BRANCH   3   4
HETATM    4  C   UNL     1     -11.152   6.049  71.119  1.00  0.00    -0.336 C  
BRANCH   4   5
HETATM    5  C   UNL     1     -12.172   6.669  72.069  1.00  0.00    -0.337 C  
BRANCH   5   6
HETATM    6  C   UNL     1     -13.229   7.455  71.298  1.00  0.00    -0.342 C  
BRANCH   6   7
HETATM    7  C   UNL     1     -13.310   8.885  71.817  1.00  0.00    -0.436 C  
BRANCH   7   8
HETATM    8  C   UNL     1     -11.933   9.553  71.823  1.00  0.00    -0.443 C  
BRANCH   8   9
HETATM    9  C   UNL     1     -11.599  10.127  70.470  1.00  0.00    -0.411 A  
HETATM   10  C   UNL     1     -12.023  11.417  70.139  1.00  0.00    -0.460 A  
HETATM   11  C   UNL     1     -11.776  11.940  68.875  1.00  0.00    -0.381 A  
HETATM   12  C   UNL     1     -11.061  11.207  67.921  1.00  0.00    -0.331 A  
HETATM   13  C   UNL     1     -10.893   9.381  69.523  1.00  0.00    -0.231 A  
HETATM   14  C   UNL     1     -10.625   9.918  68.260  1.00  0.00    -0.269 A  
BRANCH  12  15
HETATM   15  C   UNL     1     -10.830  11.729  66.520  1.00  0.00    -0.323 C  
BRANCH  15  16
HETATM   16  C   UNL     1     -10.633  13.253  66.448  1.00  0.00    -0.288 C  
HETATM   17  C   UNL     1     -11.115  13.987  65.174  1.00  0.00    -0.341 C  
HETATM   18  C   UNL     1     -10.758  15.493  65.346  1.00  0.00    -0.405 C  
HETATM   19  N   UNL     1     -10.415  13.485  63.962  1.00  0.00    -0.619 NA 
HETATM   20  C   UNL     1     -12.651  13.866  64.972  1.00  0.00    -0.390 C  
HETATM   21  O   UNL     1     -11.094  16.235  64.176  1.00  0.00    -1.187 OA 
HETATM   22  O   UNL     1     -13.053  12.524  64.713  1.00  0.00    -0.853 OA 
HETATM   23  H1  UNL     1     -10.733  13.968  63.122  1.00  0.00     0.000 HD 
HETATM   24  H2  UNL     1     -10.508  12.473  63.869  1.00  0.00     0.000 HD 
HETATM   25  H   UNL     1     -13.993  12.450  64.589  1.00  0.00     0.000 HD 
HETATM   26  H   UNL     1     -10.875  17.153  64.281  1.00  0.00     0.000 HD 
ENDBRANCH  15  16
ENDBRANCH  12  15
ENDBRANCH   8   9
ENDBRANCH   7   8
ENDBRANCH   6   7
ENDBRANCH   5   6
ENDBRANCH   4   5
ENDBRANCH   3   4
ENDBRANCH   2   3
TORSDOF 9
ENDMDL
MODEL        7
REMARK 921   NORMALIZED FREE ENERGY PREDICTED BY IDOCK:   -6.21 KCAL/MOL
REMARK 922        TOTAL FREE ENERGY PREDICTED BY IDOCK:  -10.58 KCAL/MOL
REMARK 923 INTER-LIGAND FREE ENERGY PREDICTED BY IDOCK:   -8.45 KCAL/MOL
REMARK 924 INTRA-LIGAND FREE ENERGY PREDICTED BY IDOCK:   -2.13 KCAL/MOL
REMARK 927      BINDING AFFINITY PREDICTED BY RF-SCORE:    0.00 PKD
ROOT
HETATM    1  C   UNL     1     -10.718   6.981  67.147  1.00  0.00    -0.433 C  
HETATM    2  C   UNL     1     -11.162   6.515  68.522  1.00  0.00    -0.287 C  
ENDROOT
BRANCH   2   3
HETATM    3  C   UNL     1      -9.997   5.917  69.306  1.00  0.00    -0.224 C  
BRANCH   3   4
HETATM    4  C   UNL     1     -10.477   5.328  70.629  1.00  0.00    -0.306 C  
BRANCH   4   5
HETATM    5  C   UNL     1     -10.384   6.360  71.748  1.00  0.00    -0.231 C  
BRANCH   5   6
HETATM    6  C   UNL     1     -11.771   6.859  72.147  1.00  0.00    -0.327 C  
BRANCH   6   7
HETATM    7  C   UNL     1     -11.832   8.379  72.062  1.00  0.00    -0.417 C  
BRANCH   7   8
HETATM    8  C   UNL     1     -10.452   8.976  71.772  1.00  0.00    -0.418 C  
BRANCH   8   9
HETATM    9  C   UNL     1     -10.407   9.611  70.407  1.00  0.00    -0.350 A  
HETATM   10  C   UNL     1     -11.550  10.227  69.890  1.00  0.00    -0.326 A  
HETATM   11  C   UNL     1     -11.545  10.766  68.608  1.00  0.00    -0.342 A  
HETATM   12  C   UNL     1     -10.387  10.744  67.825  1.00  0.00    -0.226 A  
HETATM   13  C   UNL     1      -9.247   9.574  69.630  1.00  0.00    -0.212 A  
HETATM   14  C   UNL     1      -9.237  10.138  68.351  1.00  0.00    -0.133 A  
BRANCH  12  15
HETATM   15  C   UNL     1     -10.370  11.271  66.406  1.00  0.00    -0.291 C  
BRANCH  15  16
HETATM   16  C   UNL     1     -11.340  12.440  66.165  1.00  0.00    -0.398 C  
HETATM   17  C   UNL     1     -11.427  13.028  64.736  1.00  0.00    -0.327 C  
HETATM   18  C   UNL     1     -12.436  14.212  64.785  1.00  0.00    -0.373 C  
HETATM   19  N   UNL     1     -10.112  13.565  64.292  1.00  0.00    -0.771 NA 
HETATM   20  C   UNL     1     -11.937  11.988  63.702  1.00  0.00    -0.515 C  
HETATM   21  O   UNL     1     -12.515  14.869  63.522  1.00  0.00    -1.001 OA 
HETATM   22  O   UNL     1     -11.019  10.912  63.527  1.00  0.00    -0.542 OA 
HETATM   23  H1  UNL     1     -10.168  13.952  63.350  1.00  0.00     0.000 HD 
HETATM   24  H2  UNL     1      -9.377  12.861  64.363  1.00  0.00     0.000 HD 
HETATM   25  H   UNL     1     -11.331  10.275  62.894  1.00  0.00     0.000 HD 
HETATM   26  H   UNL     1     -13.131  15.592  63.552  1.00  0.00     0.000 HD 
ENDBRANCH  15  16
ENDBRANCH  12  15
ENDBRANCH   8   9
ENDBRANCH   7   8
ENDBRANCH   6   7
ENDBRANCH   5   6
ENDBRANCH   4   5
ENDBRANCH   3   4
ENDBRANCH   2   3
TORSDOF 9
ENDMDL
MODEL        8
REMARK 921   NORMALIZED FREE ENERGY PREDICTED BY IDOCK:   -6.10 KCAL/MOL
REMARK 922        TOTAL FREE ENERGY PREDICTED BY IDOCK:  -10.42 KCAL/MOL
REMARK 923 INTER-LIGAND FREE ENERGY PREDICTED BY IDOCK:   -8.05 KCAL/MOL
REMARK 924 INTRA-LIGAND FREE ENERGY PREDICTED BY IDOCK:   -2.37 KCAL/MOL
REMARK 927      BINDING AFFINITY PREDICTED BY RF-SCORE:    0.00 PKD
ROOT
HETATM    1  C   UNL     1     -12.030  12.327  69.856  1.00  0.00    -0.377 C  
HETATM    2  C   UNL     1     -12.281  10.834  69.966  1.00  0.00    -0.409 C  
ENDROOT
BRANCH   2   3
HETATM    3  C   UNL     1     -12.726  10.450  71.374  1.00  0.00    -0.551 C  
BRANCH   3   4
HETATM    4  C   UNL     1     -12.039   9.167  71.832  1.00  0.00    -0.448 C  
BRANCH   4   5
HETATM    5  C   UNL     1     -12.841   7.941  71.407  1.00  0.00    -0.305 C  
BRANCH   5   6
HETATM    6  C   UNL     1     -11.927   6.736  71.198  1.00  0.00    -0.421 C  
BRANCH   6   7
HETATM    7  C   UNL     1     -10.479   7.188  71.054  1.00  0.00    -0.230 C  
BRANCH   7   8
HETATM    8  C   UNL     1      -9.951   6.922  69.642  1.00  0.00    -0.179 C  
BRANCH   8   9
HETATM    9  C   UNL     1      -9.817   8.202  68.859  1.00  0.00    -0.178 A  
HETATM   10  C   UNL     1      -9.002   9.229  69.342  1.00  0.00    -0.147 A  
HETATM   11  C   UNL     1      -8.914  10.440  68.664  1.00  0.00    -0.146 A  
HETATM   12  C   UNL     1      -9.602  10.643  67.463  1.00  0.00    -0.180 A  
HETATM   13  C   UNL     1     -10.518   8.397  67.666  1.00  0.00    -0.307 A  
HETATM   14  C   UNL     1     -10.408   9.606  66.974  1.00  0.00    -0.315 A  
BRANCH  12  15
HETATM   15  C   UNL     1      -9.568  11.970  66.736  1.00  0.00    -0.215 C  
BRANCH  15  16
HETATM   16  C   UNL     1     -10.926  12.394  66.152  1.00  0.00    -0.321 C  
HETATM   17  C   UNL     1     -10.956  12.931  64.701  1.00  0.00    -0.332 C  
HETATM   18  C   UNL     1     -12.428  13.323  64.384  1.00  0.00    -0.290 C  
HETATM   19  N   UNL     1     -10.115  14.150  64.558  1.00  0.00    -0.700 NA 
HETATM   20  C   UNL     1     -10.498  11.863  63.670  1.00  0.00    -0.447 C  
HETATM   21  O   UNL     1     -12.534  13.909  63.088  1.00  0.00    -1.121 OA 
HETATM   22  O   UNL     1      -9.125  11.516  63.831  1.00  0.00    -0.424 OA 
HETATM   23  H1  UNL     1     -10.134  14.504  63.601  1.00  0.00     0.000 HD 
HETATM   24  H2  UNL     1      -9.161  13.986  64.877  1.00  0.00     0.000 HD 
HETATM   25  H   UNL     1      -8.845  10.862  63.200  1.00  0.00     0.000 HD 
HETATM   26  H   UNL     1     -13.433  14.148  62.895  1.00  0.00     0.000 HD 
ENDBRANCH  15  16
ENDBRANCH  12  15
ENDBRANCH   8   9
ENDBRANCH   7   8
ENDBRANCH   6   7
ENDBRANCH   5   6
ENDBRANCH   4   5
ENDBRANCH   3   4
ENDBRANCH   2   3
TORSDOF 9
ENDMDL
MODEL        9
REMARK 921   NORMALIZED FREE ENERGY PREDICTED BY IDOCK:   -6.08 KCAL/MOL
REMARK 922        TOTAL FREE ENERGY PREDICTED BY IDOCK:  -10.39 KCAL/MOL
REMARK 923 INTER-LIGAND FREE ENERGY PREDICTED BY IDOCK:   -8.61 KCAL/MOL
REMARK 924 INTRA-LIGAND FREE ENERGY PREDICTED BY IDOCK:   -1.78 KCAL/MOL
REMARK 927      BINDING AFFINITY PREDICTED BY RF-SCORE:    0.00 PKD
ROOT
HETATM    1  C   UNL     1      -9.749   8.445  66.484  1.00  0.00    -0.330 C  
HETATM    2  C   UNL     1     -10.757   7.569  67.206  1.00  0.00    -0.365 C  
ENDROOT
BRANCH   2   3
HETATM    3  C   UNL     1     -10.102   6.799  68.349  1.00  0.00    -0.168 C  
BRANCH   3   4
HETATM    4  C   UNL     1     -11.156   6.177  69.261  1.00  0.00    -0.463 C  
BRANCH   4   5
HETATM    5  C   UNL     1     -10.738   6.284  70.724  1.00  0.00    -0.312 C  
BRANCH   5   6
HETATM    6  C   UNL     1     -11.949   6.534  71.620  1.00  0.00    -0.387 C  
BRANCH   6   7
HETATM    7  C   UNL     1     -11.759   7.815  72.423  1.00  0.00    -0.394 C  
BRANCH   7   8
HETATM    8  C   UNL     1     -10.465   8.532  72.028  1.00  0.00    -0.407 C  
BRANCH   8   9
HETATM    9  C   UNL     1     -10.728   9.609  71.007  1.00  0.00    -0.393 A  
HETATM   10  C   UNL     1     -11.955  10.278  71.003  1.00  0.00    -0.483 A  
HETATM   11  C   UNL     1     -12.237  11.231  70.031  1.00  0.00    -0.389 A  
HETATM   12  C   UNL     1     -11.287  11.575  69.065  1.00  0.00    -0.339 A  
HETATM   13  C   UNL     1      -9.774   9.937  70.040  1.00  0.00    -0.274 A  
HETATM   14  C   UNL     1     -10.051  10.913  69.079  1.00  0.00    -0.212 A  
BRANCH  12  15
HETATM   15  C   UNL     1     -11.589  12.567  67.962  1.00  0.00    -0.395 C  
BRANCH  15  16
HETATM   16  C   UNL     1     -11.439  11.989  66.546  1.00  0.00    -0.413 C  
HETATM   17  C   UNL     1     -11.573  12.960  65.348  1.00  0.00    -0.350 C  
HETATM   18  C   UNL     1     -11.424  12.114  64.050  1.00  0.00    -0.411 C  
HETATM   19  N   UNL     1     -12.912  13.607  65.323  1.00  0.00    -0.737 NA 
HETATM   20  C   UNL     1     -10.470  14.054  65.351  1.00  0.00    -0.351 C  
HETATM   21  O   UNL     1     -11.618  12.919  62.889  1.00  0.00    -0.747 OA 
HETATM   22  O   UNL     1     -10.593  14.935  66.465  1.00  0.00    -0.292 OA 
HETATM   23  H1  UNL     1     -13.001  14.247  64.534  1.00  0.00     0.000 HD 
HETATM   24  H2  UNL     1     -13.119  14.072  66.207  1.00  0.00     0.000 HD 
HETATM   25  H   UNL     1      -9.918  15.604  66.467  1.00  0.00     0.000 HD 
HETATM   26  H   UNL     1     -11.528  12.403  62.097  1.00  0.00     0.000 HD 
ENDBRANCH  15  16
ENDBRANCH  12  15
ENDBRANCH   8   9
ENDBRANCH   7   8
ENDBRANCH   6   7
ENDBRANCH   5   6
ENDBRANCH   4   5
ENDBRANCH   3   4
ENDBRANCH   2   3
TORSDOF 9
ENDMDL
MODEL       10
REMARK 921   NORMALIZED FREE ENERGY PREDICTED BY IDOCK:   -6.08 KCAL/MOL
REMARK 922        TOTAL FREE ENERGY PREDICTED BY IDOCK:  -10.39 KCAL/MOL
REMARK 923 INTER-LIGAND FREE ENERGY PREDICTED BY IDOCK:   -8.93 KCAL/MOL
REMARK 924 INTRA-LIGAND FREE ENERGY PREDICTED BY IDOCK:   -1.46 KCAL/MOL
REMARK 927      BINDING AFFINITY PREDICTED BY RF-SCORE:    0.00 PKD
ROOT
HETATM    1  C   UNL     1     -10.358  10.979  64.825  1.00  0.00    -0.389 C  
HETATM    2  C   UNL     1     -10.521  11.710  63.504  1.00  0.00    -0.498 C  
ENDROOT
BRANCH   2   3
HETATM    3  C   UNL     1     -11.807  12.533  63.483  1.00  0.00    -0.616 C  
BRANCH   3   4
HETATM    4  C   UNL     1     -12.478  12.529  64.853  1.00  0.00    -0.524 C  
BRANCH   4   5
HETATM    5  C   UNL     1     -12.797  13.950  65.305  1.00  0.00    -0.437 C  
BRANCH   5   6
HETATM    6  C   UNL     1     -11.528  14.794  65.388  1.00  0.00    -0.341 C  
BRANCH   6   7
HETATM    7  C   UNL     1     -10.774  14.493  66.678  1.00  0.00    -0.305 C  
BRANCH   7   8
HETATM    8  C   UNL     1     -11.614  14.845  67.908  1.00  0.00    -0.364 C  
BRANCH   8   9
HETATM    9  C   UNL     1     -11.832  13.639  68.784  1.00  0.00    -0.395 A  
HETATM   10  C   UNL     1     -12.319  13.804  70.084  1.00  0.00    -0.390 A  
HETATM   11  C   UNL     1     -12.469  12.708  70.927  1.00  0.00    -0.368 A  
HETATM   12  C   UNL     1     -12.180  11.414  70.481  1.00  0.00    -0.478 A  
HETATM   13  C   UNL     1     -11.530  12.352  68.331  1.00  0.00    -0.356 A  
HETATM   14  C   UNL     1     -11.705  11.250  69.173  1.00  0.00    -0.410 A  
BRANCH  12  15
HETATM   15  C   UNL     1     -12.279  10.212  71.396  1.00  0.00    -0.492 C  
BRANCH  15  16
HETATM   16  C   UNL     1     -11.033   9.312  71.379  1.00  0.00    -0.429 C  
HETATM   17  C   UNL     1     -11.207   7.825  71.772  1.00  0.00    -0.256 C  
HETATM   18  C   UNL     1      -9.799   7.164  71.713  1.00  0.00    -0.161 C  
HETATM   19  N   UNL     1     -11.719   7.690  73.163  1.00  0.00    -0.636 NA 
HETATM   20  C   UNL     1     -12.149   7.065  70.799  1.00  0.00    -0.327 C  
HETATM   21  O   UNL     1      -9.852   5.806  72.144  1.00  0.00    -0.156 OA 
HETATM   22  O   UNL     1     -13.488   7.549  70.861  1.00  0.00    -0.600 OA 
HETATM   23  H1  UNL     1     -11.834   6.710  73.423  1.00  0.00     0.000 HD 
HETATM   24  H2  UNL     1     -12.582   8.216  73.296  1.00  0.00     0.000 HD 
HETATM   25  H   UNL     1     -14.064   7.083  70.266  1.00  0.00     0.000 HD 
HETATM   26  H   UNL     1      -8.993   5.403  72.108  1.00  0.00     0.000 HD 
ENDBRANCH  15  16
ENDBRANCH  12  15
ENDBRANCH   8   9
ENDBRANCH   7   8
ENDBRANCH   6   7
ENDBRANCH   5   6
ENDBRANCH   4   5
ENDBRANCH   3   4
ENDBRANCH   2   3
TORSDOF 9
ENDMDL
MODEL       11
REMARK 921   NORMALIZED FREE ENERGY PREDICTED BY IDOCK:   -6.04 KCAL/MOL
REMARK 922        TOTAL FREE ENERGY PREDICTED BY IDOCK:  -10.33 KCAL/MOL
REMARK 923 INTER-LIGAND FREE ENERGY PREDICTED BY IDOCK:   -7.76 KCAL/MOL
REMARK 924 INTRA-LIGAND FREE ENERGY PREDICTED BY IDOCK:   -2.57 KCAL/MOL
REMARK 927      BINDING AFFINITY PREDICTED BY RF-SCORE:    0.00 PKD
ROOT
HETATM    1  C   UNL     1     -11.997  14.835  64.654  1.00  0.00    -0.448 C  
HETATM    2  C   UNL     1     -12.824  13.740  65.306  1.00  0.00    -0.430 C  
ENDROOT
BRANCH   2   3
HETATM    3  C   UNL     1     -12.628  12.403  64.596  1.00  0.00    -0.459 C  
BRANCH   3   4
HETATM    4  C   UNL     1     -11.765  12.570  63.349  1.00  0.00    -0.567 C  
BRANCH   4   5
HETATM    5  C   UNL     1     -10.520  11.693  63.430  1.00  0.00    -0.482 C  
BRANCH   5   6
HETATM    6  C   UNL     1     -10.613  10.720  64.603  1.00  0.00    -0.269 C  
BRANCH   6   7
HETATM    7  C   UNL     1      -9.361  10.808  65.466  1.00  0.00    -0.242 C  
BRANCH   7   8
HETATM    8  C   UNL     1      -9.714  10.887  66.953  1.00  0.00    -0.210 C  
BRANCH   8   9
HETATM    9  C   UNL     1     -10.008  12.304  67.370  1.00  0.00    -0.205 A  
HETATM   10  C   UNL     1      -9.219  13.349  66.881  1.00  0.00    -0.251 A  
HETATM   11  C   UNL     1      -9.437  14.657  67.302  1.00  0.00    -0.221 A  
HETATM   12  C   UNL     1     -10.476  14.962  68.188  1.00  0.00    -0.242 A  
HETATM   13  C   UNL     1     -11.042  12.596  68.263  1.00  0.00    -0.295 A  
HETATM   14  C   UNL     1     -11.275  13.914  68.666  1.00  0.00    -0.298 A  
BRANCH  12  15
HETATM   15  C   UNL     1     -10.698  16.367  68.706  1.00  0.00    -0.321 C  
BRANCH  15  16
HETATM   16  C   UNL     1     -10.845  17.423  67.598  1.00  0.00    -0.233 C  
HETATM   17  C   UNL     1      -9.963  18.692  67.684  1.00  0.00    -0.341 C  
HETATM   18  C   UNL     1     -10.343  19.600  66.477  1.00  0.00    -0.493 C  
HETATM   19  N   UNL     1     -10.232  19.454  68.933  1.00  0.00    -0.577 NA 
HETATM   20  C   UNL     1      -8.448  18.362  67.595  1.00  0.00    -0.255 C  
HETATM   21  O   UNL     1      -9.633  20.836  66.525  1.00  0.00    -0.639 OA 
HETATM   22  O   UNL     1      -7.997  17.609  68.717  1.00  0.00    -0.285 OA 
HETATM   23  H1  UNL     1      -9.651  20.290  68.990  1.00  0.00     0.000 HD 
HETATM   24  H2  UNL     1     -10.124  18.866  69.760  1.00  0.00     0.000 HD 
HETATM   25  H   UNL     1      -7.069  17.407  68.662  1.00  0.00     0.000 HD 
HETATM   26  H   UNL     1      -9.865  21.390  65.789  1.00  0.00     0.000 HD 
ENDBRANCH  15  16
ENDBRANCH  12  15
ENDBRANCH   8   9
ENDBRANCH   7   8
ENDBRANCH   6   7
ENDBRANCH   5   6
ENDBRANCH   4   5
ENDBRANCH   3   4
ENDBRANCH   2   3
TORSDOF 9
ENDMDL
MODEL       12
REMARK 921   NORMALIZED FREE ENERGY PREDICTED BY IDOCK:   -5.98 KCAL/MOL
REMARK 922        TOTAL FREE ENERGY PREDICTED BY IDOCK:  -10.24 KCAL/MOL
REMARK 923 INTER-LIGAND FREE ENERGY PREDICTED BY IDOCK:   -8.41 KCAL/MOL
REMARK 924 INTRA-LIGAND FREE ENERGY PREDICTED BY IDOCK:   -1.82 KCAL/MOL
REMARK 927      BINDING AFFINITY PREDICTED BY RF-SCORE:    0.00 PKD
ROOT
HETATM    1  C   UNL     1     -10.767   6.982  67.479  1.00  0.00    -0.352 C  
HETATM    2  C   UNL     1     -11.060   6.338  68.822  1.00  0.00    -0.424 C  
ENDROOT
BRANCH   2   3
HETATM    3  C   UNL     1      -9.775   5.897  69.516  1.00  0.00    -0.190 C  
BRANCH   3   4
HETATM    4  C   UNL     1     -10.083   5.064  70.756  1.00  0.00    -0.307 C  
BRANCH   4   5
HETATM    5  C   UNL     1     -10.017   5.921  72.016  1.00  0.00    -0.204 C  
BRANCH   5   6
HETATM    6  C   UNL     1     -11.416   6.203  72.559  1.00  0.00    -0.318 C  
BRANCH   6   7
HETATM    7  C   UNL     1     -11.649   7.704  72.670  1.00  0.00    -0.371 C  
BRANCH   7   8
HETATM    8  C   UNL     1     -10.424   8.494  72.203  1.00  0.00    -0.412 C  
BRANCH   8   9
HETATM    9  C   UNL     1     -10.777   9.436  71.082  1.00  0.00    -0.417 A  
HETATM   10  C   UNL     1      -9.857   9.672  70.057  1.00  0.00    -0.286 A  
HETATM   11  C   UNL     1     -10.141  10.585  69.047  1.00  0.00    -0.230 A  
HETATM   12  C   UNL     1     -11.369  11.253  69.008  1.00  0.00    -0.344 A  
HETATM   13  C   UNL     1     -12.004  10.106  71.059  1.00  0.00    -0.474 A  
HETATM   14  C   UNL     1     -12.297  11.004  70.029  1.00  0.00    -0.377 A  
BRANCH  12  15
HETATM   15  C   UNL     1     -11.681  12.292  67.953  1.00  0.00    -0.410 C  
BRANCH  15  16
HETATM   16  C   UNL     1     -11.349  11.844  66.520  1.00  0.00    -0.403 C  
HETATM   17  C   UNL     1     -11.694  12.809  65.360  1.00  0.00    -0.387 C  
HETATM   18  C   UNL     1     -11.299  12.095  64.034  1.00  0.00    -0.395 C  
HETATM   19  N   UNL     1     -13.154  13.094  65.310  1.00  0.00    -0.661 NA 
HETATM   20  C   UNL     1     -10.909  14.146  65.453  1.00  0.00    -0.337 C  
HETATM   21  O   UNL     1     -11.661  12.883  62.902  1.00  0.00    -0.776 OA 
HETATM   22  O   UNL     1     -11.283  14.909  66.597  1.00  0.00    -0.341 OA 
HETATM   23  H1  UNL     1     -13.382  13.730  64.545  1.00  0.00     0.000 HD 
HETATM   24  H2  UNL     1     -13.497  13.446  66.203  1.00  0.00     0.000 HD 
HETATM   25  H   UNL     1     -10.802  15.726  66.654  1.00  0.00     0.000 HD 
HETATM   26  H   UNL     1     -11.420  12.448  62.092  1.00  0.00     0.000 HD 
ENDBRANCH  15  16
ENDBRANCH  12  15
ENDBRANCH   8   9
ENDBRANCH   7   8
ENDBRANCH   6   7
ENDBRANCH   5   6
ENDBRANCH   4   5
ENDBRANCH   3   4
ENDBRANCH   2   3
TORSDOF 9
ENDMDL
MODEL       13
REMARK 921   NORMALIZED FREE ENERGY PREDICTED BY IDOCK:   -5.90 KCAL/MOL
REMARK 922        TOTAL FREE ENERGY PREDICTED BY IDOCK:  -10.11 KCAL/MOL
REMARK 923 INTER-LIGAND FREE ENERGY PREDICTED BY IDOCK:   -7.98 KCAL/MOL
REMARK 924 INTRA-LIGAND FREE ENERGY PREDICTED BY IDOCK:   -2.13 KCAL/MOL
REMARK 927      BINDING AFFINITY PREDICTED BY RF-SCORE:    0.00 PKD
ROOT
HETATM    1  C   UNL     1     -12.161  11.731  70.309  1.00  0.00    -0.426 C  
HETATM    2  C   UNL     1     -12.101  10.705  71.427  1.00  0.00    -0.342 C  
ENDROOT
BRANCH   2   3
HETATM    3  C   UNL     1     -13.163   9.625  71.243  1.00  0.00    -0.429 C  
BRANCH   3   4
HETATM    4  C   UNL     1     -12.568   8.235  71.446  1.00  0.00    -0.295 C  
BRANCH   4   5
HETATM    5  C   UNL     1     -11.633   8.216  72.650  1.00  0.00    -0.441 C  
BRANCH   5   6
HETATM    6  C   UNL     1     -10.289   7.591  72.288  1.00  0.00    -0.263 C  
BRANCH   6   7
HETATM    7  C   UNL     1      -9.262   8.676  71.992  1.00  0.00    -0.338 C  
BRANCH   7   8
HETATM    8  C   UNL     1      -8.540   8.413  70.668  1.00  0.00    -0.150 C  
BRANCH   8   9
HETATM    9  C   UNL     1      -9.141   9.221  69.548  1.00  0.00    -0.163 A  
HETATM   10  C   UNL     1     -10.063   8.627  68.681  1.00  0.00    -0.207 A  
HETATM   11  C   UNL     1     -10.582   9.339  67.606  1.00  0.00    -0.324 A  
HETATM   12  C   UNL     1     -10.231  10.676  67.392  1.00  0.00    -0.243 A  
HETATM   13  C   UNL     1      -8.775  10.553  69.339  1.00  0.00    -0.093 A  
HETATM   14  C   UNL     1      -9.317  11.274  68.272  1.00  0.00    -0.180 A  
BRANCH  12  15
HETATM   15  C   UNL     1     -10.737  11.456  66.198  1.00  0.00    -0.320 C  
BRANCH  15  16
HETATM   16  C   UNL     1     -10.418  12.959  66.255  1.00  0.00    -0.282 C  
HETATM   17  C   UNL     1     -10.982  13.863  65.132  1.00  0.00    -0.350 C  
HETATM   18  C   UNL     1     -10.476  15.309  65.408  1.00  0.00    -0.398 C  
HETATM   19  N   UNL     1     -10.476  13.446  63.797  1.00  0.00    -0.528 NA 
HETATM   20  C   UNL     1     -12.535  13.879  65.115  1.00  0.00    -0.453 C  
HETATM   21  O   UNL     1     -10.882  16.199  64.370  1.00  0.00    -0.898 OA 
HETATM   22  O   UNL     1     -13.081  12.607  64.776  1.00  0.00    -0.852 OA 
HETATM   23  H1  UNL     1     -10.848  14.042  63.057  1.00  0.00     0.000 HD 
HETATM   24  H2  UNL     1     -10.667  12.461  63.615  1.00  0.00     0.000 HD 
HETATM   25  H   UNL     1     -14.031  12.617  64.765  1.00  0.00     0.000 HD 
HETATM   26  H   UNL     1     -10.574  17.082  64.537  1.00  0.00     0.000 HD 
ENDBRANCH  15  16
ENDBRANCH  12  15
ENDBRANCH   8   9
ENDBRANCH   7   8
ENDBRANCH   6   7
ENDBRANCH   5   6
ENDBRANCH   4   5
ENDBRANCH   3   4
ENDBRANCH   2   3
TORSDOF 9
ENDMDL
MODEL       14
REMARK 921   NORMALIZED FREE ENERGY PREDICTED BY IDOCK:   -5.90 KCAL/MOL
REMARK 922        TOTAL FREE ENERGY PREDICTED BY IDOCK:  -10.11 KCAL/MOL
REMARK 923 INTER-LIGAND FREE ENERGY PREDICTED BY IDOCK:   -8.58 KCAL/MOL
REMARK 924 INTRA-LIGAND FREE ENERGY PREDICTED BY IDOCK:   -1.53 KCAL/MOL
REMARK 927      BINDING AFFINITY PREDICTED BY RF-SCORE:    0.00 PKD
ROOT
HETATM    1  C   UNL     1      -9.491  15.054  66.372  1.00  0.00    -0.325 C  
HETATM    2  C   UNL     1     -10.535  14.653  67.399  1.00  0.00    -0.255 C  
ENDROOT
BRANCH   2   3
HETATM    3  C   UNL     1     -11.882  14.374  66.738  1.00  0.00    -0.431 C  
BRANCH   3   4
HETATM    4  C   UNL     1     -11.772  14.465  65.219  1.00  0.00    -0.364 C  
BRANCH   4   5
HETATM    5  C   UNL     1     -12.530  13.322  64.552  1.00  0.00    -0.381 C  
BRANCH   5   6
HETATM    6  C   UNL     1     -11.639  12.585  63.555  1.00  0.00    -0.584 C  
BRANCH   6   7
HETATM    7  C   UNL     1     -10.274  12.304  64.170  1.00  0.00    -0.376 C  
BRANCH   7   8
HETATM    8  C   UNL     1      -9.981  10.802  64.210  1.00  0.00    -0.403 C  
BRANCH   8   9
HETATM    9  C   UNL     1     -10.073  10.265  65.614  1.00  0.00    -0.341 A  
HETATM   10  C   UNL     1      -9.564   8.997  65.908  1.00  0.00    -0.317 A  
HETATM   11  C   UNL     1      -9.695   8.460  67.184  1.00  0.00    -0.250 A  
HETATM   12  C   UNL     1     -10.297   9.192  68.213  1.00  0.00    -0.256 A  
HETATM   13  C   UNL     1     -10.686  11.001  66.632  1.00  0.00    -0.305 A  
HETATM   14  C   UNL     1     -10.795  10.469  67.919  1.00  0.00    -0.333 A  
BRANCH  12  15
HETATM   15  C   UNL     1     -10.503   8.609  69.594  1.00  0.00    -0.220 C  
BRANCH  15  16
HETATM   16  C   UNL     1     -11.479   9.412  70.470  1.00  0.00    -0.317 C  
HETATM   17  C   UNL     1     -12.263   8.653  71.566  1.00  0.00    -0.318 C  
HETATM   18  C   UNL     1     -13.198   9.684  72.263  1.00  0.00    -0.404 C  
HETATM   19  N   UNL     1     -13.116   7.584  70.979  1.00  0.00    -0.583 NA 
HETATM   20  C   UNL     1     -11.325   8.034  72.639  1.00  0.00    -0.405 C  
HETATM   21  O   UNL     1     -14.024   9.049  73.237  1.00  0.00    -1.205 OA 
HETATM   22  O   UNL     1     -10.497   7.008  72.100  1.00  0.00    -0.205 OA 
HETATM   23  H1  UNL     1     -13.633   7.083  71.701  1.00  0.00     0.000 HD 
HETATM   24  H2  UNL     1     -12.570   6.947  70.399  1.00  0.00     0.000 HD 
HETATM   25  H   UNL     1      -9.923   6.630  72.757  1.00  0.00     0.000 HD 
HETATM   26  H   UNL     1     -14.594   9.679  73.662  1.00  0.00     0.000 HD 
ENDBRANCH  15  16
ENDBRANCH  12  15
ENDBRANCH   8   9
ENDBRANCH   7   8
ENDBRANCH   6   7
ENDBRANCH   5   6
ENDBRANCH   4   5
ENDBRANCH   3   4
ENDBRANCH   2   3
TORSDOF 9
ENDMDL
MODEL       15
REMARK 921   NORMALIZED FREE ENERGY PREDICTED BY IDOCK:   -5.88 KCAL/MOL
REMARK 922        TOTAL FREE ENERGY PREDICTED BY IDOCK:  -10.08 KCAL/MOL
REMARK 923 INTER-LIGAND FREE ENERGY PREDICTED BY IDOCK:   -8.69 KCAL/MOL
REMARK 924 INTRA-LIGAND FREE ENERGY PREDICTED BY IDOCK:   -1.39 KCAL/MOL
REMARK 927      BINDING AFFINITY PREDICTED BY RF-SCORE:    0.00 PKD
ROOT
HETATM    1  C   UNL     1     -13.209  15.804  73.208  1.00  0.00    -0.687 C  
HETATM    2  C   UNL     1     -13.935  15.347  71.956  1.00  0.00    -0.640 C  
ENDROOT
BRANCH   2   3
HETATM    3  C   UNL     1     -13.025  15.416  70.733  1.00  0.00    -0.510 C  
BRANCH   3   4
HETATM    4  C   UNL     1     -11.580  15.682  71.143  1.00  0.00    -0.462 C  
BRANCH   4   5
HETATM    5  C   UNL     1     -10.759  16.169  69.954  1.00  0.00    -0.328 C  
BRANCH   5   6
HETATM    6  C   UNL     1     -11.611  16.226  68.689  1.00  0.00    -0.216 C  
BRANCH   6   7
HETATM    7  C   UNL     1     -10.970  15.403  67.579  1.00  0.00    -0.315 C  
BRANCH   7   8
HETATM    8  C   UNL     1     -11.954  14.381  67.005  1.00  0.00    -0.424 C  
BRANCH   8   9
HETATM    9  C   UNL     1     -11.615  12.984  67.455  1.00  0.00    -0.407 A  
HETATM   10  C   UNL     1     -11.659  12.662  68.814  1.00  0.00    -0.355 A  
HETATM   11  C   UNL     1     -11.292  11.395  69.253  1.00  0.00    -0.355 A  
HETATM   12  C   UNL     1     -10.913  10.402  68.344  1.00  0.00    -0.312 A  
HETATM   13  C   UNL     1     -11.228  12.003  66.538  1.00  0.00    -0.387 A  
HETATM   14  C   UNL     1     -10.882  10.723  66.980  1.00  0.00    -0.311 A  
BRANCH  12  15
HETATM   15  C   UNL     1     -10.454   9.034  68.800  1.00  0.00    -0.230 C  
BRANCH  15  16
HETATM   16  C   UNL     1     -10.144   8.950  70.304  1.00  0.00    -0.218 C  
HETATM   17  C   UNL     1     -11.077   8.091  71.190  1.00  0.00    -0.252 C  
HETATM   18  C   UNL     1     -10.566   8.216  72.655  1.00  0.00    -0.344 C  
HETATM   19  N   UNL     1     -12.477   8.593  71.147  1.00  0.00    -0.448 NA 
HETATM   20  C   UNL     1     -11.054   6.590  70.787  1.00  0.00    -0.300 C  
HETATM   21  O   UNL     1     -11.423   7.519  73.557  1.00  0.00    -0.608 OA 
HETATM   22  O   UNL     1     -11.596   6.376  69.487  1.00  0.00    -0.581 OA 
HETATM   23  H1  UNL     1     -13.092   8.027  71.731  1.00  0.00     0.000 HD 
HETATM   24  H2  UNL     1     -12.822   8.655  70.190  1.00  0.00     0.000 HD 
HETATM   25  H   UNL     1     -11.581   5.458  69.241  1.00  0.00     0.000 HD 
HETATM   26  H   UNL     1     -11.112   7.596  74.451  1.00  0.00     0.000 HD 
ENDBRANCH  15  16
ENDBRANCH  12  15
ENDBRANCH   8   9
ENDBRANCH   7   8
ENDBRANCH   6   7
ENDBRANCH   5   6
ENDBRANCH   4   5
ENDBRANCH   3   4
ENDBRANCH   2   3
TORSDOF 9
ENDMDL
MODEL       16
REMARK 921   NORMALIZED FREE ENERGY PREDICTED BY IDOCK:   -5.86 KCAL/MOL
REMARK 922        TOTAL FREE ENERGY PREDICTED BY IDOCK:  -10.05 KCAL/MOL
REMARK 923 INTER-LIGAND FREE ENERGY PREDICTED BY IDOCK:   -7.88 KCAL/MOL
REMARK 924 INTRA-LIGAND FREE ENERGY PREDICTED BY IDOCK:   -2.17 KCAL/MOL
REMARK 927      BINDING AFFINITY PREDICTED BY RF-SCORE:    0.00 PKD
ROOT
HETATM    1  C   UNL     1     -10.681  11.357  64.027  1.00  0.00    -0.450 C  
HETATM    2  C   UNL     1     -11.703  12.472  63.892  1.00  0.00    -0.530 C  
ENDROOT
BRANCH   2   3
HETATM    3  C   UNL     1     -12.446  12.703  65.204  1.00  0.00    -0.531 C  
BRANCH   3   4
HETATM    4  C   UNL     1     -12.658  14.193  65.455  1.00  0.00    -0.485 C  
BRANCH   4   5
HETATM    5  C   UNL     1     -11.744  15.028  64.565  1.00  0.00    -0.372 C  
BRANCH   5   6
HETATM    6  C   UNL     1     -10.828  15.916  65.404  1.00  0.00    -0.361 C  
BRANCH   6   7
HETATM    7  C   UNL     1      -9.636  15.115  65.913  1.00  0.00    -0.373 C  
BRANCH   7   8
HETATM    8  C   UNL     1      -9.522  15.197  67.438  1.00  0.00    -0.204 C  
BRANCH   8   9
HETATM    9  C   UNL     1     -10.217  14.036  68.100  1.00  0.00    -0.243 A  
HETATM   10  C   UNL     1      -9.856  12.728  67.767  1.00  0.00    -0.220 A  
HETATM   11  C   UNL     1     -10.527  11.645  68.323  1.00  0.00    -0.223 A  
HETATM   12  C   UNL     1     -11.548  11.837  69.260  1.00  0.00    -0.378 A  
HETATM   13  C   UNL     1     -11.243  14.241  69.027  1.00  0.00    -0.294 A  
HETATM   14  C   UNL     1     -11.900  13.150  69.602  1.00  0.00    -0.390 A  
BRANCH  12  15
HETATM   15  C   UNL     1     -12.333  10.678  69.836  1.00  0.00    -0.304 C  
BRANCH  15  16
HETATM   16  C   UNL     1     -11.692  10.052  71.086  1.00  0.00    -0.472 C  
HETATM   17  C   UNL     1     -11.523   8.514  71.121  1.00  0.00    -0.276 C  
HETATM   18  C   UNL     1     -10.898   8.151  72.500  1.00  0.00    -0.361 C  
HETATM   19  N   UNL     1     -12.837   7.824  71.017  1.00  0.00    -0.540 NA 
HETATM   20  C   UNL     1     -10.578   8.000  70.001  1.00  0.00    -0.242 C  
HETATM   21  O   UNL     1     -10.784   6.738  72.653  1.00  0.00    -0.219 OA 
HETATM   22  O   UNL     1     -11.124   8.210  68.701  1.00  0.00    -0.413 OA 
HETATM   23  H1  UNL     1     -12.726   6.810  71.040  1.00  0.00     0.000 HD 
HETATM   24  H2  UNL     1     -13.353   8.125  70.190  1.00  0.00     0.000 HD 
HETATM   25  H   UNL     1     -10.545   7.896  68.016  1.00  0.00     0.000 HD 
HETATM   26  H   UNL     1     -10.402   6.516  73.494  1.00  0.00     0.000 HD 
ENDBRANCH  15  16
ENDBRANCH  12  15
ENDBRANCH   8   9
ENDBRANCH   7   8
ENDBRANCH   6   7
ENDBRANCH   5   6
ENDBRANCH   4   5
ENDBRANCH   3   4
ENDBRANCH   2   3
TORSDOF 9
ENDMDL
MODEL       17
REMARK 921   NORMALIZED FREE ENERGY PREDICTED BY IDOCK:   -5.86 KCAL/MOL
REMARK 922        TOTAL FREE ENERGY PREDICTED BY IDOCK:  -10.04 KCAL/MOL
REMARK 923 INTER-LIGAND FREE ENERGY PREDICTED BY IDOCK:   -8.96 KCAL/MOL
REMARK 924 INTRA-LIGAND FREE ENERGY PREDICTED BY IDOCK:   -1.08 KCAL/MOL
REMARK 927      BINDING AFFINITY PREDICTED BY RF-SCORE:    0.00 PKD
ROOT
HETATM    1  C   UNL     1     -10.297  10.727  64.414  1.00  0.00    -0.405 C  
HETATM    2  C   UNL     1     -10.725  11.878  63.522  1.00  0.00    -0.504 C  
ENDROOT
BRANCH   2   3
HETATM    3  C   UNL     1     -12.235  12.093  63.584  1.00  0.00    -0.663 C  
BRANCH   3   4
HETATM    4  C   UNL     1     -12.630  12.827  64.861  1.00  0.00    -0.541 C  
BRANCH   4   5
HETATM    5  C   UNL     1     -11.861  14.137  64.994  1.00  0.00    -0.390 C  
BRANCH   5   6
HETATM    6  C   UNL     1     -11.717  14.540  66.459  1.00  0.00    -0.380 C  
BRANCH   6   7
HETATM    7  C   UNL     1     -11.862  13.320  67.361  1.00  0.00    -0.413 C  
BRANCH   7   8
HETATM    8  C   UNL     1     -11.684  13.694  68.835  1.00  0.00    -0.377 C  
BRANCH   8   9
HETATM    9  C   UNL     1     -11.845  12.491  69.727  1.00  0.00    -0.380 A  
HETATM   10  C   UNL     1     -11.162  11.309  69.429  1.00  0.00    -0.345 A  
HETATM   11  C   UNL     1     -11.345  10.171  70.207  1.00  0.00    -0.387 A  
HETATM   12  C   UNL     1     -12.182  10.194  71.328  1.00  0.00    -0.496 A  
HETATM   13  C   UNL     1     -12.692  12.523  70.839  1.00  0.00    -0.270 A  
HETATM   14  C   UNL     1     -12.856  11.385  71.632  1.00  0.00    -0.497 A  
BRANCH  12  15
HETATM   15  C   UNL     1     -12.444   8.955  72.156  1.00  0.00    -0.459 C  
BRANCH  15  16
HETATM   16  C   UNL     1     -11.170   8.191  72.554  1.00  0.00    -0.459 C  
HETATM   17  C   UNL     1     -11.074   6.693  72.175  1.00  0.00    -0.254 C  
HETATM   18  C   UNL     1      -9.719   6.163  72.729  1.00  0.00    -0.158 C  
HETATM   19  N   UNL     1     -12.167   5.905  72.805  1.00  0.00    -0.520 NA 
HETATM   20  C   UNL     1     -11.097   6.473  70.637  1.00  0.00    -0.309 C  
HETATM   21  O   UNL     1      -9.584   4.763  72.497  1.00  0.00    -0.134 OA 
HETATM   22  O   UNL     1     -12.345   6.847  70.061  1.00  0.00    -0.619 OA 
HETATM   23  H1  UNL     1     -12.104   4.918  72.555  1.00  0.00     0.000 HD 
HETATM   24  H2  UNL     1     -13.084   6.291  72.579  1.00  0.00     0.000 HD 
HETATM   25  H   UNL     1     -12.359   6.712  69.120  1.00  0.00     0.000 HD 
HETATM   26  H   UNL     1      -8.758   4.439  72.835  1.00  0.00     0.000 HD 
ENDBRANCH  15  16
ENDBRANCH  12  15
ENDBRANCH   8   9
ENDBRANCH   7   8
ENDBRANCH   6   7
ENDBRANCH   5   6
ENDBRANCH   4   5
ENDBRANCH   3   4
ENDBRANCH   2   3
TORSDOF 9
ENDMDL
MODEL       18
REMARK 921   NORMALIZED FREE ENERGY PREDICTED BY IDOCK:   -5.84 KCAL/MOL
REMARK 922        TOTAL FREE ENERGY PREDICTED BY IDOCK:  -10.03 KCAL/MOL
REMARK 923 INTER-LIGAND FREE ENERGY PREDICTED BY IDOCK:   -8.94 KCAL/MOL
REMARK 924 INTRA-LIGAND FREE ENERGY PREDICTED BY IDOCK:   -1.09 KCAL/MOL
REMARK 927      BINDING AFFINITY PREDICTED BY RF-SCORE:    0.00 PKD
ROOT
HETATM    1  C   UNL     1     -12.514  15.560  74.194  1.00  0.00    -0.805 C  
HETATM    2  C   UNL     1     -12.814  15.614  72.707  1.00  0.00    -0.552 C  
ENDROOT
BRANCH   2   3
HETATM    3  C   UNL     1     -14.028  14.758  72.357  1.00  0.00    -0.575 C  
BRANCH   3   4
HETATM    4  C   UNL     1     -13.617  13.313  72.091  1.00  0.00    -0.655 C  
BRANCH   4   5
HETATM    5  C   UNL     1     -12.577  13.240  70.978  1.00  0.00    -0.408 C  
BRANCH   5   6
HETATM    6  C   UNL     1     -12.217  11.791  70.662  1.00  0.00    -0.443 C  
BRANCH   6   7
HETATM    7  C   UNL     1     -12.008  11.611  69.163  1.00  0.00    -0.378 C  
BRANCH   7   8
HETATM    8  C   UNL     1     -10.584  11.990  68.751  1.00  0.00    -0.237 C  
BRANCH   8   9
HETATM    9  C   UNL     1     -10.540  13.366  68.138  1.00  0.00    -0.255 A  
HETATM   10  C   UNL     1      -9.666  14.328  68.651  1.00  0.00    -0.213 A  
HETATM   11  C   UNL     1      -9.655  15.620  68.138  1.00  0.00    -0.196 A  
HETATM   12  C   UNL     1     -10.485  15.975  67.069  1.00  0.00    -0.307 A  
HETATM   13  C   UNL     1     -11.381  13.712  67.077  1.00  0.00    -0.344 A  
HETATM   14  C   UNL     1     -11.352  15.005  66.547  1.00  0.00    -0.280 A  
BRANCH  12  15
HETATM   15  C   UNL     1     -10.534  17.388  66.530  1.00  0.00    -0.264 C  
BRANCH  15  16
HETATM   16  C   UNL     1      -9.151  18.041  66.366  1.00  0.00    -0.251 C  
HETATM   17  C   UNL     1      -8.969  19.491  66.874  1.00  0.00    -0.325 C  
HETATM   18  C   UNL     1      -7.507  19.914  66.548  1.00  0.00    -0.275 C  
HETATM   19  N   UNL     1      -9.886  20.429  66.173  1.00  0.00    -0.638 NA 
HETATM   20  C   UNL     1      -9.184  19.608  68.409  1.00  0.00    -0.339 C  
HETATM   21  O   UNL     1      -7.275  21.274  66.908  1.00  0.00    -0.709 OA 
HETATM   22  O   UNL     1     -10.530  19.328  68.784  1.00  0.00    -0.488 OA 
HETATM   23  H1  UNL     1      -9.766  21.386  66.508  1.00  0.00     0.000 HD 
HETATM   24  H2  UNL     1     -10.857  20.127  66.244  1.00  0.00     0.000 HD 
HETATM   25  H   UNL     1     -10.662  19.399  69.722  1.00  0.00     0.000 HD 
HETATM   26  H   UNL     1      -6.383  21.532  66.709  1.00  0.00     0.000 HD 
ENDBRANCH  15  16
ENDBRANCH  12  15
ENDBRANCH   8   9
ENDBRANCH   7   8
ENDBRANCH   6   7
ENDBRANCH   5   6
ENDBRANCH   4   5
ENDBRANCH   3   4
ENDBRANCH   2   3
TORSDOF 9
ENDMDL
MODEL       19
REMARK 921   NORMALIZED FREE ENERGY PREDICTED BY IDOCK:   -5.83 KCAL/MOL
REMARK 922        TOTAL FREE ENERGY PREDICTED BY IDOCK:  -10.00 KCAL/MOL
REMARK 923 INTER-LIGAND FREE ENERGY PREDICTED BY IDOCK:   -8.86 KCAL/MOL
REMARK 924 INTRA-LIGAND FREE ENERGY PREDICTED BY IDOCK:   -1.15 KCAL/MOL
REMARK 927      BINDING AFFINITY PREDICTED BY RF-SCORE:    0.00 PKD
ROOT
HETATM    1  C   UNL     1     -12.526  12.019  63.545  1.00  0.00    -0.654 C  
HETATM    2  C   UNL     1     -12.482  12.640  64.929  1.00  0.00    -0.564 C  
ENDROOT
BRANCH   2   3
HETATM    3  C   UNL     1     -11.054  12.698  65.464  1.00  0.00    -0.329 C  
BRANCH   3   4
HETATM    4  C   UNL     1     -10.356  13.978  65.013  1.00  0.00    -0.432 C  
BRANCH   4   5
HETATM    5  C   UNL     1      -9.647  14.650  66.184  1.00  0.00    -0.336 C  
BRANCH   5   6
HETATM    6  C   UNL     1     -10.584  15.613  66.909  1.00  0.00    -0.311 C  
BRANCH   6   7
HETATM    7  C   UNL     1     -10.415  15.483  68.418  1.00  0.00    -0.240 C  
BRANCH   7   8
HETATM    8  C   UNL     1     -11.769  15.470  69.130  1.00  0.00    -0.380 C  
BRANCH   8   9
HETATM    9  C   UNL     1     -12.045  14.128  69.755  1.00  0.00    -0.409 A  
HETATM   10  C   UNL     1     -12.670  14.058  71.004  1.00  0.00    -0.431 A  
HETATM   11  C   UNL     1     -12.878  12.830  71.623  1.00  0.00    -0.363 A  
HETATM   12  C   UNL     1     -12.509  11.637  70.994  1.00  0.00    -0.436 A  
HETATM   13  C   UNL     1     -11.663  12.942  69.122  1.00  0.00    -0.376 A  
HETATM   14  C   UNL     1     -11.895  11.709  69.735  1.00  0.00    -0.428 A  
BRANCH  12  15
HETATM   15  C   UNL     1     -12.672  10.293  71.670  1.00  0.00    -0.561 C  
BRANCH  15  16
HETATM   16  C   UNL     1     -11.650   9.239  71.214  1.00  0.00    -0.419 C  
HETATM   17  C   UNL     1     -11.760   7.815  71.811  1.00  0.00    -0.284 C  
HETATM   18  C   UNL     1     -10.591   6.975  71.219  1.00  0.00    -0.218 C  
HETATM   19  N   UNL     1     -11.606   7.837  73.291  1.00  0.00    -0.606 NA 
HETATM   20  C   UNL     1     -13.101   7.123  71.441  1.00  0.00    -0.352 C  
HETATM   21  O   UNL     1     -10.566   5.665  71.783  1.00  0.00    -0.224 OA 
HETATM   22  O   UNL     1     -14.222   7.780  72.026  1.00  0.00    -0.504 OA 
HETATM   23  H1  UNL     1     -11.678   6.899  73.686  1.00  0.00     0.000 HD 
HETATM   24  H2  UNL     1     -12.268   8.478  73.727  1.00  0.00     0.000 HD 
HETATM   25  H   UNL     1     -15.042   7.357  71.800  1.00  0.00     0.000 HD 
HETATM   26  H   UNL     1      -9.853   5.152  71.422  1.00  0.00     0.000 HD 
ENDBRANCH  15  16
ENDBRANCH  12  15
ENDBRANCH   8   9
ENDBRANCH   7   8
ENDBRANCH   6   7
ENDBRANCH   5   6
ENDBRANCH   4   5
ENDBRANCH   3   4
ENDBRANCH   2   3
TORSDOF 9
ENDMDL
MODEL       20
REMARK 921   NORMALIZED FREE ENERGY PREDICTED BY IDOCK:   -5.80 KCAL/MOL
REMARK 922        TOTAL FREE ENERGY PREDICTED BY IDOCK:   -9.96 KCAL/MOL
REMARK 923 INTER-LIGAND FREE ENERGY PREDICTED BY IDOCK:   -8.61 KCAL/MOL
REMARK 924 INTRA-LIGAND FREE ENERGY PREDICTED BY IDOCK:   -1.35 KCAL/MOL
REMARK 927      BINDING AFFINITY PREDICTED BY RF-SCORE:    0.00 PKD
ROOT
HETATM    1  C   UNL     1     -14.362  14.587  71.941  1.00  0.00    -0.647 C  
HETATM    2  C   UNL     1     -13.675  15.726  72.673  1.00  0.00    -0.622 C  
ENDROOT
BRANCH   2   3
HETATM    3  C   UNL     1     -12.244  15.917  72.179  1.00  0.00    -0.578 C  
BRANCH   3   4
HETATM    4  C   UNL     1     -12.154  15.697  70.672  1.00  0.00    -0.443 C  
BRANCH   4   5
HETATM    5  C   UNL     1     -10.707  15.775  70.198  1.00  0.00    -0.354 C  
BRANCH   5   6
HETATM    6  C   UNL     1     -10.523  15.027  68.880  1.00  0.00    -0.241 C  
BRANCH   6   7
HETATM    7  C   UNL     1     -11.822  14.340  68.474  1.00  0.00    -0.382 C  
BRANCH   7   8
HETATM    8  C   UNL     1     -11.564  12.922  67.962  1.00  0.00    -0.385 C  
BRANCH   8   9
HETATM    9  C   UNL     1     -11.620  11.917  69.083  1.00  0.00    -0.373 A  
HETATM   10  C   UNL     1     -10.911  10.717  68.976  1.00  0.00    -0.295 A  
HETATM   11  C   UNL     1     -10.999   9.753  69.974  1.00  0.00    -0.319 A  
HETATM   12  C   UNL     1     -11.761   9.978  71.126  1.00  0.00    -0.472 A  
HETATM   13  C   UNL     1     -12.392  12.149  70.224  1.00  0.00    -0.269 A  
HETATM   14  C   UNL     1     -12.460  11.188  71.236  1.00  0.00    -0.466 A  
BRANCH  12  15
HETATM   15  C   UNL     1     -11.920   8.923  72.199  1.00  0.00    -0.419 C  
BRANCH  15  16
HETATM   16  C   UNL     1     -10.711   7.982  72.331  1.00  0.00    -0.386 C  
HETATM   17  C   UNL     1     -10.918   6.484  72.001  1.00  0.00    -0.247 C  
HETATM   18  C   UNL     1      -9.562   5.764  72.258  1.00  0.00    -0.147 C  
HETATM   19  N   UNL     1     -11.940   5.871  72.892  1.00  0.00    -0.515 NA 
HETATM   20  C   UNL     1     -11.322   6.259  70.518  1.00  0.00    -0.361 C  
HETATM   21  O   UNL     1      -9.685   4.357  72.058  1.00  0.00    -0.150 OA 
HETATM   22  O   UNL     1     -12.603   6.809  70.222  1.00  0.00    -0.537 OA 
HETATM   23  H1  UNL     1     -12.076   4.883  72.674  1.00  0.00     0.000 HD 
HETATM   24  H2  UNL     1     -12.819   6.385  72.862  1.00  0.00     0.000 HD 
HETATM   25  H   UNL     1     -12.850   6.671  69.315  1.00  0.00     0.000 HD 
HETATM   26  H   UNL     1      -8.857   3.918  72.215  1.00  0.00     0.000 HD 
ENDBRANCH  15  16
ENDBRANCH  12  15
ENDBRANCH   8   9
ENDBRANCH   7   8
ENDBRANCH   6   7
ENDBRANCH   5   6
ENDBRANCH   4   5
ENDBRANCH   3   4
ENDBRANCH   2   3
TORSDOF 9
ENDMDL
MODEL       21
REMARK 921   NORMALIZED FREE ENERGY PREDICTED BY IDOCK:   -5.80 KCAL/MOL
REMARK 922        TOTAL FREE ENERGY PREDICTED BY IDOCK:   -9.95 KCAL/MOL
REMARK 923 INTER-LIGAND FREE ENERGY PREDICTED BY IDOCK:   -8.18 KCAL/MOL
REMARK 924 INTRA-LIGAND FREE ENERGY PREDICTED BY IDOCK:   -1.78 KCAL/MOL
REMARK 927      BINDING AFFINITY PREDICTED BY RF-SCORE:    0.00 PKD
ROOT
HETATM    1  C   UNL     1     -13.017  11.010  71.670  1.00  0.00    -0.561 C  
HETATM    2  C   UNL     1     -13.287   9.595  71.190  1.00  0.00    -0.344 C  
ENDROOT
BRANCH   2   3
HETATM    3  C   UNL     1     -12.581   8.568  72.071  1.00  0.00    -0.414 C  
BRANCH   3   4
HETATM    4  C   UNL     1     -12.548   7.201  71.394  1.00  0.00    -0.432 C  
BRANCH   4   5
HETATM    5  C   UNL     1     -11.757   6.201  72.231  1.00  0.00    -0.352 C  
BRANCH   5   6
HETATM    6  C   UNL     1     -10.690   5.507  71.389  1.00  0.00    -0.290 C  
BRANCH   6   7
HETATM    7  C   UNL     1     -10.813   5.924  69.928  1.00  0.00    -0.439 C  
BRANCH   7   8
HETATM    8  C   UNL     1      -9.567   6.679  69.460  1.00  0.00    -0.150 C  
BRANCH   8   9
HETATM    9  C   UNL     1      -9.921   8.049  68.941  1.00  0.00    -0.199 A  
HETATM   10  C   UNL     1      -9.780   9.164  69.771  1.00  0.00    -0.191 A  
HETATM   11  C   UNL     1     -10.159  10.427  69.330  1.00  0.00    -0.248 A  
HETATM   12  C   UNL     1     -10.647  10.618  68.033  1.00  0.00    -0.248 A  
HETATM   13  C   UNL     1     -10.418   8.226  67.647  1.00  0.00    -0.303 A  
HETATM   14  C   UNL     1     -10.776   9.500  67.198  1.00  0.00    -0.252 A  
BRANCH  12  15
HETATM   15  C   UNL     1     -11.120  11.971  67.548  1.00  0.00    -0.331 C  
BRANCH  15  16
HETATM   16  C   UNL     1     -11.511  11.997  66.061  1.00  0.00    -0.399 C  
HETATM   17  C   UNL     1     -11.737  13.376  65.394  1.00  0.00    -0.331 C  
HETATM   18  C   UNL     1     -12.160  13.112  63.920  1.00  0.00    -0.470 C  
HETATM   19  N   UNL     1     -12.836  14.126  66.060  1.00  0.00    -0.463 NA 
HETATM   20  C   UNL     1     -10.448  14.244  65.389  1.00  0.00    -0.365 C  
HETATM   21  O   UNL     1     -12.471  14.332  63.251  1.00  0.00    -1.133 OA 
HETATM   22  O   UNL     1     -10.044  14.612  66.705  1.00  0.00    -0.261 OA 
HETATM   23  H1  UNL     1     -12.984  15.035  65.621  1.00  0.00     0.000 HD 
HETATM   24  H2  UNL     1     -12.672  14.217  67.063  1.00  0.00     0.000 HD 
HETATM   25  H   UNL     1      -9.255  15.143  66.701  1.00  0.00     0.000 HD 
HETATM   26  H   UNL     1     -12.729  14.171  62.351  1.00  0.00     0.000 HD 
ENDBRANCH  15  16
ENDBRANCH  12  15
ENDBRANCH   8   9
ENDBRANCH   7   8
ENDBRANCH   6   7
ENDBRANCH   5   6
ENDBRANCH   4   5
ENDBRANCH   3   4
ENDBRANCH   2   3
TORSDOF 9
ENDMDL
MODEL       22
REMARK 921   NORMALIZED FREE ENERGY PREDICTED BY IDOCK:   -5.76 KCAL/MOL
REMARK 922        TOTAL FREE ENERGY PREDICTED BY IDOCK:   -9.91 KCAL/MOL
REMARK 923 INTER-LIGAND FREE ENERGY PREDICTED BY IDOCK:   -8.26 KCAL/MOL
REMARK 924 INTRA-LIGAND FREE ENERGY PREDICTED BY IDOCK:   -1.65 KCAL/MOL
REMARK 927      BINDING AFFINITY PREDICTED BY RF-SCORE:    0.00 PKD
ROOT
HETATM    1  C   UNL     1     -10.577  14.900  65.632  1.00  0.00    -0.358 C  
HETATM    2  C   UNL     1     -11.889  14.455  66.253  1.00  0.00    -0.391 C  
ENDROOT
BRANCH   2   3
HETATM    3  C   UNL     1     -12.682  13.572  65.294  1.00  0.00    -0.481 C  
BRANCH   3   4
HETATM    4  C   UNL     1     -11.978  13.462  63.946  1.00  0.00    -0.520 C  
BRANCH   4   5
HETATM    5  C   UNL     1     -11.843  12.003  63.522  1.00  0.00    -0.587 C  
BRANCH   5   6
HETATM    6  C   UNL     1     -10.392  11.661  63.196  1.00  0.00    -0.383 C  
BRANCH   6   7
HETATM    7  C   UNL     1      -9.572  11.556  64.476  1.00  0.00    -0.177 C  
BRANCH   7   8
HETATM    8  C   UNL     1      -9.556  10.121  65.010  1.00  0.00    -0.362 C  
BRANCH   8   9
HETATM    9  C   UNL     1     -10.174  10.042  66.381  1.00  0.00    -0.290 A  
HETATM   10  C   UNL     1     -10.808  11.164  66.923  1.00  0.00    -0.333 A  
HETATM   11  C   UNL     1     -11.331  11.128  68.211  1.00  0.00    -0.365 A  
HETATM   12  C   UNL     1     -11.275   9.958  68.976  1.00  0.00    -0.131 A  
HETATM   13  C   UNL     1     -10.103   8.871  67.141  1.00  0.00    -0.316 A  
HETATM   14  C   UNL     1     -10.651   8.830  68.426  1.00  0.00    -0.185 A  
BRANCH  12  15
HETATM   15  C   UNL     1     -11.785   9.909  70.400  1.00  0.00    -0.333 C  
BRANCH  15  16
HETATM   16  C   UNL     1     -10.816   9.235  71.386  1.00  0.00    -0.434 C  
HETATM   17  C   UNL     1     -11.344   8.043  72.221  1.00  0.00    -0.353 C  
HETATM   18  C   UNL     1     -10.185   7.586  73.155  1.00  0.00    -0.327 C  
HETATM   19  N   UNL     1     -12.490   8.450  73.078  1.00  0.00    -0.589 NA 
HETATM   20  C   UNL     1     -11.764   6.841  71.331  1.00  0.00    -0.325 C  
HETATM   21  O   UNL     1     -10.612   6.540  74.024  1.00  0.00    -0.415 OA 
HETATM   22  O   UNL     1     -12.886   7.149  70.509  1.00  0.00    -0.601 OA 
HETATM   23  H1  UNL     1     -12.838   7.664  73.629  1.00  0.00     0.000 HD 
HETATM   24  H2  UNL     1     -13.234   8.880  72.529  1.00  0.00     0.000 HD 
HETATM   25  H   UNL     1     -13.143   6.414  69.965  1.00  0.00     0.000 HD 
HETATM   26  H   UNL     1      -9.905   6.260  74.594  1.00  0.00     0.000 HD 
ENDBRANCH  15  16
ENDBRANCH  12  15
ENDBRANCH   8   9
ENDBRANCH   7   8
ENDBRANCH   6   7
ENDBRANCH   5   6
ENDBRANCH   4   5
ENDBRANCH   3   4
ENDBRANCH   2   3
TORSDOF 9
ENDMDL
MODEL       23
REMARK 921   NORMALIZED FREE ENERGY PREDICTED BY IDOCK:   -5.74 KCAL/MOL
REMARK 922        TOTAL FREE ENERGY PREDICTED BY IDOCK:   -9.86 KCAL/MOL
REMARK 923 INTER-LIGAND FREE ENERGY PREDICTED BY IDOCK:   -8.46 KCAL/MOL
REMARK 924 INTRA-LIGAND FREE ENERGY PREDICTED BY IDOCK:   -1.40 KCAL/MOL
REMARK 927      BINDING AFFINITY PREDICTED BY RF-SCORE:    0.00 PKD
ROOT
HETATM    1  C   UNL     1     -13.570   8.882  72.423  1.00  0.00    -0.500 C  
HETATM    2  C   UNL     1     -12.103   8.979  72.045  1.00  0.00    -0.440 C  
ENDROOT
BRANCH   2   3
HETATM    3  C   UNL     1     -11.265   7.966  72.819  1.00  0.00    -0.466 C  
BRANCH   3   4
HETATM    4  C   UNL     1      -9.784   8.113  72.482  1.00  0.00    -0.357 C  
BRANCH   4   5
HETATM    5  C   UNL     1      -9.131   6.747  72.300  1.00  0.00    -0.137 C  
BRANCH   5   6
HETATM    6  C   UNL     1     -10.087   5.771  71.620  1.00  0.00    -0.241 C  
BRANCH   6   7
HETATM    7  C   UNL     1      -9.877   5.788  70.111  1.00  0.00    -0.240 C  
BRANCH   7   8
HETATM    8  C   UNL     1     -11.117   6.314  69.383  1.00  0.00    -0.477 C  
BRANCH   8   9
HETATM    9  C   UNL     1     -10.768   7.459  68.469  1.00  0.00    -0.138 A  
HETATM   10  C   UNL     1     -10.862   8.773  68.934  1.00  0.00    -0.040 A  
HETATM   11  C   UNL     1     -10.603   9.844  68.087  1.00  0.00    -0.270 A  
HETATM   12  C   UNL     1     -10.200   9.632  66.764  1.00  0.00    -0.308 A  
HETATM   13  C   UNL     1     -10.377   7.235  67.146  1.00  0.00    -0.367 A  
HETATM   14  C   UNL     1     -10.093   8.313  66.303  1.00  0.00    -0.101 A  
BRANCH  12  15
HETATM   15  C   UNL     1      -9.968  10.780  65.805  1.00  0.00    -0.306 C  
BRANCH  15  16
HETATM   16  C   UNL     1     -11.004  11.910  65.923  1.00  0.00    -0.354 C  
HETATM   17  C   UNL     1     -11.256  12.796  64.680  1.00  0.00    -0.319 C  
HETATM   18  C   UNL     1     -12.304  13.873  65.086  1.00  0.00    -0.449 C  
HETATM   19  N   UNL     1     -10.016  13.499  64.256  1.00  0.00    -0.752 NA 
HETATM   20  C   UNL     1     -11.824  11.982  63.483  1.00  0.00    -0.492 C  
HETATM   21  O   UNL     1     -12.536  14.789  64.018  1.00  0.00    -0.910 OA 
HETATM   22  O   UNL     1     -10.885  11.033  62.988  1.00  0.00    -0.797 OA 
HETATM   23  H1  UNL     1     -10.182  14.083  63.436  1.00  0.00     0.000 HD 
HETATM   24  H2  UNL     1      -9.250  12.845  64.100  1.00  0.00     0.000 HD 
HETATM   25  H   UNL     1     -11.232  10.535  62.256  1.00  0.00     0.000 HD 
HETATM   26  H   UNL     1     -13.175  15.447  64.266  1.00  0.00     0.000 HD 
ENDBRANCH  15  16
ENDBRANCH  12  15
ENDBRANCH   8   9
ENDBRANCH   7   8
ENDBRANCH   6   7
ENDBRANCH   5   6
ENDBRANCH   4   5
ENDBRANCH   3   4
ENDBRANCH   2   3
TORSDOF 9
ENDMDL
MODEL       24
REMARK 921   NORMALIZED FREE ENERGY PREDICTED BY IDOCK:   -5.71 KCAL/MOL
REMARK 922        TOTAL FREE ENERGY PREDICTED BY IDOCK:   -9.82 KCAL/MOL
REMARK 923 INTER-LIGAND FREE ENERGY PREDICTED BY IDOCK:   -7.48 KCAL/MOL
REMARK 924 INTRA-LIGAND FREE ENERGY PREDICTED BY IDOCK:   -2.34 KCAL/MOL
REMARK 927      BINDING AFFINITY PREDICTED BY RF-SCORE:    0.00 PKD
ROOT
HETATM    1  C   UNL     1      -9.080  12.487  68.080  1.00  0.00    -0.200 C  
HETATM    2  C   UNL     1     -10.101  11.363  68.071  1.00  0.00    -0.193 C  
ENDROOT
BRANCH   2   3
HETATM    3  C   UNL     1     -10.067  10.596  66.752  1.00  0.00    -0.272 C  
BRANCH   3   4
HETATM    4  C   UNL     1      -8.776  10.879  65.990  1.00  0.00    -0.192 C  
BRANCH   4   5
HETATM    5  C   UNL     1      -9.063  11.140  64.516  1.00  0.00    -0.068 C  
BRANCH   5   6
HETATM    6  C   UNL     1     -10.490  10.733  64.156  1.00  0.00    -0.309 C  
BRANCH   6   7
HETATM    7  C   UNL     1     -11.199  11.871  63.432  1.00  0.00    -0.463 C  
BRANCH   7   8
HETATM    8  C   UNL     1     -12.320  12.462  64.291  1.00  0.00    -0.544 C  
BRANCH   8   9
HETATM    9  C   UNL     1     -11.802  13.557  65.187  1.00  0.00    -0.363 A  
HETATM   10  C   UNL     1     -10.798  14.414  64.727  1.00  0.00    -0.415 A  
HETATM   11  C   UNL     1     -10.266  15.391  65.561  1.00  0.00    -0.411 A  
HETATM   12  C   UNL     1     -10.751  15.568  66.861  1.00  0.00    -0.317 A  
HETATM   13  C   UNL     1     -12.288  13.718  66.487  1.00  0.00    -0.432 A  
HETATM   14  C   UNL     1     -11.768  14.716  67.315  1.00  0.00    -0.406 A  
BRANCH  12  15
HETATM   15  C   UNL     1     -10.151  16.585  67.807  1.00  0.00    -0.264 C  
BRANCH  15  16
HETATM   16  C   UNL     1      -8.947  17.344  67.224  1.00  0.00    -0.241 C  
HETATM   17  C   UNL     1      -9.028  18.888  67.153  1.00  0.00    -0.284 C  
HETATM   18  C   UNL     1      -7.712  19.388  66.489  1.00  0.00    -0.278 C  
HETATM   19  N   UNL     1     -10.168  19.331  66.305  1.00  0.00    -0.431 NA 
HETATM   20  C   UNL     1      -9.147  19.536  68.560  1.00  0.00    -0.352 C  
HETATM   21  O   UNL     1      -7.737  20.802  66.307  1.00  0.00    -0.509 OA 
HETATM   22  O   UNL     1     -10.375  19.202  69.202  1.00  0.00    -0.540 OA 
HETATM   23  H1  UNL     1     -10.221  20.349  66.259  1.00  0.00     0.000 HD 
HETATM   24  H2  UNL     1     -11.048  18.924  66.620  1.00  0.00     0.000 HD 
HETATM   25  H   UNL     1     -10.447  19.598  70.062  1.00  0.00     0.000 HD 
HETATM   26  H   UNL     1      -6.935  21.108  65.901  1.00  0.00     0.000 HD 
ENDBRANCH  15  16
ENDBRANCH  12  15
ENDBRANCH   8   9
ENDBRANCH   7   8
ENDBRANCH   6   7
ENDBRANCH   5   6
ENDBRANCH   4   5
ENDBRANCH   3   4
ENDBRANCH   2   3
TORSDOF 9
ENDMDL
MODEL       25
REMARK 921   NORMALIZED FREE ENERGY PREDICTED BY IDOCK:   -5.69 KCAL/MOL
REMARK 922        TOTAL FREE ENERGY PREDICTED BY IDOCK:   -9.79 KCAL/MOL
REMARK 923 INTER-LIGAND FREE ENERGY PREDICTED BY IDOCK:   -7.25 KCAL/MOL
REMARK 924 INTRA-LIGAND FREE ENERGY PREDICTED BY IDOCK:   -2.54 KCAL/MOL
REMARK 927      BINDING AFFINITY PREDICTED BY RF-SCORE:    0.00 PKD
ROOT
HETATM    1  C   UNL     1     -10.777  11.006  68.297  1.00  0.00    -0.235 C  
HETATM    2  C   UNL     1      -9.547  11.896  68.317  1.00  0.00    -0.201 C  
ENDROOT
BRANCH   2   3
HETATM    3  C   UNL     1      -8.670  11.655  67.092  1.00  0.00    -0.164 C  
BRANCH   3   4
HETATM    4  C   UNL     1      -9.174  10.461  66.287  1.00  0.00    -0.195 C  
BRANCH   4   5
HETATM    5  C   UNL     1      -8.740  10.567  64.829  1.00  0.00    -0.196 C  
BRANCH   5   6
HETATM    6  C   UNL     1      -9.951  10.604  63.901  1.00  0.00    -0.390 C  
BRANCH   6   7
HETATM    7  C   UNL     1     -10.088  11.980  63.261  1.00  0.00    -0.379 C  
BRANCH   7   8
HETATM    8  C   UNL     1     -11.460  12.594  63.551  1.00  0.00    -0.557 C  
BRANCH   8   9
HETATM    9  C   UNL     1     -11.452  13.362  64.846  1.00  0.00    -0.346 A  
HETATM   10  C   UNL     1     -10.412  14.257  65.117  1.00  0.00    -0.432 A  
HETATM   11  C   UNL     1     -10.357  14.929  66.333  1.00  0.00    -0.291 A  
HETATM   12  C   UNL     1     -11.359  14.761  67.293  1.00  0.00    -0.366 A  
HETATM   13  C   UNL     1     -12.454  13.178  65.803  1.00  0.00    -0.441 A  
HETATM   14  C   UNL     1     -12.408  13.874  67.014  1.00  0.00    -0.287 A  
BRANCH  12  15
HETATM   15  C   UNL     1     -11.292  15.436  68.646  1.00  0.00    -0.337 C  
BRANCH  15  16
HETATM   16  C   UNL     1     -12.610  15.378  69.437  1.00  0.00     0.071 C  
HETATM   17  C   UNL     1     -12.617  14.606  70.778  1.00  0.00    -0.350 C  
HETATM   18  C   UNL     1     -14.068  14.667  71.338  1.00  0.00    -0.392 C  
HETATM   19  N   UNL     1     -12.262  13.175  70.580  1.00  0.00    -0.441 NA 
HETATM   20  C   UNL     1     -11.658  15.236  71.825  1.00  0.00    -0.427 C  
HETATM   21  O   UNL     1     -14.186  13.906  72.538  1.00  0.00    -0.671 OA 
HETATM   22  O   UNL     1     -10.293  15.136  71.430  1.00  0.00    -0.224 OA 
HETATM   23  H1  UNL     1     -12.267  12.665  71.464  1.00  0.00     0.000 HD 
HETATM   24  H2  UNL     1     -11.371  13.074  70.095  1.00  0.00     0.000 HD 
HETATM   25  H   UNL     1      -9.706  15.522  72.071  1.00  0.00     0.000 HD 
HETATM   26  H   UNL     1     -15.072  13.944  72.880  1.00  0.00     0.000 HD 
ENDBRANCH  15  16
ENDBRANCH  12  15
ENDBRANCH   8   9
ENDBRANCH   7   8
ENDBRANCH   6   7
ENDBRANCH   5   6
ENDBRANCH   4   5
ENDBRANCH   3   4
ENDBRANCH   2   3
TORSDOF 9
ENDMDL
MODEL       26
REMARK 921   NORMALIZED FREE ENERGY PREDICTED BY IDOCK:   -5.68 KCAL/MOL
REMARK 922        TOTAL FREE ENERGY PREDICTED BY IDOCK:   -9.78 KCAL/MOL
REMARK 923 INTER-LIGAND FREE ENERGY PREDICTED BY IDOCK:   -7.48 KCAL/MOL
REMARK 924 INTRA-LIGAND FREE ENERGY PREDICTED BY IDOCK:   -2.31 KCAL/MOL
REMARK 927      BINDING AFFINITY PREDICTED BY RF-SCORE:    0.00 PKD
ROOT
HETATM    1  C   UNL     1     -11.408  10.727  68.282  1.00  0.00    -0.376 C  
HETATM    2  C   UNL     1     -10.265  11.570  68.820  1.00  0.00    -0.204 C  
ENDROOT
BRANCH   2   3
HETATM    3  C   UNL     1      -9.175  11.759  67.769  1.00  0.00    -0.181 C  
BRANCH   3   4
HETATM    4  C   UNL     1      -8.733  10.416  67.196  1.00  0.00    -0.130 C  
BRANCH   4   5
HETATM    5  C   UNL     1      -8.590  10.493  65.680  1.00  0.00    -0.182 C  
BRANCH   5   6
HETATM    6  C   UNL     1      -9.869  10.031  64.987  1.00  0.00    -0.374 C  
BRANCH   6   7
HETATM    7  C   UNL     1     -10.251  11.000  63.875  1.00  0.00    -0.425 C  
BRANCH   7   8
HETATM    8  C   UNL     1     -11.584  11.691  64.173  1.00  0.00    -0.342 C  
BRANCH   8   9
HETATM    9  C   UNL     1     -11.386  12.911  65.035  1.00  0.00    -0.338 A  
HETATM   10  C   UNL     1     -10.292  13.750  64.810  1.00  0.00    -0.422 A  
HETATM   11  C   UNL     1     -10.060  14.846  65.633  1.00  0.00    -0.387 A  
HETATM   12  C   UNL     1     -10.938  15.160  66.676  1.00  0.00    -0.318 A  
HETATM   13  C   UNL     1     -12.265  13.208  66.080  1.00  0.00    -0.478 A  
HETATM   14  C   UNL     1     -12.043  14.324  66.891  1.00  0.00    -0.440 A  
BRANCH  12  15
HETATM   15  C   UNL     1     -10.678  16.313  67.621  1.00  0.00    -0.311 C  
BRANCH  15  16
HETATM   16  C   UNL     1     -10.644  17.687  66.933  1.00  0.00    -0.235 C  
HETATM   17  C   UNL     1      -9.719  18.775  67.530  1.00  0.00    -0.307 C  
HETATM   18  C   UNL     1      -9.911  20.063  66.677  1.00  0.00    -0.470 C  
HETATM   19  N   UNL     1     -10.096  19.094  68.934  1.00  0.00    -0.525 NA 
HETATM   20  C   UNL     1      -8.221  18.368  67.476  1.00  0.00    -0.248 C  
HETATM   21  O   UNL     1      -9.155  21.148  67.211  1.00  0.00    -0.559 OA 
HETATM   22  O   UNL     1      -7.940  17.247  68.310  1.00  0.00    -0.224 OA 
HETATM   23  H1  UNL     1      -9.486  19.811  69.328  1.00  0.00     0.000 HD 
HETATM   24  H2  UNL     1     -10.113  18.257  69.516  1.00  0.00     0.000 HD 
HETATM   25  H   UNL     1      -7.024  16.998  68.277  1.00  0.00     0.000 HD 
HETATM   26  H   UNL     1      -9.272  21.934  66.690  1.00  0.00     0.000 HD 
ENDBRANCH  15  16
ENDBRANCH  12  15
ENDBRANCH   8   9
ENDBRANCH   7   8
ENDBRANCH   6   7
ENDBRANCH   5   6
ENDBRANCH   4   5
ENDBRANCH   3   4
ENDBRANCH   2   3
TORSDOF 9
ENDMDL
MODEL       27
REMARK 921   NORMALIZED FREE ENERGY PREDICTED BY IDOCK:   -5.67 KCAL/MOL
REMARK 922        TOTAL FREE ENERGY PREDICTED BY IDOCK:   -9.76 KCAL/MOL
REMARK 923 INTER-LIGAND FREE ENERGY PREDICTED BY IDOCK:   -8.27 KCAL/MOL
REMARK 924 INTRA-LIGAND FREE ENERGY PREDICTED BY IDOCK:   -1.49 KCAL/MOL
REMARK 927      BINDING AFFINITY PREDICTED BY RF-SCORE:    0.00 PKD
ROOT
HETATM    1  C   UNL     1      -8.970   7.972  73.110  1.00  0.00    -0.333 C  
HETATM    2  C   UNL     1      -9.655   6.992  74.046  1.00  0.00    -0.308 C  
ENDROOT
BRANCH   2   3
HETATM    3  C   UNL     1      -9.741   5.602  73.424  1.00  0.00    -0.153 C  
BRANCH   3   4
HETATM    4  C   UNL     1      -8.931   5.531  72.133  1.00  0.00    -0.142 C  
BRANCH   4   5
HETATM    5  C   UNL     1      -9.800   5.060  70.972  1.00  0.00    -0.266 C  
BRANCH   5   6
HETATM    6  C   UNL     1     -10.002   6.178  69.952  1.00  0.00    -0.215 C  
BRANCH   6   7
HETATM    7  C   UNL     1     -11.484   6.492  69.796  1.00  0.00    -0.443 C  
BRANCH   7   8
HETATM    8  C   UNL     1     -12.136   6.782  71.150  1.00  0.00    -0.422 C  
BRANCH   8   9
HETATM    9  C   UNL     1     -12.383   8.257  71.333  1.00  0.00    -0.326 A  
HETATM   10  C   UNL     1     -13.494   8.690  72.062  1.00  0.00    -0.439 A  
HETATM   11  C   UNL     1     -13.772  10.046  72.190  1.00  0.00    -0.244 A  
HETATM   12  C   UNL     1     -12.924  11.009  71.631  1.00  0.00    -0.561 A  
HETATM   13  C   UNL     1     -11.535   9.209  70.761  1.00  0.00    -0.337 A  
HETATM   14  C   UNL     1     -11.803  10.572  70.912  1.00  0.00    -0.455 A  
BRANCH  12  15
HETATM   15  C   UNL     1     -13.234  12.488  71.707  1.00  0.00    -0.444 C  
BRANCH  15  16
HETATM   16  C   UNL     1     -12.307  13.363  70.846  1.00  0.00    -0.436 C  
HETATM   17  C   UNL     1     -12.327  14.892  71.083  1.00  0.00    -0.324 C  
HETATM   18  C   UNL     1     -11.341  15.530  70.061  1.00  0.00    -0.321 C  
HETATM   19  N   UNL     1     -13.678  15.461  70.833  1.00  0.00    -0.814 NA 
HETATM   20  C   UNL     1     -11.863  15.271  72.517  1.00  0.00    -0.431 C  
HETATM   21  O   UNL     1     -11.359  16.953  70.153  1.00  0.00    -0.345 OA 
HETATM   22  O   UNL     1     -12.767  14.803  73.514  1.00  0.00    -0.514 OA 
HETATM   23  H1  UNL     1     -13.692  16.469  70.990  1.00  0.00     0.000 HD 
HETATM   24  H2  UNL     1     -14.392  14.987  71.387  1.00  0.00     0.000 HD 
HETATM   25  H   UNL     1     -12.483  15.035  74.391  1.00  0.00     0.000 HD 
HETATM   26  H   UNL     1     -10.757  17.342  69.529  1.00  0.00     0.000 HD 
ENDBRANCH  15  16
ENDBRANCH  12  15
ENDBRANCH   8   9
ENDBRANCH   7   8
ENDBRANCH   6   7
ENDBRANCH   5   6
ENDBRANCH   4   5
ENDBRANCH   3   4
ENDBRANCH   2   3
TORSDOF 9
ENDMDL
MODEL       28
REMARK 921   NORMALIZED FREE ENERGY PREDICTED BY IDOCK:   -5.65 KCAL/MOL
REMARK 922        TOTAL FREE ENERGY PREDICTED BY IDOCK:   -9.74 KCAL/MOL
REMARK 923 INTER-LIGAND FREE ENERGY PREDICTED BY IDOCK:   -8.92 KCAL/MOL
REMARK 924 INTRA-LIGAND FREE ENERGY PREDICTED BY IDOCK:   -0.81 KCAL/MOL
REMARK 927      BINDING AFFINITY PREDICTED BY RF-SCORE:    0.00 PKD
ROOT
HETATM    1  C   UNL     1      -9.995   2.773  72.373  1.00  0.00    -0.235 C  
HETATM    2  C   UNL     1     -10.361   4.233  72.170  1.00  0.00    -0.193 C  
ENDROOT
BRANCH   2   3
HETATM    3  C   UNL     1     -11.170   4.769  73.348  1.00  0.00    -0.425 C  
BRANCH   3   4
HETATM    4  C   UNL     1     -10.290   5.595  74.281  1.00  0.00    -0.289 C  
BRANCH   4   5
HETATM    5  C   UNL     1      -9.415   6.560  73.489  1.00  0.00    -0.161 C  
BRANCH   5   6
HETATM    6  C   UNL     1     -10.101   7.914  73.328  1.00  0.00    -0.313 C  
BRANCH   6   7
HETATM    7  C   UNL     1     -10.180   8.297  71.855  1.00  0.00    -0.314 C  
BRANCH   7   8
HETATM    8  C   UNL     1     -11.305   9.302  71.602  1.00  0.00    -0.467 C  
BRANCH   8   9
HETATM    9  C   UNL     1     -11.213   9.888  70.217  1.00  0.00    -0.364 A  
HETATM   10  C   UNL     1     -11.739  11.158  69.963  1.00  0.00    -0.438 A  
HETATM   11  C   UNL     1     -11.717  11.689  68.678  1.00  0.00    -0.386 A  
HETATM   12  C   UNL     1     -11.131  10.986  67.621  1.00  0.00    -0.363 A  
HETATM   13  C   UNL     1     -10.634   9.172  69.166  1.00  0.00    -0.224 A  
HETATM   14  C   UNL     1     -10.592   9.718  67.880  1.00  0.00    -0.310 A  
BRANCH  12  15
HETATM   15  C   UNL     1     -11.145  11.515  66.203  1.00  0.00    -0.302 C  
BRANCH  15  16
HETATM   16  C   UNL     1     -11.729  12.932  66.074  1.00  0.00    -0.456 C  
HETATM   17  C   UNL     1     -11.578  13.658  64.715  1.00  0.00    -0.355 C  
HETATM   18  C   UNL     1     -12.209  15.071  64.874  1.00  0.00    -0.148 C  
HETATM   19  N   UNL     1     -10.145  13.833  64.351  1.00  0.00    -0.752 NA 
HETATM   20  C   UNL     1     -12.315  12.915  63.566  1.00  0.00    -0.434 C  
HETATM   21  O   UNL     1     -12.039  15.844  63.687  1.00  0.00    -1.223 OA 
HETATM   22  O   UNL     1     -11.735  11.643  63.292  1.00  0.00    -0.770 OA 
HETATM   23  H1  UNL     1     -10.046  14.311  63.456  1.00  0.00     0.000 HD 
HETATM   24  H2  UNL     1      -9.646  12.943  64.359  1.00  0.00     0.000 HD 
HETATM   25  H   UNL     1     -12.187  11.188  62.589  1.00  0.00     0.000 HD 
HETATM   26  H   UNL     1     -12.424  16.707  63.784  1.00  0.00     0.000 HD 
ENDBRANCH  15  16
ENDBRANCH  12  15
ENDBRANCH   8   9
ENDBRANCH   7   8
ENDBRANCH   6   7
ENDBRANCH   5   6
ENDBRANCH   4   5
ENDBRANCH   3   4
ENDBRANCH   2   3
TORSDOF 9
ENDMDL
MODEL       29
REMARK 921   NORMALIZED FREE ENERGY PREDICTED BY IDOCK:   -5.63 KCAL/MOL
REMARK 922        TOTAL FREE ENERGY PREDICTED BY IDOCK:   -9.70 KCAL/MOL
REMARK 923 INTER-LIGAND FREE ENERGY PREDICTED BY IDOCK:   -8.31 KCAL/MOL
REMARK 924 INTRA-LIGAND FREE ENERGY PREDICTED BY IDOCK:   -1.39 KCAL/MOL
REMARK 927      BINDING AFFINITY PREDICTED BY RF-SCORE:    0.00 PKD
ROOT
HETATM    1  C   UNL     1     -13.233   8.972  71.952  1.00  0.00    -0.462 C  
HETATM    2  C   UNL     1     -11.768   8.709  72.254  1.00  0.00    -0.428 C  
ENDROOT
BRANCH   2   3
HETATM    3  C   UNL     1     -11.439   7.223  72.139  1.00  0.00    -0.310 C  
BRANCH   3   4
HETATM    4  C   UNL     1     -11.960   6.649  70.825  1.00  0.00    -0.412 C  
BRANCH   4   5
HETATM    5  C   UNL     1     -10.822   6.051  70.005  1.00  0.00    -0.429 C  
BRANCH   5   6
HETATM    6  C   UNL     1     -10.960   6.419  68.530  1.00  0.00    -0.396 C  
BRANCH   6   7
HETATM    7  C   UNL     1      -9.779   7.271  68.083  1.00  0.00    -0.155 C  
BRANCH   7   8
HETATM    8  C   UNL     1     -10.188   8.256  66.985  1.00  0.00    -0.380 C  
BRANCH   8   9
HETATM    9  C   UNL     1     -10.574   9.591  67.566  1.00  0.00    -0.338 A  
HETATM   10  C   UNL     1     -10.571   9.773  68.952  1.00  0.00    -0.240 A  
HETATM   11  C   UNL     1     -10.982  10.980  69.507  1.00  0.00    -0.297 A  
HETATM   12  C   UNL     1     -11.365  12.052  68.694  1.00  0.00    -0.329 A  
HETATM   13  C   UNL     1     -10.964  10.652  66.744  1.00  0.00    -0.182 A  
HETATM   14  C   UNL     1     -11.354  11.871  67.304  1.00  0.00    -0.393 A  
BRANCH  12  15
HETATM   15  C   UNL     1     -11.871  13.355  69.274  1.00  0.00    -0.385 C  
BRANCH  15  16
HETATM   16  C   UNL     1     -12.444  13.223  70.695  1.00  0.00    -0.373 C  
HETATM   17  C   UNL     1     -12.521  14.499  71.568  1.00  0.00    -0.355 C  
HETATM   18  C   UNL     1     -13.090  14.077  72.954  1.00  0.00    -0.378 C  
HETATM   19  N   UNL     1     -11.172  15.087  71.786  1.00  0.00    -0.561 NA 
HETATM   20  C   UNL     1     -13.461  15.574  70.956  1.00  0.00    -0.368 C  
HETATM   21  O   UNL     1     -13.117  15.182  73.854  1.00  0.00    -0.599 OA 
HETATM   22  O   UNL     1     -12.960  16.085  69.723  1.00  0.00    -0.540 OA 
HETATM   23  H1  UNL     1     -11.222  15.929  72.361  1.00  0.00     0.000 HD 
HETATM   24  H2  UNL     1     -10.695  15.266  70.903  1.00  0.00     0.000 HD 
HETATM   25  H   UNL     1     -13.535  16.742  69.349  1.00  0.00     0.000 HD 
HETATM   26  H   UNL     1     -13.465  14.924  74.700  1.00  0.00     0.000 HD 
ENDBRANCH  15  16
ENDBRANCH  12  15
ENDBRANCH   8   9
ENDBRANCH   7   8
ENDBRANCH   6   7
ENDBRANCH   5   6
ENDBRANCH   4   5
ENDBRANCH   3   4
ENDBRANCH   2   3
TORSDOF 9
ENDMDL
MODEL       30
REMARK 921   NORMALIZED FREE ENERGY PREDICTED BY IDOCK:   -5.59 KCAL/MOL
REMARK 922        TOTAL FREE ENERGY PREDICTED BY IDOCK:   -9.63 KCAL/MOL
REMARK 923 INTER-LIGAND FREE ENERGY PREDICTED BY IDOCK:   -8.36 KCAL/MOL
REMARK 924 INTRA-LIGAND FREE ENERGY PREDICTED BY IDOCK:   -1.28 KCAL/MOL
REMARK 927      BINDING AFFINITY PREDICTED BY RF-SCORE:    0.00 PKD
ROOT
HETATM    1  C   UNL     1     -14.356   7.847  71.824  1.00  0.00    -0.589 C  
HETATM    2  C   UNL     1     -13.861   9.212  72.268  1.00  0.00    -0.527 C  
ENDROOT
BRANCH   2   3
HETATM    3  C   UNL     1     -12.576   9.597  71.539  1.00  0.00    -0.483 C  
BRANCH   3   4
HETATM    4  C   UNL     1     -11.739   8.362  71.220  1.00  0.00    -0.325 C  
BRANCH   4   5
HETATM    5  C   UNL     1     -10.254   8.649  71.413  1.00  0.00    -0.324 C  
BRANCH   5   6
HETATM    6  C   UNL     1      -9.425   8.006  70.304  1.00  0.00    -0.167 C  
BRANCH   6   7
HETATM    7  C   UNL     1     -10.247   7.891  69.026  1.00  0.00    -0.216 C  
BRANCH   7   8
HETATM    8  C   UNL     1      -9.539   8.562  67.847  1.00  0.00    -0.177 C  
BRANCH   8   9
HETATM    9  C   UNL     1     -10.276   9.797  67.399  1.00  0.00    -0.284 A  
HETATM   10  C   UNL     1     -10.116  10.266  66.092  1.00  0.00    -0.307 A  
HETATM   11  C   UNL     1     -10.741  11.437  65.679  1.00  0.00    -0.301 A  
HETATM   12  C   UNL     1     -11.577  12.149  66.545  1.00  0.00    -0.425 A  
HETATM   13  C   UNL     1     -11.102  10.506  68.276  1.00  0.00    -0.340 A  
HETATM   14  C   UNL     1     -11.747  11.670  67.851  1.00  0.00    -0.329 A  
BRANCH  12  15
HETATM   15  C   UNL     1     -12.222  13.456  66.139  1.00  0.00    -0.471 C  
BRANCH  15  16
HETATM   16  C   UNL     1     -11.542  14.699  66.737  1.00  0.00    -0.370 C  
HETATM   17  C   UNL     1     -10.675  15.573  65.800  1.00  0.00    -0.353 C  
HETATM   18  C   UNL     1     -10.078  16.723  66.663  1.00  0.00    -0.300 C  
HETATM   19  N   UNL     1      -9.544  14.794  65.227  1.00  0.00    -0.439 NA 
HETATM   20  C   UNL     1     -11.505  16.203  64.647  1.00  0.00    -0.224 C  
HETATM   21  O   UNL     1      -9.193  17.534  65.893  1.00  0.00    -0.508 OA 
HETATM   22  O   UNL     1     -12.012  15.217  63.752  1.00  0.00    -0.895 OA 
HETATM   23  H1  UNL     1      -8.972  15.370  64.609  1.00  0.00     0.000 HD 
HETATM   24  H2  UNL     1      -9.871  13.951  64.756  1.00  0.00     0.000 HD 
HETATM   25  H   UNL     1     -12.519  15.602  63.047  1.00  0.00     0.000 HD 
HETATM   26  H   UNL     1      -8.829  18.235  66.420  1.00  0.00     0.000 HD 
ENDBRANCH  15  16
ENDBRANCH  12  15
ENDBRANCH   8   9
ENDBRANCH   7   8
ENDBRANCH   6   7
ENDBRANCH   5   6
ENDBRANCH   4   5
ENDBRANCH   3   4
ENDBRANCH   2   3
TORSDOF 9
ENDMDL
MODEL       31
REMARK 921   NORMALIZED FREE ENERGY PREDICTED BY IDOCK:   -5.57 KCAL/MOL
REMARK 922        TOTAL FREE ENERGY PREDICTED BY IDOCK:   -9.62 KCAL/MOL
REMARK 923 INTER-LIGAND FREE ENERGY PREDICTED BY IDOCK:   -8.52 KCAL/MOL
REMARK 924 INTRA-LIGAND FREE ENERGY PREDICTED BY IDOCK:   -1.10 KCAL/MOL
REMARK 927      BINDING AFFINITY PREDICTED BY RF-SCORE:    0.00 PKD
ROOT
HETATM    1  C   UNL     1     -10.586   4.186  73.383  1.00  0.00    -0.277 C  
HETATM    2  C   UNL     1     -11.065   5.561  72.955  1.00  0.00    -0.350 C  
ENDROOT
BRANCH   2   3
HETATM    3  C   UNL     1     -10.778   5.812  71.478  1.00  0.00    -0.319 C  
BRANCH   3   4
HETATM    4  C   UNL     1     -11.832   6.730  70.866  1.00  0.00    -0.438 C  
BRANCH   4   5
HETATM    5  C   UNL     1     -12.561   7.516  71.949  1.00  0.00    -0.324 C  
BRANCH   5   6
HETATM    6  C   UNL     1     -13.961   7.913  71.487  1.00  0.00    -0.450 C  
BRANCH   6   7
HETATM    7  C   UNL     1     -14.129   9.427  71.545  1.00  0.00    -0.137 C  
BRANCH   7   8
HETATM    8  C   UNL     1     -12.824  10.116  71.952  1.00  0.00    -0.526 C  
BRANCH   8   9
HETATM    9  C   UNL     1     -12.303  10.994  70.845  1.00  0.00    -0.503 A  
HETATM   10  C   UNL     1     -11.481  10.448  69.854  1.00  0.00    -0.368 A  
HETATM   11  C   UNL     1     -10.942  11.256  68.859  1.00  0.00    -0.274 A  
HETATM   12  C   UNL     1     -11.242  12.621  68.799  1.00  0.00    -0.325 A  
HETATM   13  C   UNL     1     -12.602  12.358  70.801  1.00  0.00    -0.298 A  
HETATM   14  C   UNL     1     -12.078  13.163  69.786  1.00  0.00    -0.336 A  
BRANCH  12  15
HETATM   15  C   UNL     1     -10.623  13.532  67.762  1.00  0.00    -0.252 C  
BRANCH  15  16
HETATM   16  C   UNL     1     -10.744  13.007  66.321  1.00  0.00    -0.290 C  
HETATM   17  C   UNL     1     -11.556  13.850  65.308  1.00  0.00    -0.327 C  
HETATM   18  C   UNL     1     -11.553  13.076  63.957  1.00  0.00    -0.430 C  
HETATM   19  N   UNL     1     -12.969  14.006  65.745  1.00  0.00    -0.551 NA 
HETATM   20  C   UNL     1     -10.929  15.252  65.073  1.00  0.00    -0.437 C  
HETATM   21  O   UNL     1     -12.353  13.743  62.984  1.00  0.00    -1.089 OA 
HETATM   22  O   UNL     1     -10.978  16.064  66.243  1.00  0.00    -0.218 OA 
HETATM   23  H1  UNL     1     -13.505  14.562  65.077  1.00  0.00     0.000 HD 
HETATM   24  H2  UNL     1     -13.029  14.393  66.686  1.00  0.00     0.000 HD 
HETATM   25  H   UNL     1     -10.594  16.921  66.099  1.00  0.00     0.000 HD 
HETATM   26  H   UNL     1     -12.352  13.271  62.160  1.00  0.00     0.000 HD 
ENDBRANCH  15  16
ENDBRANCH  12  15
ENDBRANCH   8   9
ENDBRANCH   7   8
ENDBRANCH   6   7
ENDBRANCH   5   6
ENDBRANCH   4   5
ENDBRANCH   3   4
ENDBRANCH   2   3
TORSDOF 9
ENDMDL
MODEL       32
REMARK 921   NORMALIZED FREE ENERGY PREDICTED BY IDOCK:   -5.54 KCAL/MOL
REMARK 922        TOTAL FREE ENERGY PREDICTED BY IDOCK:   -9.56 KCAL/MOL
REMARK 923 INTER-LIGAND FREE ENERGY PREDICTED BY IDOCK:   -7.71 KCAL/MOL
REMARK 924 INTRA-LIGAND FREE ENERGY PREDICTED BY IDOCK:   -1.85 KCAL/MOL
REMARK 927      BINDING AFFINITY PREDICTED BY RF-SCORE:    0.00 PKD
ROOT
HETATM    1  C   UNL     1      -8.880   9.519  64.342  1.00  0.00    -0.251 C  
HETATM    2  C   UNL     1     -10.034  10.326  64.910  1.00  0.00    -0.393 C  
ENDROOT
BRANCH   2   3
HETATM    3  C   UNL     1     -10.552  11.341  63.895  1.00  0.00    -0.455 C  
BRANCH   3   4
HETATM    4  C   UNL     1     -11.809  12.034  64.410  1.00  0.00    -0.395 C  
BRANCH   4   5
HETATM    5  C   UNL     1     -12.146  13.252  63.556  1.00  0.00    -0.550 C  
BRANCH   5   6
HETATM    6  C   UNL     1     -12.296  14.501  64.421  1.00  0.00    -0.437 C  
BRANCH   6   7
HETATM    7  C   UNL     1     -10.928  15.026  64.837  1.00  0.00    -0.427 C  
BRANCH   7   8
HETATM    8  C   UNL     1     -10.894  15.370  66.328  1.00  0.00    -0.301 C  
BRANCH   8   9
HETATM    9  C   UNL     1     -10.753  14.129  67.171  1.00  0.00    -0.280 A  
HETATM   10  C   UNL     1      -9.547  13.422  67.169  1.00  0.00    -0.241 A  
HETATM   11  C   UNL     1      -9.418  12.242  67.893  1.00  0.00    -0.200 A  
HETATM   12  C   UNL     1     -10.473  11.760  68.674  1.00  0.00    -0.242 A  
HETATM   13  C   UNL     1     -11.817  13.651  67.940  1.00  0.00    -0.402 A  
HETATM   14  C   UNL     1     -11.677  12.478  68.686  1.00  0.00    -0.368 A  
BRANCH  12  15
HETATM   15  C   UNL     1     -10.378  10.449  69.426  1.00  0.00    -0.259 C  
BRANCH  15  16
HETATM   16  C   UNL     1     -11.619  10.128  70.276  1.00  0.00    -0.379 C  
HETATM   17  C   UNL     1     -11.664   8.763  71.006  1.00  0.00    -0.282 C  
HETATM   18  C   UNL     1     -13.031   8.681  71.745  1.00  0.00    -0.359 C  
HETATM   19  N   UNL     1     -11.595   7.632  70.042  1.00  0.00    -0.480 NA 
HETATM   20  C   UNL     1     -10.527   8.620  72.055  1.00  0.00    -0.352 C  
HETATM   21  O   UNL     1     -13.194   7.415  72.380  1.00  0.00    -0.485 OA 
HETATM   22  O   UNL     1      -9.238   8.590  71.448  1.00  0.00    -0.170 OA 
HETATM   23  H1  UNL     1     -11.624   6.733  70.523  1.00  0.00     0.000 HD 
HETATM   24  H2  UNL     1     -10.777   7.706  69.437  1.00  0.00     0.000 HD 
HETATM   25  H   UNL     1      -8.543   8.502  72.090  1.00  0.00     0.000 HD 
HETATM   26  H   UNL     1     -14.029   7.365  72.831  1.00  0.00     0.000 HD 
ENDBRANCH  15  16
ENDBRANCH  12  15
ENDBRANCH   8   9
ENDBRANCH   7   8
ENDBRANCH   6   7
ENDBRANCH   5   6
ENDBRANCH   4   5
ENDBRANCH   3   4
ENDBRANCH   2   3
TORSDOF 9
ENDMDL
MODEL       33
REMARK 921   NORMALIZED FREE ENERGY PREDICTED BY IDOCK:   -5.53 KCAL/MOL
REMARK 922        TOTAL FREE ENERGY PREDICTED BY IDOCK:   -9.55 KCAL/MOL
REMARK 923 INTER-LIGAND FREE ENERGY PREDICTED BY IDOCK:   -7.92 KCAL/MOL
REMARK 924 INTRA-LIGAND FREE ENERGY PREDICTED BY IDOCK:   -1.63 KCAL/MOL
REMARK 927      BINDING AFFINITY PREDICTED BY RF-SCORE:    0.00 PKD
ROOT
HETATM    1  C   UNL     1     -13.875  13.808  72.072  1.00  0.00    -0.576 C  
HETATM    2  C   UNL     1     -12.880  12.916  71.351  1.00  0.00    -0.377 C  
ENDROOT
BRANCH   2   3
HETATM    3  C   UNL     1     -13.102  11.447  71.697  1.00  0.00    -0.498 C  
BRANCH   3   4
HETATM    4  C   UNL     1     -12.590  10.541  70.581  1.00  0.00    -0.457 C  
BRANCH   4   5
HETATM    5  C   UNL     1     -11.201  10.005  70.912  1.00  0.00    -0.415 C  
BRANCH   5   6
HETATM    6  C   UNL     1     -10.343   9.898  69.655  1.00  0.00    -0.265 C  
BRANCH   6   7
HETATM    7  C   UNL     1     -11.212  10.008  68.408  1.00  0.00    -0.187 C  
BRANCH   7   8
HETATM    8  C   UNL     1     -10.521  10.834  67.320  1.00  0.00    -0.282 C  
BRANCH   8   9
HETATM    9  C   UNL     1     -10.526  12.301  67.662  1.00  0.00    -0.230 A  
HETATM   10  C   UNL     1      -9.315  12.983  67.811  1.00  0.00    -0.199 A  
HETATM   11  C   UNL     1      -9.299  14.322  68.186  1.00  0.00    -0.206 A  
HETATM   12  C   UNL     1     -10.491  15.028  68.379  1.00  0.00    -0.238 A  
HETATM   13  C   UNL     1     -11.723  12.993  67.863  1.00  0.00    -0.402 A  
HETATM   14  C   UNL     1     -11.704  14.345  68.216  1.00  0.00    -0.376 A  
BRANCH  12  15
HETATM   15  C   UNL     1     -10.501  16.469  68.842  1.00  0.00    -0.304 C  
BRANCH  15  16
HETATM   16  C   UNL     1     -10.724  17.485  67.710  1.00  0.00    -0.333 C  
HETATM   17  C   UNL     1      -9.907  18.800  67.744  1.00  0.00    -0.333 C  
HETATM   18  C   UNL     1     -10.356  19.653  66.522  1.00  0.00    -0.493 C  
HETATM   19  N   UNL     1     -10.189  19.580  68.978  1.00  0.00    -0.604 NA 
HETATM   20  C   UNL     1      -8.378  18.545  67.631  1.00  0.00    -0.255 C  
HETATM   21  O   UNL     1      -9.710  20.925  66.522  1.00  0.00    -0.593 OA 
HETATM   22  O   UNL     1      -7.867  17.846  68.763  1.00  0.00    -0.294 OA 
HETATM   23  H1  UNL     1      -9.650  20.447  69.001  1.00  0.00     0.000 HD 
HETATM   24  H2  UNL     1     -10.035  19.022  69.817  1.00  0.00     0.000 HD 
HETATM   25  H   UNL     1      -6.932  17.690  68.694  1.00  0.00     0.000 HD 
HETATM   26  H   UNL     1      -9.985  21.446  65.777  1.00  0.00     0.000 HD 
ENDBRANCH  15  16
ENDBRANCH  12  15
ENDBRANCH   8   9
ENDBRANCH   7   8
ENDBRANCH   6   7
ENDBRANCH   5   6
ENDBRANCH   4   5
ENDBRANCH   3   4
ENDBRANCH   2   3
TORSDOF 9
ENDMDL
MODEL       34
REMARK 921   NORMALIZED FREE ENERGY PREDICTED BY IDOCK:   -5.52 KCAL/MOL
REMARK 922        TOTAL FREE ENERGY PREDICTED BY IDOCK:   -9.54 KCAL/MOL
REMARK 923 INTER-LIGAND FREE ENERGY PREDICTED BY IDOCK:   -8.52 KCAL/MOL
REMARK 924 INTRA-LIGAND FREE ENERGY PREDICTED BY IDOCK:   -1.01 KCAL/MOL
REMARK 927      BINDING AFFINITY PREDICTED BY RF-SCORE:    0.00 PKD
ROOT
HETATM    1  C   UNL     1     -12.501  15.783  71.585  1.00  0.00    -0.525 C  
HETATM    2  C   UNL     1     -13.910  15.226  71.697  1.00  0.00    -0.615 C  
ENDROOT
BRANCH   2   3
HETATM    3  C   UNL     1     -13.905  13.829  72.310  1.00  0.00    -0.679 C  
BRANCH   3   4
HETATM    4  C   UNL     1     -13.034  12.879  71.494  1.00  0.00    -0.388 C  
BRANCH   4   5
HETATM    5  C   UNL     1     -13.139  11.454  72.027  1.00  0.00    -0.423 C  
BRANCH   5   6
HETATM    6  C   UNL     1     -12.776  10.439  70.947  1.00  0.00    -0.477 C  
BRANCH   6   7
HETATM    7  C   UNL     1     -11.523  10.882  70.202  1.00  0.00    -0.405 C  
BRANCH   7   8
HETATM    8  C   UNL     1     -11.769  10.955  68.693  1.00  0.00    -0.334 C  
BRANCH   8   9
HETATM    9  C   UNL     1     -11.034  12.115  68.075  1.00  0.00    -0.271 A  
HETATM   10  C   UNL     1      -9.696  12.347  68.408  1.00  0.00    -0.189 A  
HETATM   11  C   UNL     1      -9.020  13.448  67.894  1.00  0.00    -0.201 A  
HETATM   12  C   UNL     1      -9.645  14.322  66.999  1.00  0.00    -0.260 A  
HETATM   13  C   UNL     1     -11.672  12.988  67.190  1.00  0.00    -0.439 A  
HETATM   14  C   UNL     1     -10.983  14.080  66.656  1.00  0.00    -0.300 A  
BRANCH  12  15
HETATM   15  C   UNL     1      -8.950  15.558  66.471  1.00  0.00    -0.348 C  
BRANCH  15  16
HETATM   16  C   UNL     1      -9.001  16.759  67.430  1.00  0.00    -0.211 C  
HETATM   17  C   UNL     1      -9.230  18.164  66.822  1.00  0.00    -0.279 C  
HETATM   18  C   UNL     1      -9.193  19.186  67.996  1.00  0.00    -0.313 C  
HETATM   19  N   UNL     1      -8.148  18.523  65.867  1.00  0.00    -0.496 NA 
HETATM   20  C   UNL     1     -10.607  18.279  66.112  1.00  0.00    -0.303 C  
HETATM   21  O   UNL     1      -9.313  20.522  67.514  1.00  0.00    -0.380 OA 
HETATM   22  O   UNL     1     -10.689  17.440  64.963  1.00  0.00    -0.688 OA 
HETATM   23  H1  UNL     1      -8.299  19.448  65.466  1.00  0.00     0.000 HD 
HETATM   24  H2  UNL     1      -8.039  17.814  65.141  1.00  0.00     0.000 HD 
HETATM   25  H   UNL     1     -11.532  17.511  64.528  1.00  0.00     0.000 HD 
HETATM   26  H   UNL     1      -9.290  21.146  68.230  1.00  0.00     0.000 HD 
ENDBRANCH  15  16
ENDBRANCH  12  15
ENDBRANCH   8   9
ENDBRANCH   7   8
ENDBRANCH   6   7
ENDBRANCH   5   6
ENDBRANCH   4   5
ENDBRANCH   3   4
ENDBRANCH   2   3
TORSDOF 9
ENDMDL
MODEL       35
REMARK 921   NORMALIZED FREE ENERGY PREDICTED BY IDOCK:   -5.46 KCAL/MOL
REMARK 922        TOTAL FREE ENERGY PREDICTED BY IDOCK:   -9.44 KCAL/MOL
REMARK 923 INTER-LIGAND FREE ENERGY PREDICTED BY IDOCK:   -7.92 KCAL/MOL
REMARK 924 INTRA-LIGAND FREE ENERGY PREDICTED BY IDOCK:   -1.52 KCAL/MOL
REMARK 927      BINDING AFFINITY PREDICTED BY RF-SCORE:    0.00 PKD
ROOT
HETATM    1  C   UNL     1      -7.466   7.218  71.294  1.00  0.00    -0.079 C  
HETATM    2  C   UNL     1      -8.131   8.389  71.996  1.00  0.00    -0.194 C  
ENDROOT
BRANCH   2   3
HETATM    3  C   UNL     1      -8.280   8.125  73.492  1.00  0.00    -0.276 C  
BRANCH   3   4
HETATM    4  C   UNL     1      -8.992   6.800  73.743  1.00  0.00    -0.171 C  
BRANCH   4   5
HETATM    5  C   UNL     1     -10.505   6.976  73.674  1.00  0.00    -0.414 C  
BRANCH   5   6
HETATM    6  C   UNL     1     -11.084   6.257  72.458  1.00  0.00    -0.307 C  
BRANCH   6   7
HETATM    7  C   UNL     1     -11.940   7.213  71.635  1.00  0.00    -0.353 C  
BRANCH   7   8
HETATM    8  C   UNL     1     -11.907   8.628  72.216  1.00  0.00    -0.436 C  
BRANCH   8   9
HETATM    9  C   UNL     1     -11.819   9.664  71.126  1.00  0.00    -0.448 A  
HETATM   10  C   UNL     1     -12.423  10.912  71.302  1.00  0.00    -0.493 A  
HETATM   11  C   UNL     1     -12.403  11.858  70.283  1.00  0.00    -0.287 A  
HETATM   12  C   UNL     1     -11.742  11.601  69.077  1.00  0.00    -0.388 A  
HETATM   13  C   UNL     1     -11.163   9.392  69.921  1.00  0.00    -0.180 A  
HETATM   14  C   UNL     1     -11.124  10.354  68.908  1.00  0.00    -0.296 A  
BRANCH  12  15
HETATM   15  C   UNL     1     -11.754  12.590  67.932  1.00  0.00    -0.416 C  
BRANCH  15  16
HETATM   16  C   UNL     1     -11.244  12.009  66.602  1.00  0.00    -0.380 C  
HETATM   17  C   UNL     1     -11.522  12.809  65.307  1.00  0.00    -0.325 C  
HETATM   18  C   UNL     1     -10.944  11.982  64.121  1.00  0.00    -0.360 C  
HETATM   19  N   UNL     1     -12.982  12.979  65.079  1.00  0.00    -0.782 NA 
HETATM   20  C   UNL     1     -10.834  14.202  65.317  1.00  0.00    -0.349 C  
HETATM   21  O   UNL     1     -11.231  12.609  62.873  1.00  0.00    -0.647 OA 
HETATM   22  O   UNL     1     -11.375  15.059  66.319  1.00  0.00    -0.341 OA 
HETATM   23  H1  UNL     1     -13.166  13.507  64.226  1.00  0.00     0.000 HD 
HETATM   24  H2  UNL     1     -13.440  13.403  65.886  1.00  0.00     0.000 HD 
HETATM   25  H   UNL     1     -10.954  15.911  66.325  1.00  0.00     0.000 HD 
HETATM   26  H   UNL     1     -10.879  12.105  62.149  1.00  0.00     0.000 HD 
ENDBRANCH  15  16
ENDBRANCH  12  15
ENDBRANCH   8   9
ENDBRANCH   7   8
ENDBRANCH   6   7
ENDBRANCH   5   6
ENDBRANCH   4   5
ENDBRANCH   3   4
ENDBRANCH   2   3
TORSDOF 9
ENDMDL
MODEL       36
REMARK 921   NORMALIZED FREE ENERGY PREDICTED BY IDOCK:   -5.45 KCAL/MOL
REMARK 922        TOTAL FREE ENERGY PREDICTED BY IDOCK:   -9.42 KCAL/MOL
REMARK 923 INTER-LIGAND FREE ENERGY PREDICTED BY IDOCK:   -7.90 KCAL/MOL
REMARK 924 INTRA-LIGAND FREE ENERGY PREDICTED BY IDOCK:   -1.52 KCAL/MOL
REMARK 927      BINDING AFFINITY PREDICTED BY RF-SCORE:    0.00 PKD
ROOT
HETATM    1  C   UNL     1     -12.353  15.615  72.163  1.00  0.00    -0.517 C  
HETATM    2  C   UNL     1     -12.414  15.700  70.648  1.00  0.00    -0.463 C  
ENDROOT
BRANCH   2   3
HETATM    3  C   UNL     1     -11.045  16.026  70.057  1.00  0.00    -0.362 C  
BRANCH   3   4
HETATM    4  C   UNL     1     -11.156  16.348  68.570  1.00  0.00    -0.357 C  
BRANCH   4   5
HETATM    5  C   UNL     1     -10.032  15.680  67.785  1.00  0.00    -0.223 C  
BRANCH   5   6
HETATM    6  C   UNL     1     -10.542  15.146  66.449  1.00  0.00    -0.305 C  
BRANCH   6   7
HETATM    7  C   UNL     1     -10.186  13.672  66.297  1.00  0.00    -0.296 C  
BRANCH   7   8
HETATM    8  C   UNL     1     -11.436  12.790  66.346  1.00  0.00    -0.409 C  
BRANCH   8   9
HETATM    9  C   UNL     1     -11.494  11.997  67.625  1.00  0.00    -0.392 A  
HETATM   10  C   UNL     1     -12.026  12.578  68.780  1.00  0.00    -0.283 A  
HETATM   11  C   UNL     1     -12.033  11.882  69.984  1.00  0.00    -0.409 A  
HETATM   12  C   UNL     1     -11.550  10.572  70.058  1.00  0.00    -0.392 A  
HETATM   13  C   UNL     1     -10.999  10.692  67.690  1.00  0.00    -0.370 A  
HETATM   14  C   UNL     1     -11.029   9.986  68.896  1.00  0.00    -0.244 A  
BRANCH  12  15
HETATM   15  C   UNL     1     -11.493   9.814  71.367  1.00  0.00    -0.435 C  
BRANCH  15  16
HETATM   16  C   UNL     1     -10.364   8.772  71.434  1.00  0.00    -0.348 C  
HETATM   17  C   UNL     1     -10.744   7.312  71.782  1.00  0.00    -0.218 C  
HETATM   18  C   UNL     1      -9.423   6.490  71.826  1.00  0.00    -0.152 C  
HETATM   19  N   UNL     1     -11.384   7.224  73.122  1.00  0.00    -0.582 NA 
HETATM   20  C   UNL     1     -11.684   6.679  70.718  1.00  0.00    -0.388 C  
HETATM   21  O   UNL     1      -9.672   5.143  72.223  1.00  0.00    -0.156 OA 
HETATM   22  O   UNL     1     -12.957   7.318  70.680  1.00  0.00    -0.601 OA 
HETATM   23  H1  UNL     1     -11.635   6.262  73.352  1.00  0.00     0.000 HD 
HETATM   24  H2  UNL     1     -12.188   7.848  73.194  1.00  0.00     0.000 HD 
HETATM   25  H   UNL     1     -13.531   6.931  70.029  1.00  0.00     0.000 HD 
HETATM   26  H   UNL     1      -8.866   4.641  72.250  1.00  0.00     0.000 HD 
ENDBRANCH  15  16
ENDBRANCH  12  15
ENDBRANCH   8   9
ENDBRANCH   7   8
ENDBRANCH   6   7
ENDBRANCH   5   6
ENDBRANCH   4   5
ENDBRANCH   3   4
ENDBRANCH   2   3
TORSDOF 9
ENDMDL
MODEL       37
REMARK 921   NORMALIZED FREE ENERGY PREDICTED BY IDOCK:   -5.43 KCAL/MOL
REMARK 922        TOTAL FREE ENERGY PREDICTED BY IDOCK:   -9.40 KCAL/MOL
REMARK 923 INTER-LIGAND FREE ENERGY PREDICTED BY IDOCK:   -8.08 KCAL/MOL
REMARK 924 INTRA-LIGAND FREE ENERGY PREDICTED BY IDOCK:   -1.32 KCAL/MOL
REMARK 927      BINDING AFFINITY PREDICTED BY RF-SCORE:    0.00 PKD
ROOT
HETATM    1  C   UNL     1     -10.209   8.683  72.301  1.00  0.00    -0.372 C  
HETATM    2  C   UNL     1     -11.629   8.425  71.830  1.00  0.00    -0.372 C  
ENDROOT
BRANCH   2   3
HETATM    3  C   UNL     1     -11.834   6.955  71.472  1.00  0.00    -0.366 C  
BRANCH   3   4
HETATM    4  C   UNL     1     -10.517   6.306  71.059  1.00  0.00    -0.274 C  
BRANCH   4   5
HETATM    5  C   UNL     1     -10.725   5.354  69.887  1.00  0.00    -0.292 C  
BRANCH   5   6
HETATM    6  C   UNL     1      -9.797   5.705  68.727  1.00  0.00    -0.193 C  
BRANCH   6   7
HETATM    7  C   UNL     1     -10.571   6.419  67.625  1.00  0.00    -0.340 C  
BRANCH   7   8
HETATM    8  C   UNL     1      -9.686   7.425  66.886  1.00  0.00    -0.265 C  
BRANCH   8   9
HETATM    9  C   UNL     1     -10.208   8.829  67.041  1.00  0.00    -0.351 A  
HETATM   10  C   UNL     1     -10.129   9.722  65.968  1.00  0.00    -0.322 A  
HETATM   11  C   UNL     1     -10.551  11.039  66.112  1.00  0.00    -0.288 A  
HETATM   12  C   UNL     1     -11.102  11.489  67.315  1.00  0.00    -0.351 A  
HETATM   13  C   UNL     1     -10.748   9.271  68.252  1.00  0.00    -0.195 A  
HETATM   14  C   UNL     1     -11.193  10.589  68.386  1.00  0.00    -0.339 A  
BRANCH  12  15
HETATM   15  C   UNL     1     -11.515  12.932  67.516  1.00  0.00    -0.386 C  
BRANCH  15  16
HETATM   16  C   UNL     1     -12.104  13.591  66.258  1.00  0.00    -0.476 C  
HETATM   17  C   UNL     1     -11.355  14.804  65.656  1.00  0.00    -0.343 C  
HETATM   18  C   UNL     1     -12.182  15.297  64.433  1.00  0.00    -0.210 C  
HETATM   19  N   UNL     1     -11.267  15.924  66.632  1.00  0.00    -0.041 NA 
HETATM   20  C   UNL     1      -9.928  14.431  65.168  1.00  0.00    -0.233 C  
HETATM   21  O   UNL     1     -11.605  16.471  63.865  1.00  0.00    -1.598 OA 
HETATM   22  O   UNL     1      -9.074  14.057  66.246  1.00  0.00    -0.468 OA 
HETATM   23  H1  UNL     1     -10.773  16.724  66.236  1.00  0.00     0.000 HD 
HETATM   24  H2  UNL     1     -10.847  15.622  67.511  1.00  0.00     0.000 HD 
HETATM   25  H   UNL     1      -8.201  13.829  65.947  1.00  0.00     0.000 HD 
HETATM   26  H   UNL     1     -12.110  16.772  63.119  1.00  0.00     0.000 HD 
ENDBRANCH  15  16
ENDBRANCH  12  15
ENDBRANCH   8   9
ENDBRANCH   7   8
ENDBRANCH   6   7
ENDBRANCH   5   6
ENDBRANCH   4   5
ENDBRANCH   3   4
ENDBRANCH   2   3
TORSDOF 9
ENDMDL
MODEL       38
REMARK 921   NORMALIZED FREE ENERGY PREDICTED BY IDOCK:   -5.42 KCAL/MOL
REMARK 922        TOTAL FREE ENERGY PREDICTED BY IDOCK:   -9.38 KCAL/MOL
REMARK 923 INTER-LIGAND FREE ENERGY PREDICTED BY IDOCK:   -8.03 KCAL/MOL
REMARK 924 INTRA-LIGAND FREE ENERGY PREDICTED BY IDOCK:   -1.36 KCAL/MOL
REMARK 927      BINDING AFFINITY PREDICTED BY RF-SCORE:    0.00 PKD
ROOT
HETATM    1  C   UNL     1     -13.132  11.321  71.724  1.00  0.00    -0.527 C  
HETATM    2  C   UNL     1     -13.498   9.885  72.054  1.00  0.00    -0.478 C  
ENDROOT
BRANCH   2   3
HETATM    3  C   UNL     1     -12.264   8.987  72.058  1.00  0.00    -0.446 C  
BRANCH   3   4
HETATM    4  C   UNL     1     -12.498   7.737  71.215  1.00  0.00    -0.301 C  
BRANCH   4   5
HETATM    5  C   UNL     1     -11.178   7.182  70.690  1.00  0.00    -0.311 C  
BRANCH   5   6
HETATM    6  C   UNL     1     -11.347   6.604  69.288  1.00  0.00    -0.301 C  
BRANCH   6   7
HETATM    7  C   UNL     1     -10.611   7.463  68.267  1.00  0.00    -0.204 C  
BRANCH   7   8
HETATM    8  C   UNL     1      -9.957   8.677  68.931  1.00  0.00    -0.197 C  
BRANCH   8   9
HETATM    9  C   UNL     1     -10.460   9.965  68.331  1.00  0.00    -0.239 A  
HETATM   10  C   UNL     1     -10.811  11.030  69.166  1.00  0.00    -0.283 A  
HETATM   11  C   UNL     1     -11.333  12.203  68.633  1.00  0.00    -0.330 A  
HETATM   12  C   UNL     1     -11.479  12.362  67.251  1.00  0.00    -0.421 A  
HETATM   13  C   UNL     1     -10.611  10.108  66.949  1.00  0.00    -0.267 A  
HETATM   14  C   UNL     1     -11.114  11.297  66.415  1.00  0.00    -0.257 A  
BRANCH  12  15
HETATM   15  C   UNL     1     -12.098  13.605  66.650  1.00  0.00    -0.459 C  
BRANCH  15  16
HETATM   16  C   UNL     1     -11.341  14.902  66.983  1.00  0.00    -0.345 C  
HETATM   17  C   UNL     1     -10.382  15.477  65.913  1.00  0.00    -0.347 C  
HETATM   18  C   UNL     1      -9.723  16.749  66.521  1.00  0.00    -0.283 C  
HETATM   19  N   UNL     1      -9.299  14.512  65.583  1.00  0.00    -0.503 NA 
HETATM   20  C   UNL     1     -11.128  15.883  64.612  1.00  0.00    -0.354 C  
HETATM   21  O   UNL     1      -8.756  17.300  65.629  1.00  0.00    -0.473 OA 
HETATM   22  O   UNL     1     -11.684  14.756  63.940  1.00  0.00    -0.701 OA 
HETATM   23  H1  UNL     1      -8.667  14.891  64.877  1.00  0.00     0.000 HD 
HETATM   24  H2  UNL     1      -9.677  13.609  65.299  1.00  0.00     0.000 HD 
HETATM   25  H   UNL     1     -12.141  15.005  63.144  1.00  0.00     0.000 HD 
HETATM   26  H   UNL     1      -8.354  18.077  66.000  1.00  0.00     0.000 HD 
ENDBRANCH  15  16
ENDBRANCH  12  15
ENDBRANCH   8   9
ENDBRANCH   7   8
ENDBRANCH   6   7
ENDBRANCH   5   6
ENDBRANCH   4   5
ENDBRANCH   3   4
ENDBRANCH   2   3
TORSDOF 9
ENDMDL
MODEL       39
REMARK 921   NORMALIZED FREE ENERGY PREDICTED BY IDOCK:   -5.42 KCAL/MOL
REMARK 922        TOTAL FREE ENERGY PREDICTED BY IDOCK:   -9.38 KCAL/MOL
REMARK 923 INTER-LIGAND FREE ENERGY PREDICTED BY IDOCK:   -7.29 KCAL/MOL
REMARK 924 INTRA-LIGAND FREE ENERGY PREDICTED BY IDOCK:   -2.09 KCAL/MOL
REMARK 927      BINDING AFFINITY PREDICTED BY RF-SCORE:    0.00 PKD
ROOT
HETATM    1  C   UNL     1     -10.810   9.046  71.901  1.00  0.00    -0.413 C  
HETATM    2  C   UNL     1     -11.421   8.550  70.603  1.00  0.00    -0.249 C  
ENDROOT
BRANCH   2   3
HETATM    3  C   UNL     1     -11.773   7.068  70.688  1.00  0.00    -0.384 C  
BRANCH   3   4
HETATM    4  C   UNL     1     -10.978   6.260  69.668  1.00  0.00    -0.440 C  
BRANCH   4   5
HETATM    5  C   UNL     1      -9.928   5.396  70.359  1.00  0.00    -0.291 C  
BRANCH   5   6
HETATM    6  C   UNL     1      -8.528   5.721  69.842  1.00  0.00    -0.123 C  
BRANCH   6   7
HETATM    7  C   UNL     1      -8.119   7.126  70.266  1.00  0.00    -0.118 C  
BRANCH   7   8
HETATM    8  C   UNL     1      -7.472   7.889  69.108  1.00  0.00    -0.093 C  
BRANCH   8   9
HETATM    9  C   UNL     1      -8.440   8.860  68.484  1.00  0.00    -0.129 A  
HETATM   10  C   UNL     1      -8.603  10.132  69.039  1.00  0.00    -0.156 A  
HETATM   11  C   UNL     1      -9.536  11.019  68.514  1.00  0.00    -0.188 A  
HETATM   12  C   UNL     1     -10.300  10.678  67.393  1.00  0.00    -0.262 A  
HETATM   13  C   UNL     1      -9.206   8.503  67.371  1.00  0.00    -0.163 A  
HETATM   14  C   UNL     1     -10.126   9.406  66.830  1.00  0.00    -0.325 A  
BRANCH  12  15
HETATM   15  C   UNL     1     -11.362  11.602  66.837  1.00  0.00    -0.364 C  
BRANCH  15  16
HETATM   16  C   UNL     1     -10.951  13.083  66.820  1.00  0.00    -0.299 C  
HETATM   17  C   UNL     1     -11.160  13.879  65.508  1.00  0.00    -0.304 C  
HETATM   18  C   UNL     1     -10.625  15.320  65.753  1.00  0.00    -0.347 C  
HETATM   19  N   UNL     1     -10.384  13.285  64.386  1.00  0.00    -0.544 NA 
HETATM   20  C   UNL     1     -12.659  13.971  65.109  1.00  0.00    -0.428 C  
HETATM   21  O   UNL     1     -10.702  16.102  64.563  1.00  0.00    -0.828 OA 
HETATM   22  O   UNL     1     -13.204  12.697  64.776  1.00  0.00    -0.846 OA 
HETATM   23  H1  UNL     1     -10.522  13.809  63.522  1.00  0.00     0.000 HD 
HETATM   24  H2  UNL     1     -10.602  12.296  64.263  1.00  0.00     0.000 HD 
HETATM   25  H   UNL     1     -14.121  12.754  64.532  1.00  0.00     0.000 HD 
HETATM   26  H   UNL     1     -10.375  16.982  64.712  1.00  0.00     0.000 HD 
ENDBRANCH  15  16
ENDBRANCH  12  15
ENDBRANCH   8   9
ENDBRANCH   7   8
ENDBRANCH   6   7
ENDBRANCH   5   6
ENDBRANCH   4   5
ENDBRANCH   3   4
ENDBRANCH   2   3
TORSDOF 9
ENDMDL
MODEL       40
REMARK 921   NORMALIZED FREE ENERGY PREDICTED BY IDOCK:   -5.42 KCAL/MOL
REMARK 922        TOTAL FREE ENERGY PREDICTED BY IDOCK:   -9.38 KCAL/MOL
REMARK 923 INTER-LIGAND FREE ENERGY PREDICTED BY IDOCK:   -8.30 KCAL/MOL
REMARK 924 INTRA-LIGAND FREE ENERGY PREDICTED BY IDOCK:   -1.08 KCAL/MOL
REMARK 927      BINDING AFFINITY PREDICTED BY RF-SCORE:    0.00 PKD
ROOT
HETATM    1  C   UNL     1     -10.332  18.749  66.219  1.00  0.00    -0.497 C  
HETATM    2  C   UNL     1     -10.280  17.425  66.960  1.00  0.00    -0.323 C  
ENDROOT
BRANCH   2   3
HETATM    3  C   UNL     1      -9.206  16.509  66.381  1.00  0.00    -0.327 C  
BRANCH   3   4
HETATM    4  C   UNL     1      -9.723  15.079  66.251  1.00  0.00    -0.316 C  
BRANCH   4   5
HETATM    5  C   UNL     1     -11.213  15.067  65.927  1.00  0.00    -0.313 C  
BRANCH   5   6
HETATM    6  C   UNL     1     -11.991  14.261  66.963  1.00  0.00    -0.463 C  
BRANCH   6   7
HETATM    7  C   UNL     1     -11.070  13.824  68.096  1.00  0.00    -0.282 C  
BRANCH   7   8
HETATM    8  C   UNL     1     -11.747  13.991  69.459  1.00  0.00    -0.367 C  
BRANCH   8   9
HETATM    9  C   UNL     1     -12.025  12.656  70.097  1.00  0.00    -0.375 A  
HETATM   10  C   UNL     1     -12.861  12.581  71.215  1.00  0.00    -0.337 A  
HETATM   11  C   UNL     1     -13.081  11.366  71.854  1.00  0.00    -0.505 A  
HETATM   12  C   UNL     1     -12.509  10.186  71.369  1.00  0.00    -0.524 A  
HETATM   13  C   UNL     1     -11.440  11.484  69.610  1.00  0.00    -0.373 A  
HETATM   14  C   UNL     1     -11.682  10.261  70.239  1.00  0.00    -0.388 A  
BRANCH  12  15
HETATM   15  C   UNL     1     -12.686   8.861  72.079  1.00  0.00    -0.456 C  
BRANCH  15  16
HETATM   16  C   UNL     1     -11.365   8.213  72.526  1.00  0.00    -0.469 C  
HETATM   17  C   UNL     1     -11.138   6.720  72.187  1.00  0.00    -0.250 C  
HETATM   18  C   UNL     1      -9.760   6.315  72.787  1.00  0.00    -0.158 C  
HETATM   19  N   UNL     1     -12.180   5.859  72.810  1.00  0.00    -0.520 NA 
HETATM   20  C   UNL     1     -11.103   6.463  70.655  1.00  0.00    -0.317 C  
HETATM   21  O   UNL     1      -9.506   4.925  72.593  1.00  0.00    -0.135 OA 
HETATM   22  O   UNL     1     -12.362   6.720  70.040  1.00  0.00    -0.605 OA 
HETATM   23  H1  UNL     1     -12.031   4.875  72.587  1.00  0.00     0.000 HD 
HETATM   24  H2  UNL     1     -13.119   6.163  72.552  1.00  0.00     0.000 HD 
HETATM   25  H   UNL     1     -12.341   6.563  69.103  1.00  0.00     0.000 HD 
HETATM   26  H   UNL     1      -8.665   4.678  72.959  1.00  0.00     0.000 HD 
ENDBRANCH  15  16
ENDBRANCH  12  15
ENDBRANCH   8   9
ENDBRANCH   7   8
ENDBRANCH   6   7
ENDBRANCH   5   6
ENDBRANCH   4   5
ENDBRANCH   3   4
ENDBRANCH   2   3
TORSDOF 9
ENDMDL
MODEL       41
REMARK 921   NORMALIZED FREE ENERGY PREDICTED BY IDOCK:   -5.42 KCAL/MOL
REMARK 922        TOTAL FREE ENERGY PREDICTED BY IDOCK:   -9.38 KCAL/MOL
REMARK 923 INTER-LIGAND FREE ENERGY PREDICTED BY IDOCK:   -8.40 KCAL/MOL
REMARK 924 INTRA-LIGAND FREE ENERGY PREDICTED BY IDOCK:   -0.98 KCAL/MOL
REMARK 927      BINDING AFFINITY PREDICTED BY RF-SCORE:    0.00 PKD
ROOT
HETATM    1  C   UNL     1      -9.965  19.855  65.989  1.00  0.00    -0.560 C  
HETATM    2  C   UNL     1     -10.850  19.474  67.163  1.00  0.00    -0.555 C  
ENDROOT
BRANCH   2   3
HETATM    3  C   UNL     1     -10.020  19.195  68.413  1.00  0.00    -0.493 C  
BRANCH   3   4
HETATM    4  C   UNL     1     -10.093  17.721  68.797  1.00  0.00    -0.381 C  
BRANCH   4   5
HETATM    5  C   UNL     1      -9.183  16.882  67.907  1.00  0.00    -0.234 C  
BRANCH   5   6
HETATM    6  C   UNL     1      -9.994  15.897  67.070  1.00  0.00    -0.248 C  
BRANCH   6   7
HETATM    7  C   UNL     1     -11.268  15.499  67.805  1.00  0.00    -0.302 C  
BRANCH   7   8
HETATM    8  C   UNL     1     -11.844  14.193  67.253  1.00  0.00    -0.452 C  
BRANCH   8   9
HETATM    9  C   UNL     1     -11.818  13.102  68.291  1.00  0.00    -0.384 A  
HETATM   10  C   UNL     1     -11.497  11.795  67.917  1.00  0.00    -0.387 A  
HETATM   11  C   UNL     1     -11.527  10.764  68.850  1.00  0.00    -0.362 A  
HETATM   12  C   UNL     1     -11.836  11.018  70.191  1.00  0.00    -0.441 A  
HETATM   13  C   UNL     1     -12.139  13.366  69.626  1.00  0.00    -0.349 A  
HETATM   14  C   UNL     1     -12.145  12.333  70.566  1.00  0.00    -0.371 A  
BRANCH  12  15
HETATM   15  C   UNL     1     -11.932   9.907  71.214  1.00  0.00    -0.489 C  
BRANCH  15  16
HETATM   16  C   UNL     1     -10.584   9.245  71.543  1.00  0.00    -0.405 C  
HETATM   17  C   UNL     1     -10.581   7.738  71.894  1.00  0.00    -0.223 C  
HETATM   18  C   UNL     1      -9.112   7.343  72.223  1.00  0.00    -0.132 C  
HETATM   19  N   UNL     1     -11.412   7.461  73.097  1.00  0.00    -0.604 NA 
HETATM   20  C   UNL     1     -11.075   6.858  70.712  1.00  0.00    -0.275 C  
HETATM   21  O   UNL     1      -9.030   5.982  72.641  1.00  0.00    -0.129 OA 
HETATM   22  O   UNL     1     -12.447   7.091  70.406  1.00  0.00    -0.622 OA 
HETATM   23  H1  UNL     1     -11.411   6.468  73.328  1.00  0.00     0.000 HD 
HETATM   24  H2  UNL     1     -12.360   7.819  72.986  1.00  0.00     0.000 HD 
HETATM   25  H   UNL     1     -12.748   6.553  69.683  1.00  0.00     0.000 HD 
HETATM   26  H   UNL     1      -8.133   5.741  72.842  1.00  0.00     0.000 HD 
ENDBRANCH  15  16
ENDBRANCH  12  15
ENDBRANCH   8   9
ENDBRANCH   7   8
ENDBRANCH   6   7
ENDBRANCH   5   6
ENDBRANCH   4   5
ENDBRANCH   3   4
ENDBRANCH   2   3
TORSDOF 9
ENDMDL
MODEL       42
REMARK 921   NORMALIZED FREE ENERGY PREDICTED BY IDOCK:   -5.42 KCAL/MOL
REMARK 922        TOTAL FREE ENERGY PREDICTED BY IDOCK:   -9.38 KCAL/MOL
REMARK 923 INTER-LIGAND FREE ENERGY PREDICTED BY IDOCK:   -8.36 KCAL/MOL
REMARK 924 INTRA-LIGAND FREE ENERGY PREDICTED BY IDOCK:   -1.02 KCAL/MOL
REMARK 927      BINDING AFFINITY PREDICTED BY RF-SCORE:    0.00 PKD
ROOT
HETATM    1  C   UNL     1     -10.094  20.042  66.892  1.00  0.00    -0.601 C  
HETATM    2  C   UNL     1     -10.149  19.056  68.045  1.00  0.00    -0.458 C  
ENDROOT
BRANCH   2   3
HETATM    3  C   UNL     1      -8.963  18.096  68.008  1.00  0.00    -0.289 C  
BRANCH   3   4
HETATM    4  C   UNL     1      -9.415  16.686  67.640  1.00  0.00    -0.226 C  
BRANCH   4   5
HETATM    5  C   UNL     1      -8.916  16.302  66.251  1.00  0.00    -0.366 C  
BRANCH   5   6
HETATM    6  C   UNL     1      -9.749  15.164  65.667  1.00  0.00    -0.351 C  
BRANCH   6   7
HETATM    7  C   UNL     1     -11.043  14.996  66.455  1.00  0.00    -0.329 C  
BRANCH   7   8
HETATM    8  C   UNL     1     -11.699  13.644  66.163  1.00  0.00    -0.391 C  
BRANCH   8   9
HETATM    9  C   UNL     1     -11.616  12.728  67.356  1.00  0.00    -0.415 A  
HETATM   10  C   UNL     1     -11.860  13.232  68.637  1.00  0.00    -0.380 A  
HETATM   11  C   UNL     1     -11.729  12.416  69.755  1.00  0.00    -0.361 A  
HETATM   12  C   UNL     1     -11.395  11.064  69.622  1.00  0.00    -0.363 A  
HETATM   13  C   UNL     1     -11.272  11.381  67.212  1.00  0.00    -0.370 A  
HETATM   14  C   UNL     1     -11.165  10.557  68.336  1.00  0.00    -0.339 A  
BRANCH  12  15
HETATM   15  C   UNL     1     -11.190  10.169  70.825  1.00  0.00    -0.414 C  
BRANCH  15  16
HETATM   16  C   UNL     1     -11.769   8.755  70.655  1.00  0.00    -0.194 C  
HETATM   17  C   UNL     1     -12.649   8.188  71.795  1.00  0.00    -0.330 C  
HETATM   18  C   UNL     1     -13.059   6.743  71.386  1.00  0.00    -0.143 C  
HETATM   19  N   UNL     1     -11.892   8.106  73.073  1.00  0.00    -0.559 NA 
HETATM   20  C   UNL     1     -13.940   9.024  72.012  1.00  0.00    -0.410 C  
HETATM   21  O   UNL     1     -13.807   6.111  72.423  1.00  0.00    -0.461 OA 
HETATM   22  O   UNL     1     -13.655  10.339  72.480  1.00  0.00    -0.607 OA 
HETATM   23  H1  UNL     1     -12.472   7.733  73.825  1.00  0.00     0.000 HD 
HETATM   24  H2  UNL     1     -11.486   9.007  73.325  1.00  0.00     0.000 HD 
HETATM   25  H   UNL     1     -14.445  10.850  72.613  1.00  0.00     0.000 HD 
HETATM   26  H   UNL     1     -14.057   5.229  72.174  1.00  0.00     0.000 HD 
ENDBRANCH  15  16
ENDBRANCH  12  15
ENDBRANCH   8   9
ENDBRANCH   7   8
ENDBRANCH   6   7
ENDBRANCH   5   6
ENDBRANCH   4   5
ENDBRANCH   3   4
ENDBRANCH   2   3
TORSDOF 9
ENDMDL
MODEL       43
REMARK 921   NORMALIZED FREE ENERGY PREDICTED BY IDOCK:   -5.40 KCAL/MOL
REMARK 922        TOTAL FREE ENERGY PREDICTED BY IDOCK:   -9.34 KCAL/MOL
REMARK 923 INTER-LIGAND FREE ENERGY PREDICTED BY IDOCK:   -7.51 KCAL/MOL
REMARK 924 INTRA-LIGAND FREE ENERGY PREDICTED BY IDOCK:   -1.84 KCAL/MOL
REMARK 927      BINDING AFFINITY PREDICTED BY RF-SCORE:    0.00 PKD
ROOT
HETATM    1  C   UNL     1     -11.490  11.506  70.038  1.00  0.00    -0.304 C  
HETATM    2  C   UNL     1     -12.260  10.698  71.068  1.00  0.00    -0.498 C  
ENDROOT
BRANCH   2   3
HETATM    3  C   UNL     1     -13.153  11.595  71.920  1.00  0.00    -0.490 C  
BRANCH   3   4
HETATM    4  C   UNL     1     -13.077  13.044  71.449  1.00  0.00    -0.336 C  
BRANCH   4   5
HETATM    5  C   UNL     1     -13.578  13.994  72.532  1.00  0.00    -0.670 C  
BRANCH   5   6
HETATM    6  C   UNL     1     -13.065  15.411  72.295  1.00  0.00    -0.496 C  
BRANCH   6   7
HETATM    7  C   UNL     1     -11.603  15.382  71.866  1.00  0.00    -0.521 C  
BRANCH   7   8
HETATM    8  C   UNL     1     -11.380  16.208  70.597  1.00  0.00    -0.394 C  
BRANCH   8   9
HETATM    9  C   UNL     1     -11.160  15.320  69.399  1.00  0.00    -0.283 A  
HETATM   10  C   UNL     1     -12.253  14.896  68.639  1.00  0.00    -0.101 A  
HETATM   11  C   UNL     1     -12.075  14.028  67.567  1.00  0.00    -0.361 A  
HETATM   12  C   UNL     1     -10.797  13.596  67.198  1.00  0.00    -0.292 A  
HETATM   13  C   UNL     1      -9.879  14.887  69.046  1.00  0.00    -0.220 A  
HETATM   14  C   UNL     1      -9.700  14.034  67.954  1.00  0.00    -0.229 A  
BRANCH  12  15
HETATM   15  C   UNL     1     -10.581  12.607  66.072  1.00  0.00    -0.294 C  
BRANCH  15  16
HETATM   16  C   UNL     1     -10.813  11.142  66.478  1.00  0.00    -0.302 C  
HETATM   17  C   UNL     1      -9.781  10.087  66.010  1.00  0.00    -0.240 C  
HETATM   18  C   UNL     1     -10.277   8.701  66.515  1.00  0.00    -0.225 C  
HETATM   19  N   UNL     1      -9.699  10.033  64.526  1.00  0.00    -0.376 NA 
HETATM   20  C   UNL     1      -8.367  10.348  66.597  1.00  0.00    -0.127 C  
HETATM   21  O   UNL     1      -9.425   7.655  66.055  1.00  0.00    -0.386 OA 
HETATM   22  O   UNL     1      -7.798  11.560  66.108  1.00  0.00    -0.365 OA 
HETATM   23  H1  UNL     1      -9.019   9.338  64.217  1.00  0.00     0.000 HD 
HETATM   24  H2  UNL     1      -9.502  10.951  64.128  1.00  0.00     0.000 HD 
HETATM   25  H   UNL     1      -6.933  11.719  66.467  1.00  0.00     0.000 HD 
HETATM   26  H   UNL     1      -9.728   6.808  66.363  1.00  0.00     0.000 HD 
ENDBRANCH  15  16
ENDBRANCH  12  15
ENDBRANCH   8   9
ENDBRANCH   7   8
ENDBRANCH   6   7
ENDBRANCH   5   6
ENDBRANCH   4   5
ENDBRANCH   3   4
ENDBRANCH   2   3
TORSDOF 9
ENDMDL
MODEL       44
REMARK 921   NORMALIZED FREE ENERGY PREDICTED BY IDOCK:   -5.39 KCAL/MOL
REMARK 922        TOTAL FREE ENERGY PREDICTED BY IDOCK:   -9.33 KCAL/MOL
REMARK 923 INTER-LIGAND FREE ENERGY PREDICTED BY IDOCK:   -6.98 KCAL/MOL
REMARK 924 INTRA-LIGAND FREE ENERGY PREDICTED BY IDOCK:   -2.35 KCAL/MOL
REMARK 927      BINDING AFFINITY PREDICTED BY RF-SCORE:    0.00 PKD
ROOT
HETATM    1  C   UNL     1      -8.026  12.445  68.475  1.00  0.00    -0.110 C  
HETATM    2  C   UNL     1      -7.542  11.303  67.599  1.00  0.00    -0.106 C  
ENDROOT
BRANCH   2   3
HETATM    3  C   UNL     1      -7.035  10.136  68.441  1.00  0.00    -0.066 C  
BRANCH   3   4
HETATM    4  C   UNL     1      -7.524  10.251  69.882  1.00  0.00    -0.165 C  
BRANCH   4   5
HETATM    5  C   UNL     1      -7.364   8.924  70.616  1.00  0.00    -0.080 C  
BRANCH   5   6
HETATM    6  C   UNL     1      -8.373   8.806  71.755  1.00  0.00    -0.161 C  
BRANCH   6   7
HETATM    7  C   UNL     1      -9.569   7.968  71.320  1.00  0.00    -0.191 C  
BRANCH   7   8
HETATM    8  C   UNL     1     -10.866   8.780  71.375  1.00  0.00    -0.359 C  
BRANCH   8   9
HETATM    9  C   UNL     1     -11.076   9.559  70.102  1.00  0.00    -0.294 A  
HETATM   10  C   UNL     1     -10.710   8.998  68.876  1.00  0.00    -0.149 A  
HETATM   11  C   UNL     1     -10.841   9.725  67.698  1.00  0.00    -0.301 A  
HETATM   12  C   UNL     1     -11.382  11.015  67.707  1.00  0.00    -0.365 A  
HETATM   13  C   UNL     1     -11.609  10.850  70.125  1.00  0.00    -0.425 A  
HETATM   14  C   UNL     1     -11.762  11.570  68.937  1.00  0.00    -0.403 A  
BRANCH  12  15
HETATM   15  C   UNL     1     -11.482  11.849  66.448  1.00  0.00    -0.371 C  
BRANCH  15  16
HETATM   16  C   UNL     1     -11.175  13.340  66.663  1.00  0.00    -0.332 C  
HETATM   17  C   UNL     1     -11.142  14.261  65.419  1.00  0.00    -0.327 C  
HETATM   18  C   UNL     1     -10.770  15.689  65.913  1.00  0.00    -0.329 C  
HETATM   19  N   UNL     1     -10.101  13.824  64.450  1.00  0.00    -0.752 NA 
HETATM   20  C   UNL     1     -12.519  14.330  64.702  1.00  0.00    -0.351 C  
HETATM   21  O   UNL     1     -10.634  16.590  64.815  1.00  0.00    -0.684 OA 
HETATM   22  O   UNL     1     -12.892  13.077  64.136  1.00  0.00    -0.660 OA 
HETATM   23  H1  UNL     1     -10.079  14.430  63.630  1.00  0.00     0.000 HD 
HETATM   24  H2  UNL     1     -10.221  12.845  64.189  1.00  0.00     0.000 HD 
HETATM   25  H   UNL     1     -13.735  13.120  63.698  1.00  0.00     0.000 HD 
HETATM   26  H   UNL     1     -10.407  17.462  65.117  1.00  0.00     0.000 HD 
ENDBRANCH  15  16
ENDBRANCH  12  15
ENDBRANCH   8   9
ENDBRANCH   7   8
ENDBRANCH   6   7
ENDBRANCH   5   6
ENDBRANCH   4   5
ENDBRANCH   3   4
ENDBRANCH   2   3
TORSDOF 9
ENDMDL
MODEL       45
REMARK 921   NORMALIZED FREE ENERGY PREDICTED BY IDOCK:   -5.37 KCAL/MOL
REMARK 922        TOTAL FREE ENERGY PREDICTED BY IDOCK:   -9.30 KCAL/MOL
REMARK 923 INTER-LIGAND FREE ENERGY PREDICTED BY IDOCK:   -6.89 KCAL/MOL
REMARK 924 INTRA-LIGAND FREE ENERGY PREDICTED BY IDOCK:   -2.41 KCAL/MOL
REMARK 927      BINDING AFFINITY PREDICTED BY RF-SCORE:    0.00 PKD
ROOT
HETATM    1  C   UNL     1     -11.577  15.691  64.590  1.00  0.00    -0.249 C  
HETATM    2  C   UNL     1     -10.942  14.321  64.432  1.00  0.00    -0.204 C  
ENDROOT
BRANCH   2   3
HETATM    3  C   UNL     1     -12.002  13.236  64.265  1.00  0.00    -0.477 C  
BRANCH   3   4
HETATM    4  C   UNL     1     -11.444  12.044  63.494  1.00  0.00    -0.536 C  
BRANCH   4   5
HETATM    5  C   UNL     1     -10.089  11.623  64.053  1.00  0.00    -0.362 C  
BRANCH   5   6
HETATM    6  C   UNL     1     -10.220  10.369  64.914  1.00  0.00    -0.330 C  
BRANCH   6   7
HETATM    7  C   UNL     1      -9.554  10.583  66.268  1.00  0.00    -0.232 C  
BRANCH   7   8
HETATM    8  C   UNL     1     -10.574  11.009  67.327  1.00  0.00    -0.287 C  
BRANCH   8   9
HETATM    9  C   UNL     1     -10.512  12.494  67.577  1.00  0.00    -0.231 A  
HETATM   10  C   UNL     1      -9.292  13.166  67.470  1.00  0.00    -0.207 A  
HETATM   11  C   UNL     1      -9.205  14.524  67.756  1.00  0.00    -0.194 A  
HETATM   12  C   UNL     1     -10.341  15.257  68.114  1.00  0.00    -0.242 A  
HETATM   13  C   UNL     1     -11.653  13.213  67.944  1.00  0.00    -0.375 A  
HETATM   14  C   UNL     1     -11.567  14.583  68.208  1.00  0.00    -0.358 A  
BRANCH  12  15
HETATM   15  C   UNL     1     -10.264  16.722  68.487  1.00  0.00    -0.298 C  
BRANCH  15  16
HETATM   16  C   UNL     1      -8.978  17.418  68.012  1.00  0.00    -0.255 C  
HETATM   17  C   UNL     1      -9.118  18.742  67.223  1.00  0.00    -0.277 C  
HETATM   18  C   UNL     1      -7.683  19.200  66.832  1.00  0.00    -0.238 C  
HETATM   19  N   UNL     1      -9.894  18.545  65.969  1.00  0.00    -0.529 NA 
HETATM   20  C   UNL     1      -9.780  19.864  68.070  1.00  0.00    -0.393 C  
HETATM   21  O   UNL     1      -7.723  20.376  66.026  1.00  0.00    -0.499 OA 
HETATM   22  O   UNL     1     -11.135  19.563  68.392  1.00  0.00    -0.116 OA 
HETATM   23  H1  UNL     1      -9.987  19.417  65.449  1.00  0.00     0.000 HD 
HETATM   24  H2  UNL     1     -10.803  18.121  66.155  1.00  0.00     0.000 HD 
HETATM   25  H   UNL     1     -11.540  20.250  68.910  1.00  0.00     0.000 HD 
HETATM   26  H   UNL     1      -6.847  20.656  65.788  1.00  0.00     0.000 HD 
ENDBRANCH  15  16
ENDBRANCH  12  15
ENDBRANCH   8   9
ENDBRANCH   7   8
ENDBRANCH   6   7
ENDBRANCH   5   6
ENDBRANCH   4   5
ENDBRANCH   3   4
ENDBRANCH   2   3
TORSDOF 9
ENDMDL
MODEL       46
REMARK 921   NORMALIZED FREE ENERGY PREDICTED BY IDOCK:   -5.35 KCAL/MOL
REMARK 922        TOTAL FREE ENERGY PREDICTED BY IDOCK:   -9.28 KCAL/MOL
REMARK 923 INTER-LIGAND FREE ENERGY PREDICTED BY IDOCK:   -7.83 KCAL/MOL
REMARK 924 INTRA-LIGAND FREE ENERGY PREDICTED BY IDOCK:   -1.45 KCAL/MOL
REMARK 927      BINDING AFFINITY PREDICTED BY RF-SCORE:    0.00 PKD
ROOT
HETATM    1  C   UNL     1     -10.970   6.775  67.239  1.00  0.00    -0.433 C  
HETATM    2  C   UNL     1     -10.753   7.110  68.704  1.00  0.00    -0.198 C  
ENDROOT
BRANCH   2   3
HETATM    3  C   UNL     1     -10.601   5.846  69.544  1.00  0.00    -0.378 C  
BRANCH   3   4
HETATM    4  C   UNL     1     -11.080   6.080  70.974  1.00  0.00    -0.348 C  
BRANCH   4   5
HETATM    5  C   UNL     1     -10.497   7.372  71.536  1.00  0.00    -0.219 C  
BRANCH   5   6
HETATM    6  C   UNL     1     -11.456   8.014  72.535  1.00  0.00    -0.471 C  
BRANCH   6   7
HETATM    7  C   UNL     1     -12.617   8.677  71.805  1.00  0.00    -0.396 C  
BRANCH   7   8
HETATM    8  C   UNL     1     -12.743  10.154  72.187  1.00  0.00    -0.316 C  
BRANCH   8   9
HETATM    9  C   UNL     1     -12.467  11.049  71.008  1.00  0.00    -0.512 A  
HETATM   10  C   UNL     1     -12.191  10.486  69.758  1.00  0.00    -0.252 A  
HETATM   11  C   UNL     1     -11.874  11.295  68.673  1.00  0.00    -0.369 A  
HETATM   12  C   UNL     1     -11.866  12.689  68.793  1.00  0.00    -0.341 A  
HETATM   13  C   UNL     1     -12.452  12.440  71.143  1.00  0.00    -0.323 A  
HETATM   14  C   UNL     1     -12.157  13.252  70.044  1.00  0.00    -0.385 A  
BRANCH  12  15
HETATM   15  C   UNL     1     -11.469  13.589  67.643  1.00  0.00    -0.351 C  
BRANCH  15  16
HETATM   16  C   UNL     1     -11.682  12.959  66.257  1.00  0.00    -0.457 C  
HETATM   17  C   UNL     1     -10.464  12.867  65.307  1.00  0.00    -0.296 C  
HETATM   18  C   UNL     1     -10.965  12.237  63.974  1.00  0.00    -0.383 C  
HETATM   19  N   UNL     1      -9.915  14.215  64.999  1.00  0.00    -0.587 NA 
HETATM   20  C   UNL     1      -9.335  11.968  65.883  1.00  0.00    -0.157 C  
HETATM   21  O   UNL     1      -9.919  12.191  63.005  1.00  0.00    -0.461 OA 
HETATM   22  O   UNL     1      -8.755  12.524  67.059  1.00  0.00    -0.199 OA 
HETATM   23  H1  UNL     1      -9.112  14.155  64.373  1.00  0.00     0.000 HD 
HETATM   24  H2  UNL     1      -9.688  14.729  65.850  1.00  0.00     0.000 HD 
HETATM   25  H   UNL     1      -8.064  11.974  67.411  1.00  0.00     0.000 HD 
HETATM   26  H   UNL     1     -10.225  11.807  62.192  1.00  0.00     0.000 HD 
ENDBRANCH  15  16
ENDBRANCH  12  15
ENDBRANCH   8   9
ENDBRANCH   7   8
ENDBRANCH   6   7
ENDBRANCH   5   6
ENDBRANCH   4   5
ENDBRANCH   3   4
ENDBRANCH   2   3
TORSDOF 9
ENDMDL
MODEL       47
REMARK 921   NORMALIZED FREE ENERGY PREDICTED BY IDOCK:   -5.32 KCAL/MOL
REMARK 922        TOTAL FREE ENERGY PREDICTED BY IDOCK:   -9.23 KCAL/MOL
REMARK 923 INTER-LIGAND FREE ENERGY PREDICTED BY IDOCK:   -8.06 KCAL/MOL
REMARK 924 INTRA-LIGAND FREE ENERGY PREDICTED BY IDOCK:   -1.17 KCAL/MOL
REMARK 927      BINDING AFFINITY PREDICTED BY RF-SCORE:    0.00 PKD
ROOT
HETATM    1  C   UNL     1      -9.892  10.955  67.949  1.00  0.00    -0.189 C  
HETATM    2  C   UNL     1      -9.860   9.440  68.033  1.00  0.00    -0.191 C  
ENDROOT
BRANCH   2   3
HETATM    3  C   UNL     1     -10.597   8.939  69.271  1.00  0.00    -0.219 C  
BRANCH   3   4
HETATM    4  C   UNL     1     -10.610  10.003  70.365  1.00  0.00    -0.343 C  
BRANCH   4   5
HETATM    5  C   UNL     1     -11.648   9.672  71.431  1.00  0.00    -0.472 C  
BRANCH   5   6
HETATM    6  C   UNL     1     -12.725  10.752  71.499  1.00  0.00    -0.536 C  
BRANCH   6   7
HETATM    7  C   UNL     1     -12.522  11.773  70.387  1.00  0.00    -0.280 C  
BRANCH   7   8
HETATM    8  C   UNL     1     -12.641  13.204  70.917  1.00  0.00    -0.377 C  
BRANCH   8   9
HETATM    9  C   UNL     1     -12.078  14.199  69.936  1.00  0.00    -0.405 A  
HETATM   10  C   UNL     1     -12.011  13.873  68.578  1.00  0.00    -0.394 A  
HETATM   11  C   UNL     1     -11.440  14.754  67.667  1.00  0.00    -0.363 A  
HETATM   12  C   UNL     1     -10.960  16.002  68.079  1.00  0.00    -0.341 A  
HETATM   13  C   UNL     1     -11.593  15.438  70.360  1.00  0.00    -0.352 A  
HETATM   14  C   UNL     1     -11.041  16.332  69.439  1.00  0.00    -0.328 A  
BRANCH  12  15
HETATM   15  C   UNL     1     -10.282  16.955  67.118  1.00  0.00    -0.297 C  
BRANCH  15  16
HETATM   16  C   UNL     1      -9.435  18.037  67.808  1.00  0.00    -0.264 C  
HETATM   17  C   UNL     1      -8.938  19.225  66.951  1.00  0.00    -0.303 C  
HETATM   18  C   UNL     1      -8.079  20.135  67.877  1.00  0.00    -0.222 C  
HETATM   19  N   UNL     1      -8.072  18.761  65.833  1.00  0.00    -0.476 NA 
HETATM   20  C   UNL     1     -10.110  20.070  66.380  1.00  0.00    -0.487 C  
HETATM   21  O   UNL     1      -7.508  21.217  67.145  1.00  0.00    -0.736 OA 
HETATM   22  O   UNL     1     -10.895  19.336  65.445  1.00  0.00    -0.491 OA 
HETATM   23  H1  UNL     1      -7.745  19.545  65.267  1.00  0.00     0.000 HD 
HETATM   24  H2  UNL     1      -8.543  18.059  65.262  1.00  0.00     0.000 HD 
HETATM   25  H   UNL     1     -11.612  19.853  65.097  1.00  0.00     0.000 HD 
HETATM   26  H   UNL     1      -6.984  21.772  67.710  1.00  0.00     0.000 HD 
ENDBRANCH  15  16
ENDBRANCH  12  15
ENDBRANCH   8   9
ENDBRANCH   7   8
ENDBRANCH   6   7
ENDBRANCH   5   6
ENDBRANCH   4   5
ENDBRANCH   3   4
ENDBRANCH   2   3
TORSDOF 9
ENDMDL
MODEL       48
REMARK 921   NORMALIZED FREE ENERGY PREDICTED BY IDOCK:   -5.31 KCAL/MOL
REMARK 922        TOTAL FREE ENERGY PREDICTED BY IDOCK:   -9.21 KCAL/MOL
REMARK 923 INTER-LIGAND FREE ENERGY PREDICTED BY IDOCK:   -7.33 KCAL/MOL
REMARK 924 INTRA-LIGAND FREE ENERGY PREDICTED BY IDOCK:   -1.88 KCAL/MOL
REMARK 927      BINDING AFFINITY PREDICTED BY RF-SCORE:    0.00 PKD
ROOT
HETATM    1  C   UNL     1     -12.336  11.426  70.549  1.00  0.00    -0.439 C  
HETATM    2  C   UNL     1     -12.662  10.140  71.288  1.00  0.00    -0.509 C  
ENDROOT
BRANCH   2   3
HETATM    3  C   UNL     1     -11.754   8.999  70.840  1.00  0.00    -0.327 C  
BRANCH   3   4
HETATM    4  C   UNL     1     -10.775   8.616  71.946  1.00  0.00    -0.414 C  
BRANCH   4   5
HETATM    5  C   UNL     1     -11.255   7.373  72.688  1.00  0.00    -0.379 C  
BRANCH   5   6
HETATM    6  C   UNL     1     -11.503   6.220  71.719  1.00  0.00    -0.355 C  
BRANCH   6   7
HETATM    7  C   UNL     1     -10.206   5.469  71.445  1.00  0.00    -0.275 C  
BRANCH   7   8
HETATM    8  C   UNL     1     -10.156   4.952  70.006  1.00  0.00    -0.337 C  
BRANCH   8   9
HETATM    9  C   UNL     1     -10.068   6.088  69.020  1.00  0.00    -0.223 A  
HETATM   10  C   UNL     1      -9.024   7.012  69.116  1.00  0.00    -0.134 A  
HETATM   11  C   UNL     1      -8.961   8.100  68.254  1.00  0.00    -0.136 A  
HETATM   12  C   UNL     1      -9.913   8.273  67.244  1.00  0.00    -0.289 A  
HETATM   13  C   UNL     1     -11.032   6.256  68.022  1.00  0.00    -0.418 A  
HETATM   14  C   UNL     1     -10.953   7.338  67.141  1.00  0.00    -0.285 A  
BRANCH  12  15
HETATM   15  C   UNL     1      -9.900   9.479  66.330  1.00  0.00    -0.334 C  
BRANCH  15  16
HETATM   16  C   UNL     1     -10.728  10.665  66.852  1.00  0.00    -0.297 C  
HETATM   17  C   UNL     1     -10.817  11.932  65.968  1.00  0.00    -0.299 C  
HETATM   18  C   UNL     1     -11.668  12.979  66.746  1.00  0.00    -0.382 C  
HETATM   19  N   UNL     1      -9.472  12.521  65.729  1.00  0.00    -0.437 NA 
HETATM   20  C   UNL     1     -11.508  11.651  64.605  1.00  0.00    -0.178 C  
HETATM   21  O   UNL     1     -11.732  14.214  66.037  1.00  0.00    -0.356 OA 
HETATM   22  O   UNL     1     -10.742  10.771  63.788  1.00  0.00    -0.523 OA 
HETATM   23  H1  UNL     1      -9.530  13.356  65.146  1.00  0.00     0.000 HD 
HETATM   24  H2  UNL     1      -8.828  11.835  65.336  1.00  0.00     0.000 HD 
HETATM   25  H   UNL     1     -11.165  10.599  62.954  1.00  0.00     0.000 HD 
HETATM   26  H   UNL     1     -12.251  14.853  66.512  1.00  0.00     0.000 HD 
ENDBRANCH  15  16
ENDBRANCH  12  15
ENDBRANCH   8   9
ENDBRANCH   7   8
ENDBRANCH   6   7
ENDBRANCH   5   6
ENDBRANCH   4   5
ENDBRANCH   3   4
ENDBRANCH   2   3
TORSDOF 9
ENDMDL
MODEL       49
REMARK 921   NORMALIZED FREE ENERGY PREDICTED BY IDOCK:   -5.30 KCAL/MOL
REMARK 922        TOTAL FREE ENERGY PREDICTED BY IDOCK:   -9.19 KCAL/MOL
REMARK 923 INTER-LIGAND FREE ENERGY PREDICTED BY IDOCK:   -8.32 KCAL/MOL
REMARK 924 INTRA-LIGAND FREE ENERGY PREDICTED BY IDOCK:   -0.87 KCAL/MOL
REMARK 927      BINDING AFFINITY PREDICTED BY RF-SCORE:    0.00 PKD
ROOT
HETATM    1  C   UNL     1      -9.218   2.722  72.774  1.00  0.00    -0.122 C  
HETATM    2  C   UNL     1     -10.675   2.746  73.201  1.00  0.00    -0.257 C  
ENDROOT
BRANCH   2   3
HETATM    3  C   UNL     1     -11.133   4.165  73.525  1.00  0.00    -0.359 C  
BRANCH   3   4
HETATM    4  C   UNL     1      -9.983   5.156  73.374  1.00  0.00    -0.185 C  
BRANCH   4   5
HETATM    5  C   UNL     1     -10.472   6.466  72.765  1.00  0.00    -0.238 C  
BRANCH   5   6
HETATM    6  C   UNL     1     -11.800   6.268  72.039  1.00  0.00    -0.370 C  
BRANCH   6   7
HETATM    7  C   UNL     1     -12.201   7.544  71.309  1.00  0.00    -0.357 C  
BRANCH   7   8
HETATM    8  C   UNL     1     -11.443   8.757  71.854  1.00  0.00    -0.428 C  
BRANCH   8   9
HETATM    9  C   UNL     1     -11.472   9.903  70.877  1.00  0.00    -0.456 A  
HETATM   10  C   UNL     1     -12.316  10.993  71.109  1.00  0.00    -0.465 A  
HETATM   11  C   UNL     1     -12.400  12.031  70.187  1.00  0.00    -0.230 A  
HETATM   12  C   UNL     1     -11.613  12.031  69.031  1.00  0.00    -0.370 A  
HETATM   13  C   UNL     1     -10.688   9.887  69.720  1.00  0.00    -0.298 A  
HETATM   14  C   UNL     1     -10.757  10.943  68.807  1.00  0.00    -0.243 A  
BRANCH  12  15
HETATM   15  C   UNL     1     -11.728  13.119  67.985  1.00  0.00    -0.394 C  
BRANCH  15  16
HETATM   16  C   UNL     1     -11.691  12.598  66.539  1.00  0.00    -0.463 C  
HETATM   17  C   UNL     1     -12.078  13.578  65.405  1.00  0.00    -0.415 C  
HETATM   18  C   UNL     1     -11.999  12.788  64.066  1.00  0.00    -0.447 C  
HETATM   19  N   UNL     1     -13.473  14.069  65.567  1.00  0.00    -0.627 NA 
HETATM   20  C   UNL     1     -11.110  14.790  65.320  1.00  0.00    -0.370 C  
HETATM   21  O   UNL     1     -12.423  13.596  62.970  1.00  0.00    -1.020 OA 
HETATM   22  O   UNL     1     -11.190  15.622  66.474  1.00  0.00    -0.208 OA 
HETATM   23  H1  UNL     1     -13.728  14.715  64.820  1.00  0.00     0.000 HD 
HETATM   24  H2  UNL     1     -13.619  14.484  66.487  1.00  0.00     0.000 HD 
HETATM   25  H   UNL     1     -10.598  16.364  66.421  1.00  0.00     0.000 HD 
HETATM   26  H   UNL     1     -12.375  13.114  62.153  1.00  0.00     0.000 HD 
ENDBRANCH  15  16
ENDBRANCH  12  15
ENDBRANCH   8   9
ENDBRANCH   7   8
ENDBRANCH   6   7
ENDBRANCH   5   6
ENDBRANCH   4   5
ENDBRANCH   3   4
ENDBRANCH   2   3
TORSDOF 9
ENDMDL
MODEL       50
REMARK 921   NORMALIZED FREE ENERGY PREDICTED BY IDOCK:   -5.29 KCAL/MOL
REMARK 922        TOTAL FREE ENERGY PREDICTED BY IDOCK:   -9.18 KCAL/MOL
REMARK 923 INTER-LIGAND FREE ENERGY PREDICTED BY IDOCK:   -8.22 KCAL/MOL
REMARK 924 INTRA-LIGAND FREE ENERGY PREDICTED BY IDOCK:   -0.96 KCAL/MOL
REMARK 927      BINDING AFFINITY PREDICTED BY RF-SCORE:    0.00 PKD
ROOT
HETATM    1  C   UNL     1      -8.821   6.564  69.842  1.00  0.00    -0.143 C  
HETATM    2  C   UNL     1      -9.884   5.739  69.138  1.00  0.00    -0.211 C  
ENDROOT
BRANCH   2   3
HETATM    3  C   UNL     1     -11.283   6.113  69.621  1.00  0.00    -0.488 C  
BRANCH   3   4
HETATM    4  C   UNL     1     -11.331   6.190  71.144  1.00  0.00    -0.340 C  
BRANCH   4   5
HETATM    5  C   UNL     1     -12.391   7.185  71.604  1.00  0.00    -0.398 C  
BRANCH   5   6
HETATM    6  C   UNL     1     -11.775   8.272  72.482  1.00  0.00    -0.451 C  
BRANCH   6   7
HETATM    7  C   UNL     1     -11.308   9.443  71.627  1.00  0.00    -0.452 C  
BRANCH   7   8
HETATM    8  C   UNL     1     -12.482  10.336  71.218  1.00  0.00    -0.514 C  
BRANCH   8   9
HETATM    9  C   UNL     1     -12.093  11.275  70.106  1.00  0.00    -0.448 A  
HETATM   10  C   UNL     1     -12.091  12.654  70.331  1.00  0.00    -0.381 A  
HETATM   11  C   UNL     1     -11.793  13.538  69.300  1.00  0.00    -0.392 A  
HETATM   12  C   UNL     1     -11.446  13.069  68.029  1.00  0.00    -0.348 A  
HETATM   13  C   UNL     1     -11.759  10.794  68.837  1.00  0.00    -0.338 A  
HETATM   14  C   UNL     1     -11.436  11.684  67.809  1.00  0.00    -0.373 A  
BRANCH  12  15
HETATM   15  C   UNL     1     -11.174  14.010  66.875  1.00  0.00    -0.323 C  
BRANCH  15  16
HETATM   16  C   UNL     1     -10.974  15.474  67.300  1.00  0.00    -0.303 C  
HETATM   17  C   UNL     1     -10.243  16.421  66.318  1.00  0.00    -0.330 C  
HETATM   18  C   UNL     1     -10.140  17.812  67.009  1.00  0.00    -0.337 C  
HETATM   19  N   UNL     1      -8.862  15.945  66.035  1.00  0.00    -0.319 NA 
HETATM   20  C   UNL     1     -11.015  16.591  64.980  1.00  0.00    -0.210 C  
HETATM   21  O   UNL     1      -9.402  18.729  66.204  1.00  0.00    -0.433 OA 
HETATM   22  O   UNL     1     -11.074  15.377  64.236  1.00  0.00    -0.687 OA 
HETATM   23  H1  UNL     1      -8.380  16.569  65.387  1.00  0.00     0.000 HD 
HETATM   24  H2  UNL     1      -8.860  14.982  65.698  1.00  0.00     0.000 HD 
HETATM   25  H   UNL     1     -11.546  15.482  63.418  1.00  0.00     0.000 HD 
HETATM   26  H   UNL     1      -9.339  19.578  66.626  1.00  0.00     0.000 HD 
ENDBRANCH  15  16
ENDBRANCH  12  15
ENDBRANCH   8   9
ENDBRANCH   7   8
ENDBRANCH   6   7
ENDBRANCH   5   6
ENDBRANCH   4   5
ENDBRANCH   3   4
ENDBRANCH   2   3
TORSDOF 9
ENDMDL
MODEL       51
REMARK 921   NORMALIZED FREE ENERGY PREDICTED BY IDOCK:   -5.29 KCAL/MOL
REMARK 922        TOTAL FREE ENERGY PREDICTED BY IDOCK:   -9.18 KCAL/MOL
REMARK 923 INTER-LIGAND FREE ENERGY PREDICTED BY IDOCK:   -7.98 KCAL/MOL
REMARK 924 INTRA-LIGAND FREE ENERGY PREDICTED BY IDOCK:   -1.20 KCAL/MOL
REMARK 927      BINDING AFFINITY PREDICTED BY RF-SCORE:    0.00 PKD
ROOT
HETATM    1  C   UNL     1      -8.231   6.048  74.207  1.00  0.00    -0.108 C  
HETATM    2  C   UNL     1      -7.980   7.261  73.329  1.00  0.00    -0.125 C  
ENDROOT
BRANCH   2   3
HETATM    3  C   UNL     1      -9.185   8.196  73.320  1.00  0.00    -0.316 C  
BRANCH   3   4
HETATM    4  C   UNL     1     -10.473   7.428  73.603  1.00  0.00    -0.350 C  
BRANCH   4   5
HETATM    5  C   UNL     1     -11.508   7.681  72.512  1.00  0.00    -0.405 C  
BRANCH   5   6
HETATM    6  C   UNL     1     -11.880   6.384  71.801  1.00  0.00    -0.374 C  
BRANCH   6   7
HETATM    7  C   UNL     1     -11.619   6.505  70.304  1.00  0.00    -0.473 C  
BRANCH   7   8
HETATM    8  C   UNL     1     -10.194   6.987  70.026  1.00  0.00    -0.206 C  
BRANCH   8   9
HETATM    9  C   UNL     1     -10.172   8.027  68.937  1.00  0.00    -0.220 A  
HETATM   10  C   UNL     1     -10.334   7.640  67.604  1.00  0.00    -0.303 A  
HETATM   11  C   UNL     1     -10.256   8.579  66.580  1.00  0.00    -0.345 A  
HETATM   12  C   UNL     1     -10.059   9.934  66.862  1.00  0.00    -0.285 A  
HETATM   13  C   UNL     1      -9.963   9.378  69.230  1.00  0.00    -0.182 A  
HETATM   14  C   UNL     1      -9.910  10.322  68.202  1.00  0.00    -0.166 A  
BRANCH  12  15
HETATM   15  C   UNL     1      -9.913  10.967  65.765  1.00  0.00    -0.299 C  
BRANCH  15  16
HETATM   16  C   UNL     1     -10.849  12.177  65.921  1.00  0.00    -0.316 C  
HETATM   17  C   UNL     1     -11.269  12.939  64.641  1.00  0.00    -0.320 C  
HETATM   18  C   UNL     1     -12.168  14.129  65.086  1.00  0.00    -0.433 C  
HETATM   19  N   UNL     1     -10.086  13.498  63.932  1.00  0.00    -0.567 NA 
HETATM   20  C   UNL     1     -12.082  12.045  63.664  1.00  0.00    -0.527 C  
HETATM   21  O   UNL     1     -12.534  14.938  63.971  1.00  0.00    -0.930 OA 
HETATM   22  O   UNL     1     -11.298  10.979  63.134  1.00  0.00    -0.731 OA 
HETATM   23  H1  UNL     1     -10.362  14.000  63.088  1.00  0.00     0.000 HD 
HETATM   24  H2  UNL     1      -9.396  12.775  63.728  1.00  0.00     0.000 HD 
HETATM   25  H   UNL     1     -11.796  10.432  62.537  1.00  0.00     0.000 HD 
HETATM   26  H   UNL     1     -13.083  15.664  64.242  1.00  0.00     0.000 HD 
ENDBRANCH  15  16
ENDBRANCH  12  15
ENDBRANCH   8   9
ENDBRANCH   7   8
ENDBRANCH   6   7
ENDBRANCH   5   6
ENDBRANCH   4   5
ENDBRANCH   3   4
ENDBRANCH   2   3
TORSDOF 9
ENDMDL
MODEL       52
REMARK 921   NORMALIZED FREE ENERGY PREDICTED BY IDOCK:   -5.25 KCAL/MOL
REMARK 922        TOTAL FREE ENERGY PREDICTED BY IDOCK:   -9.12 KCAL/MOL
REMARK 923 INTER-LIGAND FREE ENERGY PREDICTED BY IDOCK:   -8.12 KCAL/MOL
REMARK 924 INTRA-LIGAND FREE ENERGY PREDICTED BY IDOCK:   -1.00 KCAL/MOL
REMARK 927      BINDING AFFINITY PREDICTED BY RF-SCORE:    0.00 PKD
ROOT
HETATM    1  C   UNL     1     -10.526   5.677  67.978  1.00  0.00    -0.264 C  
HETATM    2  C   UNL     1     -10.925   6.212  69.343  1.00  0.00    -0.454 C  
ENDROOT
BRANCH   2   3
HETATM    3  C   UNL     1     -10.778   5.141  70.420  1.00  0.00    -0.129 C  
BRANCH   3   4
HETATM    4  C   UNL     1     -11.046   5.721  71.805  1.00  0.00    -0.301 C  
BRANCH   4   5
HETATM    5  C   UNL     1     -10.587   7.173  71.883  1.00  0.00    -0.238 C  
BRANCH   5   6
HETATM    6  C   UNL     1     -11.646   8.045  72.554  1.00  0.00    -0.464 C  
BRANCH   6   7
HETATM    7  C   UNL     1     -12.492   8.754  71.504  1.00  0.00    -0.374 C  
BRANCH   7   8
HETATM    8  C   UNL     1     -13.342   9.861  72.131  1.00  0.00    -0.498 C  
BRANCH   8   9
HETATM    9  C   UNL     1     -12.972  11.213  71.578  1.00  0.00    -0.542 A  
HETATM   10  C   UNL     1     -13.362  12.371  72.256  1.00  0.00    -0.427 A  
HETATM   11  C   UNL     1     -13.082  13.627  71.729  1.00  0.00    -0.468 A  
HETATM   12  C   UNL     1     -12.365  13.762  70.535  1.00  0.00    -0.429 A  
HETATM   13  C   UNL     1     -12.264  11.335  70.379  1.00  0.00    -0.453 A  
HETATM   14  C   UNL     1     -11.962  12.598  69.865  1.00  0.00    -0.365 A  
BRANCH  12  15
HETATM   15  C   UNL     1     -12.097  15.114  69.912  1.00  0.00    -0.373 C  
BRANCH  15  16
HETATM   16  C   UNL     1     -11.890  15.068  68.388  1.00  0.00    -0.298 C  
HETATM   17  C   UNL     1     -10.622  15.737  67.807  1.00  0.00    -0.292 C  
HETATM   18  C   UNL     1     -10.687  15.583  66.260  1.00  0.00    -0.307 C  
HETATM   19  N   UNL     1     -10.585  17.191  68.123  1.00  0.00    -0.367 NA 
HETATM   20  C   UNL     1      -9.316  15.065  68.315  1.00  0.00    -0.192 C  
HETATM   21  O   UNL     1      -9.592  16.249  65.633  1.00  0.00    -0.466 OA 
HETATM   22  O   UNL     1      -9.132  15.243  69.717  1.00  0.00    -0.417 OA 
HETATM   23  H1  UNL     1      -9.749  17.633  67.740  1.00  0.00     0.000 HD 
HETATM   24  H2  UNL     1     -10.671  17.358  69.125  1.00  0.00     0.000 HD 
HETATM   25  H   UNL     1      -8.334  14.831  70.027  1.00  0.00     0.000 HD 
HETATM   26  H   UNL     1      -9.632  16.155  64.689  1.00  0.00     0.000 HD 
ENDBRANCH  15  16
ENDBRANCH  12  15
ENDBRANCH   8   9
ENDBRANCH   7   8
ENDBRANCH   6   7
ENDBRANCH   5   6
ENDBRANCH   4   5
ENDBRANCH   3   4
ENDBRANCH   2   3
TORSDOF 9
ENDMDL
MODEL       53
REMARK 921   NORMALIZED FREE ENERGY PREDICTED BY IDOCK:   -5.24 KCAL/MOL
REMARK 922        TOTAL FREE ENERGY PREDICTED BY IDOCK:   -9.10 KCAL/MOL
REMARK 923 INTER-LIGAND FREE ENERGY PREDICTED BY IDOCK:   -7.33 KCAL/MOL
REMARK 924 INTRA-LIGAND FREE ENERGY PREDICTED BY IDOCK:   -1.77 KCAL/MOL
REMARK 927      BINDING AFFINITY PREDICTED BY RF-SCORE:    0.00 PKD
ROOT
HETATM    1  C   UNL     1     -12.074  15.804  71.973  1.00  0.00    -0.562 C  
HETATM    2  C   UNL     1     -12.108  14.640  70.997  1.00  0.00    -0.393 C  
ENDROOT
BRANCH   2   3
HETATM    3  C   UNL     1     -11.024  14.781  69.932  1.00  0.00    -0.229 C  
BRANCH   3   4
HETATM    4  C   UNL     1     -11.016  16.189  69.346  1.00  0.00    -0.333 C  
BRANCH   4   5
HETATM    5  C   UNL     1      -9.762  16.421  68.509  1.00  0.00    -0.228 C  
BRANCH   5   6
HETATM    6  C   UNL     1     -10.118  16.999  67.142  1.00  0.00    -0.292 C  
BRANCH   6   7
HETATM    7  C   UNL     1      -9.602  16.092  66.031  1.00  0.00    -0.381 C  
BRANCH   7   8
HETATM    8  C   UNL     1     -10.652  15.054  65.629  1.00  0.00    -0.360 C  
BRANCH   8   9
HETATM    9  C   UNL     1     -10.533  13.806  66.464  1.00  0.00    -0.282 A  
HETATM   10  C   UNL     1     -11.685  13.108  66.840  1.00  0.00    -0.441 A  
HETATM   11  C   UNL     1     -11.598  11.989  67.660  1.00  0.00    -0.392 A  
HETATM   12  C   UNL     1     -10.357  11.509  68.091  1.00  0.00    -0.211 A  
HETATM   13  C   UNL     1      -9.288  13.341  66.898  1.00  0.00    -0.244 A  
HETATM   14  C   UNL     1      -9.202  12.202  67.703  1.00  0.00    -0.181 A  
BRANCH  12  15
HETATM   15  C   UNL     1     -10.239  10.328  69.031  1.00  0.00    -0.225 C  
BRANCH  15  16
HETATM   16  C   UNL     1     -11.221  10.373  70.214  1.00  0.00    -0.395 C  
HETATM   17  C   UNL     1     -11.403   9.086  71.054  1.00  0.00    -0.297 C  
HETATM   18  C   UNL     1     -12.472   9.394  72.143  1.00  0.00    -0.323 C  
HETATM   19  N   UNL     1     -11.909   7.963  70.220  1.00  0.00    -0.471 NA 
HETATM   20  C   UNL     1     -10.089   8.654  71.761  1.00  0.00    -0.310 C  
HETATM   21  O   UNL     1     -12.764   8.232  72.916  1.00  0.00    -0.638 OA 
HETATM   22  O   UNL     1      -9.083   8.263  70.831  1.00  0.00    -0.141 OA 
HETATM   23  H1  UNL     1     -12.029   7.114  70.774  1.00  0.00     0.000 HD 
HETATM   24  H2  UNL     1     -11.311   7.799  69.410  1.00  0.00     0.000 HD 
HETATM   25  H   UNL     1      -8.279   7.999  71.264  1.00  0.00     0.000 HD 
HETATM   26  H   UNL     1     -13.417   8.419  73.580  1.00  0.00     0.000 HD 
ENDBRANCH  15  16
ENDBRANCH  12  15
ENDBRANCH   8   9
ENDBRANCH   7   8
ENDBRANCH   6   7
ENDBRANCH   5   6
ENDBRANCH   4   5
ENDBRANCH   3   4
ENDBRANCH   2   3
TORSDOF 9
ENDMDL
MODEL       54
REMARK 921   NORMALIZED FREE ENERGY PREDICTED BY IDOCK:   -5.23 KCAL/MOL
REMARK 922        TOTAL FREE ENERGY PREDICTED BY IDOCK:   -9.09 KCAL/MOL
REMARK 923 INTER-LIGAND FREE ENERGY PREDICTED BY IDOCK:   -7.48 KCAL/MOL
REMARK 924 INTRA-LIGAND FREE ENERGY PREDICTED BY IDOCK:   -1.61 KCAL/MOL
REMARK 927      BINDING AFFINITY PREDICTED BY RF-SCORE:    0.00 PKD
ROOT
HETATM    1  C   UNL     1     -10.994   6.450  67.776  1.00  0.00    -0.425 C  
HETATM    2  C   UNL     1      -9.819   7.356  68.101  1.00  0.00    -0.174 C  
ENDROOT
BRANCH   2   3
HETATM    3  C   UNL     1      -9.253   7.051  69.484  1.00  0.00    -0.149 C  
BRANCH   3   4
HETATM    4  C   UNL     1     -10.032   5.925  70.157  1.00  0.00    -0.247 C  
BRANCH   4   5
HETATM    5  C   UNL     1     -10.091   6.132  71.666  1.00  0.00    -0.218 C  
BRANCH   5   6
HETATM    6  C   UNL     1     -11.522   6.005  72.180  1.00  0.00    -0.356 C  
BRANCH   6   7
HETATM    7  C   UNL     1     -12.463   6.865  71.345  1.00  0.00    -0.413 C  
BRANCH   7   8
HETATM    8  C   UNL     1     -12.987   8.058  72.149  1.00  0.00    -0.246 C  
BRANCH   8   9
HETATM    9  C   UNL     1     -12.608   9.363  71.498  1.00  0.00    -0.447 A  
HETATM   10  C   UNL     1     -13.203  10.552  71.930  1.00  0.00    -0.526 A  
HETATM   11  C   UNL     1     -12.910  11.757  71.301  1.00  0.00    -0.409 A  
HETATM   12  C   UNL     1     -11.984  11.816  70.255  1.00  0.00    -0.429 A  
HETATM   13  C   UNL     1     -11.689   9.407  70.447  1.00  0.00    -0.195 A  
HETATM   14  C   UNL     1     -11.379  10.624  69.833  1.00  0.00    -0.386 A  
BRANCH  12  15
HETATM   15  C   UNL     1     -11.692  13.104  69.516  1.00  0.00    -0.382 C  
BRANCH  15  16
HETATM   16  C   UNL     1     -10.718  12.939  68.337  1.00  0.00    -0.273 C  
HETATM   17  C   UNL     1     -10.904  13.861  67.108  1.00  0.00    -0.284 C  
HETATM   18  C   UNL     1      -9.827  13.455  66.060  1.00  0.00    -0.263 C  
HETATM   19  N   UNL     1     -12.243  13.672  66.488  1.00  0.00    -0.419 NA 
HETATM   20  C   UNL     1     -10.705  15.361  67.463  1.00  0.00    -0.295 C  
HETATM   21  O   UNL     1      -9.979  14.202  64.855  1.00  0.00    -0.577 OA 
HETATM   22  O   UNL     1     -11.712  15.839  68.350  1.00  0.00    -0.366 OA 
HETATM   23  H1  UNL     1     -12.366  14.280  65.678  1.00  0.00     0.000 HD 
HETATM   24  H2  UNL     1     -12.992  13.800  67.168  1.00  0.00     0.000 HD 
HETATM   25  H   UNL     1     -11.591  16.757  68.567  1.00  0.00     0.000 HD 
HETATM   26  H   UNL     1      -9.322  13.955  64.215  1.00  0.00     0.000 HD 
ENDBRANCH  15  16
ENDBRANCH  12  15
ENDBRANCH   8   9
ENDBRANCH   7   8
ENDBRANCH   6   7
ENDBRANCH   5   6
ENDBRANCH   4   5
ENDBRANCH   3   4
ENDBRANCH   2   3
TORSDOF 9
ENDMDL
MODEL       55
REMARK 921   NORMALIZED FREE ENERGY PREDICTED BY IDOCK:   -5.21 KCAL/MOL
REMARK 922        TOTAL FREE ENERGY PREDICTED BY IDOCK:   -9.05 KCAL/MOL
REMARK 923 INTER-LIGAND FREE ENERGY PREDICTED BY IDOCK:   -7.81 KCAL/MOL
REMARK 924 INTRA-LIGAND FREE ENERGY PREDICTED BY IDOCK:   -1.24 KCAL/MOL
REMARK 927      BINDING AFFINITY PREDICTED BY RF-SCORE:    0.00 PKD
ROOT
HETATM    1  C   UNL     1      -9.195   9.144  70.030  1.00  0.00    -0.209 C  
HETATM    2  C   UNL     1      -9.439   7.933  70.914  1.00  0.00    -0.167 C  
ENDROOT
BRANCH   2   3
HETATM    3  C   UNL     1     -10.292   8.298  72.126  1.00  0.00    -0.370 C  
BRANCH   3   4
HETATM    4  C   UNL     1     -11.625   7.556  72.098  1.00  0.00    -0.340 C  
BRANCH   4   5
HETATM    5  C   UNL     1     -12.695   8.390  71.402  1.00  0.00    -0.280 C  
BRANCH   5   6
HETATM    6  C   UNL     1     -13.185   9.516  72.309  1.00  0.00    -0.507 C  
BRANCH   6   7
HETATM    7  C   UNL     1     -13.129  10.851  71.576  1.00  0.00    -0.503 C  
BRANCH   7   8
HETATM    8  C   UNL     1     -12.409  10.716  70.232  1.00  0.00    -0.406 C  
BRANCH   8   9
HETATM    9  C   UNL     1     -12.035  12.065  69.675  1.00  0.00    -0.360 A  
HETATM   10  C   UNL     1     -12.234  13.214  70.447  1.00  0.00    -0.389 A  
HETATM   11  C   UNL     1     -11.951  14.472  69.927  1.00  0.00    -0.382 A  
HETATM   12  C   UNL     1     -11.420  14.616  68.641  1.00  0.00    -0.326 A  
HETATM   13  C   UNL     1     -11.515  12.197  68.385  1.00  0.00    -0.356 A  
HETATM   14  C   UNL     1     -11.208  13.461  67.874  1.00  0.00    -0.303 A  
BRANCH  12  15
HETATM   15  C   UNL     1     -11.157  15.976  68.031  1.00  0.00    -0.334 C  
BRANCH  15  16
HETATM   16  C   UNL     1      -9.818  16.074  67.282  1.00  0.00    -0.236 C  
HETATM   17  C   UNL     1      -9.295  17.483  66.912  1.00  0.00    -0.269 C  
HETATM   18  C   UNL     1      -7.962  17.290  66.131  1.00  0.00    -0.257 C  
HETATM   19  N   UNL     1     -10.249  18.197  66.021  1.00  0.00    -0.558 NA 
HETATM   20  C   UNL     1      -9.010  18.353  68.167  1.00  0.00    -0.309 C  
HETATM   21  O   UNL     1      -7.450  18.541  65.676  1.00  0.00    -0.509 OA 
HETATM   22  O   UNL     1     -10.199  18.656  68.890  1.00  0.00    -0.444 OA 
HETATM   23  H1  UNL     1      -9.905  19.125  65.777  1.00  0.00     0.000 HD 
HETATM   24  H2  UNL     1     -11.182  18.239  66.430  1.00  0.00     0.000 HD 
HETATM   25  H   UNL     1     -10.024  19.189  69.658  1.00  0.00     0.000 HD 
HETATM   26  H   UNL     1      -6.637  18.423  65.200  1.00  0.00     0.000 HD 
ENDBRANCH  15  16
ENDBRANCH  12  15
ENDBRANCH   8   9
ENDBRANCH   7   8
ENDBRANCH   6   7
ENDBRANCH   5   6
ENDBRANCH   4   5
ENDBRANCH   3   4
ENDBRANCH   2   3
TORSDOF 9
ENDMDL
MODEL       56
REMARK 921   NORMALIZED FREE ENERGY PREDICTED BY IDOCK:   -5.20 KCAL/MOL
REMARK 922        TOTAL FREE ENERGY PREDICTED BY IDOCK:   -9.04 KCAL/MOL
REMARK 923 INTER-LIGAND FREE ENERGY PREDICTED BY IDOCK:   -7.99 KCAL/MOL
REMARK 924 INTRA-LIGAND FREE ENERGY PREDICTED BY IDOCK:   -1.05 KCAL/MOL
REMARK 927      BINDING AFFINITY PREDICTED BY RF-SCORE:    0.00 PKD
ROOT
HETATM    1  C   UNL     1     -10.809   3.620  74.109  1.00  0.00    -0.215 C  
HETATM    2  C   UNL     1      -9.772   4.043  73.084  1.00  0.00    -0.163 C  
ENDROOT
BRANCH   2   3
HETATM    3  C   UNL     1     -10.053   5.450  72.563  1.00  0.00    -0.215 C  
BRANCH   3   4
HETATM    4  C   UNL     1     -10.495   5.413  71.104  1.00  0.00    -0.295 C  
BRANCH   4   5
HETATM    5  C   UNL     1     -11.441   6.568  70.794  1.00  0.00    -0.419 C  
BRANCH   5   6
HETATM    6  C   UNL     1     -12.002   7.174  72.077  1.00  0.00    -0.332 C  
BRANCH   6   7
HETATM    7  C   UNL     1     -12.123   8.687  71.941  1.00  0.00    -0.422 C  
BRANCH   7   8
HETATM    8  C   UNL     1     -10.840   9.298  71.372  1.00  0.00    -0.434 C  
BRANCH   8   9
HETATM    9  C   UNL     1     -11.133  10.166  70.176  1.00  0.00    -0.378 A  
HETATM   10  C   UNL     1     -10.711   9.763  68.906  1.00  0.00    -0.241 A  
HETATM   11  C   UNL     1     -10.919  10.580  67.799  1.00  0.00    -0.372 A  
HETATM   12  C   UNL     1     -11.592  11.799  67.923  1.00  0.00    -0.377 A  
HETATM   13  C   UNL     1     -11.798  11.387  70.314  1.00  0.00    -0.438 A  
HETATM   14  C   UNL     1     -12.027  12.194  69.196  1.00  0.00    -0.311 A  
BRANCH  12  15
HETATM   15  C   UNL     1     -11.781  12.732  66.747  1.00  0.00    -0.459 C  
BRANCH  15  16
HETATM   16  C   UNL     1     -11.417  14.195  67.048  1.00  0.00    -0.370 C  
HETATM   17  C   UNL     1     -10.549  14.954  66.016  1.00  0.00    -0.315 C  
HETATM   18  C   UNL     1     -10.298  16.381  66.585  1.00  0.00    -0.292 C  
HETATM   19  N   UNL     1      -9.228  14.295  65.831  1.00  0.00    -0.514 NA 
HETATM   20  C   UNL     1     -11.256  15.090  64.639  1.00  0.00    -0.332 C  
HETATM   21  O   UNL     1      -9.431  17.127  65.732  1.00  0.00    -0.525 OA 
HETATM   22  O   UNL     1     -11.439  13.828  64.004  1.00  0.00    -0.570 OA 
HETATM   23  H1  UNL     1      -8.656  14.795  65.151  1.00  0.00     0.000 HD 
HETATM   24  H2  UNL     1      -9.333  13.312  65.582  1.00  0.00     0.000 HD 
HETATM   25  H   UNL     1     -11.872  13.911  63.162  1.00  0.00     0.000 HD 
HETATM   26  H   UNL     1      -9.278  17.998  66.079  1.00  0.00     0.000 HD 
ENDBRANCH  15  16
ENDBRANCH  12  15
ENDBRANCH   8   9
ENDBRANCH   7   8
ENDBRANCH   6   7
ENDBRANCH   5   6
ENDBRANCH   4   5
ENDBRANCH   3   4
ENDBRANCH   2   3
TORSDOF 9
ENDMDL
MODEL       57
REMARK 921   NORMALIZED FREE ENERGY PREDICTED BY IDOCK:   -5.19 KCAL/MOL
REMARK 922        TOTAL FREE ENERGY PREDICTED BY IDOCK:   -9.03 KCAL/MOL
REMARK 923 INTER-LIGAND FREE ENERGY PREDICTED BY IDOCK:   -8.23 KCAL/MOL
REMARK 924 INTRA-LIGAND FREE ENERGY PREDICTED BY IDOCK:   -0.79 KCAL/MOL
REMARK 927      BINDING AFFINITY PREDICTED BY RF-SCORE:    0.00 PKD
ROOT
HETATM    1  C   UNL     1      -7.880   2.266  68.725  1.00  0.00    -0.058 C  
HETATM    2  C   UNL     1      -9.317   2.670  69.001  1.00  0.00    -0.212 C  
ENDROOT
BRANCH   2   3
HETATM    3  C   UNL     1      -9.392   3.741  70.085  1.00  0.00    -0.244 C  
BRANCH   3   4
HETATM    4  C   UNL     1     -10.029   5.018  69.547  1.00  0.00    -0.302 C  
BRANCH   4   5
HETATM    5  C   UNL     1      -9.903   6.155  70.556  1.00  0.00    -0.214 C  
BRANCH   5   6
HETATM    6  C   UNL     1     -11.061   6.134  71.550  1.00  0.00    -0.342 C  
BRANCH   6   7
HETATM    7  C   UNL     1     -11.976   7.332  71.323  1.00  0.00    -0.359 C  
BRANCH   7   8
HETATM    8  C   UNL     1     -11.394   8.602  71.949  1.00  0.00    -0.417 C  
BRANCH   8   9
HETATM    9  C   UNL     1     -11.445   9.758  70.984  1.00  0.00    -0.458 A  
HETATM   10  C   UNL     1     -12.210  10.887  71.293  1.00  0.00    -0.395 A  
HETATM   11  C   UNL     1     -12.317  11.937  70.388  1.00  0.00    -0.334 A  
HETATM   12  C   UNL     1     -11.629  11.910  69.171  1.00  0.00    -0.373 A  
HETATM   13  C   UNL     1     -10.761   9.715  69.766  1.00  0.00    -0.269 A  
HETATM   14  C   UNL     1     -10.851  10.783  68.869  1.00  0.00    -0.269 A  
BRANCH  12  15
HETATM   15  C   UNL     1     -11.774  13.013  68.145  1.00  0.00    -0.391 C  
BRANCH  15  16
HETATM   16  C   UNL     1     -11.726  12.520  66.689  1.00  0.00    -0.453 C  
HETATM   17  C   UNL     1     -12.024  13.543  65.566  1.00  0.00    -0.390 C  
HETATM   18  C   UNL     1     -11.953  12.777  64.213  1.00  0.00    -0.405 C  
HETATM   19  N   UNL     1     -13.393  14.111  65.701  1.00  0.00    -0.669 NA 
HETATM   20  C   UNL     1     -10.986  14.699  65.533  1.00  0.00    -0.340 C  
HETATM   21  O   UNL     1     -12.298  13.630  63.124  1.00  0.00    -1.045 OA 
HETATM   22  O   UNL     1     -11.051  15.511  66.702  1.00  0.00    -0.293 OA 
HETATM   23  H1  UNL     1     -13.589  14.785  64.961  1.00  0.00     0.000 HD 
HETATM   24  H2  UNL     1     -13.540  14.516  66.625  1.00  0.00     0.000 HD 
HETATM   25  H   UNL     1     -10.416  16.218  66.682  1.00  0.00     0.000 HD 
HETATM   26  H   UNL     1     -12.254  13.162  62.298  1.00  0.00     0.000 HD 
ENDBRANCH  15  16
ENDBRANCH  12  15
ENDBRANCH   8   9
ENDBRANCH   7   8
ENDBRANCH   6   7
ENDBRANCH   5   6
ENDBRANCH   4   5
ENDBRANCH   3   4
ENDBRANCH   2   3
TORSDOF 9
ENDMDL
MODEL       58
REMARK 921   NORMALIZED FREE ENERGY PREDICTED BY IDOCK:   -5.17 KCAL/MOL
REMARK 922        TOTAL FREE ENERGY PREDICTED BY IDOCK:   -9.00 KCAL/MOL
REMARK 923 INTER-LIGAND FREE ENERGY PREDICTED BY IDOCK:   -6.94 KCAL/MOL
REMARK 924 INTRA-LIGAND FREE ENERGY PREDICTED BY IDOCK:   -2.06 KCAL/MOL
REMARK 927      BINDING AFFINITY PREDICTED BY RF-SCORE:    0.00 PKD
ROOT
HETATM    1  C   UNL     1      -7.372  10.000  69.772  1.00  0.00    -0.141 C  
HETATM    2  C   UNL     1      -7.378   8.632  70.429  1.00  0.00    -0.060 C  
ENDROOT
BRANCH   2   3
HETATM    3  C   UNL     1      -7.487   8.748  71.947  1.00  0.00    -0.051 C  
BRANCH   3   4
HETATM    4  C   UNL     1      -7.592   7.370  72.592  1.00  0.00    -0.094 C  
BRANCH   4   5
HETATM    5  C   UNL     1      -9.039   6.888  72.611  1.00  0.00    -0.150 C  
BRANCH   5   6
HETATM    6  C   UNL     1      -9.972   7.982  73.122  1.00  0.00    -0.316 C  
BRANCH   6   7
HETATM    7  C   UNL     1     -11.182   8.119  72.206  1.00  0.00    -0.425 C  
BRANCH   7   8
HETATM    8  C   UNL     1     -11.017   7.278  70.938  1.00  0.00    -0.275 C  
BRANCH   8   9
HETATM    9  C   UNL     1     -10.910   8.150  69.714  1.00  0.00    -0.190 A  
HETATM   10  C   UNL     1     -10.389   7.623  68.530  1.00  0.00    -0.225 A  
HETATM   11  C   UNL     1     -10.227   8.428  67.408  1.00  0.00    -0.328 A  
HETATM   12  C   UNL     1     -10.621   9.770  67.425  1.00  0.00    -0.330 A  
HETATM   13  C   UNL     1     -11.298   9.492  69.746  1.00  0.00    -0.117 A  
HETATM   14  C   UNL     1     -11.157  10.293  68.610  1.00  0.00    -0.290 A  
BRANCH  12  15
HETATM   15  C   UNL     1     -10.403  10.683  66.237  1.00  0.00    -0.296 C  
BRANCH  15  16
HETATM   16  C   UNL     1     -11.290  11.939  66.246  1.00  0.00    -0.394 C  
HETATM   17  C   UNL     1     -11.315  12.819  64.973  1.00  0.00    -0.309 C  
HETATM   18  C   UNL     1     -12.246  14.031  65.268  1.00  0.00    -0.440 C  
HETATM   19  N   UNL     1      -9.961  13.347  64.654  1.00  0.00    -0.629 NA 
HETATM   20  C   UNL     1     -11.875  12.055  63.741  1.00  0.00    -0.484 C  
HETATM   21  O   UNL     1     -12.261  14.942  64.171  1.00  0.00    -0.732 OA 
HETATM   22  O   UNL     1     -11.027  10.981  63.345  1.00  0.00    -0.663 OA 
HETATM   23  H1  UNL     1      -9.977  13.927  63.815  1.00  0.00     0.000 HD 
HETATM   24  H2  UNL     1      -9.275  12.596  64.577  1.00  0.00     0.000 HD 
HETATM   25  H   UNL     1     -11.370  10.514  62.592  1.00  0.00     0.000 HD 
HETATM   26  H   UNL     1     -12.829  15.682  64.351  1.00  0.00     0.000 HD 
ENDBRANCH  15  16
ENDBRANCH  12  15
ENDBRANCH   8   9
ENDBRANCH   7   8
ENDBRANCH   6   7
ENDBRANCH   5   6
ENDBRANCH   4   5
ENDBRANCH   3   4
ENDBRANCH   2   3
TORSDOF 9
ENDMDL
MODEL       59
REMARK 921   NORMALIZED FREE ENERGY PREDICTED BY IDOCK:   -5.17 KCAL/MOL
REMARK 922        TOTAL FREE ENERGY PREDICTED BY IDOCK:   -9.00 KCAL/MOL
REMARK 923 INTER-LIGAND FREE ENERGY PREDICTED BY IDOCK:   -7.46 KCAL/MOL
REMARK 924 INTRA-LIGAND FREE ENERGY PREDICTED BY IDOCK:   -1.54 KCAL/MOL
REMARK 927      BINDING AFFINITY PREDICTED BY RF-SCORE:    0.00 PKD
ROOT
HETATM    1  C   UNL     1     -11.386  14.919  64.831  1.00  0.00    -0.415 C  
HETATM    2  C   UNL     1     -11.693  13.575  65.468  1.00  0.00    -0.361 C  
ENDROOT
BRANCH   2   3
HETATM    3  C   UNL     1     -12.724  12.800  64.653  1.00  0.00    -0.439 C  
BRANCH   3   4
HETATM    4  C   UNL     1     -12.060  12.060  63.495  1.00  0.00    -0.628 C  
BRANCH   4   5
HETATM    5  C   UNL     1     -10.550  11.984  63.695  1.00  0.00    -0.503 C  
BRANCH   5   6
HETATM    6  C   UNL     1     -10.123  10.577  64.102  1.00  0.00    -0.351 C  
BRANCH   6   7
HETATM    7  C   UNL     1      -8.817  10.624  64.885  1.00  0.00    -0.204 C  
BRANCH   7   8
HETATM    8  C   UNL     1      -8.943   9.890  66.222  1.00  0.00    -0.169 C  
BRANCH   8   9
HETATM    9  C   UNL     1      -9.861  10.624  67.164  1.00  0.00    -0.208 A  
HETATM   10  C   UNL     1      -9.480  11.867  67.677  1.00  0.00    -0.182 A  
HETATM   11  C   UNL     1     -10.287  12.531  68.594  1.00  0.00    -0.193 A  
HETATM   12  C   UNL     1     -11.516  11.994  68.991  1.00  0.00    -0.357 A  
HETATM   13  C   UNL     1     -11.082  10.072  67.561  1.00  0.00    -0.190 A  
HETATM   14  C   UNL     1     -11.902  10.753  68.464  1.00  0.00    -0.168 A  
BRANCH  12  15
HETATM   15  C   UNL     1     -12.386  12.667  70.030  1.00  0.00    -0.164 C  
BRANCH  15  16
HETATM   16  C   UNL     1     -11.729  13.889  70.694  1.00  0.00    -0.194 C  
HETATM   17  C   UNL     1     -12.626  14.824  71.541  1.00  0.00    -0.333 C  
HETATM   18  C   UNL     1     -11.727  15.988  72.051  1.00  0.00    -0.493 C  
HETATM   19  N   UNL     1     -13.718  15.414  70.721  1.00  0.00    -0.845 NA 
HETATM   20  C   UNL     1     -13.237  14.098  72.770  1.00  0.00    -0.509 C  
HETATM   21  O   UNL     1     -12.494  16.947  72.776  1.00  0.00    -0.015 OA 
HETATM   22  O   UNL     1     -14.151  13.073  72.388  1.00  0.00    -0.537 OA 
HETATM   23  H1  UNL     1     -14.310  16.030  71.279  1.00  0.00     0.000 HD 
HETATM   24  H2  UNL     1     -14.266  14.692  70.253  1.00  0.00     0.000 HD 
HETATM   25  H   UNL     1     -14.525  12.629  73.141  1.00  0.00     0.000 HD 
HETATM   26  H   UNL     1     -11.946  17.657  73.087  1.00  0.00     0.000 HD 
ENDBRANCH  15  16
ENDBRANCH  12  15
ENDBRANCH   8   9
ENDBRANCH   7   8
ENDBRANCH   6   7
ENDBRANCH   5   6
ENDBRANCH   4   5
ENDBRANCH   3   4
ENDBRANCH   2   3
TORSDOF 9
ENDMDL
MODEL       60
REMARK 921   NORMALIZED FREE ENERGY PREDICTED BY IDOCK:   -5.16 KCAL/MOL
REMARK 922        TOTAL FREE ENERGY PREDICTED BY IDOCK:   -8.99 KCAL/MOL
REMARK 923 INTER-LIGAND FREE ENERGY PREDICTED BY IDOCK:   -7.48 KCAL/MOL
REMARK 924 INTRA-LIGAND FREE ENERGY PREDICTED BY IDOCK:   -1.51 KCAL/MOL
REMARK 927      BINDING AFFINITY PREDICTED BY RF-SCORE:    0.00 PKD
ROOT
HETATM    1  C   UNL     1      -8.562  12.045  67.734  1.00  0.00    -0.157 C  
HETATM    2  C   UNL     1      -9.599  11.360  66.862  1.00  0.00    -0.203 C  
ENDROOT
BRANCH   2   3
HETATM    3  C   UNL     1     -10.424  10.359  67.666  1.00  0.00    -0.277 C  
BRANCH   3   4
HETATM    4  C   UNL     1     -10.098  10.456  69.154  1.00  0.00    -0.236 C  
BRANCH   4   5
HETATM    5  C   UNL     1     -10.795   9.347  69.935  1.00  0.00    -0.259 C  
BRANCH   5   6
HETATM    6  C   UNL     1     -11.600   9.922  71.098  1.00  0.00    -0.468 C  
BRANCH   6   7
HETATM    7  C   UNL     1     -12.713  10.824  70.578  1.00  0.00    -0.388 C  
BRANCH   7   8
HETATM    8  C   UNL     1     -12.891  12.056  71.469  1.00  0.00    -0.403 C  
BRANCH   8   9
HETATM    9  C   UNL     1     -12.420  13.306  70.772  1.00  0.00    -0.403 A  
HETATM   10  C   UNL     1     -12.074  13.258  69.419  1.00  0.00    -0.301 A  
HETATM   11  C   UNL     1     -11.580  14.388  68.776  1.00  0.00    -0.348 A  
HETATM   12  C   UNL     1     -11.461  15.606  69.453  1.00  0.00    -0.354 A  
HETATM   13  C   UNL     1     -12.296  14.515  71.462  1.00  0.00    -0.430 A  
HETATM   14  C   UNL     1     -11.822  15.654  70.807  1.00  0.00    -0.421 A  
BRANCH  12  15
HETATM   15  C   UNL     1     -10.873  16.834  68.792  1.00  0.00    -0.318 C  
BRANCH  15  16
HETATM   16  C   UNL     1      -9.657  16.539  67.899  1.00  0.00    -0.233 C  
HETATM   17  C   UNL     1      -9.024  17.718  67.122  1.00  0.00    -0.246 C  
HETATM   18  C   UNL     1      -7.854  17.138  66.274  1.00  0.00    -0.316 C  
HETATM   19  N   UNL     1     -10.003  18.338  66.189  1.00  0.00    -0.511 NA 
HETATM   20  C   UNL     1      -8.452  18.808  68.070  1.00  0.00    -0.292 C  
HETATM   21  O   UNL     1      -7.264  18.147  65.458  1.00  0.00    -0.539 OA 
HETATM   22  O   UNL     1      -9.475  19.458  68.818  1.00  0.00    -0.377 OA 
HETATM   23  H1  UNL     1      -9.586  19.116  65.676  1.00  0.00     0.000 HD 
HETATM   24  H2  UNL     1     -10.853  18.623  66.674  1.00  0.00     0.000 HD 
HETATM   25  H   UNL     1      -9.125  20.125  69.398  1.00  0.00     0.000 HD 
HETATM   26  H   UNL     1      -6.550  17.792  64.941  1.00  0.00     0.000 HD 
ENDBRANCH  15  16
ENDBRANCH  12  15
ENDBRANCH   8   9
ENDBRANCH   7   8
ENDBRANCH   6   7
ENDBRANCH   5   6
ENDBRANCH   4   5
ENDBRANCH   3   4
ENDBRANCH   2   3
TORSDOF 9
ENDMDL
MODEL       61
REMARK 921   NORMALIZED FREE ENERGY PREDICTED BY IDOCK:   -5.15 KCAL/MOL
REMARK 922        TOTAL FREE ENERGY PREDICTED BY IDOCK:   -8.97 KCAL/MOL
REMARK 923 INTER-LIGAND FREE ENERGY PREDICTED BY IDOCK:   -7.34 KCAL/MOL
REMARK 924 INTRA-LIGAND FREE ENERGY PREDICTED BY IDOCK:   -1.64 KCAL/MOL
REMARK 927      BINDING AFFINITY PREDICTED BY RF-SCORE:    0.00 PKD
ROOT
HETATM    1  C   UNL     1     -12.328  11.394  70.558  1.00  0.00    -0.439 C  
HETATM    2  C   UNL     1     -12.673  10.152  71.360  1.00  0.00    -0.530 C  
ENDROOT
BRANCH   2   3
HETATM    3  C   UNL     1     -11.428   9.317  71.648  1.00  0.00    -0.468 C  
BRANCH   3   4
HETATM    4  C   UNL     1     -11.792   8.035  72.389  1.00  0.00    -0.429 C  
BRANCH   4   5
HETATM    5  C   UNL     1     -10.787   6.929  72.086  1.00  0.00    -0.256 C  
BRANCH   5   6
HETATM    6  C   UNL     1     -11.268   6.056  70.930  1.00  0.00    -0.335 C  
BRANCH   6   7
HETATM    7  C   UNL     1     -10.106   5.709  70.008  1.00  0.00    -0.295 C  
BRANCH   7   8
HETATM    8  C   UNL     1      -9.071   6.836  69.971  1.00  0.00    -0.148 C  
BRANCH   8   9
HETATM    9  C   UNL     1      -9.456   7.898  68.974  1.00  0.00    -0.151 A  
HETATM   10  C   UNL     1     -10.176   7.547  67.829  1.00  0.00    -0.257 A  
HETATM   11  C   UNL     1     -10.488   8.504  66.869  1.00  0.00    -0.345 A  
HETATM   12  C   UNL     1     -10.129   9.844  67.047  1.00  0.00    -0.275 A  
HETATM   13  C   UNL     1      -9.083   9.232  69.158  1.00  0.00    -0.145 A  
HETATM   14  C   UNL     1      -9.419  10.196  68.204  1.00  0.00    -0.151 A  
BRANCH  12  15
HETATM   15  C   UNL     1     -10.405  10.893  65.992  1.00  0.00    -0.304 C  
BRANCH  15  16
HETATM   16  C   UNL     1     -11.028  12.185  66.547  1.00  0.00    -0.325 C  
HETATM   17  C   UNL     1     -10.462  13.536  66.049  1.00  0.00    -0.299 C  
HETATM   18  C   UNL     1     -11.234  14.663  66.795  1.00  0.00    -0.344 C  
HETATM   19  N   UNL     1      -9.018  13.672  66.379  1.00  0.00    -0.465 NA 
HETATM   20  C   UNL     1     -10.663  13.730  64.520  1.00  0.00    -0.390 C  
HETATM   21  O   UNL     1     -10.716  15.948  66.456  1.00  0.00    -0.309 OA 
HETATM   22  O   UNL     1      -9.910  12.791  63.757  1.00  0.00    -0.679 OA 
HETATM   23  H1  UNL     1      -8.644  14.563  66.051  1.00  0.00     0.000 HD 
HETATM   24  H2  UNL     1      -8.477  12.885  66.023  1.00  0.00     0.000 HD 
HETATM   25  H   UNL     1     -10.033  12.910  62.822  1.00  0.00     0.000 HD 
HETATM   26  H   UNL     1     -11.187  16.636  66.911  1.00  0.00     0.000 HD 
ENDBRANCH  15  16
ENDBRANCH  12  15
ENDBRANCH   8   9
ENDBRANCH   7   8
ENDBRANCH   6   7
ENDBRANCH   5   6
ENDBRANCH   4   5
ENDBRANCH   3   4
ENDBRANCH   2   3
TORSDOF 9
ENDMDL
MODEL       62
REMARK 921   NORMALIZED FREE ENERGY PREDICTED BY IDOCK:   -5.12 KCAL/MOL
REMARK 922        TOTAL FREE ENERGY PREDICTED BY IDOCK:   -8.92 KCAL/MOL
REMARK 923 INTER-LIGAND FREE ENERGY PREDICTED BY IDOCK:   -6.70 KCAL/MOL
REMARK 924 INTRA-LIGAND FREE ENERGY PREDICTED BY IDOCK:   -2.22 KCAL/MOL
REMARK 927      BINDING AFFINITY PREDICTED BY RF-SCORE:    0.00 PKD
ROOT
HETATM    1  C   UNL     1      -7.084  13.862  68.897  1.00  0.00    -0.110 C  
HETATM    2  C   UNL     1      -7.572  13.327  67.562  1.00  0.00    -0.169 C  
ENDROOT
BRANCH   2   3
HETATM    3  C   UNL     1      -7.591  11.801  67.552  1.00  0.00    -0.135 C  
BRANCH   3   4
HETATM    4  C   UNL     1      -7.893  11.251  68.942  1.00  0.00    -0.114 C  
BRANCH   4   5
HETATM    5  C   UNL     1      -8.476   9.844  68.854  1.00  0.00    -0.127 C  
BRANCH   5   6
HETATM    6  C   UNL     1      -9.341   9.534  70.072  1.00  0.00    -0.265 C  
BRANCH   6   7
HETATM    7  C   UNL     1     -10.779   9.265  69.647  1.00  0.00    -0.244 C  
BRANCH   7   8
HETATM    8  C   UNL     1     -11.720  10.369  70.138  1.00  0.00    -0.394 C  
BRANCH   8   9
HETATM    9  C   UNL     1     -11.621  11.596  69.270  1.00  0.00    -0.385 A  
HETATM   10  C   UNL     1     -11.564  11.461  67.880  1.00  0.00    -0.337 A  
HETATM   11  C   UNL     1     -11.413  12.578  67.066  1.00  0.00    -0.419 A  
HETATM   12  C   UNL     1     -11.358  13.864  67.614  1.00  0.00    -0.335 A  
HETATM   13  C   UNL     1     -11.557  12.875  69.829  1.00  0.00    -0.288 A  
HETATM   14  C   UNL     1     -11.429  13.998  69.008  1.00  0.00    -0.337 A  
BRANCH  12  15
HETATM   15  C   UNL     1     -11.136  15.090  66.756  1.00  0.00    -0.326 C  
BRANCH  15  16
HETATM   16  C   UNL     1     -10.644  16.318  67.541  1.00  0.00    -0.310 C  
HETATM   17  C   UNL     1      -9.893  17.424  66.761  1.00  0.00    -0.296 C  
HETATM   18  C   UNL     1      -9.474  18.513  67.792  1.00  0.00    -0.289 C  
HETATM   19  N   UNL     1      -8.656  16.894  66.126  1.00  0.00    -0.457 NA 
HETATM   20  C   UNL     1     -10.785  18.089  65.677  1.00  0.00    -0.043 C  
HETATM   21  O   UNL     1      -8.700  19.536  67.170  1.00  0.00    -0.285 OA 
HETATM   22  O   UNL     1     -11.137  17.178  64.639  1.00  0.00    -1.036 OA 
HETATM   23  H1  UNL     1      -8.161  17.622  65.612  1.00  0.00     0.000 HD 
HETATM   24  H2  UNL     1      -8.856  16.088  65.534  1.00  0.00     0.000 HD 
HETATM   25  H   UNL     1     -11.683  17.586  63.976  1.00  0.00     0.000 HD 
HETATM   26  H   UNL     1      -8.444  20.200  67.799  1.00  0.00     0.000 HD 
ENDBRANCH  15  16
ENDBRANCH  12  15
ENDBRANCH   8   9
ENDBRANCH   7   8
ENDBRANCH   6   7
ENDBRANCH   5   6
ENDBRANCH   4   5
ENDBRANCH   3   4
ENDBRANCH   2   3
TORSDOF 9
ENDMDL
MODEL       63
REMARK 921   NORMALIZED FREE ENERGY PREDICTED BY IDOCK:   -5.12 KCAL/MOL
REMARK 922        TOTAL FREE ENERGY PREDICTED BY IDOCK:   -8.92 KCAL/MOL
REMARK 923 INTER-LIGAND FREE ENERGY PREDICTED BY IDOCK:   -7.83 KCAL/MOL
REMARK 924 INTRA-LIGAND FREE ENERGY PREDICTED BY IDOCK:   -1.09 KCAL/MOL
REMARK 927      BINDING AFFINITY PREDICTED BY RF-SCORE:    0.00 PKD
ROOT
HETATM    1  C   UNL     1     -11.139  15.557  64.774  1.00  0.00    -0.421 C  
HETATM    2  C   UNL     1     -12.396  14.898  64.235  1.00  0.00    -0.300 C  
ENDROOT
BRANCH   2   3
HETATM    3  C   UNL     1     -12.174  13.409  63.981  1.00  0.00    -0.466 C  
BRANCH   3   4
HETATM    4  C   UNL     1     -10.732  13.015  64.284  1.00  0.00    -0.430 C  
BRANCH   4   5
HETATM    5  C   UNL     1     -10.675  11.990  65.412  1.00  0.00    -0.330 C  
BRANCH   5   6
HETATM    6  C   UNL     1     -11.874  12.139  66.345  1.00  0.00    -0.321 C  
BRANCH   6   7
HETATM    7  C   UNL     1     -11.561  13.135  67.455  1.00  0.00    -0.403 C  
BRANCH   7   8
HETATM    8  C   UNL     1     -10.373  12.671  68.301  1.00  0.00    -0.246 C  
BRANCH   8   9
HETATM    9  C   UNL     1     -10.807  11.693  69.361  1.00  0.00    -0.151 A  
HETATM   10  C   UNL     1     -10.014  10.577  69.642  1.00  0.00    -0.149 A  
HETATM   11  C   UNL     1     -10.428   9.632  70.574  1.00  0.00    -0.367 A  
HETATM   12  C   UNL     1     -11.623   9.797  71.282  1.00  0.00    -0.465 A  
HETATM   13  C   UNL     1     -12.008  11.863  70.055  1.00  0.00    -0.409 A  
HETATM   14  C   UNL     1     -12.410  10.924  71.008  1.00  0.00    -0.498 A  
BRANCH  12  15
HETATM   15  C   UNL     1     -12.125   8.755  72.259  1.00  0.00    -0.423 C  
BRANCH  15  16
HETATM   16  C   UNL     1     -11.048   7.752  72.706  1.00  0.00    -0.457 C  
HETATM   17  C   UNL     1     -11.193   6.280  72.248  1.00  0.00    -0.283 C  
HETATM   18  C   UNL     1     -10.009   5.485  72.871  1.00  0.00    -0.169 C  
HETATM   19  N   UNL     1     -12.461   5.681  72.745  1.00  0.00    -0.422 NA 
HETATM   20  C   UNL     1     -11.124   6.136  70.702  1.00  0.00    -0.317 C  
HETATM   21  O   UNL     1     -10.111   4.095  72.567  1.00  0.00    -0.158 OA 
HETATM   22  O   UNL     1     -12.231   6.760  70.056  1.00  0.00    -0.641 OA 
HETATM   23  H1  UNL     1     -12.556   4.712  72.443  1.00  0.00     0.000 HD 
HETATM   24  H2  UNL     1     -13.270   6.239  72.473  1.00  0.00     0.000 HD 
HETATM   25  H   UNL     1     -12.188   6.672  69.111  1.00  0.00     0.000 HD 
HETATM   26  H   UNL     1      -9.388   3.610  72.947  1.00  0.00     0.000 HD 
ENDBRANCH  15  16
ENDBRANCH  12  15
ENDBRANCH   8   9
ENDBRANCH   7   8
ENDBRANCH   6   7
ENDBRANCH   5   6
ENDBRANCH   4   5
ENDBRANCH   3   4
ENDBRANCH   2   3
TORSDOF 9
ENDMDL
MODEL       64
REMARK 921   NORMALIZED FREE ENERGY PREDICTED BY IDOCK:   -5.11 KCAL/MOL
REMARK 922        TOTAL FREE ENERGY PREDICTED BY IDOCK:   -8.91 KCAL/MOL
REMARK 923 INTER-LIGAND FREE ENERGY PREDICTED BY IDOCK:   -7.76 KCAL/MOL
REMARK 924 INTRA-LIGAND FREE ENERGY PREDICTED BY IDOCK:   -1.16 KCAL/MOL
REMARK 927      BINDING AFFINITY PREDICTED BY RF-SCORE:    0.00 PKD
ROOT
HETATM    1  C   UNL     1     -10.466   7.797  66.960  1.00  0.00    -0.419 C  
HETATM    2  C   UNL     1      -9.489   8.837  66.440  1.00  0.00    -0.291 C  
ENDROOT
BRANCH   2   3
HETATM    3  C   UNL     1     -10.219   9.973  65.730  1.00  0.00    -0.270 C  
BRANCH   3   4
HETATM    4  C   UNL     1      -9.638  10.208  64.339  1.00  0.00    -0.366 C  
BRANCH   4   5
HETATM    5  C   UNL     1      -9.970  11.611  63.843  1.00  0.00    -0.358 C  
BRANCH   5   6
HETATM    6  C   UNL     1     -11.230  11.603  62.982  1.00  0.00     0.007 C  
BRANCH   6   7
HETATM    7  C   UNL     1     -12.143  12.760  63.368  1.00  0.00    -0.619 C  
BRANCH   7   8
HETATM    8  C   UNL     1     -12.607  12.642  64.821  1.00  0.00    -0.530 C  
BRANCH   8   9
HETATM    9  C   UNL     1     -11.992  13.716  65.680  1.00  0.00    -0.422 A  
HETATM   10  C   UNL     1     -11.306  14.776  65.080  1.00  0.00    -0.379 A  
HETATM   11  C   UNL     1     -10.680  15.744  65.859  1.00  0.00    -0.320 A  
HETATM   12  C   UNL     1     -10.760  15.705  67.255  1.00  0.00    -0.305 A  
HETATM   13  C   UNL     1     -12.070  13.661  67.074  1.00  0.00    -0.423 A  
HETATM   14  C   UNL     1     -11.460  14.648  67.853  1.00  0.00    -0.350 A  
BRANCH  12  15
HETATM   15  C   UNL     1     -10.041  16.712  68.125  1.00  0.00    -0.267 C  
BRANCH  15  16
HETATM   16  C   UNL     1      -8.923  17.478  67.398  1.00  0.00    -0.230 C  
HETATM   17  C   UNL     1      -9.040  19.019  67.306  1.00  0.00    -0.283 C  
HETATM   18  C   UNL     1      -7.814  19.526  66.491  1.00  0.00    -0.291 C  
HETATM   19  N   UNL     1     -10.273  19.425  66.580  1.00  0.00    -0.397 NA 
HETATM   20  C   UNL     1      -9.016  19.695  68.704  1.00  0.00    -0.283 C  
HETATM   21  O   UNL     1      -7.886  20.935  66.285  1.00  0.00    -0.441 OA 
HETATM   22  O   UNL     1     -10.160  19.355  69.483  1.00  0.00    -0.520 OA 
HETATM   23  H1  UNL     1     -10.351  20.440  66.519  1.00  0.00     0.000 HD 
HETATM   24  H2  UNL     1     -11.106  19.010  66.998  1.00  0.00     0.000 HD 
HETATM   25  H   UNL     1     -10.145  19.769  70.339  1.00  0.00     0.000 HD 
HETATM   26  H   UNL     1      -7.138  21.245  65.788  1.00  0.00     0.000 HD 
ENDBRANCH  15  16
ENDBRANCH  12  15
ENDBRANCH   8   9
ENDBRANCH   7   8
ENDBRANCH   6   7
ENDBRANCH   5   6
ENDBRANCH   4   5
ENDBRANCH   3   4
ENDBRANCH   2   3
TORSDOF 9
ENDMDL
MODEL       65
REMARK 921   NORMALIZED FREE ENERGY PREDICTED BY IDOCK:   -5.11 KCAL/MOL
REMARK 922        TOTAL FREE ENERGY PREDICTED BY IDOCK:   -8.91 KCAL/MOL
REMARK 923 INTER-LIGAND FREE ENERGY PREDICTED BY IDOCK:   -7.92 KCAL/MOL
REMARK 924 INTRA-LIGAND FREE ENERGY PREDICTED BY IDOCK:   -0.99 KCAL/MOL
REMARK 927      BINDING AFFINITY PREDICTED BY RF-SCORE:    0.00 PKD
ROOT
HETATM    1  C   UNL     1     -12.149  12.502  63.436  1.00  0.00    -0.621 C  
HETATM    2  C   UNL     1     -12.561  12.663  64.888  1.00  0.00    -0.525 C  
ENDROOT
BRANCH   2   3
HETATM    3  C   UNL     1     -11.448  12.216  65.831  1.00  0.00    -0.418 C  
BRANCH   3   4
HETATM    4  C   UNL     1     -11.763  12.608  67.271  1.00  0.00    -0.435 C  
BRANCH   4   5
HETATM    5  C   UNL     1     -12.027  14.106  67.380  1.00  0.00    -0.439 C  
BRANCH   5   6
HETATM    6  C   UNL     1     -12.114  14.541  68.841  1.00  0.00    -0.272 C  
BRANCH   6   7
HETATM    7  C   UNL     1     -11.510  13.476  69.748  1.00  0.00    -0.246 C  
BRANCH   7   8
HETATM    8  C   UNL     1     -12.550  12.924  70.726  1.00  0.00    -0.314 C  
BRANCH   8   9
HETATM    9  C   UNL     1     -12.378  11.441  70.926  1.00  0.00    -0.483 A  
HETATM   10  C   UNL     1     -11.389  10.754  70.217  1.00  0.00    -0.374 A  
HETATM   11  C   UNL     1     -11.255   9.376  70.344  1.00  0.00    -0.309 A  
HETATM   12  C   UNL     1     -12.076   8.652  71.214  1.00  0.00    -0.333 A  
HETATM   13  C   UNL     1     -13.211  10.726  71.791  1.00  0.00    -0.523 A  
HETATM   14  C   UNL     1     -13.059   9.345  71.935  1.00  0.00    -0.505 A  
BRANCH  12  15
HETATM   15  C   UNL     1     -11.990   7.145  71.328  1.00  0.00    -0.374 C  
BRANCH  15  16
HETATM   16  C   UNL     1     -10.581   6.625  71.659  1.00  0.00    -0.245 C  
HETATM   17  C   UNL     1     -10.347   6.007  73.059  1.00  0.00    -0.204 C  
HETATM   18  C   UNL     1      -8.845   5.609  73.142  1.00  0.00    -0.122 C  
HETATM   19  N   UNL     1     -10.621   6.993  74.138  1.00  0.00    -0.535 NA 
HETATM   20  C   UNL     1     -11.207   4.734  73.291  1.00  0.00    -0.340 C  
HETATM   21  O   UNL     1      -8.520   5.105  74.435  1.00  0.00    -0.107 OA 
HETATM   22  O   UNL     1     -12.601   5.028  73.324  1.00  0.00    -0.195 OA 
HETATM   23  H1  UNL     1     -10.467   6.586  75.061  1.00  0.00     0.000 HD 
HETATM   24  H2  UNL     1     -11.558   7.388  74.055  1.00  0.00     0.000 HD 
HETATM   25  H   UNL     1     -13.127   4.249  73.466  1.00  0.00     0.000 HD 
HETATM   26  H   UNL     1      -7.603   4.862  74.486  1.00  0.00     0.000 HD 
ENDBRANCH  15  16
ENDBRANCH  12  15
ENDBRANCH   8   9
ENDBRANCH   7   8
ENDBRANCH   6   7
ENDBRANCH   5   6
ENDBRANCH   4   5
ENDBRANCH   3   4
ENDBRANCH   2   3
TORSDOF 9
ENDMDL
MODEL       66
REMARK 921   NORMALIZED FREE ENERGY PREDICTED BY IDOCK:   -5.06 KCAL/MOL
REMARK 922        TOTAL FREE ENERGY PREDICTED BY IDOCK:   -8.83 KCAL/MOL
REMARK 923 INTER-LIGAND FREE ENERGY PREDICTED BY IDOCK:   -6.72 KCAL/MOL
REMARK 924 INTRA-LIGAND FREE ENERGY PREDICTED BY IDOCK:   -2.11 KCAL/MOL
REMARK 927      BINDING AFFINITY PREDICTED BY RF-SCORE:    0.00 PKD
ROOT
HETATM    1  C   UNL     1      -9.394   9.479  70.074  1.00  0.00    -0.265 C  
HETATM    2  C   UNL     1     -10.863   9.836  69.924  1.00  0.00    -0.306 C  
ENDROOT
BRANCH   2   3
HETATM    3  C   UNL     1     -11.579   9.808  71.272  1.00  0.00    -0.465 C  
BRANCH   3   4
HETATM    4  C   UNL     1     -12.396   8.530  71.428  1.00  0.00    -0.332 C  
BRANCH   4   5
HETATM    5  C   UNL     1     -11.756   7.598  72.452  1.00  0.00    -0.366 C  
BRANCH   5   6
HETATM    6  C   UNL     1     -11.784   6.151  71.967  1.00  0.00    -0.354 C  
BRANCH   6   7
HETATM    7  C   UNL     1     -10.366   5.638  71.747  1.00  0.00    -0.268 C  
BRANCH   7   8
HETATM    8  C   UNL     1     -10.265   4.818  70.458  1.00  0.00    -0.252 C  
BRANCH   8   9
HETATM    9  C   UNL     1     -10.067   5.707  69.259  1.00  0.00    -0.281 A  
HETATM   10  C   UNL     1      -8.773   6.055  68.859  1.00  0.00    -0.122 A  
HETATM   11  C   UNL     1      -8.573   6.924  67.791  1.00  0.00    -0.122 A  
HETATM   12  C   UNL     1      -9.655   7.433  67.067  1.00  0.00    -0.221 A  
HETATM   13  C   UNL     1     -11.156   6.219  68.549  1.00  0.00    -0.397 A  
HETATM   14  C   UNL     1     -10.951   7.072  67.461  1.00  0.00    -0.299 A  
BRANCH  12  15
HETATM   15  C   UNL     1      -9.467   8.424  65.938  1.00  0.00    -0.169 C  
BRANCH  15  16
HETATM   16  C   UNL     1      -9.927   9.851  66.280  1.00  0.00    -0.322 C  
HETATM   17  C   UNL     1      -9.546  10.990  65.303  1.00  0.00    -0.227 C  
HETATM   18  C   UNL     1     -10.091  12.317  65.906  1.00  0.00    -0.251 C  
HETATM   19  N   UNL     1      -8.069  11.118  65.172  1.00  0.00    -0.347 NA 
HETATM   20  C   UNL     1     -10.174  10.793  63.896  1.00  0.00    -0.309 C  
HETATM   21  O   UNL     1      -9.710  13.436  65.108  1.00  0.00    -0.532 OA 
HETATM   22  O   UNL     1      -9.654   9.644  63.233  1.00  0.00    -0.512 OA 
HETATM   23  H1  UNL     1      -7.817  11.868  64.528  1.00  0.00     0.000 HD 
HETATM   24  H2  UNL     1      -7.639  10.233  64.902  1.00  0.00     0.000 HD 
HETATM   25  H   UNL     1     -10.039   9.523  62.372  1.00  0.00     0.000 HD 
HETATM   26  H   UNL     1     -10.043  14.246  65.476  1.00  0.00     0.000 HD 
ENDBRANCH  15  16
ENDBRANCH  12  15
ENDBRANCH   8   9
ENDBRANCH   7   8
ENDBRANCH   6   7
ENDBRANCH   5   6
ENDBRANCH   4   5
ENDBRANCH   3   4
ENDBRANCH   2   3
TORSDOF 9
ENDMDL
MODEL       67
REMARK 921   NORMALIZED FREE ENERGY PREDICTED BY IDOCK:   -5.04 KCAL/MOL
REMARK 922        TOTAL FREE ENERGY PREDICTED BY IDOCK:   -8.80 KCAL/MOL
REMARK 923 INTER-LIGAND FREE ENERGY PREDICTED BY IDOCK:   -6.79 KCAL/MOL
REMARK 924 INTRA-LIGAND FREE ENERGY PREDICTED BY IDOCK:   -2.00 KCAL/MOL
REMARK 927      BINDING AFFINITY PREDICTED BY RF-SCORE:    0.00 PKD
ROOT
HETATM    1  C   UNL     1     -12.008  10.639  70.343  1.00  0.00    -0.436 C  
HETATM    2  C   UNL     1     -12.209   9.637  71.466  1.00  0.00    -0.483 C  
ENDROOT
BRANCH   2   3
HETATM    3  C   UNL     1     -10.876   9.073  71.949  1.00  0.00    -0.413 C  
BRANCH   3   4
HETATM    4  C   UNL     1     -11.072   7.726  72.638  1.00  0.00    -0.433 C  
BRANCH   4   5
HETATM    5  C   UNL     1     -11.887   6.781  71.760  1.00  0.00    -0.371 C  
BRANCH   5   6
HETATM    6  C   UNL     1     -10.986   5.749  71.087  1.00  0.00    -0.295 C  
BRANCH   6   7
HETATM    7  C   UNL     1     -10.958   5.972  69.580  1.00  0.00    -0.470 C  
BRANCH   7   8
HETATM    8  C   UNL     1      -9.546   6.304  69.093  1.00  0.00    -0.148 C  
BRANCH   8   9
HETATM    9  C   UNL     1      -9.506   7.644  68.406  1.00  0.00    -0.150 A  
HETATM   10  C   UNL     1      -8.536   8.583  68.771  1.00  0.00    -0.131 A  
HETATM   11  C   UNL     1      -8.522   9.846  68.191  1.00  0.00    -0.114 A  
HETATM   12  C   UNL     1      -9.446  10.192  67.200  1.00  0.00    -0.185 A  
HETATM   13  C   UNL     1     -10.441   7.982  67.425  1.00  0.00    -0.357 A  
HETATM   14  C   UNL     1     -10.409   9.244  66.826  1.00  0.00    -0.296 A  
BRANCH  12  15
HETATM   15  C   UNL     1      -9.488  11.578  66.594  1.00  0.00    -0.208 C  
BRANCH  15  16
HETATM   16  C   UNL     1     -10.775  12.358  66.913  1.00  0.00    -0.269 C  
HETATM   17  C   UNL     1     -10.650  13.649  67.759  1.00  0.00    -0.242 C  
HETATM   18  C   UNL     1     -12.089  14.205  67.966  1.00  0.00    -0.268 C  
HETATM   19  N   UNL     1     -10.070  13.363  69.099  1.00  0.00    -0.413 NA 
HETATM   20  C   UNL     1      -9.798  14.737  67.049  1.00  0.00    -0.239 C  
HETATM   21  O   UNL     1     -12.075  15.354  68.810  1.00  0.00    -0.552 OA 
HETATM   22  O   UNL     1      -8.437  14.342  66.904  1.00  0.00    -0.320 OA 
HETATM   23  H1  UNL     1      -9.988  14.213  69.657  1.00  0.00     0.000 HD 
HETATM   24  H2  UNL     1      -9.177  12.876  69.024  1.00  0.00     0.000 HD 
HETATM   25  H   UNL     1      -7.916  15.009  66.470  1.00  0.00     0.000 HD 
HETATM   26  H   UNL     1     -12.954  15.694  68.937  1.00  0.00     0.000 HD 
ENDBRANCH  15  16
ENDBRANCH  12  15
ENDBRANCH   8   9
ENDBRANCH   7   8
ENDBRANCH   6   7
ENDBRANCH   5   6
ENDBRANCH   4   5
ENDBRANCH   3   4
ENDBRANCH   2   3
TORSDOF 9
ENDMDL
MODEL       68
REMARK 921   NORMALIZED FREE ENERGY PREDICTED BY IDOCK:   -5.04 KCAL/MOL
REMARK 922        TOTAL FREE ENERGY PREDICTED BY IDOCK:   -8.79 KCAL/MOL
REMARK 923 INTER-LIGAND FREE ENERGY PREDICTED BY IDOCK:   -7.10 KCAL/MOL
REMARK 924 INTRA-LIGAND FREE ENERGY PREDICTED BY IDOCK:   -1.70 KCAL/MOL
REMARK 927      BINDING AFFINITY PREDICTED BY RF-SCORE:    0.00 PKD
ROOT
HETATM    1  C   UNL     1      -7.907   6.203  70.617  1.00  0.00    -0.106 C  
HETATM    2  C   UNL     1      -8.761   5.546  69.547  1.00  0.00    -0.105 C  
ENDROOT
BRANCH   2   3
HETATM    3  C   UNL     1     -10.070   5.020  70.130  1.00  0.00    -0.338 C  
BRANCH   3   4
HETATM    4  C   UNL     1      -9.935   4.765  71.628  1.00  0.00    -0.257 C  
BRANCH   4   5
HETATM    5  C   UNL     1     -11.101   5.384  72.391  1.00  0.00    -0.289 C  
BRANCH   5   6
HETATM    6  C   UNL     1     -10.601   6.249  73.545  1.00  0.00    -0.288 C  
BRANCH   6   7
HETATM    7  C   UNL     1     -10.492   7.705  73.108  1.00  0.00    -0.433 C  
BRANCH   7   8
HETATM    8  C   UNL     1     -11.824   8.221  72.559  1.00  0.00    -0.439 C  
BRANCH   8   9
HETATM    9  C   UNL     1     -11.619   9.039  71.311  1.00  0.00    -0.387 A  
HETATM   10  C   UNL     1     -12.302  10.249  71.153  1.00  0.00    -0.501 A  
HETATM   11  C   UNL     1     -12.172  10.987  69.982  1.00  0.00    -0.418 A  
HETATM   12  C   UNL     1     -11.323  10.561  68.955  1.00  0.00    -0.319 A  
HETATM   13  C   UNL     1     -10.776   8.599  70.287  1.00  0.00    -0.243 A  
HETATM   14  C   UNL     1     -10.629   9.355  69.121  1.00  0.00    -0.234 A  
BRANCH  12  15
HETATM   15  C   UNL     1     -11.208  11.316  67.648  1.00  0.00    -0.357 C  
BRANCH  15  16
HETATM   16  C   UNL     1     -11.742  12.756  67.711  1.00  0.00    -0.412 C  
HETATM   17  C   UNL     1     -10.714  13.913  67.697  1.00  0.00    -0.249 C  
HETATM   18  C   UNL     1     -11.515  15.243  67.814  1.00  0.00    -0.303 C  
HETATM   19  N   UNL     1      -9.790  13.829  68.860  1.00  0.00    -0.417 NA 
HETATM   20  C   UNL     1      -9.888  13.949  66.382  1.00  0.00    -0.295 C  
HETATM   21  O   UNL     1     -10.636  16.363  67.893  1.00  0.00    -0.299 OA 
HETATM   22  O   UNL     1      -9.051  12.804  66.243  1.00  0.00    -0.407 OA 
HETATM   23  H1  UNL     1      -9.112  14.592  68.851  1.00  0.00     0.000 HD 
HETATM   24  H2  UNL     1      -9.331  12.921  68.908  1.00  0.00     0.000 HD 
HETATM   25  H   UNL     1      -8.546  12.827  65.438  1.00  0.00     0.000 HD 
HETATM   26  H   UNL     1     -11.125  17.175  67.964  1.00  0.00     0.000 HD 
ENDBRANCH  15  16
ENDBRANCH  12  15
ENDBRANCH   8   9
ENDBRANCH   7   8
ENDBRANCH   6   7
ENDBRANCH   5   6
ENDBRANCH   4   5
ENDBRANCH   3   4
ENDBRANCH   2   3
TORSDOF 9
ENDMDL
MODEL       69
REMARK 921   NORMALIZED FREE ENERGY PREDICTED BY IDOCK:   -5.03 KCAL/MOL
REMARK 922        TOTAL FREE ENERGY PREDICTED BY IDOCK:   -8.79 KCAL/MOL
REMARK 923 INTER-LIGAND FREE ENERGY PREDICTED BY IDOCK:   -7.48 KCAL/MOL
REMARK 924 INTRA-LIGAND FREE ENERGY PREDICTED BY IDOCK:   -1.31 KCAL/MOL
REMARK 927      BINDING AFFINITY PREDICTED BY RF-SCORE:    0.00 PKD
ROOT
HETATM    1  C   UNL     1      -7.431   6.968  71.754  1.00  0.00    -0.087 C  
HETATM    2  C   UNL     1      -7.988   7.289  70.379  1.00  0.00    -0.104 C  
ENDROOT
BRANCH   2   3
HETATM    3  C   UNL     1      -8.858   6.149  69.855  1.00  0.00    -0.140 C  
BRANCH   3   4
HETATM    4  C   UNL     1      -9.983   5.828  70.834  1.00  0.00    -0.243 C  
BRANCH   4   5
HETATM    5  C   UNL     1     -11.292   6.468  70.384  1.00  0.00    -0.443 C  
BRANCH   5   6
HETATM    6  C   UNL     1     -12.245   6.648  71.563  1.00  0.00    -0.391 C  
BRANCH   6   7
HETATM    7  C   UNL     1     -11.677   7.656  72.555  1.00  0.00    -0.352 C  
BRANCH   7   8
HETATM    8  C   UNL     1     -12.358   9.019  72.412  1.00  0.00    -0.350 C  
BRANCH   8   9
HETATM    9  C   UNL     1     -11.800   9.788  71.242  1.00  0.00    -0.481 A  
HETATM   10  C   UNL     1     -12.639  10.620  70.495  1.00  0.00    -0.433 A  
HETATM   11  C   UNL     1     -12.156  11.290  69.376  1.00  0.00    -0.384 A  
HETATM   12  C   UNL     1     -10.813  11.182  68.999  1.00  0.00    -0.276 A  
HETATM   13  C   UNL     1     -10.459   9.665  70.868  1.00  0.00    -0.359 A  
HETATM   14  C   UNL     1      -9.971  10.358  69.758  1.00  0.00    -0.167 A  
BRANCH  12  15
HETATM   15  C   UNL     1     -10.276  11.854  67.753  1.00  0.00    -0.211 C  
BRANCH  15  16
HETATM   16  C   UNL     1     -11.353  12.165  66.700  1.00  0.00    -0.405 C  
HETATM   17  C   UNL     1     -10.906  12.301  65.224  1.00  0.00    -0.293 C  
HETATM   18  C   UNL     1     -12.171  12.655  64.390  1.00  0.00    -0.443 C  
HETATM   19  N   UNL     1      -9.922  13.405  65.057  1.00  0.00    -0.564 NA 
HETATM   20  C   UNL     1     -10.302  10.982  64.668  1.00  0.00    -0.345 C  
HETATM   21  O   UNL     1     -11.835  12.883  63.023  1.00  0.00    -0.827 OA 
HETATM   22  O   UNL     1      -9.083  10.634  65.318  1.00  0.00    -0.179 OA 
HETATM   23  H1  UNL     1      -9.627  13.495  64.085  1.00  0.00     0.000 HD 
HETATM   24  H2  UNL     1      -9.123  13.291  65.681  1.00  0.00     0.000 HD 
HETATM   25  H   UNL     1      -8.714   9.827  64.978  1.00  0.00     0.000 HD 
HETATM   26  H   UNL     1     -12.607  13.099  62.514  1.00  0.00     0.000 HD 
ENDBRANCH  15  16
ENDBRANCH  12  15
ENDBRANCH   8   9
ENDBRANCH   7   8
ENDBRANCH   6   7
ENDBRANCH   5   6
ENDBRANCH   4   5
ENDBRANCH   3   4
ENDBRANCH   2   3
TORSDOF 9
ENDMDL
MODEL       70
REMARK 921   NORMALIZED FREE ENERGY PREDICTED BY IDOCK:   -5.03 KCAL/MOL
REMARK 922        TOTAL FREE ENERGY PREDICTED BY IDOCK:   -8.78 KCAL/MOL
REMARK 923 INTER-LIGAND FREE ENERGY PREDICTED BY IDOCK:   -6.31 KCAL/MOL
REMARK 924 INTRA-LIGAND FREE ENERGY PREDICTED BY IDOCK:   -2.47 KCAL/MOL
REMARK 927      BINDING AFFINITY PREDICTED BY RF-SCORE:    0.00 PKD
ROOT
HETATM    1  C   UNL     1     -12.868  10.653  71.179  1.00  0.00    -0.518 C  
HETATM    2  C   UNL     1     -12.011  11.650  70.420  1.00  0.00    -0.448 C  
ENDROOT
BRANCH   2   3
HETATM    3  C   UNL     1     -12.126  11.443  68.913  1.00  0.00    -0.285 C  
BRANCH   3   4
HETATM    4  C   UNL     1     -11.543  12.631  68.154  1.00  0.00    -0.386 C  
BRANCH   4   5
HETATM    5  C   UNL     1     -11.765  12.478  66.653  1.00  0.00    -0.453 C  
BRANCH   5   6
HETATM    6  C   UNL     1     -10.449  12.200  65.931  1.00  0.00    -0.288 C  
BRANCH   6   7
HETATM    7  C   UNL     1     -10.381  10.741  65.496  1.00  0.00    -0.308 C  
BRANCH   7   8
HETATM    8  C   UNL     1      -9.115  10.062  66.023  1.00  0.00    -0.189 C  
BRANCH   8   9
HETATM    9  C   UNL     1      -9.279   9.641  67.460  1.00  0.00    -0.149 A  
HETATM   10  C   UNL     1     -10.166   8.611  67.785  1.00  0.00    -0.282 A  
HETATM   11  C   UNL     1     -10.375   8.250  69.111  1.00  0.00    -0.225 A  
HETATM   12  C   UNL     1      -9.673   8.877  70.146  1.00  0.00    -0.199 A  
HETATM   13  C   UNL     1      -8.580  10.282  68.486  1.00  0.00    -0.126 A  
HETATM   14  C   UNL     1      -8.775   9.901  69.817  1.00  0.00    -0.229 A  
BRANCH  12  15
HETATM   15  C   UNL     1      -9.925   8.543  71.600  1.00  0.00    -0.329 C  
BRANCH  15  16
HETATM   16  C   UNL     1      -9.491   7.122  71.997  1.00  0.00    -0.151 C  
HETATM   17  C   UNL     1     -10.436   6.303  72.909  1.00  0.00    -0.218 C  
HETATM   18  C   UNL     1      -9.741   4.938  73.187  1.00  0.00    -0.141 C  
HETATM   19  N   UNL     1     -10.649   6.983  74.216  1.00  0.00    -0.531 NA 
HETATM   20  C   UNL     1     -11.810   6.029  72.238  1.00  0.00    -0.250 C  
HETATM   21  O   UNL     1     -10.508   4.148  74.093  1.00  0.00    -0.189 OA 
HETATM   22  O   UNL     1     -12.555   7.226  72.035  1.00  0.00    -0.418 OA 
HETATM   23  H1  UNL     1     -11.272   6.444  74.817  1.00  0.00     0.000 HD 
HETATM   24  H2  UNL     1     -10.985   7.938  74.090  1.00  0.00     0.000 HD 
HETATM   25  H   UNL     1     -13.396   7.058  71.624  1.00  0.00     0.000 HD 
HETATM   26  H   UNL     1     -10.084   3.315  74.262  1.00  0.00     0.000 HD 
ENDBRANCH  15  16
ENDBRANCH  12  15
ENDBRANCH   8   9
ENDBRANCH   7   8
ENDBRANCH   6   7
ENDBRANCH   5   6
ENDBRANCH   4   5
ENDBRANCH   3   4
ENDBRANCH   2   3
TORSDOF 9
ENDMDL
MODEL       71
REMARK 921   NORMALIZED FREE ENERGY PREDICTED BY IDOCK:   -5.02 KCAL/MOL
REMARK 922        TOTAL FREE ENERGY PREDICTED BY IDOCK:   -8.77 KCAL/MOL
REMARK 923 INTER-LIGAND FREE ENERGY PREDICTED BY IDOCK:   -6.60 KCAL/MOL
REMARK 924 INTRA-LIGAND FREE ENERGY PREDICTED BY IDOCK:   -2.17 KCAL/MOL
REMARK 927      BINDING AFFINITY PREDICTED BY RF-SCORE:    0.00 PKD
ROOT
HETATM    1  C   UNL     1     -11.208  10.897  67.927  1.00  0.00    -0.387 C  
HETATM    2  C   UNL     1      -9.879  11.629  67.858  1.00  0.00    -0.189 C  
ENDROOT
BRANCH   2   3
HETATM    3  C   UNL     1      -9.335  11.653  66.433  1.00  0.00    -0.224 C  
BRANCH   3   4
HETATM    4  C   UNL     1     -10.148  10.737  65.524  1.00  0.00    -0.335 C  
BRANCH   4   5
HETATM    5  C   UNL     1      -9.670  10.843  64.079  1.00  0.00    -0.351 C  
BRANCH   5   6
HETATM    6  C   UNL     1     -10.480  11.885  63.312  1.00  0.00    -0.427 C  
BRANCH   6   7
HETATM    7  C   UNL     1     -11.940  11.848  63.747  1.00  0.00    -0.547 C  
BRANCH   7   8
HETATM    8  C   UNL     1     -12.513  13.259  63.890  1.00  0.00    -0.331 C  
BRANCH   8   9
HETATM    9  C   UNL     1     -11.826  14.019  64.995  1.00  0.00    -0.383 A  
HETATM   10  C   UNL     1     -12.326  13.953  66.298  1.00  0.00    -0.489 A  
HETATM   11  C   UNL     1     -11.741  14.695  67.318  1.00  0.00    -0.406 A  
HETATM   12  C   UNL     1     -10.614  15.487  67.075  1.00  0.00    -0.311 A  
HETATM   13  C   UNL     1     -10.706  14.815  64.737  1.00  0.00    -0.380 A  
HETATM   14  C   UNL     1     -10.105  15.540  65.770  1.00  0.00    -0.388 A  
BRANCH  12  15
HETATM   15  C   UNL     1      -9.993  16.348  68.154  1.00  0.00    -0.242 C  
BRANCH  15  16
HETATM   16  C   UNL     1      -8.959  17.357  67.627  1.00  0.00    -0.233 C  
HETATM   17  C   UNL     1      -7.469  17.114  67.968  1.00  0.00    -0.195 C  
HETATM   18  C   UNL     1      -6.658  18.294  67.357  1.00  0.00    -0.191 C  
HETATM   19  N   UNL     1      -7.244  17.115  69.439  1.00  0.00    -0.132 NA 
HETATM   20  C   UNL     1      -6.937  15.785  67.364  1.00  0.00    -0.202 C  
HETATM   21  O   UNL     1      -5.276  18.194  67.696  1.00  0.00    -0.140 OA 
HETATM   22  O   UNL     1      -7.565  14.644  67.942  1.00  0.00    -0.115 OA 
HETATM   23  H1  UNL     1      -6.261  16.954  69.664  1.00  0.00     0.000 HD 
HETATM   24  H2  UNL     1      -7.850  16.444  69.910  1.00  0.00     0.000 HD 
HETATM   25  H   UNL     1      -7.239  13.831  67.572  1.00  0.00     0.000 HD 
HETATM   26  H   UNL     1      -4.781  18.914  67.324  1.00  0.00     0.000 HD 
ENDBRANCH  15  16
ENDBRANCH  12  15
ENDBRANCH   8   9
ENDBRANCH   7   8
ENDBRANCH   6   7
ENDBRANCH   5   6
ENDBRANCH   4   5
ENDBRANCH   3   4
ENDBRANCH   2   3
TORSDOF 9
ENDMDL
MODEL       72
REMARK 921   NORMALIZED FREE ENERGY PREDICTED BY IDOCK:   -5.00 KCAL/MOL
REMARK 922        TOTAL FREE ENERGY PREDICTED BY IDOCK:   -8.74 KCAL/MOL
REMARK 923 INTER-LIGAND FREE ENERGY PREDICTED BY IDOCK:   -7.16 KCAL/MOL
REMARK 924 INTRA-LIGAND FREE ENERGY PREDICTED BY IDOCK:   -1.59 KCAL/MOL
REMARK 927      BINDING AFFINITY PREDICTED BY RF-SCORE:    0.00 PKD
ROOT
HETATM    1  C   UNL     1      -7.592   7.983  72.889  1.00  0.00    -0.168 C  
HETATM    2  C   UNL     1      -8.230   8.315  71.552  1.00  0.00    -0.164 C  
ENDROOT
BRANCH   2   3
HETATM    3  C   UNL     1      -8.284   7.089  70.645  1.00  0.00    -0.119 C  
BRANCH   3   4
HETATM    4  C   UNL     1      -8.592   5.830  71.449  1.00  0.00    -0.129 C  
BRANCH   4   5
HETATM    5  C   UNL     1     -10.082   5.510  71.408  1.00  0.00    -0.258 C  
BRANCH   5   6
HETATM    6  C   UNL     1     -10.727   5.739  72.773  1.00  0.00    -0.278 C  
BRANCH   6   7
HETATM    7  C   UNL     1     -11.370   7.120  72.830  1.00  0.00    -0.257 C  
BRANCH   7   8
HETATM    8  C   UNL     1     -12.214   7.392  71.583  1.00  0.00    -0.361 C  
BRANCH   8   9
HETATM    9  C   UNL     1     -12.090   8.828  71.143  1.00  0.00    -0.310 A  
HETATM   10  C   UNL     1     -12.863   9.813  71.764  1.00  0.00    -0.530 A  
HETATM   11  C   UNL     1     -12.807  11.134  71.330  1.00  0.00    -0.544 A  
HETATM   12  C   UNL     1     -11.945  11.514  70.296  1.00  0.00    -0.455 A  
HETATM   13  C   UNL     1     -11.234   9.194  70.101  1.00  0.00    -0.211 A  
HETATM   14  C   UNL     1     -11.161  10.526  69.684  1.00  0.00    -0.342 A  
BRANCH  12  15
HETATM   15  C   UNL     1     -11.907  12.931  69.768  1.00  0.00    -0.380 C  
BRANCH  15  16
HETATM   16  C   UNL     1     -10.881  13.149  68.643  1.00  0.00    -0.287 C  
HETATM   17  C   UNL     1     -11.169  14.260  67.604  1.00  0.00    -0.304 C  
HETATM   18  C   UNL     1     -10.008  14.233  66.567  1.00  0.00    -0.281 C  
HETATM   19  N   UNL     1     -12.440  14.003  66.875  1.00  0.00    -0.529 NA 
HETATM   20  C   UNL     1     -11.220  15.671  68.251  1.00  0.00    -0.353 C  
HETATM   21  O   UNL     1     -10.235  15.174  65.520  1.00  0.00    -0.322 OA 
HETATM   22  O   UNL     1     -12.318  15.810  69.148  1.00  0.00    -0.573 OA 
HETATM   23  H1  UNL     1     -12.630  14.735  66.190  1.00  0.00     0.000 HD 
HETATM   24  H2  UNL     1     -13.222  13.881  67.519  1.00  0.00     0.000 HD 
HETATM   25  H   UNL     1     -12.349  16.674  69.543  1.00  0.00     0.000 HD 
HETATM   26  H   UNL     1      -9.527  15.158  64.888  1.00  0.00     0.000 HD 
ENDBRANCH  15  16
ENDBRANCH  12  15
ENDBRANCH   8   9
ENDBRANCH   7   8
ENDBRANCH   6   7
ENDBRANCH   5   6
ENDBRANCH   4   5
ENDBRANCH   3   4
ENDBRANCH   2   3
TORSDOF 9
ENDMDL
MODEL       73
REMARK 921   NORMALIZED FREE ENERGY PREDICTED BY IDOCK:   -4.99 KCAL/MOL
REMARK 922        TOTAL FREE ENERGY PREDICTED BY IDOCK:   -8.72 KCAL/MOL
REMARK 923 INTER-LIGAND FREE ENERGY PREDICTED BY IDOCK:   -6.44 KCAL/MOL
REMARK 924 INTRA-LIGAND FREE ENERGY PREDICTED BY IDOCK:   -2.27 KCAL/MOL
REMARK 927      BINDING AFFINITY PREDICTED BY RF-SCORE:    0.00 PKD
ROOT
HETATM    1  C   UNL     1     -11.588  16.035  64.483  1.00  0.00    -0.205 C  
HETATM    2  C   UNL     1     -11.220  14.576  64.686  1.00  0.00    -0.359 C  
ENDROOT
BRANCH   2   3
HETATM    3  C   UNL     1     -12.412  13.771  65.196  1.00  0.00    -0.483 C  
BRANCH   3   4
HETATM    4  C   UNL     1     -12.139  12.273  65.101  1.00  0.00    -0.379 C  
BRANCH   4   5
HETATM    5  C   UNL     1     -10.813  11.920  65.766  1.00  0.00    -0.341 C  
BRANCH   5   6
HETATM    6  C   UNL     1     -11.034  11.406  67.186  1.00  0.00    -0.340 C  
BRANCH   6   7
HETATM    7  C   UNL     1     -10.054  12.066  68.148  1.00  0.00    -0.200 C  
BRANCH   7   8
HETATM    8  C   UNL     1     -10.760  13.084  69.048  1.00  0.00    -0.138 C  
BRANCH   8   9
HETATM    9  C   UNL     1     -10.540  14.491  68.556  1.00  0.00    -0.252 A  
HETATM   10  C   UNL     1      -9.439  14.780  67.744  1.00  0.00    -0.204 A  
HETATM   11  C   UNL     1      -9.187  16.083  67.331  1.00  0.00    -0.214 A  
HETATM   12  C   UNL     1     -10.050  17.127  67.680  1.00  0.00    -0.305 A  
HETATM   13  C   UNL     1     -11.404  15.528  68.920  1.00  0.00    -0.329 A  
HETATM   14  C   UNL     1     -11.161  16.833  68.484  1.00  0.00    -0.260 A  
BRANCH  12  15
HETATM   15  C   UNL     1      -9.767  18.562  67.292  1.00  0.00    -0.313 C  
BRANCH  15  16
HETATM   16  C   UNL     1      -8.574  18.725  66.337  1.00  0.00    -0.294 C  
HETATM   17  C   UNL     1      -7.422  19.665  66.769  1.00  0.00    -0.244 C  
HETATM   18  C   UNL     1      -6.380  19.679  65.612  1.00  0.00    -0.221 C  
HETATM   19  N   UNL     1      -7.906  21.058  66.967  1.00  0.00    -0.620 NA 
HETATM   20  C   UNL     1      -6.716  19.174  68.063  1.00  0.00    -0.235 C  
HETATM   21  O   UNL     1      -5.319  20.590  65.891  1.00  0.00    -0.170 OA 
HETATM   22  O   UNL     1      -7.579  19.220  69.195  1.00  0.00    -0.337 OA 
HETATM   23  H1  UNL     1      -7.148  21.678  67.252  1.00  0.00     0.000 HD 
HETATM   24  H2  UNL     1      -8.685  21.093  67.625  1.00  0.00     0.000 HD 
HETATM   25  H   UNL     1      -7.147  18.920  69.986  1.00  0.00     0.000 HD 
HETATM   26  H   UNL     1      -4.683  20.599  65.186  1.00  0.00     0.000 HD 
ENDBRANCH  15  16
ENDBRANCH  12  15
ENDBRANCH   8   9
ENDBRANCH   7   8
ENDBRANCH   6   7
ENDBRANCH   5   6
ENDBRANCH   4   5
ENDBRANCH   3   4
ENDBRANCH   2   3
TORSDOF 9
ENDMDL
MODEL       74
REMARK 921   NORMALIZED FREE ENERGY PREDICTED BY IDOCK:   -4.98 KCAL/MOL
REMARK 922        TOTAL FREE ENERGY PREDICTED BY IDOCK:   -8.71 KCAL/MOL
REMARK 923 INTER-LIGAND FREE ENERGY PREDICTED BY IDOCK:   -7.60 KCAL/MOL
REMARK 924 INTRA-LIGAND FREE ENERGY PREDICTED BY IDOCK:   -1.12 KCAL/MOL
REMARK 927      BINDING AFFINITY PREDICTED BY RF-SCORE:    0.00 PKD
ROOT
HETATM    1  C   UNL     1      -7.876  16.146  69.109  1.00  0.00    -0.232 C  
HETATM    2  C   UNL     1      -9.015  15.572  68.285  1.00  0.00    -0.185 C  
ENDROOT
BRANCH   2   3
HETATM    3  C   UNL     1      -9.510  16.578  67.250  1.00  0.00    -0.237 C  
BRANCH   3   4
HETATM    4  C   UNL     1      -9.341  16.033  65.836  1.00  0.00    -0.335 C  
BRANCH   4   5
HETATM    5  C   UNL     1     -10.668  16.050  65.085  1.00  0.00    -0.429 C  
BRANCH   5   6
HETATM    6  C   UNL     1     -11.107  14.634  64.720  1.00  0.00    -0.394 C  
BRANCH   6   7
HETATM    7  C   UNL     1     -12.407  14.282  65.432  1.00  0.00    -0.421 C  
BRANCH   7   8
HETATM    8  C   UNL     1     -12.214  14.230  66.949  1.00  0.00    -0.366 C  
BRANCH   8   9
HETATM    9  C   UNL     1     -11.789  12.856  67.399  1.00  0.00    -0.418 A  
HETATM   10  C   UNL     1     -11.724  12.561  68.763  1.00  0.00    -0.371 A  
HETATM   11  C   UNL     1     -11.277  11.318  69.198  1.00  0.00    -0.337 A  
HETATM   12  C   UNL     1     -10.924  10.321  68.282  1.00  0.00    -0.315 A  
HETATM   13  C   UNL     1     -11.429  11.872  66.474  1.00  0.00    -0.381 A  
HETATM   14  C   UNL     1     -11.003  10.615  66.913  1.00  0.00    -0.228 A  
BRANCH  12  15
HETATM   15  C   UNL     1     -10.380   8.981  68.728  1.00  0.00    -0.236 C  
BRANCH  15  16
HETATM   16  C   UNL     1     -10.225   8.849  70.252  1.00  0.00    -0.230 C  
HETATM   17  C   UNL     1     -11.201   7.909  71.001  1.00  0.00    -0.269 C  
HETATM   18  C   UNL     1     -10.853   7.996  72.516  1.00  0.00    -0.349 C  
HETATM   19  N   UNL     1     -12.612   8.346  70.828  1.00  0.00    -0.479 NA 
HETATM   20  C   UNL     1     -11.058   6.430  70.547  1.00  0.00    -0.328 C  
HETATM   21  O   UNL     1     -11.763   7.222  73.294  1.00  0.00    -0.515 OA 
HETATM   22  O   UNL     1     -11.450   6.246  69.190  1.00  0.00    -0.543 OA 
HETATM   23  H1  UNL     1     -13.256   7.727  71.321  1.00  0.00     0.000 HD 
HETATM   24  H2  UNL     1     -12.858   8.433  69.842  1.00  0.00     0.000 HD 
HETATM   25  H   UNL     1     -11.362   5.341  68.912  1.00  0.00     0.000 HD 
HETATM   26  H   UNL     1     -11.551   7.275  74.219  1.00  0.00     0.000 HD 
ENDBRANCH  15  16
ENDBRANCH  12  15
ENDBRANCH   8   9
ENDBRANCH   7   8
ENDBRANCH   6   7
ENDBRANCH   5   6
ENDBRANCH   4   5
ENDBRANCH   3   4
ENDBRANCH   2   3
TORSDOF 9
ENDMDL
MODEL       75
REMARK 921   NORMALIZED FREE ENERGY PREDICTED BY IDOCK:   -4.97 KCAL/MOL
REMARK 922        TOTAL FREE ENERGY PREDICTED BY IDOCK:   -8.69 KCAL/MOL
REMARK 923 INTER-LIGAND FREE ENERGY PREDICTED BY IDOCK:   -7.69 KCAL/MOL
REMARK 924 INTRA-LIGAND FREE ENERGY PREDICTED BY IDOCK:   -1.01 KCAL/MOL
REMARK 927      BINDING AFFINITY PREDICTED BY RF-SCORE:    0.00 PKD
ROOT
HETATM    1  C   UNL     1     -12.932   8.621  72.039  1.00  0.00    -0.419 C  
HETATM    2  C   UNL     1     -12.388   7.228  71.779  1.00  0.00    -0.375 C  
ENDROOT
BRANCH   2   3
HETATM    3  C   UNL     1     -10.874   7.181  71.965  1.00  0.00    -0.252 C  
BRANCH   3   4
HETATM    4  C   UNL     1     -10.180   6.757  70.674  1.00  0.00    -0.216 C  
BRANCH   4   5
HETATM    5  C   UNL     1     -11.170   6.107  69.714  1.00  0.00    -0.494 C  
BRANCH   5   6
HETATM    6  C   UNL     1     -10.822   6.438  68.265  1.00  0.00    -0.384 C  
BRANCH   6   7
HETATM    7  C   UNL     1     -10.086   7.770  68.186  1.00  0.00    -0.220 C  
BRANCH   7   8
HETATM    8  C   UNL     1      -9.794   8.159  66.735  1.00  0.00    -0.329 C  
BRANCH   8   9
HETATM    9  C   UNL     1     -10.319   9.536  66.423  1.00  0.00    -0.243 A  
HETATM   10  C   UNL     1     -10.247  10.027  65.116  1.00  0.00    -0.146 A  
HETATM   11  C   UNL     1     -10.670  11.319  64.822  1.00  0.00    -0.352 A  
HETATM   12  C   UNL     1     -11.218  12.139  65.814  1.00  0.00    -0.384 A  
HETATM   13  C   UNL     1     -10.855  10.350  67.424  1.00  0.00    -0.344 A  
HETATM   14  C   UNL     1     -11.302  11.639  67.121  1.00  0.00    -0.373 A  
BRANCH  12  15
HETATM   15  C   UNL     1     -11.633  13.567  65.532  1.00  0.00    -0.337 C  
BRANCH  15  16
HETATM   16  C   UNL     1     -11.427  14.521  66.720  1.00  0.00    -0.376 C  
HETATM   17  C   UNL     1     -10.469  15.722  66.528  1.00  0.00    -0.303 C  
HETATM   18  C   UNL     1     -10.411  16.487  67.882  1.00  0.00    -0.313 C  
HETATM   19  N   UNL     1      -9.091  15.267  66.198  1.00  0.00    -0.414 NA 
HETATM   20  C   UNL     1     -10.967  16.701  65.429  1.00  0.00    -0.091 C  
HETATM   21  O   UNL     1      -9.482  17.567  67.820  1.00  0.00    -0.261 OA 
HETATM   22  O   UNL     1     -10.960  16.104  64.135  1.00  0.00    -1.061 OA 
HETATM   23  H1  UNL     1      -8.460  16.059  66.071  1.00  0.00     0.000 HD 
HETATM   24  H2  UNL     1      -9.085  14.650  65.386  1.00  0.00     0.000 HD 
HETATM   25  H   UNL     1     -11.265  16.704  63.464  1.00  0.00     0.000 HD 
HETATM   26  H   UNL     1      -9.447  18.034  68.646  1.00  0.00     0.000 HD 
ENDBRANCH  15  16
ENDBRANCH  12  15
ENDBRANCH   8   9
ENDBRANCH   7   8
ENDBRANCH   6   7
ENDBRANCH   5   6
ENDBRANCH   4   5
ENDBRANCH   3   4
ENDBRANCH   2   3
TORSDOF 9
ENDMDL
MODEL       76
REMARK 921   NORMALIZED FREE ENERGY PREDICTED BY IDOCK:   -4.95 KCAL/MOL
REMARK 922        TOTAL FREE ENERGY PREDICTED BY IDOCK:   -8.66 KCAL/MOL
REMARK 923 INTER-LIGAND FREE ENERGY PREDICTED BY IDOCK:   -7.29 KCAL/MOL
REMARK 924 INTRA-LIGAND FREE ENERGY PREDICTED BY IDOCK:   -1.37 KCAL/MOL
REMARK 927      BINDING AFFINITY PREDICTED BY RF-SCORE:    0.00 PKD
ROOT
HETATM    1  C   UNL     1      -8.152   6.964  73.601  1.00  0.00    -0.120 C  
HETATM    2  C   UNL     1      -7.924   7.048  72.102  1.00  0.00    -0.093 C  
ENDROOT
BRANCH   2   3
HETATM    3  C   UNL     1      -7.968   5.666  71.457  1.00  0.00    -0.117 C  
BRANCH   3   4
HETATM    4  C   UNL     1      -8.849   4.716  72.263  1.00  0.00    -0.133 C  
BRANCH   4   5
HETATM    5  C   UNL     1     -10.217   4.558  71.608  1.00  0.00    -0.214 C  
BRANCH   5   6
HETATM    6  C   UNL     1     -11.336   4.825  72.611  1.00  0.00    -0.094 C  
BRANCH   6   7
HETATM    7  C   UNL     1     -11.668   6.312  72.652  1.00  0.00    -0.164 C  
BRANCH   7   8
HETATM    8  C   UNL     1     -11.802   6.891  71.242  1.00  0.00    -0.385 C  
BRANCH   8   9
HETATM    9  C   UNL     1     -12.009   8.383  71.282  1.00  0.00    -0.323 A  
HETATM   10  C   UNL     1     -13.030   8.921  72.069  1.00  0.00    -0.454 A  
HETATM   11  C   UNL     1     -13.274  10.290  72.071  1.00  0.00    -0.516 A  
HETATM   12  C   UNL     1     -12.478  11.163  71.322  1.00  0.00    -0.466 A  
HETATM   13  C   UNL     1     -11.213   9.244  70.521  1.00  0.00    -0.315 A  
HETATM   14  C   UNL     1     -11.446  10.622  70.543  1.00  0.00    -0.407 A  
BRANCH  12  15
HETATM   15  C   UNL     1     -12.759  12.649  71.261  1.00  0.00    -0.354 C  
BRANCH  15  16
HETATM   16  C   UNL     1     -12.820  13.328  72.640  1.00  0.00     0.002 C  
HETATM   17  C   UNL     1     -12.553  14.850  72.712  1.00  0.00    -0.385 C  
HETATM   18  C   UNL     1     -12.633  15.263  74.210  1.00  0.00    -0.433 C  
HETATM   19  N   UNL     1     -11.190  15.184  72.216  1.00  0.00    -0.443 NA 
HETATM   20  C   UNL     1     -13.607  15.671  71.918  1.00  0.00    -0.428 C  
HETATM   21  O   UNL     1     -12.315  16.643  74.379  1.00  0.00    -0.687 OA 
HETATM   22  O   UNL     1     -13.536  15.421  70.517  1.00  0.00    -0.760 OA 
HETATM   23  H1  UNL     1     -11.014  16.188  72.263  1.00  0.00     0.000 HD 
HETATM   24  H2  UNL     1     -11.035  14.820  71.276  1.00  0.00     0.000 HD 
HETATM   25  H   UNL     1     -14.181  15.923  70.031  1.00  0.00     0.000 HD 
HETATM   26  H   UNL     1     -12.364  16.894  75.294  1.00  0.00     0.000 HD 
ENDBRANCH  15  16
ENDBRANCH  12  15
ENDBRANCH   8   9
ENDBRANCH   7   8
ENDBRANCH   6   7
ENDBRANCH   5   6
ENDBRANCH   4   5
ENDBRANCH   3   4
ENDBRANCH   2   3
TORSDOF 9
ENDMDL
MODEL       77
REMARK 921   NORMALIZED FREE ENERGY PREDICTED BY IDOCK:   -4.94 KCAL/MOL
REMARK 922        TOTAL FREE ENERGY PREDICTED BY IDOCK:   -8.65 KCAL/MOL
REMARK 923 INTER-LIGAND FREE ENERGY PREDICTED BY IDOCK:   -7.27 KCAL/MOL
REMARK 924 INTRA-LIGAND FREE ENERGY PREDICTED BY IDOCK:   -1.38 KCAL/MOL
REMARK 927      BINDING AFFINITY PREDICTED BY RF-SCORE:    0.00 PKD
ROOT
HETATM    1  C   UNL     1     -11.931  11.652  69.594  1.00  0.00    -0.390 C  
HETATM    2  C   UNL     1     -10.597  11.386  68.919  1.00  0.00    -0.234 C  
ENDROOT
BRANCH   2   3
HETATM    3  C   UNL     1     -10.436   9.908  68.577  1.00  0.00    -0.232 C  
BRANCH   3   4
HETATM    4  C   UNL     1      -9.439   9.718  67.438  1.00  0.00    -0.178 C  
BRANCH   4   5
HETATM    5  C   UNL     1     -10.158   9.366  66.140  1.00  0.00    -0.324 C  
BRANCH   5   6
HETATM    6  C   UNL     1      -9.235   9.548  64.938  1.00  0.00    -0.284 C  
BRANCH   6   7
HETATM    7  C   UNL     1      -9.795  10.606  63.995  1.00  0.00    -0.399 C  
BRANCH   7   8
HETATM    8  C   UNL     1     -11.142  11.136  64.491  1.00  0.00    -0.166 C  
BRANCH   8   9
HETATM    9  C   UNL     1     -11.067  12.606  64.811  1.00  0.00    -0.335 A  
HETATM   10  C   UNL     1     -11.977  13.492  64.226  1.00  0.00    -0.479 A  
HETATM   11  C   UNL     1     -11.884  14.859  64.462  1.00  0.00    -0.404 A  
HETATM   12  C   UNL     1     -10.909  15.375  65.323  1.00  0.00    -0.423 A  
HETATM   13  C   UNL     1     -10.082  13.111  65.664  1.00  0.00    -0.279 A  
HETATM   14  C   UNL     1     -10.006  14.483  65.918  1.00  0.00    -0.352 A  
BRANCH  12  15
HETATM   15  C   UNL     1     -10.751  16.863  65.551  1.00  0.00    -0.171 C  
BRANCH  15  16
HETATM   16  C   UNL     1     -10.107  17.220  66.901  1.00  0.00    -0.304 C  
HETATM   17  C   UNL     1      -9.261  18.514  66.982  1.00  0.00    -0.284 C  
HETATM   18  C   UNL     1      -8.699  18.608  68.431  1.00  0.00    -0.333 C  
HETATM   19  N   UNL     1      -8.107  18.464  66.044  1.00  0.00    -0.498 NA 
HETATM   20  C   UNL     1     -10.105  19.787  66.697  1.00  0.00    -0.461 C  
HETATM   21  O   UNL     1      -7.835  19.733  68.572  1.00  0.00    -0.328 OA 
HETATM   22  O   UNL     1     -10.581  19.825  65.355  1.00  0.00    -0.412 OA 
HETATM   23  H1  UNL     1      -7.550  19.317  66.097  1.00  0.00     0.000 HD 
HETATM   24  H2  UNL     1      -8.409  18.273  65.089  1.00  0.00     0.000 HD 
HETATM   25  H   UNL     1     -11.097  20.604  65.180  1.00  0.00     0.000 HD 
HETATM   26  H   UNL     1      -7.492  19.790  69.456  1.00  0.00     0.000 HD 
ENDBRANCH  15  16
ENDBRANCH  12  15
ENDBRANCH   8   9
ENDBRANCH   7   8
ENDBRANCH   6   7
ENDBRANCH   5   6
ENDBRANCH   4   5
ENDBRANCH   3   4
ENDBRANCH   2   3
TORSDOF 9
ENDMDL
MODEL       78
REMARK 921   NORMALIZED FREE ENERGY PREDICTED BY IDOCK:   -4.94 KCAL/MOL
REMARK 922        TOTAL FREE ENERGY PREDICTED BY IDOCK:   -8.65 KCAL/MOL
REMARK 923 INTER-LIGAND FREE ENERGY PREDICTED BY IDOCK:   -7.65 KCAL/MOL
REMARK 924 INTRA-LIGAND FREE ENERGY PREDICTED BY IDOCK:   -0.99 KCAL/MOL
REMARK 927      BINDING AFFINITY PREDICTED BY RF-SCORE:    0.00 PKD
ROOT
HETATM    1  C   UNL     1     -11.017  15.508  64.887  1.00  0.00    -0.452 C  
HETATM    2  C   UNL     1     -12.072  14.550  64.364  1.00  0.00    -0.492 C  
ENDROOT
BRANCH   2   3
HETATM    3  C   UNL     1     -12.638  13.685  65.487  1.00  0.00    -0.541 C  
BRANCH   3   4
HETATM    4  C   UNL     1     -11.810  12.418  65.669  1.00  0.00    -0.468 C  
BRANCH   4   5
HETATM    5  C   UNL     1     -11.366  12.263  67.119  1.00  0.00    -0.398 C  
BRANCH   5   6
HETATM    6  C   UNL     1     -11.903  13.404  67.979  1.00  0.00    -0.392 C  
BRANCH   6   7
HETATM    7  C   UNL     1     -11.295  13.348  69.375  1.00  0.00    -0.286 C  
BRANCH   7   8
HETATM    8  C   UNL     1     -12.327  12.900  70.413  1.00  0.00    -0.333 C  
BRANCH   8   9
HETATM    9  C   UNL     1     -12.177  11.437  70.737  1.00  0.00    -0.475 A  
HETATM   10  C   UNL     1     -11.142  10.700  70.155  1.00  0.00    -0.341 A  
HETATM   11  C   UNL     1     -11.023   9.335  70.396  1.00  0.00    -0.302 A  
HETATM   12  C   UNL     1     -11.908   8.678  71.258  1.00  0.00    -0.344 A  
HETATM   13  C   UNL     1     -13.073  10.789  71.592  1.00  0.00    -0.551 A  
HETATM   14  C   UNL     1     -12.937   9.423  71.851  1.00  0.00    -0.502 A  
BRANCH  12  15
HETATM   15  C   UNL     1     -11.836   7.185  71.491  1.00  0.00    -0.348 C  
BRANCH  15  16
HETATM   16  C   UNL     1     -11.465   6.376  70.237  1.00  0.00    -0.468 C  
HETATM   17  C   UNL     1     -10.139   5.578  70.255  1.00  0.00    -0.237 C  
HETATM   18  C   UNL     1      -9.991   4.898  68.863  1.00  0.00    -0.149 C  
HETATM   19  N   UNL     1      -8.970   6.477  70.452  1.00  0.00    -0.151 NA 
HETATM   20  C   UNL     1     -10.131   4.473  71.347  1.00  0.00    -0.160 C  
HETATM   21  O   UNL     1      -8.749   4.205  68.761  1.00  0.00    -0.089 OA 
HETATM   22  O   UNL     1     -10.169   5.019  72.662  1.00  0.00    -0.175 OA 
HETATM   23  H1  UNL     1      -8.095   5.952  70.464  1.00  0.00     0.000 HD 
HETATM   24  H2  UNL     1      -9.074   7.048  71.291  1.00  0.00     0.000 HD 
HETATM   25  H   UNL     1     -10.165   4.343  73.330  1.00  0.00     0.000 HD 
HETATM   26  H   UNL     1      -8.658   3.790  67.912  1.00  0.00     0.000 HD 
ENDBRANCH  15  16
ENDBRANCH  12  15
ENDBRANCH   8   9
ENDBRANCH   7   8
ENDBRANCH   6   7
ENDBRANCH   5   6
ENDBRANCH   4   5
ENDBRANCH   3   4
ENDBRANCH   2   3
TORSDOF 9
ENDMDL
MODEL       79
REMARK 921   NORMALIZED FREE ENERGY PREDICTED BY IDOCK:   -4.94 KCAL/MOL
REMARK 922        TOTAL FREE ENERGY PREDICTED BY IDOCK:   -8.65 KCAL/MOL
REMARK 923 INTER-LIGAND FREE ENERGY PREDICTED BY IDOCK:   -6.72 KCAL/MOL
REMARK 924 INTRA-LIGAND FREE ENERGY PREDICTED BY IDOCK:   -1.93 KCAL/MOL
REMARK 927      BINDING AFFINITY PREDICTED BY RF-SCORE:    0.00 PKD
ROOT
HETATM    1  C   UNL     1     -11.248  10.263  67.995  1.00  0.00    -0.303 C  
HETATM    2  C   UNL     1     -10.011  11.144  68.014  1.00  0.00    -0.190 C  
ENDROOT
BRANCH   2   3
HETATM    3  C   UNL     1      -9.523  11.441  66.599  1.00  0.00    -0.206 C  
BRANCH   3   4
HETATM    4  C   UNL     1     -10.369  10.705  65.565  1.00  0.00    -0.297 C  
BRANCH   4   5
HETATM    5  C   UNL     1      -9.742  10.807  64.178  1.00  0.00    -0.364 C  
BRANCH   5   6
HETATM    6  C   UNL     1     -10.540  11.755  63.287  1.00  0.00    -0.427 C  
BRANCH   6   7
HETATM    7  C   UNL     1     -11.932  11.980  63.864  1.00  0.00    -0.542 C  
BRANCH   7   8
HETATM    8  C   UNL     1     -12.351  13.447  63.749  1.00  0.00    -0.418 C  
BRANCH   8   9
HETATM    9  C   UNL     1     -11.853  14.251  64.921  1.00  0.00    -0.414 A  
HETATM   10  C   UNL     1     -10.995  15.334  64.707  1.00  0.00    -0.403 A  
HETATM   11  C   UNL     1     -10.478  16.049  65.782  1.00  0.00    -0.391 A  
HETATM   12  C   UNL     1     -10.837  15.732  67.096  1.00  0.00    -0.289 A  
HETATM   13  C   UNL     1     -12.211  13.919  66.231  1.00  0.00    -0.498 A  
HETATM   14  C   UNL     1     -11.708  14.655  67.307  1.00  0.00    -0.406 A  
BRANCH  12  15
HETATM   15  C   UNL     1     -10.244  16.458  68.284  1.00  0.00    -0.255 C  
BRANCH  15  16
HETATM   16  C   UNL     1      -9.274  15.601  69.116  1.00  0.00    -0.254 C  
HETATM   17  C   UNL     1      -7.764  15.689  68.787  1.00  0.00    -0.165 C  
HETATM   18  C   UNL     1      -7.027  14.700  69.737  1.00  0.00    -0.130 C  
HETATM   19  N   UNL     1      -7.490  15.270  67.386  1.00  0.00    -0.194 NA 
HETATM   20  C   UNL     1      -7.193  17.115  69.021  1.00  0.00    -0.229 C  
HETATM   21  O   UNL     1      -5.632  14.655  69.445  1.00  0.00    -0.092 OA 
HETATM   22  O   UNL     1      -7.751  18.070  68.122  1.00  0.00    -0.254 OA 
HETATM   23  H1  UNL     1      -6.495  15.329  67.169  1.00  0.00     0.000 HD 
HETATM   24  H2  UNL     1      -8.050  15.803  66.720  1.00  0.00     0.000 HD 
HETATM   25  H   UNL     1      -7.401  18.942  68.266  1.00  0.00     0.000 HD 
HETATM   26  H   UNL     1      -5.182  14.051  70.024  1.00  0.00     0.000 HD 
ENDBRANCH  15  16
ENDBRANCH  12  15
ENDBRANCH   8   9
ENDBRANCH   7   8
ENDBRANCH   6   7
ENDBRANCH   5   6
ENDBRANCH   4   5
ENDBRANCH   3   4
ENDBRANCH   2   3
TORSDOF 9
ENDMDL
MODEL       80
REMARK 921   NORMALIZED FREE ENERGY PREDICTED BY IDOCK:   -4.93 KCAL/MOL
REMARK 922        TOTAL FREE ENERGY PREDICTED BY IDOCK:   -8.63 KCAL/MOL
REMARK 923 INTER-LIGAND FREE ENERGY PREDICTED BY IDOCK:   -6.92 KCAL/MOL
REMARK 924 INTRA-LIGAND FREE ENERGY PREDICTED BY IDOCK:   -1.70 KCAL/MOL
REMARK 927      BINDING AFFINITY PREDICTED BY RF-SCORE:    0.00 PKD
ROOT
HETATM    1  C   UNL     1     -10.507   7.366  73.571  1.00  0.00    -0.396 C  
HETATM    2  C   UNL     1      -9.495   8.052  72.671  1.00  0.00    -0.317 C  
ENDROOT
BRANCH   2   3
HETATM    3  C   UNL     1      -9.591   7.538  71.238  1.00  0.00    -0.165 C  
BRANCH   3   4
HETATM    4  C   UNL     1     -11.047   7.422  70.797  1.00  0.00    -0.285 C  
BRANCH   4   5
HETATM    5  C   UNL     1     -11.290   6.103  70.071  1.00  0.00    -0.443 C  
BRANCH   5   6
HETATM    6  C   UNL     1      -9.987   5.327  69.896  1.00  0.00    -0.309 C  
BRANCH   6   7
HETATM    7  C   UNL     1      -9.734   5.043  68.420  1.00  0.00    -0.209 C  
BRANCH   7   8
HETATM    8  C   UNL     1      -8.566   5.875  67.886  1.00  0.00    -0.105 C  
BRANCH   8   9
HETATM    9  C   UNL     1      -9.007   7.272  67.534  1.00  0.00    -0.122 A  
HETATM   10  C   UNL     1      -8.199   8.361  67.870  1.00  0.00    -0.127 A  
HETATM   11  C   UNL     1      -8.617   9.661  67.606  1.00  0.00    -0.126 A  
HETATM   12  C   UNL     1      -9.834   9.907  66.961  1.00  0.00    -0.241 A  
HETATM   13  C   UNL     1     -10.230   7.506  66.898  1.00  0.00    -0.359 A  
HETATM   14  C   UNL     1     -10.637   8.812  66.613  1.00  0.00    -0.141 A  
BRANCH  12  15
HETATM   15  C   UNL     1     -10.339  11.312  66.715  1.00  0.00    -0.278 C  
BRANCH  15  16
HETATM   16  C   UNL     1     -10.798  11.564  65.270  1.00  0.00    -0.319 C  
HETATM   17  C   UNL     1     -11.489  12.913  64.953  1.00  0.00    -0.315 C  
HETATM   18  C   UNL     1     -11.885  12.885  63.447  1.00  0.00    -0.507 C  
HETATM   19  N   UNL     1     -12.732  13.084  65.751  1.00  0.00    -0.434 NA 
HETATM   20  C   UNL     1     -10.549  14.126  65.193  1.00  0.00    -0.398 C  
HETATM   21  O   UNL     1     -12.605  14.062  63.087  1.00  0.00    -1.062 OA 
HETATM   22  O   UNL     1     -10.212  14.279  66.569  1.00  0.00    -0.265 OA 
HETATM   23  H1  UNL     1     -13.188  13.973  65.543  1.00  0.00     0.000 HD 
HETATM   24  H2  UNL     1     -12.553  12.981  66.750  1.00  0.00     0.000 HD 
HETATM   25  H   UNL     1      -9.637  15.021  66.716  1.00  0.00     0.000 HD 
HETATM   26  H   UNL     1     -12.847  14.045  62.168  1.00  0.00     0.000 HD 
ENDBRANCH  15  16
ENDBRANCH  12  15
ENDBRANCH   8   9
ENDBRANCH   7   8
ENDBRANCH   6   7
ENDBRANCH   5   6
ENDBRANCH   4   5
ENDBRANCH   3   4
ENDBRANCH   2   3
TORSDOF 9
ENDMDL
MODEL       81
REMARK 921   NORMALIZED FREE ENERGY PREDICTED BY IDOCK:   -4.92 KCAL/MOL
REMARK 922        TOTAL FREE ENERGY PREDICTED BY IDOCK:   -8.62 KCAL/MOL
REMARK 923 INTER-LIGAND FREE ENERGY PREDICTED BY IDOCK:   -6.20 KCAL/MOL
REMARK 924 INTRA-LIGAND FREE ENERGY PREDICTED BY IDOCK:   -2.42 KCAL/MOL
REMARK 927      BINDING AFFINITY PREDICTED BY RF-SCORE:    0.00 PKD
ROOT
HETATM    1  C   UNL     1     -13.143   7.100  71.133  1.00  0.00    -0.294 C  
HETATM    2  C   UNL     1     -12.005   8.101  71.225  1.00  0.00    -0.318 C  
ENDROOT
BRANCH   2   3
HETATM    3  C   UNL     1     -11.464   8.194  72.649  1.00  0.00    -0.454 C  
BRANCH   3   4
HETATM    4  C   UNL     1     -10.141   7.446  72.780  1.00  0.00    -0.272 C  
BRANCH   4   5
HETATM    5  C   UNL     1     -10.320   6.164  73.586  1.00  0.00    -0.275 C  
BRANCH   5   6
HETATM    6  C   UNL     1     -10.450   4.954  72.665  1.00  0.00    -0.261 C  
BRANCH   6   7
HETATM    7  C   UNL     1      -9.287   4.909  71.681  1.00  0.00    -0.192 C  
BRANCH   7   8
HETATM    8  C   UNL     1      -9.763   4.532  70.276  1.00  0.00    -0.287 C  
BRANCH   8   9
HETATM    9  C   UNL     1      -9.857   5.746  69.388  1.00  0.00    -0.219 A  
HETATM   10  C   UNL     1      -8.939   6.789  69.537  1.00  0.00    -0.139 A  
HETATM   11  C   UNL     1      -9.048   7.942  68.768  1.00  0.00    -0.140 A  
HETATM   12  C   UNL     1     -10.048   8.067  67.798  1.00  0.00    -0.250 A  
HETATM   13  C   UNL     1     -10.867   5.864  68.429  1.00  0.00    -0.322 A  
HETATM   14  C   UNL     1     -10.959   7.014  67.641  1.00  0.00    -0.259 A  
BRANCH  12  15
HETATM   15  C   UNL     1     -10.223   9.334  66.988  1.00  0.00    -0.331 C  
BRANCH  15  16
HETATM   16  C   UNL     1     -11.036  10.424  67.706  1.00  0.00    -0.365 C  
HETATM   17  C   UNL     1     -10.313  11.740  68.081  1.00  0.00    -0.200 C  
HETATM   18  C   UNL     1     -11.344  12.637  68.826  1.00  0.00    -0.289 C  
HETATM   19  N   UNL     1      -9.173  11.487  69.003  1.00  0.00    -0.400 NA 
HETATM   20  C   UNL     1      -9.805  12.509  66.830  1.00  0.00    -0.229 C  
HETATM   21  O   UNL     1     -10.736  13.843  69.284  1.00  0.00    -0.382 OA 
HETATM   22  O   UNL     1      -8.784  11.793  66.139  1.00  0.00    -0.327 OA 
HETATM   23  H1  UNL     1      -8.696  12.354  69.250  1.00  0.00     0.000 HD 
HETATM   24  H2  UNL     1      -8.525  10.801  68.617  1.00  0.00     0.000 HD 
HETATM   25  H   UNL     1      -8.474  12.264  65.374  1.00  0.00     0.000 HD 
HETATM   26  H   UNL     1     -11.365  14.390  69.739  1.00  0.00     0.000 HD 
ENDBRANCH  15  16
ENDBRANCH  12  15
ENDBRANCH   8   9
ENDBRANCH   7   8
ENDBRANCH   6   7
ENDBRANCH   5   6
ENDBRANCH   4   5
ENDBRANCH   3   4
ENDBRANCH   2   3
TORSDOF 9
ENDMDL
MODEL       82
REMARK 921   NORMALIZED FREE ENERGY PREDICTED BY IDOCK:   -4.92 KCAL/MOL
REMARK 922        TOTAL FREE ENERGY PREDICTED BY IDOCK:   -8.62 KCAL/MOL
REMARK 923 INTER-LIGAND FREE ENERGY PREDICTED BY IDOCK:   -6.74 KCAL/MOL
REMARK 924 INTRA-LIGAND FREE ENERGY PREDICTED BY IDOCK:   -1.87 KCAL/MOL
REMARK 927      BINDING AFFINITY PREDICTED BY RF-SCORE:    0.00 PKD
ROOT
HETATM    1  C   UNL     1      -9.045   7.265  72.914  1.00  0.00    -0.176 C  
HETATM    2  C   UNL     1      -9.484   8.519  72.179  1.00  0.00    -0.375 C  
ENDROOT
BRANCH   2   3
HETATM    3  C   UNL     1     -10.995   8.531  71.961  1.00  0.00    -0.410 C  
BRANCH   3   4
HETATM    4  C   UNL     1     -11.557   7.113  71.959  1.00  0.00    -0.317 C  
BRANCH   4   5
HETATM    5  C   UNL     1     -12.028   6.718  70.564  1.00  0.00    -0.385 C  
BRANCH   5   6
HETATM    6  C   UNL     1     -10.986   5.850  69.862  1.00  0.00    -0.444 C  
BRANCH   6   7
HETATM    7  C   UNL     1     -10.686   6.400  68.473  1.00  0.00    -0.347 C  
BRANCH   7   8
HETATM    8  C   UNL     1      -9.384   7.205  68.464  1.00  0.00    -0.136 C  
BRANCH   8   9
HETATM    9  C   UNL     1      -9.653   8.677  68.291  1.00  0.00    -0.160 A  
HETATM   10  C   UNL     1      -8.689   9.610  68.682  1.00  0.00    -0.124 A  
HETATM   11  C   UNL     1      -8.944  10.973  68.586  1.00  0.00    -0.167 A  
HETATM   12  C   UNL     1     -10.150  11.443  68.057  1.00  0.00    -0.193 A  
HETATM   13  C   UNL     1     -10.867   9.134  67.771  1.00  0.00    -0.159 A  
HETATM   14  C   UNL     1     -11.111  10.505  67.653  1.00  0.00    -0.375 A  
BRANCH  12  15
HETATM   15  C   UNL     1     -10.476  12.920  67.995  1.00  0.00    -0.237 C  
BRANCH  15  16
HETATM   16  C   UNL     1     -11.299  13.426  69.190  1.00  0.00    -0.333 C  
HETATM   17  C   UNL     1     -11.111  14.899  69.629  1.00  0.00    -0.276 C  
HETATM   18  C   UNL     1     -12.019  15.129  70.872  1.00  0.00    -0.328 C  
HETATM   19  N   UNL     1      -9.705  15.168  70.032  1.00  0.00    -0.476 NA 
HETATM   20  C   UNL     1     -11.532  15.901  68.519  1.00  0.00    -0.377 C  
HETATM   21  O   UNL     1     -11.845  16.444  71.396  1.00  0.00    -0.639 OA 
HETATM   22  O   UNL     1     -10.686  15.820  67.375  1.00  0.00    -0.309 OA 
HETATM   23  H1  UNL     1      -9.580  16.138  70.320  1.00  0.00     0.000 HD 
HETATM   24  H2  UNL     1      -9.049  14.910  69.294  1.00  0.00     0.000 HD 
HETATM   25  H   UNL     1     -10.943  16.434  66.696  1.00  0.00     0.000 HD 
HETATM   26  H   UNL     1     -12.399  16.585  72.154  1.00  0.00     0.000 HD 
ENDBRANCH  15  16
ENDBRANCH  12  15
ENDBRANCH   8   9
ENDBRANCH   7   8
ENDBRANCH   6   7
ENDBRANCH   5   6
ENDBRANCH   4   5
ENDBRANCH   3   4
ENDBRANCH   2   3
TORSDOF 9
ENDMDL
MODEL       83
REMARK 921   NORMALIZED FREE ENERGY PREDICTED BY IDOCK:   -4.91 KCAL/MOL
REMARK 922        TOTAL FREE ENERGY PREDICTED BY IDOCK:   -8.61 KCAL/MOL
REMARK 923 INTER-LIGAND FREE ENERGY PREDICTED BY IDOCK:   -7.53 KCAL/MOL
REMARK 924 INTRA-LIGAND FREE ENERGY PREDICTED BY IDOCK:   -1.08 KCAL/MOL
REMARK 927      BINDING AFFINITY PREDICTED BY RF-SCORE:    0.00 PKD
ROOT
HETATM    1  C   UNL     1      -7.627  14.979  68.043  1.00  0.00    -0.126 C  
HETATM    2  C   UNL     1      -7.425  16.479  67.922  1.00  0.00    -0.161 C  
ENDROOT
BRANCH   2   3
HETATM    3  C   UNL     1      -8.611  17.245  68.502  1.00  0.00    -0.270 C  
BRANCH   3   4
HETATM    4  C   UNL     1      -9.833  17.123  67.597  1.00  0.00    -0.270 C  
BRANCH   4   5
HETATM    5  C   UNL     1     -10.995  16.474  68.340  1.00  0.00    -0.348 C  
BRANCH   5   6
HETATM    6  C   UNL     1     -10.669  16.303  69.821  1.00  0.00    -0.345 C  
BRANCH   6   7
HETATM    7  C   UNL     1     -11.659  15.348  70.476  1.00  0.00    -0.355 C  
BRANCH   7   8
HETATM    8  C   UNL     1     -12.179  14.314  69.474  1.00  0.00    -0.341 C  
BRANCH   8   9
HETATM    9  C   UNL     1     -12.271  12.946  70.100  1.00  0.00    -0.336 A  
HETATM   10  C   UNL     1     -11.650  11.857  69.483  1.00  0.00    -0.394 A  
HETATM   11  C   UNL     1     -11.775  10.577  70.013  1.00  0.00    -0.394 A  
HETATM   12  C   UNL     1     -12.487  10.357  71.197  1.00  0.00    -0.509 A  
HETATM   13  C   UNL     1     -12.994  12.737  71.277  1.00  0.00    -0.310 A  
HETATM   14  C   UNL     1     -13.098  11.454  71.821  1.00  0.00    -0.523 A  
BRANCH  12  15
HETATM   15  C   UNL     1     -12.686   8.968  71.763  1.00  0.00    -0.431 C  
BRANCH  15  16
HETATM   16  C   UNL     1     -11.405   8.338  72.332  1.00  0.00    -0.457 C  
HETATM   17  C   UNL     1     -11.115   6.854  71.998  1.00  0.00    -0.245 C  
HETATM   18  C   UNL     1      -9.797   6.465  72.728  1.00  0.00    -0.169 C  
HETATM   19  N   UNL     1     -12.198   5.966  72.501  1.00  0.00    -0.495 NA 
HETATM   20  C   UNL     1     -10.922   6.622  70.474  1.00  0.00    -0.286 C  
HETATM   21  O   UNL     1      -9.497   5.084  72.541  1.00  0.00    -0.140 OA 
HETATM   22  O   UNL     1     -12.118   6.866  69.738  1.00  0.00    -0.623 OA 
HETATM   23  H1  UNL     1     -12.007   4.988  72.280  1.00  0.00     0.000 HD 
HETATM   24  H2  UNL     1     -13.111   6.256  72.154  1.00  0.00     0.000 HD 
HETATM   25  H   UNL     1     -11.999   6.724  68.806  1.00  0.00     0.000 HD 
HETATM   26  H   UNL     1      -8.693   4.846  72.987  1.00  0.00     0.000 HD 
ENDBRANCH  15  16
ENDBRANCH  12  15
ENDBRANCH   8   9
ENDBRANCH   7   8
ENDBRANCH   6   7
ENDBRANCH   5   6
ENDBRANCH   4   5
ENDBRANCH   3   4
ENDBRANCH   2   3
TORSDOF 9
ENDMDL
MODEL       84
REMARK 921   NORMALIZED FREE ENERGY PREDICTED BY IDOCK:   -4.90 KCAL/MOL
REMARK 922        TOTAL FREE ENERGY PREDICTED BY IDOCK:   -8.59 KCAL/MOL
REMARK 923 INTER-LIGAND FREE ENERGY PREDICTED BY IDOCK:   -6.38 KCAL/MOL
REMARK 924 INTRA-LIGAND FREE ENERGY PREDICTED BY IDOCK:   -2.21 KCAL/MOL
REMARK 927      BINDING AFFINITY PREDICTED BY RF-SCORE:    0.00 PKD
ROOT
HETATM    1  C   UNL     1     -12.031  11.748  70.269  1.00  0.00    -0.429 C  
HETATM    2  C   UNL     1     -11.819  12.917  69.323  1.00  0.00    -0.363 C  
ENDROOT
BRANCH   2   3
HETATM    3  C   UNL     1     -11.936  12.476  67.866  1.00  0.00    -0.283 C  
BRANCH   3   4
HETATM    4  C   UNL     1     -11.991  13.683  66.935  1.00  0.00    -0.454 C  
BRANCH   4   5
HETATM    5  C   UNL     1     -12.552  13.292  65.572  1.00  0.00    -0.505 C  
BRANCH   5   6
HETATM    6  C   UNL     1     -11.554  13.604  64.460  1.00  0.00    -0.415 C  
BRANCH   6   7
HETATM    7  C   UNL     1     -11.202  12.336  63.692  1.00  0.00    -0.539 C  
BRANCH   7   8
HETATM    8  C   UNL     1      -9.759  11.904  63.965  1.00  0.00    -0.179 C  
BRANCH   8   9
HETATM    9  C   UNL     1      -9.653  11.144  65.262  1.00  0.00    -0.268 A  
HETATM   10  C   UNL     1      -8.787  11.595  66.262  1.00  0.00    -0.164 A  
HETATM   11  C   UNL     1      -8.631  10.874  67.441  1.00  0.00    -0.127 A  
HETATM   12  C   UNL     1      -9.369   9.708  67.672  1.00  0.00    -0.144 A  
HETATM   13  C   UNL     1     -10.388   9.975  65.478  1.00  0.00    -0.146 A  
HETATM   14  C   UNL     1     -10.247   9.265  66.674  1.00  0.00    -0.323 A  
BRANCH  12  15
HETATM   15  C   UNL     1      -9.176   8.874  68.921  1.00  0.00    -0.140 C  
BRANCH  15  16
HETATM   16  C   UNL     1     -10.477   8.268  69.471  1.00  0.00    -0.228 C  
HETATM   17  C   UNL     1     -10.488   7.787  70.942  1.00  0.00    -0.206 C  
HETATM   18  C   UNL     1     -11.896   7.184  71.220  1.00  0.00    -0.318 C  
HETATM   19  N   UNL     1      -9.478   6.718  71.169  1.00  0.00    -0.163 NA 
HETATM   20  C   UNL     1     -10.243   8.950  71.943  1.00  0.00    -0.333 C  
HETATM   21  O   UNL     1     -11.967   6.638  72.536  1.00  0.00    -0.481 OA 
HETATM   22  O   UNL     1      -8.934   9.498  71.818  1.00  0.00    -0.172 OA 
HETATM   23  H1  UNL     1      -9.485   6.401  72.139  1.00  0.00     0.000 HD 
HETATM   24  H2  UNL     1      -8.547   7.015  70.879  1.00  0.00     0.000 HD 
HETATM   25  H   UNL     1      -8.784  10.209  72.430  1.00  0.00     0.000 HD 
HETATM   26  H   UNL     1     -12.827   6.270  72.705  1.00  0.00     0.000 HD 
ENDBRANCH  15  16
ENDBRANCH  12  15
ENDBRANCH   8   9
ENDBRANCH   7   8
ENDBRANCH   6   7
ENDBRANCH   5   6
ENDBRANCH   4   5
ENDBRANCH   3   4
ENDBRANCH   2   3
TORSDOF 9
ENDMDL
MODEL       85
REMARK 921   NORMALIZED FREE ENERGY PREDICTED BY IDOCK:   -4.88 KCAL/MOL
REMARK 922        TOTAL FREE ENERGY PREDICTED BY IDOCK:   -8.56 KCAL/MOL
REMARK 923 INTER-LIGAND FREE ENERGY PREDICTED BY IDOCK:   -6.18 KCAL/MOL
REMARK 924 INTRA-LIGAND FREE ENERGY PREDICTED BY IDOCK:   -2.38 KCAL/MOL
REMARK 927      BINDING AFFINITY PREDICTED BY RF-SCORE:    0.00 PKD
ROOT
HETATM    1  C   UNL     1     -12.005   9.877  71.130  1.00  0.00    -0.473 C  
HETATM    2  C   UNL     1     -12.814   8.733  71.714  1.00  0.00    -0.406 C  
ENDROOT
BRANCH   2   3
HETATM    3  C   UNL     1     -11.917   7.736  72.442  1.00  0.00    -0.338 C  
BRANCH   3   4
HETATM    4  C   UNL     1     -10.541   8.336  72.710  1.00  0.00    -0.321 C  
BRANCH   4   5
HETATM    5  C   UNL     1      -9.728   7.439  73.637  1.00  0.00    -0.349 C  
BRANCH   5   6
HETATM    6  C   UNL     1     -10.131   5.976  73.472  1.00  0.00    -0.207 C  
BRANCH   6   7
HETATM    7  C   UNL     1      -8.994   5.181  72.841  1.00  0.00    -0.120 C  
BRANCH   7   8
HETATM    8  C   UNL     1      -9.448   4.486  71.555  1.00  0.00    -0.214 C  
BRANCH   8   9
HETATM    9  C   UNL     1      -9.706   5.484  70.457  1.00  0.00    -0.241 A  
HETATM   10  C   UNL     1      -8.708   6.394  70.097  1.00  0.00    -0.139 A  
HETATM   11  C   UNL     1      -8.949   7.361  69.128  1.00  0.00    -0.135 A  
HETATM   12  C   UNL     1     -10.177   7.419  68.461  1.00  0.00    -0.201 A  
HETATM   13  C   UNL     1     -10.941   5.539  69.804  1.00  0.00    -0.175 A  
HETATM   14  C   UNL     1     -11.172   6.497  68.814  1.00  0.00    -0.319 A  
BRANCH  12  15
HETATM   15  C   UNL     1     -10.484   8.497  67.444  1.00  0.00    -0.351 C  
BRANCH  15  16
HETATM   16  C   UNL     1      -9.426   9.611  67.377  1.00  0.00    -0.170 C  
HETATM   17  C   UNL     1      -9.888  11.027  66.957  1.00  0.00    -0.182 C  
HETATM   18  C   UNL     1      -8.624  11.935  66.930  1.00  0.00    -0.185 C  
HETATM   19  N   UNL     1     -10.478  11.020  65.591  1.00  0.00    -0.249 NA 
HETATM   20  C   UNL     1     -10.909  11.633  67.958  1.00  0.00    -0.215 C  
HETATM   21  O   UNL     1      -8.946  13.246  66.469  1.00  0.00    -0.412 OA 
HETATM   22  O   UNL     1     -12.137  10.911  67.974  1.00  0.00    -0.780 OA 
HETATM   23  H1  UNL     1     -10.783  11.953  65.314  1.00  0.00     0.000 HD 
HETATM   24  H2  UNL     1     -11.235  10.341  65.514  1.00  0.00     0.000 HD 
HETATM   25  H   UNL     1     -12.762  11.283  68.587  1.00  0.00     0.000 HD 
HETATM   26  H   UNL     1      -8.175  13.800  66.453  1.00  0.00     0.000 HD 
ENDBRANCH  15  16
ENDBRANCH  12  15
ENDBRANCH   8   9
ENDBRANCH   7   8
ENDBRANCH   6   7
ENDBRANCH   5   6
ENDBRANCH   4   5
ENDBRANCH   3   4
ENDBRANCH   2   3
TORSDOF 9
ENDMDL
MODEL       86
REMARK 921   NORMALIZED FREE ENERGY PREDICTED BY IDOCK:   -4.88 KCAL/MOL
REMARK 922        TOTAL FREE ENERGY PREDICTED BY IDOCK:   -8.55 KCAL/MOL
REMARK 923 INTER-LIGAND FREE ENERGY PREDICTED BY IDOCK:   -6.83 KCAL/MOL
REMARK 924 INTRA-LIGAND FREE ENERGY PREDICTED BY IDOCK:   -1.72 KCAL/MOL
REMARK 927      BINDING AFFINITY PREDICTED BY RF-SCORE:    0.00 PKD
ROOT
HETATM    1  C   UNL     1      -6.812  12.314  67.451  1.00  0.00    -0.145 C  
HETATM    2  C   UNL     1      -8.131  11.581  67.624  1.00  0.00    -0.130 C  
ENDROOT
BRANCH   2   3
HETATM    3  C   UNL     1      -8.278  11.034  69.041  1.00  0.00    -0.101 C  
BRANCH   3   4
HETATM    4  C   UNL     1      -8.541   9.532  69.021  1.00  0.00    -0.133 C  
BRANCH   4   5
HETATM    5  C   UNL     1     -10.030   9.239  69.173  1.00  0.00    -0.181 C  
BRANCH   5   6
HETATM    6  C   UNL     1     -10.494   9.501  70.603  1.00  0.00    -0.374 C  
BRANCH   6   7
HETATM    7  C   UNL     1     -11.567  10.583  70.622  1.00  0.00    -0.445 C  
BRANCH   7   8
HETATM    8  C   UNL     1     -12.236  10.727  69.253  1.00  0.00    -0.185 C  
BRANCH   8   9
HETATM    9  C   UNL     1     -11.859  12.028  68.595  1.00  0.00    -0.366 A  
HETATM   10  C   UNL     1     -11.652  13.168  69.378  1.00  0.00    -0.360 A  
HETATM   11  C   UNL     1     -11.363  14.391  68.784  1.00  0.00    -0.299 A  
HETATM   12  C   UNL     1     -11.228  14.501  67.396  1.00  0.00    -0.337 A  
HETATM   13  C   UNL     1     -11.738  12.128  67.207  1.00  0.00    -0.369 A  
HETATM   14  C   UNL     1     -11.423  13.354  66.614  1.00  0.00    -0.376 A  
BRANCH  12  15
HETATM   15  C   UNL     1     -10.971  15.831  66.720  1.00  0.00    -0.192 C  
BRANCH  15  16
HETATM   16  C   UNL     1     -10.434  16.917  67.667  1.00  0.00    -0.332 C  
HETATM   17  C   UNL     1      -9.678  18.115  67.043  1.00  0.00    -0.307 C  
HETATM   18  C   UNL     1      -9.211  19.027  68.215  1.00  0.00    -0.334 C  
HETATM   19  N   UNL     1      -8.469  17.664  66.302  1.00  0.00    -0.436 NA 
HETATM   20  C   UNL     1     -10.582  18.952  66.097  1.00  0.00    -0.407 C  
HETATM   21  O   UNL     1      -8.430  20.118  67.733  1.00  0.00    -0.307 OA 
HETATM   22  O   UNL     1     -10.978  18.215  64.943  1.00  0.00    -0.718 OA 
HETATM   23  H1  UNL     1      -7.970  18.453  65.891  1.00  0.00     0.000 HD 
HETATM   24  H2  UNL     1      -8.700  16.961  65.601  1.00  0.00     0.000 HD 
HETATM   25  H   UNL     1     -11.531  18.727  64.364  1.00  0.00     0.000 HD 
HETATM   26  H   UNL     1      -8.145  20.675  68.448  1.00  0.00     0.000 HD 
ENDBRANCH  15  16
ENDBRANCH  12  15
ENDBRANCH   8   9
ENDBRANCH   7   8
ENDBRANCH   6   7
ENDBRANCH   5   6
ENDBRANCH   4   5
ENDBRANCH   3   4
ENDBRANCH   2   3
TORSDOF 9
ENDMDL
MODEL       87
REMARK 921   NORMALIZED FREE ENERGY PREDICTED BY IDOCK:   -4.87 KCAL/MOL
REMARK 922        TOTAL FREE ENERGY PREDICTED BY IDOCK:   -8.54 KCAL/MOL
REMARK 923 INTER-LIGAND FREE ENERGY PREDICTED BY IDOCK:   -6.78 KCAL/MOL
REMARK 924 INTRA-LIGAND FREE ENERGY PREDICTED BY IDOCK:   -1.76 KCAL/MOL
REMARK 927      BINDING AFFINITY PREDICTED BY RF-SCORE:    0.00 PKD
ROOT
HETATM    1  C   UNL     1     -12.724  10.922  71.165  1.00  0.00    -0.530 C  
HETATM    2  C   UNL     1     -11.721  11.083  70.036  1.00  0.00    -0.437 C  
ENDROOT
BRANCH   2   3
HETATM    3  C   UNL     1     -12.091  12.253  69.130  1.00  0.00    -0.214 C  
BRANCH   3   4
HETATM    4  C   UNL     1     -11.806  13.585  69.817  1.00  0.00    -0.395 C  
BRANCH   4   5
HETATM    5  C   UNL     1     -11.669  14.706  68.792  1.00  0.00    -0.357 C  
BRANCH   5   6
HETATM    6  C   UNL     1     -11.949  14.193  67.382  1.00  0.00    -0.439 C  
BRANCH   6   7
HETATM    7  C   UNL     1     -10.917  14.741  66.404  1.00  0.00    -0.331 C  
BRANCH   7   8
HETATM    8  C   UNL     1      -9.542  14.108  66.634  1.00  0.00    -0.301 C  
BRANCH   8   9
HETATM    9  C   UNL     1      -9.606  12.607  66.515  1.00  0.00    -0.248 A  
HETATM   10  C   UNL     1     -10.277  12.024  65.436  1.00  0.00    -0.295 A  
HETATM   11  C   UNL     1     -10.397  10.642  65.343  1.00  0.00    -0.303 A  
HETATM   12  C   UNL     1      -9.814   9.803  66.298  1.00  0.00    -0.315 A  
HETATM   13  C   UNL     1      -9.027  11.780  67.481  1.00  0.00    -0.168 A  
HETATM   14  C   UNL     1      -9.129  10.390  67.371  1.00  0.00    -0.144 A  
BRANCH  12  15
HETATM   15  C   UNL     1      -9.979   8.300  66.250  1.00  0.00    -0.179 C  
BRANCH  15  16
HETATM   16  C   UNL     1      -9.313   7.563  67.424  1.00  0.00    -0.164 C  
HETATM   17  C   UNL     1     -10.114   6.437  68.122  1.00  0.00    -0.149 C  
HETATM   18  C   UNL     1      -9.233   5.898  69.287  1.00  0.00    -0.122 C  
HETATM   19  N   UNL     1     -11.380   6.956  68.706  1.00  0.00    -0.533 NA 
HETATM   20  C   UNL     1     -10.432   5.259  67.160  1.00  0.00    -0.199 C  
HETATM   21  O   UNL     1      -9.931   4.909  70.041  1.00  0.00    -0.215 OA 
HETATM   22  O   UNL     1     -11.315   5.647  66.111  1.00  0.00    -0.739 OA 
HETATM   23  H1  UNL     1     -11.908   6.214  69.165  1.00  0.00     0.000 HD 
HETATM   24  H2  UNL     1     -11.944   7.438  68.006  1.00  0.00     0.000 HD 
HETATM   25  H   UNL     1     -11.509   4.926  65.523  1.00  0.00     0.000 HD 
HETATM   26  H   UNL     1      -9.393   4.581  70.752  1.00  0.00     0.000 HD 
ENDBRANCH  15  16
ENDBRANCH  12  15
ENDBRANCH   8   9
ENDBRANCH   7   8
ENDBRANCH   6   7
ENDBRANCH   5   6
ENDBRANCH   4   5
ENDBRANCH   3   4
ENDBRANCH   2   3
TORSDOF 9
ENDMDL
MODEL       88
REMARK 921   NORMALIZED FREE ENERGY PREDICTED BY IDOCK:   -4.86 KCAL/MOL
REMARK 922        TOTAL FREE ENERGY PREDICTED BY IDOCK:   -8.52 KCAL/MOL
REMARK 923 INTER-LIGAND FREE ENERGY PREDICTED BY IDOCK:   -7.82 KCAL/MOL
REMARK 924 INTRA-LIGAND FREE ENERGY PREDICTED BY IDOCK:   -0.70 KCAL/MOL
REMARK 927      BINDING AFFINITY PREDICTED BY RF-SCORE:    0.00 PKD
ROOT
HETATM    1  C   UNL     1     -10.830   5.635  69.640  1.00  0.00    -0.365 C  
HETATM    2  C   UNL     1     -10.678   6.570  70.827  1.00  0.00    -0.290 C  
ENDROOT
BRANCH   2   3
HETATM    3  C   UNL     1     -12.029   7.121  71.272  1.00  0.00    -0.374 C  
BRANCH   3   4
HETATM    4  C   UNL     1     -11.850   8.338  72.174  1.00  0.00    -0.431 C  
BRANCH   4   5
HETATM    5  C   UNL     1     -11.787   9.620  71.350  1.00  0.00    -0.484 C  
BRANCH   5   6
HETATM    6  C   UNL     1     -13.108  10.382  71.423  1.00  0.00    -0.512 C  
BRANCH   6   7
HETATM    7  C   UNL     1     -12.929  11.680  72.201  1.00  0.00    -0.211 C  
BRANCH   7   8
HETATM    8  C   UNL     1     -13.750  12.815  71.584  1.00  0.00     0.098 C  
BRANCH   8   9
HETATM    9  C   UNL     1     -12.859  13.880  71.003  1.00  0.00    -0.394 A  
HETATM   10  C   UNL     1     -12.110  13.608  69.854  1.00  0.00    -0.406 A  
HETATM   11  C   UNL     1     -11.236  14.559  69.338  1.00  0.00    -0.312 A  
HETATM   12  C   UNL     1     -11.119  15.822  69.928  1.00  0.00    -0.333 A  
HETATM   13  C   UNL     1     -12.742  15.135  71.606  1.00  0.00    -0.429 A  
HETATM   14  C   UNL     1     -11.881  16.097  71.072  1.00  0.00    -0.368 A  
BRANCH  12  15
HETATM   15  C   UNL     1     -10.134  16.853  69.421  1.00  0.00    -0.162 C  
BRANCH  15  16
HETATM   16  C   UNL     1     -10.502  17.445  68.050  1.00  0.00    -0.383 C  
HETATM   17  C   UNL     1      -9.949  18.845  67.692  1.00  0.00    -0.349 C  
HETATM   18  C   UNL     1     -10.505  19.215  66.286  1.00  0.00    -0.467 C  
HETATM   19  N   UNL     1     -10.418  19.875  68.657  1.00  0.00    -0.520 NA 
HETATM   20  C   UNL     1      -8.396  18.865  67.628  1.00  0.00    -0.272 C  
HETATM   21  O   UNL     1     -10.111  20.533  65.910  1.00  0.00    -0.553 OA 
HETATM   22  O   UNL     1      -7.804  18.627  68.902  1.00  0.00    -0.304 OA 
HETATM   23  H1  UNL     1     -10.053  20.798  68.421  1.00  0.00     0.000 HD 
HETATM   24  H2  UNL     1     -10.192  19.618  69.618  1.00  0.00     0.000 HD 
HETATM   25  H   UNL     1      -6.855  18.639  68.862  1.00  0.00     0.000 HD 
HETATM   26  H   UNL     1     -10.450  20.759  65.053  1.00  0.00     0.000 HD 
ENDBRANCH  15  16
ENDBRANCH  12  15
ENDBRANCH   8   9
ENDBRANCH   7   8
ENDBRANCH   6   7
ENDBRANCH   5   6
ENDBRANCH   4   5
ENDBRANCH   3   4
ENDBRANCH   2   3
TORSDOF 9
ENDMDL
MODEL       89
REMARK 921   NORMALIZED FREE ENERGY PREDICTED BY IDOCK:   -4.84 KCAL/MOL
REMARK 922        TOTAL FREE ENERGY PREDICTED BY IDOCK:   -8.49 KCAL/MOL
REMARK 923 INTER-LIGAND FREE ENERGY PREDICTED BY IDOCK:   -7.16 KCAL/MOL
REMARK 924 INTRA-LIGAND FREE ENERGY PREDICTED BY IDOCK:   -1.33 KCAL/MOL
REMARK 927      BINDING AFFINITY PREDICTED BY RF-SCORE:    0.00 PKD
ROOT
HETATM    1  C   UNL     1      -9.568  10.327  63.650  1.00  0.00    -0.334 C  
HETATM    2  C   UNL     1     -10.573  11.150  64.436  1.00  0.00    -0.411 C  
ENDROOT
BRANCH   2   3
HETATM    3  C   UNL     1     -11.617  11.775  63.515  1.00  0.00    -0.487 C  
BRANCH   3   4
HETATM    4  C   UNL     1     -12.004  13.170  63.997  1.00  0.00    -0.524 C  
BRANCH   4   5
HETATM    5  C   UNL     1     -12.292  13.165  65.495  1.00  0.00    -0.529 C  
BRANCH   5   6
HETATM    6  C   UNL     1     -11.963  14.519  66.118  1.00  0.00    -0.323 C  
BRANCH   6   7
HETATM    7  C   UNL     1     -11.303  14.331  67.478  1.00  0.00    -0.346 C  
BRANCH   7   8
HETATM    8  C   UNL     1     -10.232  13.239  67.430  1.00  0.00    -0.229 C  
BRANCH   8   9
HETATM    9  C   UNL     1     -10.551  12.119  68.386  1.00  0.00    -0.243 A  
HETATM   10  C   UNL     1      -9.821  10.929  68.329  1.00  0.00    -0.179 A  
HETATM   11  C   UNL     1     -10.140   9.862  69.162  1.00  0.00    -0.210 A  
HETATM   12  C   UNL     1     -11.168   9.971  70.105  1.00  0.00    -0.367 A  
HETATM   13  C   UNL     1     -11.586  12.236  69.317  1.00  0.00    -0.383 A  
HETATM   14  C   UNL     1     -11.890  11.171  70.170  1.00  0.00    -0.449 A  
BRANCH  12  15
HETATM   15  C   UNL     1     -11.573   8.807  70.984  1.00  0.00    -0.337 C  
BRANCH  15  16
HETATM   16  C   UNL     1     -11.259   7.430  70.377  1.00  0.00    -0.284 C  
HETATM   17  C   UNL     1     -10.327   6.483  71.171  1.00  0.00    -0.205 C  
HETATM   18  C   UNL     1     -10.144   5.194  70.318  1.00  0.00    -0.268 C  
HETATM   19  N   UNL     1      -8.985   7.092  71.376  1.00  0.00    -0.140 NA 
HETATM   20  C   UNL     1     -10.929   6.083  72.547  1.00  0.00    -0.260 C  
HETATM   21  O   UNL     1      -9.227   4.295  70.940  1.00  0.00    -0.118 OA 
HETATM   22  O   UNL     1     -11.042   7.198  73.427  1.00  0.00    -0.540 OA 
HETATM   23  H1  UNL     1      -8.370   6.468  71.900  1.00  0.00     0.000 HD 
HETATM   24  H2  UNL     1      -9.054   8.008  71.819  1.00  0.00     0.000 HD 
HETATM   25  H   UNL     1     -11.410   6.953  74.268  1.00  0.00     0.000 HD 
HETATM   26  H   UNL     1      -9.116   3.508  70.420  1.00  0.00     0.000 HD 
ENDBRANCH  15  16
ENDBRANCH  12  15
ENDBRANCH   8   9
ENDBRANCH   7   8
ENDBRANCH   6   7
ENDBRANCH   5   6
ENDBRANCH   4   5
ENDBRANCH   3   4
ENDBRANCH   2   3
TORSDOF 9
ENDMDL
MODEL       90
REMARK 921   NORMALIZED FREE ENERGY PREDICTED BY IDOCK:   -4.82 KCAL/MOL
REMARK 922        TOTAL FREE ENERGY PREDICTED BY IDOCK:   -8.47 KCAL/MOL
REMARK 923 INTER-LIGAND FREE ENERGY PREDICTED BY IDOCK:   -7.36 KCAL/MOL
REMARK 924 INTRA-LIGAND FREE ENERGY PREDICTED BY IDOCK:   -1.11 KCAL/MOL
REMARK 927      BINDING AFFINITY PREDICTED BY RF-SCORE:    0.00 PKD
ROOT
HETATM    1  C   UNL     1     -11.897   8.124  72.261  1.00  0.00    -0.441 C  
HETATM    2  C   UNL     1     -12.457   7.145  71.245  1.00  0.00    -0.425 C  
ENDROOT
BRANCH   2   3
HETATM    3  C   UNL     1     -11.368   6.641  70.303  1.00  0.00    -0.431 C  
BRANCH   3   4
HETATM    4  C   UNL     1     -10.063   7.402  70.523  1.00  0.00    -0.192 C  
BRANCH   4   5
HETATM    5  C   UNL     1      -9.519   7.938  69.204  1.00  0.00    -0.155 C  
BRANCH   5   6
HETATM    6  C   UNL     1     -10.646   8.475  68.326  1.00  0.00    -0.173 C  
BRANCH   6   7
HETATM    7  C   UNL     1     -10.541   9.990  68.196  1.00  0.00    -0.268 C  
BRANCH   7   8
HETATM    8  C   UNL     1     -11.579  10.696  69.072  1.00  0.00    -0.332 C  
BRANCH   8   9
HETATM    9  C   UNL     1     -11.363  12.187  69.080  1.00  0.00    -0.329 A  
HETATM   10  C   UNL     1     -10.424  12.757  68.216  1.00  0.00    -0.250 A  
HETATM   11  C   UNL     1     -10.168  14.124  68.252  1.00  0.00    -0.243 A  
HETATM   12  C   UNL     1     -10.873  14.964  69.119  1.00  0.00    -0.253 A  
HETATM   13  C   UNL     1     -12.066  13.015  69.958  1.00  0.00    -0.367 A  
HETATM   14  C   UNL     1     -11.824  14.391  69.976  1.00  0.00    -0.377 A  
BRANCH  12  15
HETATM   15  C   UNL     1     -10.574  16.444  69.219  1.00  0.00    -0.311 C  
BRANCH  15  16
HETATM   16  C   UNL     1     -10.835  17.221  67.918  1.00  0.00    -0.283 C  
HETATM   17  C   UNL     1     -10.021  18.514  67.670  1.00  0.00    -0.338 C  
HETATM   18  C   UNL     1     -10.510  19.115  66.319  1.00  0.00    -0.467 C  
HETATM   19  N   UNL     1     -10.269  19.521  68.736  1.00  0.00    -0.558 NA 
HETATM   20  C   UNL     1      -8.496  18.239  67.563  1.00  0.00    -0.249 C  
HETATM   21  O   UNL     1      -9.869  20.360  66.051  1.00  0.00    -0.637 OA 
HETATM   22  O   UNL     1      -7.948  17.773  68.793  1.00  0.00    -0.285 OA 
HETATM   23  H1  UNL     1      -9.733  20.374  68.573  1.00  0.00     0.000 HD 
HETATM   24  H2  UNL     1     -10.088  19.137  69.663  1.00  0.00     0.000 HD 
HETATM   25  H   UNL     1      -7.015  17.604  68.727  1.00  0.00     0.000 HD 
HETATM   26  H   UNL     1     -10.168  20.726  65.227  1.00  0.00     0.000 HD 
ENDBRANCH  15  16
ENDBRANCH  12  15
ENDBRANCH   8   9
ENDBRANCH   7   8
ENDBRANCH   6   7
ENDBRANCH   5   6
ENDBRANCH   4   5
ENDBRANCH   3   4
ENDBRANCH   2   3
TORSDOF 9
ENDMDL
MODEL       91
REMARK 921   NORMALIZED FREE ENERGY PREDICTED BY IDOCK:   -4.82 KCAL/MOL
REMARK 922        TOTAL FREE ENERGY PREDICTED BY IDOCK:   -8.47 KCAL/MOL
REMARK 923 INTER-LIGAND FREE ENERGY PREDICTED BY IDOCK:   -6.67 KCAL/MOL
REMARK 924 INTRA-LIGAND FREE ENERGY PREDICTED BY IDOCK:   -1.80 KCAL/MOL
REMARK 927      BINDING AFFINITY PREDICTED BY RF-SCORE:    0.00 PKD
ROOT
HETATM    1  C   UNL     1      -8.945   9.625  64.336  1.00  0.00    -0.276 C  
HETATM    2  C   UNL     1     -10.067  10.435  64.961  1.00  0.00    -0.379 C  
ENDROOT
BRANCH   2   3
HETATM    3  C   UNL     1     -10.643  11.439  63.967  1.00  0.00    -0.444 C  
BRANCH   3   4
HETATM    4  C   UNL     1     -11.870  12.137  64.547  1.00  0.00    -0.418 C  
BRANCH   4   5
HETATM    5  C   UNL     1     -12.189  13.409  63.769  1.00  0.00    -0.482 C  
BRANCH   5   6
HETATM    6  C   UNL     1     -12.145  14.632  64.681  1.00  0.00    -0.466 C  
BRANCH   6   7
HETATM    7  C   UNL     1     -10.702  15.016  64.985  1.00  0.00    -0.448 C  
BRANCH   7   8
HETATM    8  C   UNL     1     -10.498  15.271  66.481  1.00  0.00    -0.299 C  
BRANCH   8   9
HETATM    9  C   UNL     1     -10.536  13.985  67.264  1.00  0.00    -0.268 A  
HETATM   10  C   UNL     1     -11.690  13.634  67.969  1.00  0.00    -0.387 A  
HETATM   11  C   UNL     1     -11.722  12.481  68.745  1.00  0.00    -0.371 A  
HETATM   12  C   UNL     1     -10.618  11.624  68.804  1.00  0.00    -0.241 A  
HETATM   13  C   UNL     1      -9.423  13.142  67.324  1.00  0.00    -0.225 A  
HETATM   14  C   UNL     1      -9.465  11.971  68.086  1.00  0.00    -0.200 A  
BRANCH  12  15
HETATM   15  C   UNL     1     -10.606  10.394  69.687  1.00  0.00    -0.289 C  
BRANCH  15  16
HETATM   16  C   UNL     1      -9.390   9.479  69.463  1.00  0.00    -0.199 C  
HETATM   17  C   UNL     1      -9.294   8.183  70.303  1.00  0.00    -0.155 C  
HETATM   18  C   UNL     1      -7.962   7.479  69.913  1.00  0.00    -0.123 C  
HETATM   19  N   UNL     1      -9.243   8.485  71.759  1.00  0.00    -0.222 NA 
HETATM   20  C   UNL     1     -10.469   7.208  70.018  1.00  0.00    -0.221 C  
HETATM   21  O   UNL     1      -7.750   6.311  70.704  1.00  0.00    -0.100 OA 
HETATM   22  O   UNL     1     -11.722   7.742  70.436  1.00  0.00    -0.455 OA 
HETATM   23  H1  UNL     1      -9.180   7.631  72.313  1.00  0.00     0.000 HD 
HETATM   24  H2  UNL     1     -10.033   9.061  72.049  1.00  0.00     0.000 HD 
HETATM   25  H   UNL     1     -12.441   7.145  70.261  1.00  0.00     0.000 HD 
HETATM   26  H   UNL     1      -6.937   5.881  70.466  1.00  0.00     0.000 HD 
ENDBRANCH  15  16
ENDBRANCH  12  15
ENDBRANCH   8   9
ENDBRANCH   7   8
ENDBRANCH   6   7
ENDBRANCH   5   6
ENDBRANCH   4   5
ENDBRANCH   3   4
ENDBRANCH   2   3
TORSDOF 9
ENDMDL
MODEL       92
REMARK 921   NORMALIZED FREE ENERGY PREDICTED BY IDOCK:   -4.81 KCAL/MOL
REMARK 922        TOTAL FREE ENERGY PREDICTED BY IDOCK:   -8.45 KCAL/MOL
REMARK 923 INTER-LIGAND FREE ENERGY PREDICTED BY IDOCK:   -6.44 KCAL/MOL
REMARK 924 INTRA-LIGAND FREE ENERGY PREDICTED BY IDOCK:   -2.01 KCAL/MOL
REMARK 927      BINDING AFFINITY PREDICTED BY RF-SCORE:    0.00 PKD
ROOT
HETATM    1  C   UNL     1     -11.756  11.787  69.111  1.00  0.00    -0.388 C  
HETATM    2  C   UNL     1     -11.559  10.645  70.092  1.00  0.00    -0.414 C  
ENDROOT
BRANCH   2   3
HETATM    3  C   UNL     1     -10.194   9.988  69.909  1.00  0.00    -0.304 C  
BRANCH   3   4
HETATM    4  C   UNL     1     -10.338   8.485  69.692  1.00  0.00    -0.218 C  
BRANCH   4   5
HETATM    5  C   UNL     1      -9.685   8.061  68.381  1.00  0.00    -0.168 C  
BRANCH   5   6
HETATM    6  C   UNL     1     -10.616   8.321  67.199  1.00  0.00    -0.340 C  
BRANCH   6   7
HETATM    7  C   UNL     1      -9.856   8.998  66.065  1.00  0.00    -0.312 C  
BRANCH   7   8
HETATM    8  C   UNL     1      -8.815   9.982  66.603  1.00  0.00    -0.145 C  
BRANCH   8   9
HETATM    9  C   UNL     1      -9.275  11.407  66.439  1.00  0.00    -0.209 A  
HETATM   10  C   UNL     1     -10.278  11.711  65.513  1.00  0.00    -0.302 A  
HETATM   11  C   UNL     1     -10.673  13.028  65.305  1.00  0.00    -0.317 A  
HETATM   12  C   UNL     1     -10.110  14.073  66.046  1.00  0.00    -0.327 A  
HETATM   13  C   UNL     1      -8.698  12.444  67.178  1.00  0.00    -0.195 A  
HETATM   14  C   UNL     1      -9.114  13.764  66.984  1.00  0.00    -0.253 A  
BRANCH  12  15
HETATM   15  C   UNL     1     -10.480  15.519  65.799  1.00  0.00    -0.378 C  
BRANCH  15  16
HETATM   16  C   UNL     1      -9.311  16.501  65.983  1.00  0.00    -0.302 C  
HETATM   17  C   UNL     1      -9.527  17.721  66.911  1.00  0.00    -0.271 C  
HETATM   18  C   UNL     1      -8.218  18.561  66.880  1.00  0.00    -0.258 C  
HETATM   19  N   UNL     1     -10.637  18.583  66.421  1.00  0.00    -0.376 NA 
HETATM   20  C   UNL     1      -9.809  17.300  68.379  1.00  0.00    -0.309 C  
HETATM   21  O   UNL     1      -8.358  19.756  67.647  1.00  0.00    -0.301 OA 
HETATM   22  O   UNL     1     -11.045  16.603  68.509  1.00  0.00    -0.349 OA 
HETATM   23  H1  UNL     1     -10.780  19.387  67.032  1.00  0.00     0.000 HD 
HETATM   24  H2  UNL     1     -11.497  18.050  66.296  1.00  0.00     0.000 HD 
HETATM   25  H   UNL     1     -11.217  16.346  69.408  1.00  0.00     0.000 HD 
HETATM   26  H   UNL     1      -7.559  20.268  67.628  1.00  0.00     0.000 HD 
ENDBRANCH  15  16
ENDBRANCH  12  15
ENDBRANCH   8   9
ENDBRANCH   7   8
ENDBRANCH   6   7
ENDBRANCH   5   6
ENDBRANCH   4   5
ENDBRANCH   3   4
ENDBRANCH   2   3
TORSDOF 9
ENDMDL
MODEL       93
REMARK 921   NORMALIZED FREE ENERGY PREDICTED BY IDOCK:   -4.80 KCAL/MOL
REMARK 922        TOTAL FREE ENERGY PREDICTED BY IDOCK:   -8.44 KCAL/MOL
REMARK 923 INTER-LIGAND FREE ENERGY PREDICTED BY IDOCK:   -7.08 KCAL/MOL
REMARK 924 INTRA-LIGAND FREE ENERGY PREDICTED BY IDOCK:   -1.36 KCAL/MOL
REMARK 927      BINDING AFFINITY PREDICTED BY RF-SCORE:    0.00 PKD
ROOT
HETATM    1  C   UNL     1     -10.811   3.701  63.568  1.00  0.00    -0.194 C  
HETATM    2  C   UNL     1      -9.671   4.081  64.497  1.00  0.00    -0.182 C  
ENDROOT
BRANCH   2   3
HETATM    3  C   UNL     1     -10.123   4.084  65.954  1.00  0.00    -0.097 C  
BRANCH   3   4
HETATM    4  C   UNL     1      -8.924   4.035  66.897  1.00  0.00    -0.141 C  
BRANCH   4   5
HETATM    5  C   UNL     1      -9.379   3.928  68.348  1.00  0.00    -0.222 C  
BRANCH   5   6
HETATM    6  C   UNL     1      -8.811   5.072  69.184  1.00  0.00    -0.114 C  
BRANCH   6   7
HETATM    7  C   UNL     1      -9.930   5.790  69.928  1.00  0.00    -0.254 C  
BRANCH   7   8
HETATM    8  C   UNL     1     -11.071   6.171  68.983  1.00  0.00    -0.437 C  
BRANCH   8   9
HETATM    9  C   UNL     1     -10.770   7.454  68.252  1.00  0.00    -0.151 A  
HETATM   10  C   UNL     1     -10.465   7.421  66.888  1.00  0.00    -0.379 A  
HETATM   11  C   UNL     1     -10.126   8.588  66.211  1.00  0.00    -0.174 A  
HETATM   12  C   UNL     1     -10.125   9.824  66.866  1.00  0.00    -0.287 A  
HETATM   13  C   UNL     1     -10.762   8.682  68.919  1.00  0.00    -0.109 A  
HETATM   14  C   UNL     1     -10.444   9.856  68.231  1.00  0.00    -0.246 A  
BRANCH  12  15
HETATM   15  C   UNL     1      -9.704  11.098  66.167  1.00  0.00    -0.253 C  
BRANCH  15  16
HETATM   16  C   UNL     1     -10.819  12.153  66.072  1.00  0.00    -0.318 C  
HETATM   17  C   UNL     1     -11.075  12.815  64.696  1.00  0.00    -0.318 C  
HETATM   18  C   UNL     1     -12.211  13.861  64.892  1.00  0.00    -0.422 C  
HETATM   19  N   UNL     1      -9.867  13.535  64.209  1.00  0.00    -0.690 NA 
HETATM   20  C   UNL     1     -11.532  11.787  63.624  1.00  0.00    -0.431 C  
HETATM   21  O   UNL     1     -12.456  14.582  63.686  1.00  0.00    -1.072 OA 
HETATM   22  O   UNL     1     -10.509  10.844  63.316  1.00  0.00    -0.586 OA 
HETATM   23  H1  UNL     1     -10.036  13.971  63.302  1.00  0.00     0.000 HD 
HETATM   24  H2  UNL     1      -9.052  12.922  64.184  1.00  0.00     0.000 HD 
HETATM   25  H   UNL     1     -10.788  10.215  62.661  1.00  0.00     0.000 HD 
HETATM   26  H   UNL     1     -13.149  15.220  63.806  1.00  0.00     0.000 HD 
ENDBRANCH  15  16
ENDBRANCH  12  15
ENDBRANCH   8   9
ENDBRANCH   7   8
ENDBRANCH   6   7
ENDBRANCH   5   6
ENDBRANCH   4   5
ENDBRANCH   3   4
ENDBRANCH   2   3
TORSDOF 9
ENDMDL
MODEL       94
REMARK 921   NORMALIZED FREE ENERGY PREDICTED BY IDOCK:   -4.77 KCAL/MOL
REMARK 922        TOTAL FREE ENERGY PREDICTED BY IDOCK:   -8.38 KCAL/MOL
REMARK 923 INTER-LIGAND FREE ENERGY PREDICTED BY IDOCK:   -7.12 KCAL/MOL
REMARK 924 INTRA-LIGAND FREE ENERGY PREDICTED BY IDOCK:   -1.26 KCAL/MOL
REMARK 927      BINDING AFFINITY PREDICTED BY RF-SCORE:    0.00 PKD
ROOT
HETATM    1  C   UNL     1     -11.363  15.257  69.071  1.00  0.00    -0.311 C  
HETATM    2  C   UNL     1     -11.573  13.812  69.487  1.00  0.00    -0.355 C  
ENDROOT
BRANCH   2   3
HETATM    3  C   UNL     1     -12.070  13.717  70.926  1.00  0.00    -0.366 C  
BRANCH   3   4
HETATM    4  C   UNL     1     -13.352  12.894  71.006  1.00  0.00     0.201 C  
BRANCH   4   5
HETATM    5  C   UNL     1     -13.167  11.692  71.927  1.00  0.00    -0.475 C  
BRANCH   5   6
HETATM    6  C   UNL     1     -12.895  10.424  71.121  1.00  0.00    -0.511 C  
BRANCH   6   7
HETATM    7  C   UNL     1     -11.515   9.870  71.455  1.00  0.00    -0.393 C  
BRANCH   7   8
HETATM    8  C   UNL     1     -11.132   8.728  70.511  1.00  0.00    -0.278 C  
BRANCH   8   9
HETATM    9  C   UNL     1     -10.509   9.252  69.243  1.00  0.00    -0.228 A  
HETATM   10  C   UNL     1      -9.845  10.482  69.253  1.00  0.00    -0.225 A  
HETATM   11  C   UNL     1      -9.317  11.010  68.080  1.00  0.00    -0.173 A  
HETATM   12  C   UNL     1      -9.399  10.305  66.875  1.00  0.00    -0.183 A  
HETATM   13  C   UNL     1     -10.606   8.544  68.043  1.00  0.00    -0.197 A  
HETATM   14  C   UNL     1     -10.054   9.066  66.870  1.00  0.00    -0.338 A  
BRANCH  12  15
HETATM   15  C   UNL     1      -8.884  10.883  65.574  1.00  0.00    -0.199 C  
BRANCH  15  16
HETATM   16  C   UNL     1      -9.955  11.000  64.477  1.00  0.00    -0.366 C  
HETATM   17  C   UNL     1     -11.000  12.134  64.602  1.00  0.00    -0.312 C  
HETATM   18  C   UNL     1     -11.978  11.994  63.399  1.00  0.00    -0.471 C  
HETATM   19  N   UNL     1     -11.792  12.004  65.855  1.00  0.00    -0.510 NA 
HETATM   20  C   UNL     1     -10.349  13.543  64.546  1.00  0.00    -0.358 C  
HETATM   21  O   UNL     1     -13.030  12.955  63.480  1.00  0.00    -0.568 OA 
HETATM   22  O   UNL     1      -9.506  13.789  65.668  1.00  0.00    -0.504 OA 
HETATM   23  H1  UNL     1     -12.481  12.752  65.937  1.00  0.00     0.000 HD 
HETATM   24  H2  UNL     1     -11.189  11.960  66.676  1.00  0.00     0.000 HD 
HETATM   25  H   UNL     1      -9.107  14.651  65.634  1.00  0.00     0.000 HD 
HETATM   26  H   UNL     1     -13.626  12.869  62.746  1.00  0.00     0.000 HD 
ENDBRANCH  15  16
ENDBRANCH  12  15
ENDBRANCH   8   9
ENDBRANCH   7   8
ENDBRANCH   6   7
ENDBRANCH   5   6
ENDBRANCH   4   5
ENDBRANCH   3   4
ENDBRANCH   2   3
TORSDOF 9
ENDMDL
MODEL       95
REMARK 921   NORMALIZED FREE ENERGY PREDICTED BY IDOCK:   -4.76 KCAL/MOL
REMARK 922        TOTAL FREE ENERGY PREDICTED BY IDOCK:   -8.38 KCAL/MOL
REMARK 923 INTER-LIGAND FREE ENERGY PREDICTED BY IDOCK:   -6.71 KCAL/MOL
REMARK 924 INTRA-LIGAND FREE ENERGY PREDICTED BY IDOCK:   -1.66 KCAL/MOL
REMARK 927      BINDING AFFINITY PREDICTED BY RF-SCORE:    0.00 PKD
ROOT
HETATM    1  C   UNL     1     -12.697  11.857  63.383  1.00  0.00    -0.496 C  
HETATM    2  C   UNL     1     -11.508  11.853  64.327  1.00  0.00    -0.423 C  
ENDROOT
BRANCH   2   3
HETATM    3  C   UNL     1     -10.704  13.145  64.209  1.00  0.00    -0.431 C  
BRANCH   3   4
HETATM    4  C   UNL     1     -11.550  14.351  64.606  1.00  0.00    -0.414 C  
BRANCH   4   5
HETATM    5  C   UNL     1     -12.016  14.236  66.053  1.00  0.00    -0.412 C  
BRANCH   5   6
HETATM    6  C   UNL     1     -11.330  15.278  66.932  1.00  0.00    -0.209 C  
BRANCH   6   7
HETATM    7  C   UNL     1      -9.817  15.106  66.877  1.00  0.00    -0.243 C  
BRANCH   7   8
HETATM    8  C   UNL     1      -9.304  14.310  68.080  1.00  0.00    -0.200 C  
BRANCH   8   9
HETATM    9  C   UNL     1      -9.516  12.831  67.887  1.00  0.00    -0.208 A  
HETATM   10  C   UNL     1      -8.724  12.129  66.974  1.00  0.00    -0.190 A  
HETATM   11  C   UNL     1      -8.946  10.776  66.739  1.00  0.00    -0.157 A  
HETATM   12  C   UNL     1      -9.935  10.078  67.440  1.00  0.00    -0.242 A  
HETATM   13  C   UNL     1     -10.514  12.146  68.585  1.00  0.00    -0.237 A  
HETATM   14  C   UNL     1     -10.720  10.782  68.365  1.00  0.00    -0.255 A  
BRANCH  12  15
HETATM   15  C   UNL     1     -10.235   8.621  67.161  1.00  0.00    -0.353 C  
BRANCH  15  16
HETATM   16  C   UNL     1      -9.578   7.649  68.155  1.00  0.00    -0.158 C  
HETATM   17  C   UNL     1     -10.326   6.336  68.488  1.00  0.00    -0.203 C  
HETATM   18  C   UNL     1      -9.469   5.570  69.538  1.00  0.00    -0.141 C  
HETATM   19  N   UNL     1     -11.657   6.610  69.093  1.00  0.00    -0.628 NA 
HETATM   20  C   UNL     1     -10.502   5.427  67.240  1.00  0.00    -0.210 C  
HETATM   21  O   UNL     1     -10.128   4.380  69.966  1.00  0.00    -0.218 OA 
HETATM   22  O   UNL     1     -11.355   6.017  66.263  1.00  0.00    -0.684 OA 
HETATM   23  H1  UNL     1     -12.150   5.744  69.312  1.00  0.00     0.000 HD 
HETATM   24  H2  UNL     1     -12.219   7.220  68.500  1.00  0.00     0.000 HD 
HETATM   25  H   UNL     1     -11.463   5.461  65.500  1.00  0.00     0.000 HD 
HETATM   26  H   UNL     1      -9.605   3.913  70.608  1.00  0.00     0.000 HD 
ENDBRANCH  15  16
ENDBRANCH  12  15
ENDBRANCH   8   9
ENDBRANCH   7   8
ENDBRANCH   6   7
ENDBRANCH   5   6
ENDBRANCH   4   5
ENDBRANCH   3   4
ENDBRANCH   2   3
TORSDOF 9
ENDMDL
MODEL       96
REMARK 921   NORMALIZED FREE ENERGY PREDICTED BY IDOCK:   -4.76 KCAL/MOL
REMARK 922        TOTAL FREE ENERGY PREDICTED BY IDOCK:   -8.38 KCAL/MOL
REMARK 923 INTER-LIGAND FREE ENERGY PREDICTED BY IDOCK:   -6.23 KCAL/MOL
REMARK 924 INTRA-LIGAND FREE ENERGY PREDICTED BY IDOCK:   -2.15 KCAL/MOL
REMARK 927      BINDING AFFINITY PREDICTED BY RF-SCORE:    0.00 PKD
ROOT
HETATM    1  C   UNL     1      -7.534  10.978  68.699  1.00  0.00    -0.112 C  
HETATM    2  C   UNL     1      -6.961  10.449  70.002  1.00  0.00    -0.159 C  
ENDROOT
BRANCH   2   3
HETATM    3  C   UNL     1      -6.994   8.924  70.041  1.00  0.00    -0.044 C  
BRANCH   3   4
HETATM    4  C   UNL     1      -6.298   8.332  68.819  1.00  0.00    -0.049 C  
BRANCH   4   5
HETATM    5  C   UNL     1      -7.123   7.197  68.222  1.00  0.00    -0.082 C  
BRANCH   5   6
HETATM    6  C   UNL     1      -7.912   6.467  69.305  1.00  0.00    -0.110 C  
BRANCH   6   7
HETATM    7  C   UNL     1      -9.367   6.304  68.883  1.00  0.00    -0.128 C  
BRANCH   7   8
HETATM    8  C   UNL     1     -10.310   7.020  69.853  1.00  0.00    -0.225 C  
BRANCH   8   9
HETATM    9  C   UNL     1     -10.632   8.411  69.374  1.00  0.00    -0.204 A  
HETATM   10  C   UNL     1     -11.102   9.366  70.280  1.00  0.00    -0.299 A  
HETATM   11  C   UNL     1     -11.462  10.637  69.845  1.00  0.00    -0.393 A  
HETATM   12  C   UNL     1     -11.322  11.003  68.503  1.00  0.00    -0.355 A  
HETATM   13  C   UNL     1     -10.497   8.763  68.029  1.00  0.00    -0.260 A  
HETATM   14  C   UNL     1     -10.837  10.048  67.598  1.00  0.00    -0.336 A  
BRANCH  12  15
HETATM   15  C   UNL     1     -11.760  12.359  67.994  1.00  0.00    -0.414 C  
BRANCH  15  16
HETATM   16  C   UNL     1     -10.899  12.899  66.840  1.00  0.00    -0.278 C  
HETATM   17  C   UNL     1     -11.299  14.254  66.208  1.00  0.00    -0.346 C  
HETATM   18  C   UNL     1     -10.298  14.537  65.050  1.00  0.00    -0.413 C  
HETATM   19  N   UNL     1     -12.668  14.197  65.628  1.00  0.00    -0.509 NA 
HETATM   20  C   UNL     1     -11.217  15.425  67.226  1.00  0.00    -0.270 C  
HETATM   21  O   UNL     1     -10.645  15.732  64.354  1.00  0.00    -0.710 OA 
HETATM   22  O   UNL     1     -12.172  15.291  68.275  1.00  0.00    -0.533 OA 
HETATM   23  H1  UNL     1     -12.932  15.090  65.212  1.00  0.00     0.000 HD 
HETATM   24  H2  UNL     1     -13.353  13.888  66.317  1.00  0.00     0.000 HD 
HETATM   25  H   UNL     1     -12.122  16.007  68.898  1.00  0.00     0.000 HD 
HETATM   26  H   UNL     1     -10.035  15.905  63.647  1.00  0.00     0.000 HD 
ENDBRANCH  15  16
ENDBRANCH  12  15
ENDBRANCH   8   9
ENDBRANCH   7   8
ENDBRANCH   6   7
ENDBRANCH   5   6
ENDBRANCH   4   5
ENDBRANCH   3   4
ENDBRANCH   2   3
TORSDOF 9
ENDMDL
MODEL       97
REMARK 921   NORMALIZED FREE ENERGY PREDICTED BY IDOCK:   -4.72 KCAL/MOL
REMARK 922        TOTAL FREE ENERGY PREDICTED BY IDOCK:   -8.32 KCAL/MOL
REMARK 923 INTER-LIGAND FREE ENERGY PREDICTED BY IDOCK:   -7.33 KCAL/MOL
REMARK 924 INTRA-LIGAND FREE ENERGY PREDICTED BY IDOCK:   -0.99 KCAL/MOL
REMARK 927      BINDING AFFINITY PREDICTED BY RF-SCORE:    0.00 PKD
ROOT
HETATM    1  C   UNL     1     -11.923  13.552  66.531  1.00  0.00    -0.460 C  
HETATM    2  C   UNL     1     -11.751  14.733  67.469  1.00  0.00    -0.370 C  
ENDROOT
BRANCH   2   3
HETATM    3  C   UNL     1     -10.538  14.546  68.375  1.00  0.00    -0.244 C  
BRANCH   3   4
HETATM    4  C   UNL     1     -10.833  15.040  69.789  1.00  0.00    -0.277 C  
BRANCH   4   5
HETATM    5  C   UNL     1     -12.326  15.286  69.976  1.00  0.00    -0.366 C  
BRANCH   5   6
HETATM    6  C   UNL     1     -12.893  14.392  71.076  1.00  0.00    -0.423 C  
BRANCH   6   7
HETATM    7  C   UNL     1     -12.467  12.946  70.856  1.00  0.00    -0.383 C  
BRANCH   7   8
HETATM    8  C   UNL     1     -13.175  12.004  71.833  1.00  0.00    -0.469 C  
BRANCH   8   9
HETATM    9  C   UNL     1     -12.760  10.573  71.609  1.00  0.00    -0.550 A  
HETATM   10  C   UNL     1     -11.603  10.292  70.877  1.00  0.00    -0.454 A  
HETATM   11  C   UNL     1     -11.237   8.977  70.609  1.00  0.00    -0.318 A  
HETATM   12  C   UNL     1     -11.992   7.907  71.101  1.00  0.00    -0.304 A  
HETATM   13  C   UNL     1     -13.528   9.512  72.097  1.00  0.00    -0.535 A  
HETATM   14  C   UNL     1     -13.145   8.192  71.847  1.00  0.00    -0.349 A  
BRANCH  12  15
HETATM   15  C   UNL     1     -11.649   6.470  70.776  1.00  0.00    -0.437 C  
BRANCH  15  16
HETATM   16  C   UNL     1     -11.125   6.263  69.345  1.00  0.00    -0.477 C  
HETATM   17  C   UNL     1      -9.754   5.568  69.167  1.00  0.00    -0.155 C  
HETATM   18  C   UNL     1      -9.451   5.529  67.641  1.00  0.00    -0.118 C  
HETATM   19  N   UNL     1      -8.667   6.338  69.832  1.00  0.00    -0.139 NA 
HETATM   20  C   UNL     1      -9.759   4.111  69.706  1.00  0.00    -0.208 C  
HETATM   21  O   UNL     1      -8.160   4.977  67.390  1.00  0.00    -0.102 OA 
HETATM   22  O   UNL     1      -9.937   4.062  71.119  1.00  0.00    -0.188 OA 
HETATM   23  H1  UNL     1      -7.763   5.879  69.715  1.00  0.00     0.000 HD 
HETATM   24  H2  UNL     1      -8.877   6.507  70.815  1.00  0.00     0.000 HD 
HETATM   25  H   UNL     1      -9.941   3.171  71.448  1.00  0.00     0.000 HD 
HETATM   26  H   UNL     1      -7.975   4.953  66.459  1.00  0.00     0.000 HD 
ENDBRANCH  15  16
ENDBRANCH  12  15
ENDBRANCH   8   9
ENDBRANCH   7   8
ENDBRANCH   6   7
ENDBRANCH   5   6
ENDBRANCH   4   5
ENDBRANCH   3   4
ENDBRANCH   2   3
TORSDOF 9
ENDMDL
MODEL       98
REMARK 921   NORMALIZED FREE ENERGY PREDICTED BY IDOCK:   -4.72 KCAL/MOL
REMARK 922        TOTAL FREE ENERGY PREDICTED BY IDOCK:   -8.31 KCAL/MOL
REMARK 923 INTER-LIGAND FREE ENERGY PREDICTED BY IDOCK:   -7.01 KCAL/MOL
REMARK 924 INTRA-LIGAND FREE ENERGY PREDICTED BY IDOCK:   -1.29 KCAL/MOL
REMARK 927      BINDING AFFINITY PREDICTED BY RF-SCORE:    0.00 PKD
ROOT
HETATM    1  C   UNL     1      -7.448   8.841  67.865  1.00  0.00    -0.093 C  
HETATM    2  C   UNL     1      -8.400   7.999  68.695  1.00  0.00    -0.127 C  
ENDROOT
BRANCH   2   3
HETATM    3  C   UNL     1      -9.058   8.828  69.794  1.00  0.00    -0.151 C  
BRANCH   3   4
HETATM    4  C   UNL     1      -9.909   7.949  70.705  1.00  0.00    -0.187 C  
BRANCH   4   5
HETATM    5  C   UNL     1     -10.093   8.601  72.071  1.00  0.00    -0.401 C  
BRANCH   5   6
HETATM    6  C   UNL     1     -11.551   8.526  72.519  1.00  0.00    -0.376 C  
BRANCH   6   7
HETATM    7  C   UNL     1     -12.466   9.100  71.445  1.00  0.00    -0.396 C  
BRANCH   7   8
HETATM    8  C   UNL     1     -12.997  10.478  71.844  1.00  0.00    -0.553 C  
BRANCH   8   9
HETATM    9  C   UNL     1     -12.543  11.540  70.877  1.00  0.00    -0.438 A  
HETATM   10  C   UNL     1     -12.684  12.890  71.211  1.00  0.00    -0.371 A  
HETATM   11  C   UNL     1     -12.326  13.883  70.306  1.00  0.00    -0.413 A  
HETATM   12  C   UNL     1     -11.776  13.558  69.062  1.00  0.00    -0.370 A  
HETATM   13  C   UNL     1     -12.004  11.202  69.633  1.00  0.00    -0.429 A  
HETATM   14  C   UNL     1     -11.623  12.203  68.735  1.00  0.00    -0.380 A  
BRANCH  12  15
HETATM   15  C   UNL     1     -11.432  14.617  68.038  1.00  0.00    -0.346 C  
BRANCH  15  16
HETATM   16  C   UNL     1     -10.099  15.334  68.308  1.00  0.00    -0.225 C  
HETATM   17  C   UNL     1      -9.038  15.343  67.180  1.00  0.00    -0.220 C  
HETATM   18  C   UNL     1      -7.787  16.088  67.730  1.00  0.00    -0.140 C  
HETATM   19  N   UNL     1      -8.626  13.961  66.815  1.00  0.00    -0.433 NA 
HETATM   20  C   UNL     1      -9.536  16.087  65.910  1.00  0.00    -0.335 C  
HETATM   21  O   UNL     1      -6.723  16.070  66.781  1.00  0.00    -0.259 OA 
HETATM   22  O   UNL     1     -10.627  15.414  65.288  1.00  0.00    -0.368 OA 
HETATM   23  H1  UNL     1      -7.927  13.966  66.072  1.00  0.00     0.000 HD 
HETATM   24  H2  UNL     1      -9.430  13.384  66.569  1.00  0.00     0.000 HD 
HETATM   25  H   UNL     1     -10.932  15.869  64.511  1.00  0.00     0.000 HD 
HETATM   26  H   UNL     1      -5.960  16.525  67.116  1.00  0.00     0.000 HD 
ENDBRANCH  15  16
ENDBRANCH  12  15
ENDBRANCH   8   9
ENDBRANCH   7   8
ENDBRANCH   6   7
ENDBRANCH   5   6
ENDBRANCH   4   5
ENDBRANCH   3   4
ENDBRANCH   2   3
TORSDOF 9
ENDMDL
MODEL       99
REMARK 921   NORMALIZED FREE ENERGY PREDICTED BY IDOCK:   -4.66 KCAL/MOL
REMARK 922        TOTAL FREE ENERGY PREDICTED BY IDOCK:   -8.23 KCAL/MOL
REMARK 923 INTER-LIGAND FREE ENERGY PREDICTED BY IDOCK:   -6.61 KCAL/MOL
REMARK 924 INTRA-LIGAND FREE ENERGY PREDICTED BY IDOCK:   -1.62 KCAL/MOL
REMARK 927      BINDING AFFINITY PREDICTED BY RF-SCORE:    0.00 PKD
ROOT
HETATM    1  C   UNL     1      -7.960  10.235  69.655  1.00  0.00    -0.164 C  
HETATM    2  C   UNL     1      -7.848   8.780  70.074  1.00  0.00    -0.094 C  
ENDROOT
BRANCH   2   3
HETATM    3  C   UNL     1      -8.419   8.561  71.473  1.00  0.00    -0.221 C  
BRANCH   3   4
HETATM    4  C   UNL     1      -8.848   7.110  71.666  1.00  0.00    -0.121 C  
BRANCH   4   5
HETATM    5  C   UNL     1     -10.331   6.938  71.359  1.00  0.00    -0.219 C  
BRANCH   5   6
HETATM    6  C   UNL     1     -11.185   7.281  72.577  1.00  0.00    -0.342 C  
BRANCH   6   7
HETATM    7  C   UNL     1     -12.103   8.457  72.267  1.00  0.00    -0.456 C  
BRANCH   7   8
HETATM    8  C   UNL     1     -12.164   8.733  70.762  1.00  0.00    -0.052 C  
BRANCH   8   9
HETATM    9  C   UNL     1     -12.098  10.210  70.475  1.00  0.00    -0.380 A  
HETATM   10  C   UNL     1     -11.478  10.664  69.307  1.00  0.00    -0.351 A  
HETATM   11  C   UNL     1     -11.355  12.026  69.055  1.00  0.00    -0.331 A  
HETATM   12  C   UNL     1     -11.886  12.971  69.939  1.00  0.00    -0.377 A  
HETATM   13  C   UNL     1     -12.624  11.145  71.371  1.00  0.00    -0.479 A  
HETATM   14  C   UNL     1     -12.520  12.513  71.103  1.00  0.00    -0.322 A  
BRANCH  12  15
HETATM   15  C   UNL     1     -11.716  14.458  69.717  1.00  0.00    -0.361 C  
BRANCH  15  16
HETATM   16  C   UNL     1     -11.448  14.842  68.253  1.00  0.00    -0.343 C  
HETATM   17  C   UNL     1     -10.309  15.849  67.963  1.00  0.00    -0.262 C  
HETATM   18  C   UNL     1     -10.286  16.091  66.426  1.00  0.00    -0.305 C  
HETATM   19  N   UNL     1     -10.560  17.156  68.629  1.00  0.00    -0.359 NA 
HETATM   20  C   UNL     1      -8.919  15.306  68.398  1.00  0.00    -0.184 C  
HETATM   21  O   UNL     1      -9.315  17.075  66.077  1.00  0.00    -0.449 OA 
HETATM   22  O   UNL     1      -8.824  15.146  69.810  1.00  0.00    -0.439 OA 
HETATM   23  H1  UNL     1      -9.809  17.820  68.439  1.00  0.00     0.000 HD 
HETATM   24  H2  UNL     1     -10.713  17.042  69.631  1.00  0.00     0.000 HD 
HETATM   25  H   UNL     1      -7.974  14.813  70.076  1.00  0.00     0.000 HD 
HETATM   26  H   UNL     1      -9.301  17.223  65.139  1.00  0.00     0.000 HD 
ENDBRANCH  15  16
ENDBRANCH  12  15
ENDBRANCH   8   9
ENDBRANCH   7   8
ENDBRANCH   6   7
ENDBRANCH   5   6
ENDBRANCH   4   5
ENDBRANCH   3   4
ENDBRANCH   2   3
TORSDOF 9
ENDMDL
MODEL      100
REMARK 921   NORMALIZED FREE ENERGY PREDICTED BY IDOCK:   -4.66 KCAL/MOL
REMARK 922        TOTAL FREE ENERGY PREDICTED BY IDOCK:   -8.22 KCAL/MOL
REMARK 923 INTER-LIGAND FREE ENERGY PREDICTED BY IDOCK:   -6.21 KCAL/MOL
REMARK 924 INTRA-LIGAND FREE ENERGY PREDICTED BY IDOCK:   -2.01 KCAL/MOL
REMARK 927      BINDING AFFINITY PREDICTED BY RF-SCORE:    0.00 PKD
ROOT
HETATM    1  C   UNL     1     -12.273  12.944  65.448  1.00  0.00    -0.528 C  
HETATM    2  C   UNL     1     -11.788  14.041  64.517  1.00  0.00    -0.452 C  
ENDROOT
BRANCH   2   3
HETATM    3  C   UNL     1     -10.421  14.567  64.947  1.00  0.00    -0.435 C  
BRANCH   3   4
HETATM    4  C   UNL     1     -10.537  15.973  65.527  1.00  0.00    -0.415 C  
BRANCH   4   5
HETATM    5  C   UNL     1      -9.751  16.090  66.829  1.00  0.00    -0.253 C  
BRANCH   5   6
HETATM    6  C   UNL     1     -10.691  16.135  68.031  1.00  0.00    -0.321 C  
BRANCH   6   7
HETATM    7  C   UNL     1     -10.346  15.025  69.016  1.00  0.00    -0.243 C  
BRANCH   7   8
HETATM    8  C   UNL     1      -9.157  14.195  68.525  1.00  0.00    -0.176 C  
BRANCH   8   9
HETATM    9  C   UNL     1      -9.598  12.831  68.061  1.00  0.00    -0.217 A  
HETATM   10  C   UNL     1     -10.691  12.210  68.672  1.00  0.00    -0.261 A  
HETATM   11  C   UNL     1     -11.075  10.927  68.298  1.00  0.00    -0.324 A  
HETATM   12  C   UNL     1     -10.407  10.247  67.275  1.00  0.00    -0.284 A  
HETATM   13  C   UNL     1      -8.917  12.157  67.044  1.00  0.00    -0.201 A  
HETATM   14  C   UNL     1      -9.319  10.877  66.654  1.00  0.00    -0.191 A  
BRANCH  12  15
HETATM   15  C   UNL     1     -10.768   8.828  66.888  1.00  0.00    -0.151 C  
BRANCH  15  16
HETATM   16  C   UNL     1     -10.263   7.766  67.879  1.00  0.00    -0.259 C  
HETATM   17  C   UNL     1      -9.772   6.415  67.306  1.00  0.00    -0.130 C  
HETATM   18  C   UNL     1      -9.366   5.522  68.514  1.00  0.00    -0.121 C  
HETATM   19  N   UNL     1     -10.856   5.717  66.563  1.00  0.00    -0.640 NA 
HETATM   20  C   UNL     1      -8.536   6.583  66.380  1.00  0.00    -0.136 C  
HETATM   21  O   UNL     1      -8.978   4.220  68.080  1.00  0.00    -0.109 OA 
HETATM   22  O   UNL     1      -8.848   7.313  65.197  1.00  0.00    -0.363 OA 
HETATM   23  H1  UNL     1     -10.533   4.826  66.185  1.00  0.00     0.000 HD 
HETATM   24  H2  UNL     1     -11.253   6.310  65.835  1.00  0.00     0.000 HD 
HETATM   25  H   UNL     1      -8.092   7.416  64.630  1.00  0.00     0.000 HD 
HETATM   26  H   UNL     1      -8.730   3.675  68.818  1.00  0.00     0.000 HD 
ENDBRANCH  15  16
ENDBRANCH  12  15
ENDBRANCH   8   9
ENDBRANCH   7   8
ENDBRANCH   6   7
ENDBRANCH   5   6
ENDBRANCH   4   5
ENDBRANCH   3   4
ENDBRANCH   2   3
TORSDOF 9
ENDMDL
MODEL      101
REMARK 921   NORMALIZED FREE ENERGY PREDICTED BY IDOCK:   -4.65 KCAL/MOL
REMARK 922        TOTAL FREE ENERGY PREDICTED BY IDOCK:   -8.21 KCAL/MOL
REMARK 923 INTER-LIGAND FREE ENERGY PREDICTED BY IDOCK:   -6.03 KCAL/MOL
REMARK 924 INTRA-LIGAND FREE ENERGY PREDICTED BY IDOCK:   -2.18 KCAL/MOL
REMARK 927      BINDING AFFINITY PREDICTED BY RF-SCORE:    0.00 PKD
ROOT
HETATM    1  C   UNL     1      -9.492  10.863  64.385  1.00  0.00    -0.287 C  
HETATM    2  C   UNL     1     -10.986  11.105  64.501  1.00  0.00    -0.255 C  
ENDROOT
BRANCH   2   3
HETATM    3  C   UNL     1     -11.402  12.368  63.753  1.00  0.00    -0.536 C  
BRANCH   3   4
HETATM    4  C   UNL     1     -12.564  13.061  64.458  1.00  0.00    -0.387 C  
BRANCH   4   5
HETATM    5  C   UNL     1     -12.165  14.461  64.912  1.00  0.00    -0.440 C  
BRANCH   5   6
HETATM    6  C   UNL     1     -10.667  14.690  64.728  1.00  0.00    -0.399 C  
BRANCH   6   7
HETATM    7  C   UNL     1     -10.026  15.092  66.050  1.00  0.00    -0.335 C  
BRANCH   7   8
HETATM    8  C   UNL     1     -10.894  14.675  67.240  1.00  0.00    -0.305 C  
BRANCH   8   9
HETATM    9  C   UNL     1     -10.693  13.221  67.579  1.00  0.00    -0.259 A  
HETATM   10  C   UNL     1      -9.416  12.659  67.499  1.00  0.00    -0.186 A  
HETATM   11  C   UNL     1      -9.221  11.305  67.749  1.00  0.00    -0.156 A  
HETATM   12  C   UNL     1     -10.288  10.485  68.130  1.00  0.00    -0.201 A  
HETATM   13  C   UNL     1     -11.769  12.409  67.948  1.00  0.00    -0.421 A  
HETATM   14  C   UNL     1     -11.566  11.053  68.223  1.00  0.00    -0.354 A  
BRANCH  12  15
HETATM   15  C   UNL     1     -10.114   8.998  68.352  1.00  0.00    -0.216 C  
BRANCH  15  16
HETATM   16  C   UNL     1      -9.788   8.211  67.072  1.00  0.00    -0.299 C  
HETATM   17  C   UNL     1      -9.619   6.677  67.186  1.00  0.00    -0.138 C  
HETATM   18  C   UNL     1      -9.254   6.146  65.769  1.00  0.00     0.011 C  
HETATM   19  N   UNL     1      -8.507   6.323  68.109  1.00  0.00    -0.114 NA 
HETATM   20  C   UNL     1     -10.923   5.975  67.656  1.00  0.00    -0.234 C  
HETATM   21  O   UNL     1      -8.997   4.744  65.800  1.00  0.00    -0.128 OA 
HETATM   22  O   UNL     1     -11.277   6.336  68.988  1.00  0.00    -0.395 OA 
HETATM   23  H1  UNL     1      -8.395   5.312  68.185  1.00  0.00     0.000 HD 
HETATM   24  H2  UNL     1      -8.628   6.756  69.025  1.00  0.00     0.000 HD 
HETATM   25  H   UNL     1     -12.075   5.907  69.274  1.00  0.00     0.000 HD 
HETATM   26  H   UNL     1      -8.774   4.419  64.935  1.00  0.00     0.000 HD 
ENDBRANCH  15  16
ENDBRANCH  12  15
ENDBRANCH   8   9
ENDBRANCH   7   8
ENDBRANCH   6   7
ENDBRANCH   5   6
ENDBRANCH   4   5
ENDBRANCH   3   4
ENDBRANCH   2   3
TORSDOF 9
ENDMDL
MODEL      102
REMARK 921   NORMALIZED FREE ENERGY PREDICTED BY IDOCK:   -4.65 KCAL/MOL
REMARK 922        TOTAL FREE ENERGY PREDICTED BY IDOCK:   -8.21 KCAL/MOL
REMARK 923 INTER-LIGAND FREE ENERGY PREDICTED BY IDOCK:   -7.28 KCAL/MOL
REMARK 924 INTRA-LIGAND FREE ENERGY PREDICTED BY IDOCK:   -0.93 KCAL/MOL
REMARK 927      BINDING AFFINITY PREDICTED BY RF-SCORE:    0.00 PKD
ROOT
HETATM    1  C   UNL     1     -12.722   7.121  71.343  1.00  0.00    -0.433 C  
HETATM    2  C   UNL     1     -11.759   6.504  70.344  1.00  0.00    -0.439 C  
ENDROOT
BRANCH   2   3
HETATM    3  C   UNL     1     -10.320   6.918  70.636  1.00  0.00    -0.220 C  
BRANCH   3   4
HETATM    4  C   UNL     1     -10.278   8.125  71.568  1.00  0.00    -0.261 C  
BRANCH   4   5
HETATM    5  C   UNL     1      -9.579   9.303  70.899  1.00  0.00    -0.339 C  
BRANCH   5   6
HETATM    6  C   UNL     1     -10.245   9.651  69.570  1.00  0.00    -0.233 C  
BRANCH   6   7
HETATM    7  C   UNL     1     -11.263  10.768  69.764  1.00  0.00    -0.365 C  
BRANCH   7   8
HETATM    8  C   UNL     1     -12.008  11.073  68.462  1.00  0.00    -0.206 C  
BRANCH   8   9
HETATM    9  C   UNL     1     -11.502  12.342  67.827  1.00  0.00    -0.392 A  
HETATM   10  C   UNL     1     -10.447  13.042  68.420  1.00  0.00    -0.261 A  
HETATM   11  C   UNL     1     -10.007  14.246  67.882  1.00  0.00    -0.230 A  
HETATM   12  C   UNL     1     -10.577  14.762  66.714  1.00  0.00    -0.302 A  
HETATM   13  C   UNL     1     -12.086  12.853  66.665  1.00  0.00    -0.360 A  
HETATM   14  C   UNL     1     -11.625  14.051  66.113  1.00  0.00    -0.374 A  
BRANCH  12  15
HETATM   15  C   UNL     1     -10.156  16.098  66.141  1.00  0.00    -0.356 C  
BRANCH  15  16
HETATM   16  C   UNL     1      -9.726  17.123  67.203  1.00  0.00    -0.261 C  
HETATM   17  C   UNL     1      -9.363  18.551  66.728  1.00  0.00    -0.297 C  
HETATM   18  C   UNL     1      -8.927  19.359  67.985  1.00  0.00    -0.322 C  
HETATM   19  N   UNL     1      -8.219  18.530  65.776  1.00  0.00    -0.435 NA 
HETATM   20  C   UNL     1     -10.569  19.277  66.070  1.00  0.00    -0.461 C  
HETATM   21  O   UNL     1      -8.493  20.669  67.626  1.00  0.00    -0.238 OA 
HETATM   22  O   UNL     1     -10.973  18.651  64.855  1.00  0.00    -0.494 OA 
HETATM   23  H1  UNL     1      -7.980  19.471  65.463  1.00  0.00     0.000 HD 
HETATM   24  H2  UNL     1      -8.399  17.908  64.989  1.00  0.00     0.000 HD 
HETATM   25  H   UNL     1     -11.711  19.095  64.453  1.00  0.00     0.000 HD 
HETATM   26  H   UNL     1      -8.226  21.161  68.393  1.00  0.00     0.000 HD 
ENDBRANCH  15  16
ENDBRANCH  12  15
ENDBRANCH   8   9
ENDBRANCH   7   8
ENDBRANCH   6   7
ENDBRANCH   5   6
ENDBRANCH   4   5
ENDBRANCH   3   4
ENDBRANCH   2   3
TORSDOF 9
ENDMDL
MODEL      103
REMARK 921   NORMALIZED FREE ENERGY PREDICTED BY IDOCK:   -4.61 KCAL/MOL
REMARK 922        TOTAL FREE ENERGY PREDICTED BY IDOCK:   -8.14 KCAL/MOL
REMARK 923 INTER-LIGAND FREE ENERGY PREDICTED BY IDOCK:   -5.82 KCAL/MOL
REMARK 924 INTRA-LIGAND FREE ENERGY PREDICTED BY IDOCK:   -2.32 KCAL/MOL
REMARK 927      BINDING AFFINITY PREDICTED BY RF-SCORE:    0.00 PKD
ROOT
HETATM    1  C   UNL     1     -11.196  11.822  65.840  1.00  0.00    -0.345 C  
HETATM    2  C   UNL     1      -9.860  11.160  66.123  1.00  0.00    -0.265 C  
ENDROOT
BRANCH   2   3
HETATM    3  C   UNL     1      -9.900   9.670  65.795  1.00  0.00    -0.373 C  
BRANCH   3   4
HETATM    4  C   UNL     1      -8.718   9.274  64.915  1.00  0.00    -0.224 C  
BRANCH   4   5
HETATM    5  C   UNL     1      -7.792  10.463  64.682  1.00  0.00    -0.077 C  
BRANCH   5   6
HETATM    6  C   UNL     1      -6.375  10.152  65.156  1.00  0.00    -0.121 C  
BRANCH   6   7
HETATM    7  C   UNL     1      -6.055  10.936  66.422  1.00  0.00    -0.131 C  
BRANCH   7   8
HETATM    8  C   UNL     1      -5.720   9.999  67.586  1.00  0.00    -0.042 C  
BRANCH   8   9
HETATM    9  C   UNL     1      -6.969   9.426  68.202  1.00  0.00    -0.075 A  
HETATM   10  C   UNL     1      -7.284   8.078  68.007  1.00  0.00    -0.094 A  
HETATM   11  C   UNL     1      -8.463   7.546  68.518  1.00  0.00    -0.129 A  
HETATM   12  C   UNL     1      -9.337   8.333  69.274  1.00  0.00    -0.155 A  
HETATM   13  C   UNL     1      -7.840  10.224  68.948  1.00  0.00    -0.106 A  
HETATM   14  C   UNL     1      -9.012   9.681  69.481  1.00  0.00    -0.203 A  
BRANCH  12  15
HETATM   15  C   UNL     1     -10.653   7.795  69.792  1.00  0.00    -0.241 C  
BRANCH  15  16
HETATM   16  C   UNL     1     -11.466   8.814  70.608  1.00  0.00    -0.263 C  
HETATM   17  C   UNL     1     -12.414   8.275  71.706  1.00  0.00    -0.332 C  
HETATM   18  C   UNL     1     -13.135   9.502  72.336  1.00  0.00    -0.349 C  
HETATM   19  N   UNL     1     -13.452   7.378  71.131  1.00  0.00    -0.601 NA 
HETATM   20  C   UNL     1     -11.646   7.525  72.829  1.00  0.00    -0.248 C  
HETATM   21  O   UNL     1     -14.095   9.088  73.306  1.00  0.00    -1.218 OA 
HETATM   22  O   UNL     1     -11.031   6.331  72.353  1.00  0.00    -0.230 OA 
HETATM   23  H1  UNL     1     -14.077   7.022  71.855  1.00  0.00     0.000 HD 
HETATM   24  H2  UNL     1     -13.034   6.620  70.592  1.00  0.00     0.000 HD 
HETATM   25  H   UNL     1     -10.561   5.872  73.040  1.00  0.00     0.000 HD 
HETATM   26  H   UNL     1     -14.535   9.837  73.691  1.00  0.00     0.000 HD 
ENDBRANCH  15  16
ENDBRANCH  12  15
ENDBRANCH   8   9
ENDBRANCH   7   8
ENDBRANCH   6   7
ENDBRANCH   5   6
ENDBRANCH   4   5
ENDBRANCH   3   4
ENDBRANCH   2   3
TORSDOF 9
ENDMDL
MODEL      104
REMARK 921   NORMALIZED FREE ENERGY PREDICTED BY IDOCK:   -4.58 KCAL/MOL
REMARK 922        TOTAL FREE ENERGY PREDICTED BY IDOCK:   -8.10 KCAL/MOL
REMARK 923 INTER-LIGAND FREE ENERGY PREDICTED BY IDOCK:   -6.45 KCAL/MOL
REMARK 924 INTRA-LIGAND FREE ENERGY PREDICTED BY IDOCK:   -1.64 KCAL/MOL
REMARK 927      BINDING AFFINITY PREDICTED BY RF-SCORE:    0.00 PKD
ROOT
HETATM    1  C   UNL     1      -7.094  10.050  63.059  1.00  0.00    -0.129 C  
HETATM    2  C   UNL     1      -7.138   9.869  64.566  1.00  0.00    -0.137 C  
ENDROOT
BRANCH   2   3
HETATM    3  C   UNL     1      -8.374  10.531  65.166  1.00  0.00    -0.150 C  
BRANCH   3   4
HETATM    4  C   UNL     1      -9.541   9.550  65.233  1.00  0.00    -0.314 C  
BRANCH   4   5
HETATM    5  C   UNL     1      -9.343   8.548  66.365  1.00  0.00    -0.273 C  
BRANCH   5   6
HETATM    6  C   UNL     1     -10.516   8.587  67.340  1.00  0.00    -0.351 C  
BRANCH   6   7
HETATM    7  C   UNL     1     -10.303   9.677  68.383  1.00  0.00    -0.233 C  
BRANCH   7   8
HETATM    8  C   UNL     1     -11.424  10.718  68.336  1.00  0.00    -0.358 C  
BRANCH   8   9
HETATM    9  C   UNL     1     -10.975  11.972  67.632  1.00  0.00    -0.287 A  
HETATM   10  C   UNL     1      -9.735  12.538  67.943  1.00  0.00    -0.205 A  
HETATM   11  C   UNL     1      -9.331  13.727  67.347  1.00  0.00    -0.226 A  
HETATM   12  C   UNL     1     -10.133  14.361  66.392  1.00  0.00    -0.294 A  
HETATM   13  C   UNL     1     -11.790  12.602  66.687  1.00  0.00    -0.449 A  
HETATM   14  C   UNL     1     -11.370  13.784  66.072  1.00  0.00    -0.319 A  
BRANCH  12  15
HETATM   15  C   UNL     1      -9.743  15.685  65.771  1.00  0.00    -0.380 C  
BRANCH  15  16
HETATM   16  C   UNL     1     -10.508  16.890  66.344  1.00  0.00    -0.252 C  
HETATM   17  C   UNL     1      -9.692  17.998  67.052  1.00  0.00    -0.303 C  
HETATM   18  C   UNL     1     -10.706  19.061  67.567  1.00  0.00    -0.446 C  
HETATM   19  N   UNL     1      -8.955  17.459  68.227  1.00  0.00    -0.261 NA 
HETATM   20  C   UNL     1      -8.691  18.697  66.091  1.00  0.00    -0.125 C  
HETATM   21  O   UNL     1     -10.044  20.082  68.310  1.00  0.00    -0.419 OA 
HETATM   22  O   UNL     1      -7.668  17.811  65.645  1.00  0.00    -0.545 OA 
HETATM   23  H1  UNL     1      -8.417  18.189  68.694  1.00  0.00     0.000 HD 
HETATM   24  H2  UNL     1      -8.366  16.668  67.968  1.00  0.00     0.000 HD 
HETATM   25  H   UNL     1      -7.056  18.239  65.057  1.00  0.00     0.000 HD 
HETATM   26  H   UNL     1     -10.663  20.730  68.624  1.00  0.00     0.000 HD 
ENDBRANCH  15  16
ENDBRANCH  12  15
ENDBRANCH   8   9
ENDBRANCH   7   8
ENDBRANCH   6   7
ENDBRANCH   5   6
ENDBRANCH   4   5
ENDBRANCH   3   4
ENDBRANCH   2   3
TORSDOF 9
ENDMDL
MODEL      105
REMARK 921   NORMALIZED FREE ENERGY PREDICTED BY IDOCK:   -4.58 KCAL/MOL
REMARK 922        TOTAL FREE ENERGY PREDICTED BY IDOCK:   -8.09 KCAL/MOL
REMARK 923 INTER-LIGAND FREE ENERGY PREDICTED BY IDOCK:   -7.00 KCAL/MOL
REMARK 924 INTRA-LIGAND FREE ENERGY PREDICTED BY IDOCK:   -1.10 KCAL/MOL
REMARK 927      BINDING AFFINITY PREDICTED BY RF-SCORE:    0.00 PKD
ROOT
HETATM    1  C   UNL     1     -11.166   6.374  68.427  1.00  0.00    -0.297 C  
HETATM    2  C   UNL     1     -10.085   5.363  68.766  1.00  0.00    -0.255 C  
ENDROOT
BRANCH   2   3
HETATM    3  C   UNL     1      -9.362   5.738  70.057  1.00  0.00    -0.175 C  
BRANCH   3   4
HETATM    4  C   UNL     1      -9.378   4.578  71.047  1.00  0.00    -0.214 C  
BRANCH   4   5
HETATM    5  C   UNL     1     -10.469   4.774  72.094  1.00  0.00    -0.243 C  
BRANCH   5   6
HETATM    6  C   UNL     1      -9.985   5.678  73.225  1.00  0.00    -0.191 C  
BRANCH   6   7
HETATM    7  C   UNL     1     -10.416   7.118  72.973  1.00  0.00    -0.331 C  
BRANCH   7   8
HETATM    8  C   UNL     1     -11.700   7.177  72.142  1.00  0.00    -0.322 C  
BRANCH   8   9
HETATM    9  C   UNL     1     -12.093   8.600  71.845  1.00  0.00    -0.422 A  
HETATM   10  C   UNL     1     -11.343   9.354  70.939  1.00  0.00    -0.386 A  
HETATM   11  C   UNL     1     -11.655  10.688  70.698  1.00  0.00    -0.432 A  
HETATM   12  C   UNL     1     -12.751  11.293  71.323  1.00  0.00    -0.510 A  
HETATM   13  C   UNL     1     -13.185   9.197  72.483  1.00  0.00    -0.464 A  
HETATM   14  C   UNL     1     -13.511  10.530  72.221  1.00  0.00    -0.140 A  
BRANCH  12  15
HETATM   15  C   UNL     1     -13.078  12.757  71.123  1.00  0.00    -0.155 C  
BRANCH  15  16
HETATM   16  C   UNL     1     -12.390  13.387  69.901  1.00  0.00    -0.259 C  
HETATM   17  C   UNL     1     -12.047  14.895  69.958  1.00  0.00    -0.338 C  
HETATM   18  C   UNL     1     -11.407  15.276  68.592  1.00  0.00    -0.317 C  
HETATM   19  N   UNL     1     -13.272  15.721  70.138  1.00  0.00    -0.622 NA 
HETATM   20  C   UNL     1     -11.032  15.225  71.087  1.00  0.00    -0.197 C  
HETATM   21  O   UNL     1     -11.135  16.674  68.526  1.00  0.00    -0.349 OA 
HETATM   22  O   UNL     1     -11.576  14.993  72.383  1.00  0.00    -0.374 OA 
HETATM   23  H1  UNL     1     -13.046  16.716  70.176  1.00  0.00     0.000 HD 
HETATM   24  H2  UNL     1     -13.805  15.427  70.956  1.00  0.00     0.000 HD 
HETATM   25  H   UNL     1     -10.955  15.194  73.073  1.00  0.00     0.000 HD 
HETATM   26  H   UNL     1     -10.745  16.906  67.692  1.00  0.00     0.000 HD 
ENDBRANCH  15  16
ENDBRANCH  12  15
ENDBRANCH   8   9
ENDBRANCH   7   8
ENDBRANCH   6   7
ENDBRANCH   5   6
ENDBRANCH   4   5
ENDBRANCH   3   4
ENDBRANCH   2   3
TORSDOF 9
ENDMDL
MODEL      106
REMARK 921   NORMALIZED FREE ENERGY PREDICTED BY IDOCK:   -4.57 KCAL/MOL
REMARK 922        TOTAL FREE ENERGY PREDICTED BY IDOCK:   -8.09 KCAL/MOL
REMARK 923 INTER-LIGAND FREE ENERGY PREDICTED BY IDOCK:   -6.60 KCAL/MOL
REMARK 924 INTRA-LIGAND FREE ENERGY PREDICTED BY IDOCK:   -1.49 KCAL/MOL
REMARK 927      BINDING AFFINITY PREDICTED BY RF-SCORE:    0.00 PKD
ROOT
HETATM    1  C   UNL     1      -9.533   3.404  69.970  1.00  0.00    -0.243 C  
HETATM    2  C   UNL     1      -9.343   4.666  70.791  1.00  0.00    -0.215 C  
ENDROOT
BRANCH   2   3
HETATM    3  C   UNL     1     -10.634   5.063  71.502  1.00  0.00    -0.175 C  
BRANCH   3   4
HETATM    4  C   UNL     1     -10.489   4.919  73.014  1.00  0.00    -0.251 C  
BRANCH   4   5
HETATM    5  C   UNL     1      -9.152   5.479  73.487  1.00  0.00    -0.128 C  
BRANCH   5   6
HETATM    6  C   UNL     1      -9.359   6.631  74.468  1.00  0.00    -0.256 C  
BRANCH   6   7
HETATM    7  C   UNL     1      -8.714   7.904  73.934  1.00  0.00    -0.332 C  
BRANCH   7   8
HETATM    8  C   UNL     1      -8.356   7.767  72.453  1.00  0.00    -0.164 C  
BRANCH   8   9
HETATM    9  C   UNL     1      -9.204   8.675  71.600  1.00  0.00    -0.326 A  
HETATM   10  C   UNL     1     -10.553   8.863  71.914  1.00  0.00    -0.419 A  
HETATM   11  C   UNL     1     -11.365   9.649  71.105  1.00  0.00    -0.456 A  
HETATM   12  C   UNL     1     -10.844  10.304  69.984  1.00  0.00    -0.364 A  
HETATM   13  C   UNL     1      -8.674   9.317  70.478  1.00  0.00    -0.276 A  
HETATM   14  C   UNL     1      -9.487  10.126  69.679  1.00  0.00    -0.226 A  
BRANCH  12  15
HETATM   15  C   UNL     1     -11.718  11.118  69.055  1.00  0.00    -0.408 C  
BRANCH  15  16
HETATM   16  C   UNL     1     -12.067  12.515  69.593  1.00  0.00    -0.272 C  
HETATM   17  C   UNL     1     -11.472  13.744  68.864  1.00  0.00    -0.304 C  
HETATM   18  C   UNL     1     -11.944  15.011  69.634  1.00  0.00    -0.321 C  
HETATM   19  N   UNL     1      -9.985  13.719  68.889  1.00  0.00    -0.416 NA 
HETATM   20  C   UNL     1     -11.962  13.850  67.393  1.00  0.00    -0.401 C  
HETATM   21  O   UNL     1     -11.371  16.192  69.076  1.00  0.00    -0.334 OA 
HETATM   22  O   UNL     1     -11.491  12.769  66.592  1.00  0.00    -0.311 OA 
HETATM   23  H1  UNL     1      -9.592  14.529  68.408  1.00  0.00     0.000 HD 
HETATM   24  H2  UNL     1      -9.619  12.846  68.511  1.00  0.00     0.000 HD 
HETATM   25  H   UNL     1     -11.792  12.834  65.693  1.00  0.00     0.000 HD 
HETATM   26  H   UNL     1     -11.659  16.966  69.547  1.00  0.00     0.000 HD 
ENDBRANCH  15  16
ENDBRANCH  12  15
ENDBRANCH   8   9
ENDBRANCH   7   8
ENDBRANCH   6   7
ENDBRANCH   5   6
ENDBRANCH   4   5
ENDBRANCH   3   4
ENDBRANCH   2   3
TORSDOF 9
ENDMDL
MODEL      107
REMARK 921   NORMALIZED FREE ENERGY PREDICTED BY IDOCK:   -4.56 KCAL/MOL
REMARK 922        TOTAL FREE ENERGY PREDICTED BY IDOCK:   -8.07 KCAL/MOL
REMARK 923 INTER-LIGAND FREE ENERGY PREDICTED BY IDOCK:   -5.58 KCAL/MOL
REMARK 924 INTRA-LIGAND FREE ENERGY PREDICTED BY IDOCK:   -2.50 KCAL/MOL
REMARK 927      BINDING AFFINITY PREDICTED BY RF-SCORE:    0.00 PKD
ROOT
HETATM    1  C   UNL     1      -6.558  12.082  68.248  1.00  0.00    -0.055 C  
HETATM    2  C   UNL     1      -6.862  11.513  66.874  1.00  0.00    -0.138 C  
ENDROOT
BRANCH   2   3
HETATM    3  C   UNL     1      -6.658  10.001  66.844  1.00  0.00    -0.071 C  
BRANCH   3   4
HETATM    4  C   UNL     1      -7.005   9.378  68.192  1.00  0.00    -0.075 C  
BRANCH   4   5
HETATM    5  C   UNL     1      -6.773   7.871  68.169  1.00  0.00    -0.064 C  
BRANCH   5   6
HETATM    6  C   UNL     1      -8.018   7.119  68.631  1.00  0.00    -0.123 C  
BRANCH   6   7
HETATM    7  C   UNL     1      -8.914   6.795  67.441  1.00  0.00    -0.115 C  
BRANCH   7   8
HETATM    8  C   UNL     1     -10.289   7.451  67.585  1.00  0.00    -0.297 C  
BRANCH   8   9
HETATM    9  C   UNL     1     -10.327   8.795  66.905  1.00  0.00    -0.344 A  
HETATM   10  C   UNL     1      -9.889   8.916  65.583  1.00  0.00     0.006 A  
HETATM   11  C   UNL     1      -9.861  10.158  64.959  1.00  0.00    -0.392 A  
HETATM   12  C   UNL     1     -10.308  11.306  65.622  1.00  0.00    -0.310 A  
HETATM   13  C   UNL     1     -10.766   9.936  67.581  1.00  0.00    -0.339 A  
HETATM   14  C   UNL     1     -10.759  11.179  66.943  1.00  0.00    -0.322 A  
BRANCH  12  15
HETATM   15  C   UNL     1     -10.233  12.677  64.986  1.00  0.00    -0.294 C  
BRANCH  15  16
HETATM   16  C   UNL     1      -9.866  13.800  65.970  1.00  0.00    -0.298 C  
HETATM   17  C   UNL     1     -10.781  15.047  66.022  1.00  0.00    -0.326 C  
HETATM   18  C   UNL     1     -10.160  16.032  67.056  1.00  0.00    -0.271 C  
HETATM   19  N   UNL     1     -10.831  15.737  64.705  1.00  0.00    -0.778 NA 
HETATM   20  C   UNL     1     -12.224  14.699  66.479  1.00  0.00    -0.131 C  
HETATM   21  O   UNL     1     -10.897  17.251  67.107  1.00  0.00    -0.231 OA 
HETATM   22  O   UNL     1     -12.900  13.872  65.535  1.00  0.00    -0.609 OA 
HETATM   23  H1  UNL     1     -11.434  16.559  64.739  1.00  0.00     0.000 HD 
HETATM   24  H2  UNL     1     -11.110  15.099  63.959  1.00  0.00     0.000 HD 
HETATM   25  H   UNL     1     -13.783  13.659  65.815  1.00  0.00     0.000 HD 
HETATM   26  H   UNL     1     -10.518  17.852  67.738  1.00  0.00     0.000 HD 
ENDBRANCH  15  16
ENDBRANCH  12  15
ENDBRANCH   8   9
ENDBRANCH   7   8
ENDBRANCH   6   7
ENDBRANCH   5   6
ENDBRANCH   4   5
ENDBRANCH   3   4
ENDBRANCH   2   3
TORSDOF 9
ENDMDL
MODEL      108
REMARK 921   NORMALIZED FREE ENERGY PREDICTED BY IDOCK:   -4.53 KCAL/MOL
REMARK 922        TOTAL FREE ENERGY PREDICTED BY IDOCK:   -8.01 KCAL/MOL
REMARK 923 INTER-LIGAND FREE ENERGY PREDICTED BY IDOCK:   -7.00 KCAL/MOL
REMARK 924 INTRA-LIGAND FREE ENERGY PREDICTED BY IDOCK:   -1.02 KCAL/MOL
REMARK 927      BINDING AFFINITY PREDICTED BY RF-SCORE:    0.00 PKD
ROOT
HETATM    1  C   UNL     1     -10.586   6.550  73.905  1.00  0.00    -0.250 C  
HETATM    2  C   UNL     1     -10.780   7.159  72.528  1.00  0.00    -0.285 C  
ENDROOT
BRANCH   2   3
HETATM    3  C   UNL     1     -10.696   6.095  71.436  1.00  0.00    -0.308 C  
BRANCH   3   4
HETATM    4  C   UNL     1     -11.352   6.582  70.149  1.00  0.00    -0.463 C  
BRANCH   4   5
HETATM    5  C   UNL     1     -10.925   5.723  68.963  1.00  0.00    -0.280 C  
BRANCH   5   6
HETATM    6  C   UNL     1     -10.746   6.574  67.709  1.00  0.00    -0.368 C  
BRANCH   6   7
HETATM    7  C   UNL     1      -9.989   7.854  68.040  1.00  0.00    -0.213 C  
BRANCH   7   8
HETATM    8  C   UNL     1     -10.186   8.913  66.953  1.00  0.00    -0.347 C  
BRANCH   8   9
HETATM    9  C   UNL     1     -10.698  10.205  67.536  1.00  0.00    -0.347 A  
HETATM   10  C   UNL     1     -10.794  11.342  66.728  1.00  0.00    -0.334 A  
HETATM   11  C   UNL     1     -11.206  12.557  67.263  1.00  0.00    -0.347 A  
HETATM   12  C   UNL     1     -11.577  12.661  68.608  1.00  0.00    -0.356 A  
HETATM   13  C   UNL     1     -11.055  10.299  68.883  1.00  0.00    -0.278 A  
HETATM   14  C   UNL     1     -11.493  11.516  69.413  1.00  0.00    -0.376 A  
BRANCH  12  15
HETATM   15  C   UNL     1     -11.974  13.983  69.229  1.00  0.00    -0.396 C  
BRANCH  15  16
HETATM   16  C   UNL     1     -11.855  15.180  68.272  1.00  0.00    -0.275 C  
HETATM   17  C   UNL     1     -10.744  16.222  68.548  1.00  0.00    -0.307 C  
HETATM   18  C   UNL     1     -10.877  17.336  67.468  1.00  0.00    -0.206 C  
HETATM   19  N   UNL     1     -10.916  16.855  69.884  1.00  0.00    -0.358 NA 
HETATM   20  C   UNL     1      -9.321  15.606  68.448  1.00  0.00    -0.195 C  
HETATM   21  O   UNL     1      -9.939  18.385  67.699  1.00  0.00    -0.311 OA 
HETATM   22  O   UNL     1      -9.083  14.638  69.466  1.00  0.00    -0.401 OA 
HETATM   23  H1  UNL     1     -10.184  17.541  70.066  1.00  0.00     0.000 HD 
HETATM   24  H2  UNL     1     -10.967  16.156  70.625  1.00  0.00     0.000 HD 
HETATM   25  H   UNL     1      -8.213  14.261  69.405  1.00  0.00     0.000 HD 
HETATM   26  H   UNL     1     -10.020  19.065  67.040  1.00  0.00     0.000 HD 
ENDBRANCH  15  16
ENDBRANCH  12  15
ENDBRANCH   8   9
ENDBRANCH   7   8
ENDBRANCH   6   7
ENDBRANCH   5   6
ENDBRANCH   4   5
ENDBRANCH   3   4
ENDBRANCH   2   3
TORSDOF 9
ENDMDL
MODEL      109
REMARK 921   NORMALIZED FREE ENERGY PREDICTED BY IDOCK:   -4.52 KCAL/MOL
REMARK 922        TOTAL FREE ENERGY PREDICTED BY IDOCK:   -8.01 KCAL/MOL
REMARK 923 INTER-LIGAND FREE ENERGY PREDICTED BY IDOCK:   -6.90 KCAL/MOL
REMARK 924 INTRA-LIGAND FREE ENERGY PREDICTED BY IDOCK:   -1.12 KCAL/MOL
REMARK 927      BINDING AFFINITY PREDICTED BY RF-SCORE:    0.00 PKD
ROOT
HETATM    1  C   UNL     1     -10.190   5.434  74.492  1.00  0.00    -0.293 C  
HETATM    2  C   UNL     1      -9.949   6.839  73.967  1.00  0.00    -0.367 C  
ENDROOT
BRANCH   2   3
HETATM    3  C   UNL     1     -10.185   6.914  72.462  1.00  0.00    -0.205 C  
BRANCH   3   4
HETATM    4  C   UNL     1     -11.216   5.881  72.019  1.00  0.00    -0.330 C  
BRANCH   4   5
HETATM    5  C   UNL     1     -10.759   5.167  70.751  1.00  0.00    -0.132 C  
BRANCH   5   6
HETATM    6  C   UNL     1      -9.521   5.839  70.162  1.00  0.00    -0.195 C  
BRANCH   6   7
HETATM    7  C   UNL     1      -9.904   6.705  68.968  1.00  0.00    -0.149 C  
BRANCH   7   8
HETATM    8  C   UNL     1      -9.020   7.951  68.880  1.00  0.00    -0.141 C  
BRANCH   8   9
HETATM    9  C   UNL     1      -9.835   9.210  69.028  1.00  0.00    -0.176 A  
HETATM   10  C   UNL     1      -9.944  10.097  67.954  1.00  0.00    -0.190 A  
HETATM   11  C   UNL     1     -10.642  11.292  68.092  1.00  0.00    -0.225 A  
HETATM   12  C   UNL     1     -11.287  11.613  69.291  1.00  0.00    -0.353 A  
HETATM   13  C   UNL     1     -10.466   9.525  70.234  1.00  0.00    -0.319 A  
HETATM   14  C   UNL     1     -11.187  10.715  70.363  1.00  0.00    -0.334 A  
BRANCH  12  15
HETATM   15  C   UNL     1     -12.003  12.932  69.485  1.00  0.00    -0.346 C  
BRANCH  15  16
HETATM   16  C   UNL     1     -12.626  13.102  70.881  1.00  0.00    -0.377 C  
HETATM   17  C   UNL     1     -12.576  14.506  71.531  1.00  0.00    -0.348 C  
HETATM   18  C   UNL     1     -13.228  14.385  72.940  1.00  0.00    -0.517 C  
HETATM   19  N   UNL     1     -11.173  14.968  71.713  1.00  0.00    -0.561 NA 
HETATM   20  C   UNL     1     -13.367  15.562  70.711  1.00  0.00    -0.259 C  
HETATM   21  O   UNL     1     -13.149  15.621  73.647  1.00  0.00    -0.583 OA 
HETATM   22  O   UNL     1     -12.776  15.803  69.437  1.00  0.00    -0.496 OA 
HETATM   23  H1  UNL     1     -11.140  15.894  72.141  1.00  0.00     0.000 HD 
HETATM   24  H2  UNL     1     -10.655  14.944  70.835  1.00  0.00     0.000 HD 
HETATM   25  H   UNL     1     -13.260  16.449  68.935  1.00  0.00     0.000 HD 
HETATM   26  H   UNL     1     -13.547  15.547  74.507  1.00  0.00     0.000 HD 
ENDBRANCH  15  16
ENDBRANCH  12  15
ENDBRANCH   8   9
ENDBRANCH   7   8
ENDBRANCH   6   7
ENDBRANCH   5   6
ENDBRANCH   4   5
ENDBRANCH   3   4
ENDBRANCH   2   3
TORSDOF 9
ENDMDL
MODEL      110
REMARK 921   NORMALIZED FREE ENERGY PREDICTED BY IDOCK:   -4.52 KCAL/MOL
REMARK 922        TOTAL FREE ENERGY PREDICTED BY IDOCK:   -8.01 KCAL/MOL
REMARK 923 INTER-LIGAND FREE ENERGY PREDICTED BY IDOCK:   -7.06 KCAL/MOL
REMARK 924 INTRA-LIGAND FREE ENERGY PREDICTED BY IDOCK:   -0.95 KCAL/MOL
REMARK 927      BINDING AFFINITY PREDICTED BY RF-SCORE:    0.00 PKD
ROOT
HETATM    1  C   UNL     1      -9.938   4.535  72.016  1.00  0.00    -0.255 C  
HETATM    2  C   UNL     1     -10.611   5.697  71.308  1.00  0.00    -0.321 C  
ENDROOT
BRANCH   2   3
HETATM    3  C   UNL     1     -11.842   6.173  72.074  1.00  0.00    -0.336 C  
BRANCH   3   4
HETATM    4  C   UNL     1     -12.539   7.310  71.333  1.00  0.00    -0.423 C  
BRANCH   4   5
HETATM    5  C   UNL     1     -11.520   8.238  70.682  1.00  0.00    -0.236 C  
BRANCH   5   6
HETATM    6  C   UNL     1     -11.258   9.461  71.557  1.00  0.00    -0.457 C  
BRANCH   6   7
HETATM    7  C   UNL     1     -12.421  10.441  71.462  1.00  0.00    -0.508 C  
BRANCH   7   8
HETATM    8  C   UNL     1     -12.695  10.839  70.009  1.00  0.00    -0.176 C  
BRANCH   8   9
HETATM    9  C   UNL     1     -11.857  12.022  69.600  1.00  0.00    -0.401 A  
HETATM   10  C   UNL     1     -12.143  13.288  70.117  1.00  0.00    -0.403 A  
HETATM   11  C   UNL     1     -11.419  14.401  69.705  1.00  0.00    -0.331 A  
HETATM   12  C   UNL     1     -10.361  14.274  68.799  1.00  0.00    -0.239 A  
HETATM   13  C   UNL     1     -10.808  11.884  68.687  1.00  0.00    -0.273 A  
HETATM   14  C   UNL     1     -10.066  13.001  68.292  1.00  0.00    -0.239 A  
BRANCH  12  15
HETATM   15  C   UNL     1      -9.595  15.476  68.290  1.00  0.00    -0.201 C  
BRANCH  15  16
HETATM   16  C   UNL     1     -10.445  16.752  68.172  1.00  0.00    -0.332 C  
HETATM   17  C   UNL     1      -9.819  17.978  67.464  1.00  0.00    -0.309 C  
HETATM   18  C   UNL     1     -10.865  19.129  67.523  1.00  0.00    -0.414 C  
HETATM   19  N   UNL     1      -8.590  18.438  68.166  1.00  0.00    -0.277 NA 
HETATM   20  C   UNL     1      -9.486  17.690  65.974  1.00  0.00    -0.066 C  
HETATM   21  O   UNL     1     -10.337  20.329  66.965  1.00  0.00    -0.410 OA 
HETATM   22  O   UNL     1      -8.462  16.709  65.833  1.00  0.00    -0.451 OA 
HETATM   23  H1  UNL     1      -8.177  19.246  67.699  1.00  0.00     0.000 HD 
HETATM   24  H2  UNL     1      -7.915  17.681  68.272  1.00  0.00     0.000 HD 
HETATM   25  H   UNL     1      -8.259  16.534  64.921  1.00  0.00     0.000 HD 
HETATM   26  H   UNL     1     -10.975  21.032  67.001  1.00  0.00     0.000 HD 
ENDBRANCH  15  16
ENDBRANCH  12  15
ENDBRANCH   8   9
ENDBRANCH   7   8
ENDBRANCH   6   7
ENDBRANCH   5   6
ENDBRANCH   4   5
ENDBRANCH   3   4
ENDBRANCH   2   3
TORSDOF 9
ENDMDL
MODEL      111
REMARK 921   NORMALIZED FREE ENERGY PREDICTED BY IDOCK:   -4.50 KCAL/MOL
REMARK 922        TOTAL FREE ENERGY PREDICTED BY IDOCK:   -7.98 KCAL/MOL
REMARK 923 INTER-LIGAND FREE ENERGY PREDICTED BY IDOCK:   -6.52 KCAL/MOL
REMARK 924 INTRA-LIGAND FREE ENERGY PREDICTED BY IDOCK:   -1.46 KCAL/MOL
REMARK 927      BINDING AFFINITY PREDICTED BY RF-SCORE:    0.00 PKD
ROOT
HETATM    1  C   UNL     1     -12.523  12.550  64.710  1.00  0.00    -0.532 C  
HETATM    2  C   UNL     1     -12.355  13.989  65.163  1.00  0.00    -0.468 C  
ENDROOT
BRANCH   2   3
HETATM    3  C   UNL     1     -11.173  14.655  64.464  1.00  0.00    -0.290 C  
BRANCH   3   4
HETATM    4  C   UNL     1     -10.614  15.796  65.307  1.00  0.00    -0.446 C  
BRANCH   4   5
HETATM    5  C   UNL     1     -11.005  15.631  66.772  1.00  0.00    -0.230 C  
BRANCH   5   6
HETATM    6  C   UNL     1      -9.771  15.623  67.669  1.00  0.00    -0.225 C  
BRANCH   6   7
HETATM    7  C   UNL     1      -9.599  14.258  68.324  1.00  0.00    -0.221 C  
BRANCH   7   8
HETATM    8  C   UNL     1      -9.022  13.238  67.339  1.00  0.00    -0.215 C  
BRANCH   8   9
HETATM    9  C   UNL     1      -9.379  11.831  67.739  1.00  0.00    -0.181 A  
HETATM   10  C   UNL     1     -10.640  11.317  67.421  1.00  0.00    -0.262 A  
HETATM   11  C   UNL     1     -11.009  10.042  67.835  1.00  0.00    -0.311 A  
HETATM   12  C   UNL     1     -10.114   9.228  68.537  1.00  0.00    -0.211 A  
HETATM   13  C   UNL     1      -8.481  11.030  68.449  1.00  0.00    -0.144 A  
HETATM   14  C   UNL     1      -8.845   9.740  68.843  1.00  0.00    -0.140 A  
BRANCH  12  15
HETATM   15  C   UNL     1     -10.510   7.859  69.048  1.00  0.00    -0.210 C  
BRANCH  15  16
HETATM   16  C   UNL     1      -9.911   7.510  70.421  1.00  0.00    -0.184 C  
HETATM   17  C   UNL     1     -10.824   7.638  71.665  1.00  0.00    -0.227 C  
HETATM   18  C   UNL     1      -9.962   7.271  72.908  1.00  0.00    -0.213 C  
HETATM   19  N   UNL     1     -11.309   9.033  71.838  1.00  0.00    -0.369 NA 
HETATM   20  C   UNL     1     -12.039   6.671  71.604  1.00  0.00    -0.355 C  
HETATM   21  O   UNL     1     -10.705   7.444  74.113  1.00  0.00    -0.540 OA 
HETATM   22  O   UNL     1     -12.932   6.999  70.544  1.00  0.00    -0.551 OA 
HETATM   23  H1  UNL     1     -11.911   9.118  72.657  1.00  0.00     0.000 HD 
HETATM   24  H2  UNL     1     -11.773   9.375  70.996  1.00  0.00     0.000 HD 
HETATM   25  H   UNL     1     -13.675   6.407  70.507  1.00  0.00     0.000 HD 
HETATM   26  H   UNL     1     -10.179   7.220  74.872  1.00  0.00     0.000 HD 
ENDBRANCH  15  16
ENDBRANCH  12  15
ENDBRANCH   8   9
ENDBRANCH   7   8
ENDBRANCH   6   7
ENDBRANCH   5   6
ENDBRANCH   4   5
ENDBRANCH   3   4
ENDBRANCH   2   3
TORSDOF 9
ENDMDL
MODEL      112
REMARK 921   NORMALIZED FREE ENERGY PREDICTED BY IDOCK:   -4.49 KCAL/MOL
REMARK 922        TOTAL FREE ENERGY PREDICTED BY IDOCK:   -7.95 KCAL/MOL
REMARK 923 INTER-LIGAND FREE ENERGY PREDICTED BY IDOCK:   -6.46 KCAL/MOL
REMARK 924 INTRA-LIGAND FREE ENERGY PREDICTED BY IDOCK:   -1.49 KCAL/MOL
REMARK 927      BINDING AFFINITY PREDICTED BY RF-SCORE:    0.00 PKD
ROOT
HETATM    1  C   UNL     1     -12.826  13.825  71.164  1.00  0.00    -0.409 C  
HETATM    2  C   UNL     1     -12.008  14.962  70.578  1.00  0.00    -0.365 C  
ENDROOT
BRANCH   2   3
HETATM    3  C   UNL     1     -11.168  14.486  69.396  1.00  0.00    -0.312 C  
BRANCH   3   4
HETATM    4  C   UNL     1     -12.045  14.212  68.178  1.00  0.00    -0.297 C  
BRANCH   4   5
HETATM    5  C   UNL     1     -11.362  14.686  66.900  1.00  0.00    -0.361 C  
BRANCH   5   6
HETATM    6  C   UNL     1     -10.910  13.501  66.051  1.00  0.00    -0.282 C  
BRANCH   6   7
HETATM    7  C   UNL     1     -11.369  12.192  66.680  1.00  0.00    -0.405 C  
BRANCH   7   8
HETATM    8  C   UNL     1     -10.178  11.305  67.049  1.00  0.00    -0.250 C  
BRANCH   8   9
HETATM    9  C   UNL     1     -10.341  10.717  68.426  1.00  0.00    -0.197 A  
HETATM   10  C   UNL     1      -9.250  10.111  69.057  1.00  0.00    -0.188 A  
HETATM   11  C   UNL     1      -9.397   9.510  70.302  1.00  0.00    -0.305 A  
HETATM   12  C   UNL     1     -10.625   9.535  70.971  1.00  0.00    -0.392 A  
HETATM   13  C   UNL     1     -11.576  10.739  69.081  1.00  0.00    -0.376 A  
HETATM   14  C   UNL     1     -11.715  10.155  70.343  1.00  0.00    -0.390 A  
BRANCH  12  15
HETATM   15  C   UNL     1     -10.827   8.839  72.300  1.00  0.00    -0.328 C  
BRANCH  15  16
HETATM   16  C   UNL     1      -9.571   8.123  72.824  1.00  0.00    -0.353 C  
HETATM   17  C   UNL     1      -9.678   6.613  73.147  1.00  0.00    -0.160 C  
HETATM   18  C   UNL     1      -8.293   6.159  73.694  1.00  0.00    -0.117 C  
HETATM   19  N   UNL     1     -10.695   6.357  74.202  1.00  0.00    -0.407 NA 
HETATM   20  C   UNL     1     -10.013   5.765  71.889  1.00  0.00    -0.177 C  
HETATM   21  O   UNL     1      -8.327   4.791  74.098  1.00  0.00    -0.102 OA 
HETATM   22  O   UNL     1     -11.311   6.054  71.378  1.00  0.00    -0.285 OA 
HETATM   23  H1  UNL     1     -10.766   5.361  74.415  1.00  0.00     0.000 HD 
HETATM   24  H2  UNL     1     -11.601   6.751  73.952  1.00  0.00     0.000 HD 
HETATM   25  H   UNL     1     -11.516   5.535  70.608  1.00  0.00     0.000 HD 
HETATM   26  H   UNL     1      -7.482   4.514  74.432  1.00  0.00     0.000 HD 
ENDBRANCH  15  16
ENDBRANCH  12  15
ENDBRANCH   8   9
ENDBRANCH   7   8
ENDBRANCH   6   7
ENDBRANCH   5   6
ENDBRANCH   4   5
ENDBRANCH   3   4
ENDBRANCH   2   3
TORSDOF 9
ENDMDL
MODEL      113
REMARK 921   NORMALIZED FREE ENERGY PREDICTED BY IDOCK:   -4.47 KCAL/MOL
REMARK 922        TOTAL FREE ENERGY PREDICTED BY IDOCK:   -7.94 KCAL/MOL
REMARK 923 INTER-LIGAND FREE ENERGY PREDICTED BY IDOCK:   -7.27 KCAL/MOL
REMARK 924 INTRA-LIGAND FREE ENERGY PREDICTED BY IDOCK:   -0.67 KCAL/MOL
REMARK 927      BINDING AFFINITY PREDICTED BY RF-SCORE:    0.00 PKD
ROOT
HETATM    1  C   UNL     1     -12.660  15.578  73.971  1.00  0.00    -0.766 C  
HETATM    2  C   UNL     1     -13.609  15.527  72.787  1.00  0.00    -0.653 C  
ENDROOT
BRANCH   2   3
HETATM    3  C   UNL     1     -13.616  14.144  72.143  1.00  0.00    -0.568 C  
BRANCH   3   4
HETATM    4  C   UNL     1     -12.641  14.083  70.971  1.00  0.00    -0.437 C  
BRANCH   4   5
HETATM    5  C   UNL     1     -12.232  15.486  70.533  1.00  0.00    -0.444 C  
BRANCH   5   6
HETATM    6  C   UNL     1     -10.869  15.467  69.845  1.00  0.00    -0.305 C  
BRANCH   6   7
HETATM    7  C   UNL     1     -10.610  16.795  69.146  1.00  0.00    -0.343 C  
BRANCH   7   8
HETATM    8  C   UNL     1     -10.752  16.662  67.628  1.00  0.00    -0.306 C  
BRANCH   8   9
HETATM    9  C   UNL     1     -10.674  15.220  67.197  1.00  0.00    -0.316 A  
HETATM   10  C   UNL     1     -11.848  14.513  66.922  1.00  0.00    -0.399 A  
HETATM   11  C   UNL     1     -11.799  13.166  66.581  1.00  0.00    -0.449 A  
HETATM   12  C   UNL     1     -10.575  12.499  66.463  1.00  0.00    -0.265 A  
HETATM   13  C   UNL     1      -9.446  14.562  67.092  1.00  0.00    -0.236 A  
HETATM   14  C   UNL     1      -9.398  13.214  66.726  1.00  0.00    -0.244 A  
BRANCH  12  15
HETATM   15  C   UNL     1     -10.496  11.020  66.151  1.00  0.00    -0.301 C  
BRANCH  15  16
HETATM   16  C   UNL     1      -9.235  10.334  66.700  1.00  0.00    -0.179 C  
HETATM   17  C   UNL     1      -8.576   9.230  65.838  1.00  0.00    -0.148 C  
HETATM   18  C   UNL     1      -7.360   8.682  66.641  1.00  0.00    -0.081 C  
HETATM   19  N   UNL     1      -9.513   8.101  65.596  1.00  0.00    -0.422 NA 
HETATM   20  C   UNL     1      -8.062   9.775  64.477  1.00  0.00    -0.146 C  
HETATM   21  O   UNL     1      -6.740   7.597  65.953  1.00  0.00    -0.045 OA 
HETATM   22  O   UNL     1      -9.127  10.213  63.638  1.00  0.00    -0.217 OA 
HETATM   23  H1  UNL     1      -9.079   7.373  65.028  1.00  0.00     0.000 HD 
HETATM   24  H2  UNL     1     -10.389   8.423  65.186  1.00  0.00     0.000 HD 
HETATM   25  H   UNL     1      -8.812  10.546  62.805  1.00  0.00     0.000 HD 
HETATM   26  H   UNL     1      -5.998   7.262  66.443  1.00  0.00     0.000 HD 
ENDBRANCH  15  16
ENDBRANCH  12  15
ENDBRANCH   8   9
ENDBRANCH   7   8
ENDBRANCH   6   7
ENDBRANCH   5   6
ENDBRANCH   4   5
ENDBRANCH   3   4
ENDBRANCH   2   3
TORSDOF 9
ENDMDL
MODEL      114
REMARK 921   NORMALIZED FREE ENERGY PREDICTED BY IDOCK:   -4.45 KCAL/MOL
REMARK 922        TOTAL FREE ENERGY PREDICTED BY IDOCK:   -7.91 KCAL/MOL
REMARK 923 INTER-LIGAND FREE ENERGY PREDICTED BY IDOCK:   -6.79 KCAL/MOL
REMARK 924 INTRA-LIGAND FREE ENERGY PREDICTED BY IDOCK:   -1.11 KCAL/MOL
REMARK 927      BINDING AFFINITY PREDICTED BY RF-SCORE:    0.00 PKD
ROOT
HETATM    1  C   UNL     1      -7.885   8.439  65.379  1.00  0.00    -0.108 C  
HETATM    2  C   UNL     1      -9.275   8.382  65.987  1.00  0.00    -0.247 C  
ENDROOT
BRANCH   2   3
HETATM    3  C   UNL     1      -9.559   7.009  66.590  1.00  0.00    -0.220 C  
BRANCH   3   4
HETATM    4  C   UNL     1      -9.077   6.939  68.036  1.00  0.00    -0.120 C  
BRANCH   4   5
HETATM    5  C   UNL     1      -9.844   5.874  68.812  1.00  0.00    -0.177 C  
BRANCH   5   6
HETATM    6  C   UNL     1     -11.312   6.264  68.968  1.00  0.00    -0.319 C  
BRANCH   6   7
HETATM    7  C   UNL     1     -11.682   6.358  70.443  1.00  0.00    -0.389 C  
BRANCH   7   8
HETATM    8  C   UNL     1     -10.737   7.301  71.194  1.00  0.00    -0.244 C  
BRANCH   8   9
HETATM    9  C   UNL     1     -11.037   8.742  70.874  1.00  0.00    -0.320 A  
HETATM   10  C   UNL     1     -12.132   9.373  71.470  1.00  0.00    -0.456 A  
HETATM   11  C   UNL     1     -12.459  10.684  71.141  1.00  0.00    -0.523 A  
HETATM   12  C   UNL     1     -11.676  11.415  70.242  1.00  0.00    -0.397 A  
HETATM   13  C   UNL     1     -10.253   9.460  69.966  1.00  0.00    -0.262 A  
HETATM   14  C   UNL     1     -10.570  10.785  69.655  1.00  0.00    -0.222 A  
BRANCH  12  15
HETATM   15  C   UNL     1     -12.043  12.822  69.823  1.00  0.00    -0.305 C  
BRANCH  15  16
HETATM   16  C   UNL     1     -11.013  13.483  68.892  1.00  0.00    -0.286 C  
HETATM   17  C   UNL     1     -11.452  14.737  68.098  1.00  0.00    -0.323 C  
HETATM   18  C   UNL     1     -10.246  15.168  67.213  1.00  0.00    -0.243 C  
HETATM   19  N   UNL     1     -12.596  14.433  67.197  1.00  0.00    -0.422 NA 
HETATM   20  C   UNL     1     -11.828  15.922  69.030  1.00  0.00    -0.318 C  
HETATM   21  O   UNL     1     -10.592  16.273  66.380  1.00  0.00    -0.306 OA 
HETATM   22  O   UNL     1     -12.986  15.642  69.811  1.00  0.00    -0.588 OA 
HETATM   23  H1  UNL     1     -12.886  15.259  66.673  1.00  0.00     0.000 HD 
HETATM   24  H2  UNL     1     -13.376  14.022  67.709  1.00  0.00     0.000 HD 
HETATM   25  H   UNL     1     -13.216  16.367  70.381  1.00  0.00     0.000 HD 
HETATM   26  H   UNL     1      -9.856  16.537  65.840  1.00  0.00     0.000 HD 
ENDBRANCH  15  16
ENDBRANCH  12  15
ENDBRANCH   8   9
ENDBRANCH   7   8
ENDBRANCH   6   7
ENDBRANCH   5   6
ENDBRANCH   4   5
ENDBRANCH   3   4
ENDBRANCH   2   3
TORSDOF 9
ENDMDL
MODEL      115
REMARK 921   NORMALIZED FREE ENERGY PREDICTED BY IDOCK:   -4.45 KCAL/MOL
REMARK 922        TOTAL FREE ENERGY PREDICTED BY IDOCK:   -7.91 KCAL/MOL
REMARK 923 INTER-LIGAND FREE ENERGY PREDICTED BY IDOCK:   -6.61 KCAL/MOL
REMARK 924 INTRA-LIGAND FREE ENERGY PREDICTED BY IDOCK:   -1.29 KCAL/MOL
REMARK 927      BINDING AFFINITY PREDICTED BY RF-SCORE:    0.00 PKD
ROOT
HETATM    1  C   UNL     1     -13.189  14.414  72.842  1.00  0.00    -0.613 C  
HETATM    2  C   UNL     1     -12.888  15.393  71.721  1.00  0.00    -0.483 C  
ENDROOT
BRANCH   2   3
HETATM    3  C   UNL     1     -11.412  15.355  71.336  1.00  0.00    -0.465 C  
BRANCH   3   4
HETATM    4  C   UNL     1     -11.170  16.103  70.028  1.00  0.00    -0.359 C  
BRANCH   4   5
HETATM    5  C   UNL     1      -9.932  15.567  69.318  1.00  0.00    -0.264 C  
BRANCH   5   6
HETATM    6  C   UNL     1     -10.005  15.837  67.817  1.00  0.00    -0.227 C  
BRANCH   6   7
HETATM    7  C   UNL     1      -9.939  14.528  67.039  1.00  0.00    -0.255 C  
BRANCH   7   8
HETATM    8  C   UNL     1     -11.296  13.820  67.027  1.00  0.00    -0.345 C  
BRANCH   8   9
HETATM    9  C   UNL     1     -11.192  12.431  67.599  1.00  0.00    -0.340 A  
HETATM   10  C   UNL     1     -11.649  12.178  68.896  1.00  0.00    -0.377 A  
HETATM   11  C   UNL     1     -11.506  10.916  69.463  1.00  0.00    -0.372 A  
HETATM   12  C   UNL     1     -10.944   9.862  68.736  1.00  0.00    -0.217 A  
HETATM   13  C   UNL     1     -10.619  11.387  66.867  1.00  0.00    -0.292 A  
HETATM   14  C   UNL     1     -10.498  10.114  67.431  1.00  0.00    -0.310 A  
BRANCH  12  15
HETATM   15  C   UNL     1     -10.724   8.496  69.349  1.00  0.00    -0.166 C  
BRANCH  15  16
HETATM   16  C   UNL     1      -9.397   7.836  68.941  1.00  0.00    -0.146 C  
HETATM   17  C   UNL     1      -9.432   6.359  68.479  1.00  0.00    -0.120 C  
HETATM   18  C   UNL     1      -7.966   5.937  68.172  1.00  0.00    -0.109 C  
HETATM   19  N   UNL     1      -9.952   5.469  69.552  1.00  0.00    -0.190 NA 
HETATM   20  C   UNL     1     -10.280   6.166  67.191  1.00  0.00    -0.199 C  
HETATM   21  O   UNL     1      -7.895   4.557  67.818  1.00  0.00    -0.084 OA 
HETATM   22  O   UNL     1     -11.660   6.443  67.412  1.00  0.00    -0.678 OA 
HETATM   23  H1  UNL     1      -9.975   4.496  69.247  1.00  0.00     0.000 HD 
HETATM   24  H2  UNL     1     -10.864   5.779  69.886  1.00  0.00     0.000 HD 
HETATM   25  H   UNL     1     -12.178   6.325  66.624  1.00  0.00     0.000 HD 
HETATM   26  H   UNL     1      -7.000   4.299  67.631  1.00  0.00     0.000 HD 
ENDBRANCH  15  16
ENDBRANCH  12  15
ENDBRANCH   8   9
ENDBRANCH   7   8
ENDBRANCH   6   7
ENDBRANCH   5   6
ENDBRANCH   4   5
ENDBRANCH   3   4
ENDBRANCH   2   3
TORSDOF 9
ENDMDL
MODEL      116
REMARK 921   NORMALIZED FREE ENERGY PREDICTED BY IDOCK:   -4.43 KCAL/MOL
REMARK 922        TOTAL FREE ENERGY PREDICTED BY IDOCK:   -7.87 KCAL/MOL
REMARK 923 INTER-LIGAND FREE ENERGY PREDICTED BY IDOCK:   -6.81 KCAL/MOL
REMARK 924 INTRA-LIGAND FREE ENERGY PREDICTED BY IDOCK:   -1.06 KCAL/MOL
REMARK 927      BINDING AFFINITY PREDICTED BY RF-SCORE:    0.00 PKD
ROOT
HETATM    1  C   UNL     1      -7.215  10.646  68.710  1.00  0.00    -0.087 C  
HETATM    2  C   UNL     1      -7.341   9.778  69.949  1.00  0.00    -0.134 C  
ENDROOT
BRANCH   2   3
HETATM    3  C   UNL     1      -8.471   8.764  69.801  1.00  0.00    -0.129 C  
BRANCH   3   4
HETATM    4  C   UNL     1      -8.007   7.368  70.205  1.00  0.00    -0.112 C  
BRANCH   4   5
HETATM    5  C   UNL     1      -9.147   6.579  70.839  1.00  0.00    -0.154 C  
BRANCH   5   6
HETATM    6  C   UNL     1      -9.656   7.273  72.100  1.00  0.00    -0.162 C  
BRANCH   6   7
HETATM    7  C   UNL     1     -11.079   6.827  72.413  1.00  0.00    -0.292 C  
BRANCH   7   8
HETATM    8  C   UNL     1     -12.039   7.198  71.280  1.00  0.00    -0.386 C  
BRANCH   8   9
HETATM    9  C   UNL     1     -12.338   8.674  71.279  1.00  0.00    -0.298 A  
HETATM   10  C   UNL     1     -11.588   9.534  70.471  1.00  0.00    -0.316 A  
HETATM   11  C   UNL     1     -11.809  10.906  70.502  1.00  0.00    -0.457 A  
HETATM   12  C   UNL     1     -12.814  11.454  71.306  1.00  0.00    -0.481 A  
HETATM   13  C   UNL     1     -13.338   9.211  72.094  1.00  0.00    -0.525 A  
HETATM   14  C   UNL     1     -13.574  10.588  72.105  1.00  0.00    -0.167 A  
BRANCH  12  15
HETATM   15  C   UNL     1     -13.037  12.948  71.401  1.00  0.00    -0.331 C  
BRANCH  15  16
HETATM   16  C   UNL     1     -11.974  13.784  70.670  1.00  0.00    -0.340 C  
HETATM   17  C   UNL     1     -12.089  15.326  70.741  1.00  0.00    -0.351 C  
HETATM   18  C   UNL     1     -10.927  15.914  69.889  1.00  0.00    -0.343 C  
HETATM   19  N   UNL     1     -13.372  15.800  70.157  1.00  0.00    -0.521 NA 
HETATM   20  C   UNL     1     -11.953  15.859  72.194  1.00  0.00    -0.518 C  
HETATM   21  O   UNL     1     -11.005  17.337  69.830  1.00  0.00    -0.311 OA 
HETATM   22  O   UNL     1     -13.035  15.441  73.021  1.00  0.00    -0.397 OA 
HETATM   23  H1  UNL     1     -13.448  16.816  70.204  1.00  0.00     0.000 HD 
HETATM   24  H2  UNL     1     -14.173  15.345  70.594  1.00  0.00     0.000 HD 
HETATM   25  H   UNL     1     -12.952  15.768  73.910  1.00  0.00     0.000 HD 
HETATM   26  H   UNL     1     -10.296  17.696  69.310  1.00  0.00     0.000 HD 
ENDBRANCH  15  16
ENDBRANCH  12  15
ENDBRANCH   8   9
ENDBRANCH   7   8
ENDBRANCH   6   7
ENDBRANCH   5   6
ENDBRANCH   4   5
ENDBRANCH   3   4
ENDBRANCH   2   3
TORSDOF 9
ENDMDL
MODEL      117
REMARK 921   NORMALIZED FREE ENERGY PREDICTED BY IDOCK:   -4.42 KCAL/MOL
REMARK 922        TOTAL FREE ENERGY PREDICTED BY IDOCK:   -7.86 KCAL/MOL
REMARK 923 INTER-LIGAND FREE ENERGY PREDICTED BY IDOCK:   -7.29 KCAL/MOL
REMARK 924 INTRA-LIGAND FREE ENERGY PREDICTED BY IDOCK:   -0.56 KCAL/MOL
REMARK 927      BINDING AFFINITY PREDICTED BY RF-SCORE:    0.00 PKD
ROOT
HETATM    1  C   UNL     1      -6.586  10.157  64.644  1.00  0.00    -0.125 C  
HETATM    2  C   UNL     1      -7.939   9.468  64.618  1.00  0.00    -0.128 C  
ENDROOT
BRANCH   2   3
HETATM    3  C   UNL     1      -7.897   8.139  65.366  1.00  0.00    -0.115 C  
BRANCH   3   4
HETATM    4  C   UNL     1      -8.095   8.351  66.864  1.00  0.00    -0.099 C  
BRANCH   4   5
HETATM    5  C   UNL     1      -8.931   7.226  67.465  1.00  0.00    -0.122 C  
BRANCH   5   6
HETATM    6  C   UNL     1     -10.368   7.681  67.703  1.00  0.00    -0.303 C  
BRANCH   6   7
HETATM    7  C   UNL     1     -10.978   6.924  68.876  1.00  0.00    -0.217 C  
BRANCH   7   8
HETATM    8  C   UNL     1     -10.504   7.496  70.214  1.00  0.00    -0.227 C  
BRANCH   8   9
HETATM    9  C   UNL     1     -11.139   8.833  70.492  1.00  0.00    -0.278 A  
HETATM   10  C   UNL     1     -12.186   8.927  71.413  1.00  0.00    -0.374 A  
HETATM   11  C   UNL     1     -12.824  10.142  71.637  1.00  0.00    -0.559 A  
HETATM   12  C   UNL     1     -12.406  11.305  70.981  1.00  0.00    -0.472 A  
HETATM   13  C   UNL     1     -10.719   9.986  69.823  1.00  0.00    -0.304 A  
HETATM   14  C   UNL     1     -11.346  11.211  70.068  1.00  0.00    -0.326 A  
BRANCH  12  15
HETATM   15  C   UNL     1     -13.119  12.627  71.164  1.00  0.00    -0.144 C  
BRANCH  15  16
HETATM   16  C   UNL     1     -12.925  13.252  72.555  1.00  0.00    -0.258 C  
HETATM   17  C   UNL     1     -12.763  14.789  72.644  1.00  0.00    -0.384 C  
HETATM   18  C   UNL     1     -12.540  15.144  74.143  1.00  0.00    -0.437 C  
HETATM   19  N   UNL     1     -11.573  15.252  71.880  1.00  0.00    -0.413 NA 
HETATM   20  C   UNL     1     -14.025  15.543  72.141  1.00  0.00    -0.524 C  
HETATM   21  O   UNL     1     -12.297  16.540  74.307  1.00  0.00    -0.642 OA 
HETATM   22  O   UNL     1     -14.248  15.346  70.748  1.00  0.00    -0.844 OA 
HETATM   23  H1  UNL     1     -11.467  16.265  71.938  1.00  0.00     0.000 HD 
HETATM   24  H2  UNL     1     -11.603  14.934  70.912  1.00  0.00     0.000 HD 
HETATM   25  H   UNL     1     -15.021  15.807  70.441  1.00  0.00     0.000 HD 
HETATM   26  H   UNL     1     -12.161  16.756  75.222  1.00  0.00     0.000 HD 
ENDBRANCH  15  16
ENDBRANCH  12  15
ENDBRANCH   8   9
ENDBRANCH   7   8
ENDBRANCH   6   7
ENDBRANCH   5   6
ENDBRANCH   4   5
ENDBRANCH   3   4
ENDBRANCH   2   3
TORSDOF 9
ENDMDL
MODEL      118
REMARK 921   NORMALIZED FREE ENERGY PREDICTED BY IDOCK:   -4.41 KCAL/MOL
REMARK 922        TOTAL FREE ENERGY PREDICTED BY IDOCK:   -7.84 KCAL/MOL
REMARK 923 INTER-LIGAND FREE ENERGY PREDICTED BY IDOCK:   -7.54 KCAL/MOL
REMARK 924 INTRA-LIGAND FREE ENERGY PREDICTED BY IDOCK:   -0.30 KCAL/MOL
REMARK 927      BINDING AFFINITY PREDICTED BY RF-SCORE:    0.00 PKD
ROOT
HETATM    1  C   UNL     1     -12.248  15.496  72.051  1.00  0.00    -0.484 C  
HETATM    2  C   UNL     1     -13.538  15.237  71.294  1.00  0.00    -0.584 C  
ENDROOT
BRANCH   2   3
HETATM    3  C   UNL     1     -14.276  14.025  71.856  1.00  0.00    -0.511 C  
BRANCH   3   4
HETATM    4  C   UNL     1     -13.299  12.910  72.213  1.00  0.00    -0.597 C  
BRANCH   4   5
HETATM    5  C   UNL     1     -12.364  12.613  71.045  1.00  0.00    -0.307 C  
BRANCH   5   6
HETATM    6  C   UNL     1     -12.633  11.225  70.469  1.00  0.00    -0.331 C  
BRANCH   6   7
HETATM    7  C   UNL     1     -12.208  11.166  69.007  1.00  0.00    -0.194 C  
BRANCH   7   8
HETATM    8  C   UNL     1     -10.759  11.627  68.831  1.00  0.00    -0.244 C  
BRANCH   8   9
HETATM    9  C   UNL     1     -10.688  12.934  68.086  1.00  0.00    -0.258 A  
HETATM   10  C   UNL     1      -9.868  13.049  66.960  1.00  0.00    -0.238 A  
HETATM   11  C   UNL     1      -9.744  14.264  66.296  1.00  0.00    -0.321 A  
HETATM   12  C   UNL     1     -10.469  15.386  66.710  1.00  0.00    -0.299 A  
HETATM   13  C   UNL     1     -11.409  14.052  68.516  1.00  0.00    -0.308 A  
HETATM   14  C   UNL     1     -11.301  15.266  67.832  1.00  0.00    -0.339 A  
BRANCH  12  15
HETATM   15  C   UNL     1     -10.308  16.734  66.041  1.00  0.00    -0.346 C  
BRANCH  15  16
HETATM   16  C   UNL     1     -10.228  17.913  67.026  1.00  0.00    -0.359 C  
HETATM   17  C   UNL     1      -8.855  18.230  67.667  1.00  0.00    -0.256 C  
HETATM   18  C   UNL     1      -9.067  19.424  68.642  1.00  0.00    -0.372 C  
HETATM   19  N   UNL     1      -8.348  17.076  68.457  1.00  0.00    -0.251 NA 
HETATM   20  C   UNL     1      -7.793  18.640  66.610  1.00  0.00    -0.255 C  
HETATM   21  O   UNL     1      -7.864  19.732  69.343  1.00  0.00    -0.196 OA 
HETATM   22  O   UNL     1      -7.470  17.566  65.730  1.00  0.00    -0.490 OA 
HETATM   23  H1  UNL     1      -7.443  17.285  68.880  1.00  0.00     0.000 HD 
HETATM   24  H2  UNL     1      -8.311  16.226  67.896  1.00  0.00     0.000 HD 
HETATM   25  H   UNL     1      -6.820  17.817  65.084  1.00  0.00     0.000 HD 
HETATM   26  H   UNL     1      -7.993  20.460  69.939  1.00  0.00     0.000 HD 
ENDBRANCH  15  16
ENDBRANCH  12  15
ENDBRANCH   8   9
ENDBRANCH   7   8
ENDBRANCH   6   7
ENDBRANCH   5   6
ENDBRANCH   4   5
ENDBRANCH   3   4
ENDBRANCH   2   3
TORSDOF 9
ENDMDL
MODEL      119
REMARK 921   NORMALIZED FREE ENERGY PREDICTED BY IDOCK:   -4.41 KCAL/MOL
REMARK 922        TOTAL FREE ENERGY PREDICTED BY IDOCK:   -7.84 KCAL/MOL
REMARK 923 INTER-LIGAND FREE ENERGY PREDICTED BY IDOCK:   -6.46 KCAL/MOL
REMARK 924 INTRA-LIGAND FREE ENERGY PREDICTED BY IDOCK:   -1.38 KCAL/MOL
REMARK 927      BINDING AFFINITY PREDICTED BY RF-SCORE:    0.00 PKD
ROOT
HETATM    1  C   UNL     1     -10.658  10.726  69.059  1.00  0.00    -0.250 C  
HETATM    2  C   UNL     1     -11.952  11.510  68.931  1.00  0.00    -0.364 C  
ENDROOT
BRANCH   2   3
HETATM    3  C   UNL     1     -11.806  12.916  69.507  1.00  0.00    -0.383 C  
BRANCH   3   4
HETATM    4  C   UNL     1     -10.949  13.791  68.598  1.00  0.00    -0.287 C  
BRANCH   4   5
HETATM    5  C   UNL     1     -11.807  14.816  67.865  1.00  0.00    -0.327 C  
BRANCH   5   6
HETATM    6  C   UNL     1     -11.526  14.792  66.365  1.00  0.00    -0.319 C  
BRANCH   6   7
HETATM    7  C   UNL     1     -12.435  13.786  65.671  1.00  0.00    -0.541 C  
BRANCH   7   8
HETATM    8  C   UNL     1     -11.895  13.409  64.289  1.00  0.00    -0.470 C  
BRANCH   8   9
HETATM    9  C   UNL     1     -11.071  12.149  64.350  1.00  0.00    -0.387 A  
HETATM   10  C   UNL     1     -10.907  11.485  65.569  1.00  0.00    -0.313 A  
HETATM   11  C   UNL     1     -10.101  10.355  65.656  1.00  0.00    -0.337 A  
HETATM   12  C   UNL     1      -9.472   9.833  64.521  1.00  0.00    -0.269 A  
HETATM   13  C   UNL     1     -10.440  11.642  63.211  1.00  0.00    -0.438 A  
HETATM   14  C   UNL     1      -9.649  10.493  63.297  1.00  0.00    -0.373 A  
BRANCH  12  15
HETATM   15  C   UNL     1      -8.544   8.640  64.599  1.00  0.00    -0.116 C  
BRANCH  15  16
HETATM   16  C   UNL     1      -8.282   8.147  66.032  1.00  0.00    -0.121 C  
HETATM   17  C   UNL     1      -8.767   6.728  66.412  1.00  0.00    -0.138 C  
HETATM   18  C   UNL     1      -8.417   6.507  67.912  1.00  0.00    -0.118 C  
HETATM   19  N   UNL     1     -10.242   6.603  66.262  1.00  0.00    -0.433 NA 
HETATM   20  C   UNL     1      -8.067   5.623  65.574  1.00  0.00    -0.123 C  
HETATM   21  O   UNL     1      -8.906   5.248  68.371  1.00  0.00    -0.101 OA 
HETATM   22  O   UNL     1      -8.412   5.697  64.194  1.00  0.00    -0.250 OA 
HETATM   23  H1  UNL     1     -10.563   5.667  66.512  1.00  0.00     0.000 HD 
HETATM   24  H2  UNL     1     -10.546   6.864  65.324  1.00  0.00     0.000 HD 
HETATM   25  H   UNL     1      -7.983   5.021  63.681  1.00  0.00     0.000 HD 
HETATM   26  H   UNL     1      -8.692   5.113  69.287  1.00  0.00     0.000 HD 
ENDBRANCH  15  16
ENDBRANCH  12  15
ENDBRANCH   8   9
ENDBRANCH   7   8
ENDBRANCH   6   7
ENDBRANCH   5   6
ENDBRANCH   4   5
ENDBRANCH   3   4
ENDBRANCH   2   3
TORSDOF 9
ENDMDL
MODEL      120
REMARK 921   NORMALIZED FREE ENERGY PREDICTED BY IDOCK:   -4.41 KCAL/MOL
REMARK 922        TOTAL FREE ENERGY PREDICTED BY IDOCK:   -7.83 KCAL/MOL
REMARK 923 INTER-LIGAND FREE ENERGY PREDICTED BY IDOCK:   -5.64 KCAL/MOL
REMARK 924 INTRA-LIGAND FREE ENERGY PREDICTED BY IDOCK:   -2.19 KCAL/MOL
REMARK 927      BINDING AFFINITY PREDICTED BY RF-SCORE:    0.00 PKD
ROOT
HETATM    1  C   UNL     1      -7.555  11.488  68.480  1.00  0.00    -0.130 C  
HETATM    2  C   UNL     1      -6.895  10.720  69.612  1.00  0.00    -0.133 C  
ENDROOT
BRANCH   2   3
HETATM    3  C   UNL     1      -6.999   9.214  69.392  1.00  0.00    -0.052 C  
BRANCH   3   4
HETATM    4  C   UNL     1      -6.299   8.802  68.101  1.00  0.00    -0.056 C  
BRANCH   4   5
HETATM    5  C   UNL     1      -7.222   7.960  67.227  1.00  0.00    -0.090 C  
BRANCH   5   6
HETATM    6  C   UNL     1      -7.812   6.796  68.019  1.00  0.00    -0.113 C  
BRANCH   6   7
HETATM    7  C   UNL     1      -9.324   6.745  67.843  1.00  0.00    -0.113 C  
BRANCH   7   8
HETATM    8  C   UNL     1     -10.047   7.217  69.106  1.00  0.00    -0.183 C  
BRANCH   8   9
HETATM    9  C   UNL     1     -10.484   8.654  68.981  1.00  0.00    -0.216 A  
HETATM   10  C   UNL     1     -10.596   9.238  67.717  1.00  0.00    -0.307 A  
HETATM   11  C   UNL     1     -10.939  10.579  67.585  1.00  0.00    -0.375 A  
HETATM   12  C   UNL     1     -11.222  11.362  68.709  1.00  0.00    -0.308 A  
HETATM   13  C   UNL     1     -10.754   9.429  70.112  1.00  0.00    -0.282 A  
HETATM   14  C   UNL     1     -11.122  10.770  69.976  1.00  0.00    -0.327 A  
BRANCH  12  15
HETATM   15  C   UNL     1     -11.541  12.837  68.597  1.00  0.00    -0.352 C  
BRANCH  15  16
HETATM   16  C   UNL     1     -12.008  13.475  69.916  1.00  0.00    -0.416 C  
HETATM   17  C   UNL     1     -11.558  14.924  70.220  1.00  0.00    -0.286 C  
HETATM   18  C   UNL     1     -12.128  15.300  71.619  1.00  0.00    -0.362 C  
HETATM   19  N   UNL     1     -10.076  15.027  70.286  1.00  0.00    -0.495 NA 
HETATM   20  C   UNL     1     -12.102  15.940  69.178  1.00  0.00    -0.142 C  
HETATM   21  O   UNL     1     -11.690  16.597  72.019  1.00  0.00    -0.616 OA 
HETATM   22  O   UNL     1     -11.552  15.723  67.881  1.00  0.00    -0.283 OA 
HETATM   23  H1  UNL     1      -9.778  15.983  70.487  1.00  0.00     0.000 HD 
HETATM   24  H2  UNL     1      -9.638  14.670  69.437  1.00  0.00     0.000 HD 
HETATM   25  H   UNL     1     -11.885  16.345  67.244  1.00  0.00     0.000 HD 
HETATM   26  H   UNL     1     -12.038  16.826  72.873  1.00  0.00     0.000 HD 
ENDBRANCH  15  16
ENDBRANCH  12  15
ENDBRANCH   8   9
ENDBRANCH   7   8
ENDBRANCH   6   7
ENDBRANCH   5   6
ENDBRANCH   4   5
ENDBRANCH   3   4
ENDBRANCH   2   3
TORSDOF 9
ENDMDL
MODEL      121
REMARK 921   NORMALIZED FREE ENERGY PREDICTED BY IDOCK:   -4.39 KCAL/MOL
REMARK 922        TOTAL FREE ENERGY PREDICTED BY IDOCK:   -7.81 KCAL/MOL
REMARK 923 INTER-LIGAND FREE ENERGY PREDICTED BY IDOCK:   -5.36 KCAL/MOL
REMARK 924 INTRA-LIGAND FREE ENERGY PREDICTED BY IDOCK:   -2.45 KCAL/MOL
REMARK 927      BINDING AFFINITY PREDICTED BY RF-SCORE:    0.00 PKD
ROOT
HETATM    1  C   UNL     1     -12.663   8.092  71.009  1.00  0.00    -0.031 C  
HETATM    2  C   UNL     1     -11.391   8.920  70.958  1.00  0.00    -0.350 C  
ENDROOT
BRANCH   2   3
HETATM    3  C   UNL     1     -10.473   8.596  72.133  1.00  0.00    -0.411 C  
BRANCH   3   4
HETATM    4  C   UNL     1     -11.150   7.635  73.105  1.00  0.00    -0.373 C  
BRANCH   4   5
HETATM    5  C   UNL     1     -10.125   6.982  74.026  1.00  0.00    -0.355 C  
BRANCH   5   6
HETATM    6  C   UNL     1     -10.220   5.460  73.957  1.00  0.00    -0.273 C  
BRANCH   6   7
HETATM    7  C   UNL     1     -10.892   5.028  72.660  1.00  0.00    -0.286 C  
BRANCH   7   8
HETATM    8  C   UNL     1      -9.877   4.440  71.677  1.00  0.00    -0.255 C  
BRANCH   8   9
HETATM    9  C   UNL     1      -9.466   5.456  70.644  1.00  0.00    -0.215 A  
HETATM   10  C   UNL     1     -10.282   5.686  69.532  1.00  0.00    -0.320 A  
HETATM   11  C   UNL     1      -9.889   6.576  68.538  1.00  0.00    -0.140 A  
HETATM   12  C   UNL     1      -8.693   7.293  68.648  1.00  0.00    -0.127 A  
HETATM   13  C   UNL     1      -8.263   6.159  70.759  1.00  0.00    -0.125 A  
HETATM   14  C   UNL     1      -7.883   7.071  69.770  1.00  0.00    -0.115 A  
BRANCH  12  15
HETATM   15  C   UNL     1      -8.216   8.223  67.554  1.00  0.00    -0.122 C  
BRANCH  15  16
HETATM   16  C   UNL     1      -8.777   9.651  67.662  1.00  0.00    -0.126 C  
HETATM   17  C   UNL     1      -8.883  10.488  66.364  1.00  0.00    -0.153 C  
HETATM   18  C   UNL     1      -9.433  11.889  66.763  1.00  0.00    -0.201 C  
HETATM   19  N   UNL     1      -7.549  10.682  65.735  1.00  0.00    -0.220 NA 
HETATM   20  C   UNL     1      -9.855   9.853  65.332  1.00  0.00    -0.313 C  
HETATM   21  O   UNL     1      -9.485  12.759  65.634  1.00  0.00    -0.454 OA 
HETATM   22  O   UNL     1      -9.375   8.604  64.842  1.00  0.00    -0.389 OA 
HETATM   23  H1  UNL     1      -7.619  11.234  64.879  1.00  0.00     0.000 HD 
HETATM   24  H2  UNL     1      -7.082   9.791  65.568  1.00  0.00     0.000 HD 
HETATM   25  H   UNL     1      -9.970   8.216  64.211  1.00  0.00     0.000 HD 
HETATM   26  H   UNL     1      -9.820  13.613  65.878  1.00  0.00     0.000 HD 
ENDBRANCH  15  16
ENDBRANCH  12  15
ENDBRANCH   8   9
ENDBRANCH   7   8
ENDBRANCH   6   7
ENDBRANCH   5   6
ENDBRANCH   4   5
ENDBRANCH   3   4
ENDBRANCH   2   3
TORSDOF 9
ENDMDL
MODEL      122
REMARK 921   NORMALIZED FREE ENERGY PREDICTED BY IDOCK:   -4.37 KCAL/MOL
REMARK 922        TOTAL FREE ENERGY PREDICTED BY IDOCK:   -7.78 KCAL/MOL
REMARK 923 INTER-LIGAND FREE ENERGY PREDICTED BY IDOCK:   -6.50 KCAL/MOL
REMARK 924 INTRA-LIGAND FREE ENERGY PREDICTED BY IDOCK:   -1.28 KCAL/MOL
REMARK 927      BINDING AFFINITY PREDICTED BY RF-SCORE:    0.00 PKD
ROOT
HETATM    1  C   UNL     1      -9.656  11.389  63.004  1.00  0.00    -0.397 C  
HETATM    2  C   UNL     1     -10.843  11.693  63.900  1.00  0.00    -0.471 C  
ENDROOT
BRANCH   2   3
HETATM    3  C   UNL     1     -11.821  12.646  63.218  1.00  0.00    -0.504 C  
BRANCH   3   4
HETATM    4  C   UNL     1     -12.172  13.814  64.135  1.00  0.00    -0.443 C  
BRANCH   4   5
HETATM    5  C   UNL     1     -12.592  13.316  65.513  1.00  0.00    -0.505 C  
BRANCH   5   6
HETATM    6  C   UNL     1     -12.162  14.295  66.602  1.00  0.00    -0.411 C  
BRANCH   6   7
HETATM    7  C   UNL     1     -11.845  13.548  67.892  1.00  0.00    -0.397 C  
BRANCH   7   8
HETATM    8  C   UNL     1     -10.455  12.910  67.838  1.00  0.00    -0.231 C  
BRANCH   8   9
HETATM    9  C   UNL     1     -10.528  11.422  68.062  1.00  0.00    -0.215 A  
HETATM   10  C   UNL     1     -10.749  10.923  69.348  1.00  0.00    -0.265 A  
HETATM   11  C   UNL     1     -10.759   9.553  69.584  1.00  0.00    -0.257 A  
HETATM   12  C   UNL     1     -10.593   8.643  68.535  1.00  0.00    -0.162 A  
HETATM   13  C   UNL     1     -10.350  10.522  67.007  1.00  0.00    -0.289 A  
HETATM   14  C   UNL     1     -10.384   9.145  67.243  1.00  0.00    -0.338 A  
BRANCH  12  15
HETATM   15  C   UNL     1     -10.542   7.149  68.772  1.00  0.00    -0.219 C  
BRANCH  15  16
HETATM   16  C   UNL     1     -10.923   6.310  67.541  1.00  0.00    -0.444 C  
HETATM   17  C   UNL     1      -9.870   5.322  66.982  1.00  0.00    -0.167 C  
HETATM   18  C   UNL     1     -10.493   4.645  65.727  1.00  0.00    -0.255 C  
HETATM   19  N   UNL     1      -8.635   6.034  66.555  1.00  0.00    -0.121 NA 
HETATM   20  C   UNL     1      -9.500   4.215  68.007  1.00  0.00    -0.160 C  
HETATM   21  O   UNL     1      -9.555   3.776  65.096  1.00  0.00    -0.160 OA 
HETATM   22  O   UNL     1      -8.835   4.744  69.151  1.00  0.00    -0.089 OA 
HETATM   23  H1  UNL     1      -7.941   5.383  66.187  1.00  0.00     0.000 HD 
HETATM   24  H2  UNL     1      -8.251   6.603  67.309  1.00  0.00     0.000 HD 
HETATM   25  H   UNL     1      -8.609   4.066  69.778  1.00  0.00     0.000 HD 
HETATM   26  H   UNL     1      -9.935   3.363  64.330  1.00  0.00     0.000 HD 
ENDBRANCH  15  16
ENDBRANCH  12  15
ENDBRANCH   8   9
ENDBRANCH   7   8
ENDBRANCH   6   7
ENDBRANCH   5   6
ENDBRANCH   4   5
ENDBRANCH   3   4
ENDBRANCH   2   3
TORSDOF 9
ENDMDL
MODEL      123
REMARK 921   NORMALIZED FREE ENERGY PREDICTED BY IDOCK:   -4.37 KCAL/MOL
REMARK 922        TOTAL FREE ENERGY PREDICTED BY IDOCK:   -7.78 KCAL/MOL
REMARK 923 INTER-LIGAND FREE ENERGY PREDICTED BY IDOCK:   -6.04 KCAL/MOL
REMARK 924 INTRA-LIGAND FREE ENERGY PREDICTED BY IDOCK:   -1.74 KCAL/MOL
REMARK 927      BINDING AFFINITY PREDICTED BY RF-SCORE:    0.00 PKD
ROOT
HETATM    1  C   UNL     1     -11.116  16.126  64.910  1.00  0.00    -0.336 C  
HETATM    2  C   UNL     1     -10.906  14.650  64.620  1.00  0.00    -0.332 C  
ENDROOT
BRANCH   2   3
HETATM    3  C   UNL     1     -12.236  13.937  64.392  1.00  0.00    -0.449 C  
BRANCH   3   4
HETATM    4  C   UNL     1     -12.016  12.557  63.780  1.00  0.00    -0.598 C  
BRANCH   4   5
HETATM    5  C   UNL     1     -10.608  12.051  64.074  1.00  0.00    -0.423 C  
BRANCH   5   6
HETATM    6  C   UNL     1     -10.647  10.818  64.972  1.00  0.00    -0.243 C  
BRANCH   6   7
HETATM    7  C   UNL     1      -9.733  11.009  66.176  1.00  0.00    -0.257 C  
BRANCH   7   8
HETATM    8  C   UNL     1     -10.336  11.993  67.181  1.00  0.00    -0.235 C  
BRANCH   8   9
HETATM    9  C   UNL     1      -9.396  13.138  67.456  1.00  0.00    -0.207 A  
HETATM   10  C   UNL     1      -9.907  14.378  67.848  1.00  0.00    -0.224 A  
HETATM   11  C   UNL     1      -9.059  15.462  68.047  1.00  0.00    -0.175 A  
HETATM   12  C   UNL     1      -7.675  15.326  67.904  1.00  0.00    -0.147 A  
HETATM   13  C   UNL     1      -8.015  12.993  67.300  1.00  0.00    -0.143 A  
HETATM   14  C   UNL     1      -7.163  14.078  67.524  1.00  0.00    -0.183 A  
BRANCH  12  15
HETATM   15  C   UNL     1      -6.735  16.503  68.059  1.00  0.00    -0.147 C  
BRANCH  15  16
HETATM   16  C   UNL     1      -6.532  17.312  66.767  1.00  0.00    -0.244 C  
HETATM   17  C   UNL     1      -6.889  18.818  66.790  1.00  0.00    -0.194 C  
HETATM   18  C   UNL     1      -6.634  19.374  65.359  1.00  0.00    -0.278 C  
HETATM   19  N   UNL     1      -8.326  19.028  67.114  1.00  0.00    -0.274 NA 
HETATM   20  C   UNL     1      -6.011  19.615  67.793  1.00  0.00    -0.196 C  
HETATM   21  O   UNL     1      -7.018  20.745  65.267  1.00  0.00    -0.511 OA 
HETATM   22  O   UNL     1      -6.254  19.230  69.143  1.00  0.00    -0.248 OA 
HETATM   23  H1  UNL     1      -8.562  20.021  67.130  1.00  0.00     0.000 HD 
HETATM   24  H2  UNL     1      -8.583  18.569  67.988  1.00  0.00     0.000 HD 
HETATM   25  H   UNL     1      -5.717  19.718  69.756  1.00  0.00     0.000 HD 
HETATM   26  H   UNL     1      -6.862  21.084  64.393  1.00  0.00     0.000 HD 
ENDBRANCH  15  16
ENDBRANCH  12  15
ENDBRANCH   8   9
ENDBRANCH   7   8
ENDBRANCH   6   7
ENDBRANCH   5   6
ENDBRANCH   4   5
ENDBRANCH   3   4
ENDBRANCH   2   3
TORSDOF 9
ENDMDL
MODEL      124
REMARK 921   NORMALIZED FREE ENERGY PREDICTED BY IDOCK:   -4.36 KCAL/MOL
REMARK 922        TOTAL FREE ENERGY PREDICTED BY IDOCK:   -7.75 KCAL/MOL
REMARK 923 INTER-LIGAND FREE ENERGY PREDICTED BY IDOCK:   -6.44 KCAL/MOL
REMARK 924 INTRA-LIGAND FREE ENERGY PREDICTED BY IDOCK:   -1.32 KCAL/MOL
REMARK 927      BINDING AFFINITY PREDICTED BY RF-SCORE:    0.00 PKD
ROOT
HETATM    1  C   UNL     1     -10.779   6.878  73.666  1.00  0.00    -0.304 C  
HETATM    2  C   UNL     1      -9.811   7.814  72.964  1.00  0.00    -0.344 C  
ENDROOT
BRANCH   2   3
HETATM    3  C   UNL     1      -9.979   7.747  71.449  1.00  0.00    -0.207 C  
BRANCH   3   4
HETATM    4  C   UNL     1     -11.446   7.575  71.070  1.00  0.00    -0.299 C  
BRANCH   4   5
HETATM    5  C   UNL     1     -11.639   6.344  70.190  1.00  0.00    -0.449 C  
BRANCH   5   6
HETATM    6  C   UNL     1     -10.536   6.246  69.140  1.00  0.00    -0.291 C  
BRANCH   6   7
HETATM    7  C   UNL     1     -11.045   6.729  67.788  1.00  0.00    -0.285 C  
BRANCH   7   8
HETATM    8  C   UNL     1      -9.986   7.562  67.061  1.00  0.00    -0.304 C  
BRANCH   8   9
HETATM    9  C   UNL     1     -10.117   9.025  67.395  1.00  0.00    -0.291 A  
HETATM   10  C   UNL     1      -9.376   9.565  68.450  1.00  0.00    -0.137 A  
HETATM   11  C   UNL     1      -9.528  10.899  68.812  1.00  0.00    -0.196 A  
HETATM   12  C   UNL     1     -10.392  11.741  68.104  1.00  0.00    -0.213 A  
HETATM   13  C   UNL     1     -10.991   9.854  66.687  1.00  0.00     0.079 A  
HETATM   14  C   UNL     1     -11.124  11.200  67.037  1.00  0.00    -0.339 A  
BRANCH  12  15
HETATM   15  C   UNL     1     -10.619  13.180  68.513  1.00  0.00    -0.274 C  
BRANCH  15  16
HETATM   16  C   UNL     1      -9.716  14.186  67.780  1.00  0.00    -0.223 C  
HETATM   17  C   UNL     1     -10.389  15.396  67.089  1.00  0.00    -0.271 C  
HETATM   18  C   UNL     1      -9.262  16.216  66.395  1.00  0.00    -0.300 C  
HETATM   19  N   UNL     1     -11.347  14.955  66.039  1.00  0.00    -0.333 NA 
HETATM   20  C   UNL     1     -11.120  16.320  68.101  1.00  0.00    -0.329 C  
HETATM   21  O   UNL     1      -9.805  17.311  65.660  1.00  0.00    -0.548 OA 
HETATM   22  O   UNL     1     -12.230  15.671  68.714  1.00  0.00    -0.578 OA 
HETATM   23  H1  UNL     1     -11.791  15.752  65.584  1.00  0.00     0.000 HD 
HETATM   24  H2  UNL     1     -12.039  14.306  66.414  1.00  0.00     0.000 HD 
HETATM   25  H   UNL     1     -12.677  16.237  69.334  1.00  0.00     0.000 HD 
HETATM   26  H   UNL     1      -9.118  17.811  65.237  1.00  0.00     0.000 HD 
ENDBRANCH  15  16
ENDBRANCH  12  15
ENDBRANCH   8   9
ENDBRANCH   7   8
ENDBRANCH   6   7
ENDBRANCH   5   6
ENDBRANCH   4   5
ENDBRANCH   3   4
ENDBRANCH   2   3
TORSDOF 9
ENDMDL
MODEL      125
REMARK 921   NORMALIZED FREE ENERGY PREDICTED BY IDOCK:   -4.34 KCAL/MOL
REMARK 922        TOTAL FREE ENERGY PREDICTED BY IDOCK:   -7.74 KCAL/MOL
REMARK 923 INTER-LIGAND FREE ENERGY PREDICTED BY IDOCK:   -6.07 KCAL/MOL
REMARK 924 INTRA-LIGAND FREE ENERGY PREDICTED BY IDOCK:   -1.66 KCAL/MOL
REMARK 927      BINDING AFFINITY PREDICTED BY RF-SCORE:    0.00 PKD
ROOT
HETATM    1  C   UNL     1     -12.395  11.850  70.559  1.00  0.00    -0.372 C  
HETATM    2  C   UNL     1     -12.857  10.776  71.528  1.00  0.00    -0.567 C  
ENDROOT
BRANCH   2   3
HETATM    3  C   UNL     1     -11.854   9.628  71.600  1.00  0.00    -0.457 C  
BRANCH   3   4
HETATM    4  C   UNL     1     -12.503   8.372  72.172  1.00  0.00    -0.422 C  
BRANCH   4   5
HETATM    5  C   UNL     1     -11.699   7.130  71.803  1.00  0.00    -0.324 C  
BRANCH   5   6
HETATM    6  C   UNL     1     -12.116   6.597  70.434  1.00  0.00    -0.251 C  
BRANCH   6   7
HETATM    7  C   UNL     1     -10.889   6.362  69.561  1.00  0.00    -0.381 C  
BRANCH   7   8
HETATM    8  C   UNL     1      -9.750   7.314  69.934  1.00  0.00    -0.174 C  
BRANCH   8   9
HETATM    9  C   UNL     1      -9.817   8.586  69.130  1.00  0.00    -0.186 A  
HETATM   10  C   UNL     1     -10.536   8.613  67.932  1.00  0.00    -0.269 A  
HETATM   11  C   UNL     1     -10.558   9.761  67.146  1.00  0.00    -0.298 A  
HETATM   12  C   UNL     1      -9.901  10.925  67.557  1.00  0.00    -0.192 A  
HETATM   13  C   UNL     1      -9.148   9.740  69.546  1.00  0.00    -0.227 A  
HETATM   14  C   UNL     1      -9.192  10.899  68.766  1.00  0.00    -0.187 A  
BRANCH  12  15
HETATM   15  C   UNL     1      -9.861  12.168  66.695  1.00  0.00    -0.224 C  
BRANCH  15  16
HETATM   16  C   UNL     1      -8.671  13.095  66.993  1.00  0.00    -0.193 C  
HETATM   17  C   UNL     1      -8.961  14.599  67.216  1.00  0.00    -0.205 C  
HETATM   18  C   UNL     1      -7.593  15.303  67.451  1.00  0.00    -0.200 C  
HETATM   19  N   UNL     1      -9.593  15.212  66.016  1.00  0.00    -0.312 NA 
HETATM   20  C   UNL     1      -9.862  14.846  68.458  1.00  0.00    -0.217 C  
HETATM   21  O   UNL     1      -7.759  16.713  67.583  1.00  0.00    -0.159 OA 
HETATM   22  O   UNL     1     -11.171  14.312  68.285  1.00  0.00    -0.255 OA 
HETATM   23  H1  UNL     1      -9.784  16.203  66.163  1.00  0.00     0.000 HD 
HETATM   24  H2  UNL     1     -10.433  14.706  65.736  1.00  0.00     0.000 HD 
HETATM   25  H   UNL     1     -11.722  14.464  69.044  1.00  0.00     0.000 HD 
HETATM   26  H   UNL     1      -6.924  17.142  67.726  1.00  0.00     0.000 HD 
ENDBRANCH  15  16
ENDBRANCH  12  15
ENDBRANCH   8   9
ENDBRANCH   7   8
ENDBRANCH   6   7
ENDBRANCH   5   6
ENDBRANCH   4   5
ENDBRANCH   3   4
ENDBRANCH   2   3
TORSDOF 9
ENDMDL
MODEL      126
REMARK 921   NORMALIZED FREE ENERGY PREDICTED BY IDOCK:   -4.34 KCAL/MOL
REMARK 922        TOTAL FREE ENERGY PREDICTED BY IDOCK:   -7.74 KCAL/MOL
REMARK 923 INTER-LIGAND FREE ENERGY PREDICTED BY IDOCK:   -5.94 KCAL/MOL
REMARK 924 INTRA-LIGAND FREE ENERGY PREDICTED BY IDOCK:   -1.80 KCAL/MOL
REMARK 927      BINDING AFFINITY PREDICTED BY RF-SCORE:    0.00 PKD
ROOT
HETATM    1  C   UNL     1      -7.495  10.881  69.175  1.00  0.00    -0.130 C  
HETATM    2  C   UNL     1      -6.652   9.963  70.043  1.00  0.00    -0.091 C  
ENDROOT
BRANCH   2   3
HETATM    3  C   UNL     1      -7.137   8.519  69.954  1.00  0.00    -0.051 C  
BRANCH   3   4
HETATM    4  C   UNL     1      -6.655   7.707  71.152  1.00  0.00    -0.038 C  
BRANCH   4   5
HETATM    5  C   UNL     1      -7.830   7.267  72.018  1.00  0.00    -0.091 C  
BRANCH   5   6
HETATM    6  C   UNL     1      -8.589   8.474  72.564  1.00  0.00    -0.204 C  
BRANCH   6   7
HETATM    7  C   UNL     1     -10.009   8.079  72.948  1.00  0.00    -0.360 C  
BRANCH   7   8
HETATM    8  C   UNL     1     -10.793   7.574  71.733  1.00  0.00    -0.261 C  
BRANCH   8   9
HETATM    9  C   UNL     1     -11.091   8.694  70.772  1.00  0.00    -0.295 A  
HETATM   10  C   UNL     1     -10.690   8.589  69.437  1.00  0.00    -0.166 A  
HETATM   11  C   UNL     1     -10.902   9.638  68.549  1.00  0.00    -0.202 A  
HETATM   12  C   UNL     1     -11.560  10.803  68.958  1.00  0.00    -0.370 A  
HETATM   13  C   UNL     1     -11.740   9.858  71.194  1.00  0.00    -0.478 A  
HETATM   14  C   UNL     1     -11.973  10.901  70.295  1.00  0.00    -0.448 A  
BRANCH  12  15
HETATM   15  C   UNL     1     -11.753  11.981  68.029  1.00  0.00    -0.398 C  
BRANCH  15  16
HETATM   16  C   UNL     1     -10.630  13.029  68.111  1.00  0.00    -0.257 C  
HETATM   17  C   UNL     1     -10.291  13.831  66.831  1.00  0.00    -0.266 C  
HETATM   18  C   UNL     1      -9.105  14.776  67.180  1.00  0.00    -0.217 C  
HETATM   19  N   UNL     1      -9.853  12.932  65.730  1.00  0.00    -0.382 NA 
HETATM   20  C   UNL     1     -11.486  14.698  66.346  1.00  0.00    -0.347 C  
HETATM   21  O   UNL     1      -8.670  15.497  66.029  1.00  0.00    -0.405 OA 
HETATM   22  O   UNL     1     -12.587  13.901  65.916  1.00  0.00    -0.478 OA 
HETATM   23  H1  UNL     1      -9.630  13.460  64.886  1.00  0.00     0.000 HD 
HETATM   24  H2  UNL     1     -10.543  12.204  65.544  1.00  0.00     0.000 HD 
HETATM   25  H   UNL     1     -13.317  14.431  65.620  1.00  0.00     0.000 HD 
HETATM   26  H   UNL     1      -7.946  16.074  66.242  1.00  0.00     0.000 HD 
ENDBRANCH  15  16
ENDBRANCH  12  15
ENDBRANCH   8   9
ENDBRANCH   7   8
ENDBRANCH   6   7
ENDBRANCH   5   6
ENDBRANCH   4   5
ENDBRANCH   3   4
ENDBRANCH   2   3
TORSDOF 9
ENDMDL
MODEL      127
REMARK 921   NORMALIZED FREE ENERGY PREDICTED BY IDOCK:   -4.34 KCAL/MOL
REMARK 922        TOTAL FREE ENERGY PREDICTED BY IDOCK:   -7.73 KCAL/MOL
REMARK 923 INTER-LIGAND FREE ENERGY PREDICTED BY IDOCK:   -5.95 KCAL/MOL
REMARK 924 INTRA-LIGAND FREE ENERGY PREDICTED BY IDOCK:   -1.78 KCAL/MOL
REMARK 927      BINDING AFFINITY PREDICTED BY RF-SCORE:    0.00 PKD
ROOT
HETATM    1  C   UNL     1      -8.077   6.071  70.070  1.00  0.00    -0.114 C  
HETATM    2  C   UNL     1      -9.191   5.918  69.049  1.00  0.00    -0.132 C  
ENDROOT
BRANCH   2   3
HETATM    3  C   UNL     1     -10.505   5.525  69.720  1.00  0.00    -0.389 C  
BRANCH   3   4
HETATM    4  C   UNL     1     -10.255   4.944  71.108  1.00  0.00    -0.261 C  
BRANCH   4   5
HETATM    5  C   UNL     1     -11.311   5.427  72.097  1.00  0.00    -0.149 C  
BRANCH   5   6
HETATM    6  C   UNL     1     -10.660   6.040  73.334  1.00  0.00    -0.277 C  
BRANCH   6   7
HETATM    7  C   UNL     1     -10.576   7.555  73.193  1.00  0.00    -0.442 C  
BRANCH   7   8
HETATM    8  C   UNL     1     -11.843   8.125  72.550  1.00  0.00    -0.438 C  
BRANCH   8   9
HETATM    9  C   UNL     1     -11.506   9.114  71.465  1.00  0.00    -0.437 A  
HETATM   10  C   UNL     1     -12.424  10.112  71.126  1.00  0.00    -0.490 A  
HETATM   11  C   UNL     1     -12.155  10.996  70.086  1.00  0.00    -0.438 A  
HETATM   12  C   UNL     1     -10.946  10.936  69.386  1.00  0.00    -0.304 A  
HETATM   13  C   UNL     1     -10.299   9.037  70.765  1.00  0.00    -0.305 A  
HETATM   14  C   UNL     1     -10.021   9.942  69.737  1.00  0.00    -0.275 A  
BRANCH  12  15
HETATM   15  C   UNL     1     -10.654  11.848  68.214  1.00  0.00    -0.236 C  
BRANCH  15  16
HETATM   16  C   UNL     1      -9.476  11.383  67.342  1.00  0.00    -0.174 C  
HETATM   17  C   UNL     1      -9.633  11.469  65.805  1.00  0.00    -0.235 C  
HETATM   18  C   UNL     1      -8.328  10.901  65.175  1.00  0.00     0.001 C  
HETATM   19  N   UNL     1     -10.772  10.638  65.330  1.00  0.00    -0.117 NA 
HETATM   20  C   UNL     1      -9.820  12.932  65.314  1.00  0.00    -0.095 C  
HETATM   21  O   UNL     1      -8.420  10.865  63.752  1.00  0.00    -0.356 OA 
HETATM   22  O   UNL     1     -11.045  13.497  65.771  1.00  0.00    -0.287 OA 
HETATM   23  H1  UNL     1     -10.875  10.695  64.316  1.00  0.00     0.000 HD 
HETATM   24  H2  UNL     1     -11.638  10.882  65.809  1.00  0.00     0.000 HD 
HETATM   25  H   UNL     1     -11.160  14.392  65.471  1.00  0.00     0.000 HD 
HETATM   26  H   UNL     1      -7.623  10.518  63.368  1.00  0.00     0.000 HD 
ENDBRANCH  15  16
ENDBRANCH  12  15
ENDBRANCH   8   9
ENDBRANCH   7   8
ENDBRANCH   6   7
ENDBRANCH   5   6
ENDBRANCH   4   5
ENDBRANCH   3   4
ENDBRANCH   2   3
TORSDOF 9
ENDMDL
MODEL      128
REMARK 921   NORMALIZED FREE ENERGY PREDICTED BY IDOCK:   -4.34 KCAL/MOL
REMARK 922        TOTAL FREE ENERGY PREDICTED BY IDOCK:   -7.73 KCAL/MOL
REMARK 923 INTER-LIGAND FREE ENERGY PREDICTED BY IDOCK:   -6.07 KCAL/MOL
REMARK 924 INTRA-LIGAND FREE ENERGY PREDICTED BY IDOCK:   -1.66 KCAL/MOL
REMARK 927      BINDING AFFINITY PREDICTED BY RF-SCORE:    0.00 PKD
ROOT
HETATM    1  C   UNL     1     -10.272   9.074  67.317  1.00  0.00    -0.323 C  
HETATM    2  C   UNL     1      -9.029   9.947  67.298  1.00  0.00    -0.145 C  
ENDROOT
BRANCH   2   3
HETATM    3  C   UNL     1      -8.837  10.605  65.934  1.00  0.00    -0.187 C  
BRANCH   3   4
HETATM    4  C   UNL     1      -9.920  10.160  64.957  1.00  0.00    -0.375 C  
BRANCH   4   5
HETATM    5  C   UNL     1      -9.428  10.262  63.517  1.00  0.00    -0.345 C  
BRANCH   5   6
HETATM    6  C   UNL     1     -10.102  11.422  62.791  1.00  0.00    -0.115 C  
BRANCH   6   7
HETATM    7  C   UNL     1     -11.553  11.557  63.238  1.00  0.00    -0.142 C  
BRANCH   7   8
HETATM    8  C   UNL     1     -11.867  12.988  63.681  1.00  0.00    -0.580 C  
BRANCH   8   9
HETATM    9  C   UNL     1     -11.202  13.312  64.993  1.00  0.00    -0.325 A  
HETATM   10  C   UNL     1     -11.767  12.858  66.188  1.00  0.00    -0.451 A  
HETATM   11  C   UNL     1     -11.200  13.198  67.412  1.00  0.00    -0.319 A  
HETATM   12  C   UNL     1     -10.031  13.963  67.474  1.00  0.00    -0.240 A  
HETATM   13  C   UNL     1     -10.040  14.085  65.043  1.00  0.00    -0.323 A  
HETATM   14  C   UNL     1      -9.459  14.406  66.273  1.00  0.00    -0.297 A  
BRANCH  12  15
HETATM   15  C   UNL     1      -9.427  14.395  68.793  1.00  0.00    -0.161 C  
BRANCH  15  16
HETATM   16  C   UNL     1      -9.040  15.882  68.843  1.00  0.00    -0.233 C  
HETATM   17  C   UNL     1     -10.180  16.927  68.911  1.00  0.00    -0.314 C  
HETATM   18  C   UNL     1      -9.516  18.335  68.907  1.00  0.00    -0.218 C  
HETATM   19  N   UNL     1     -11.070  16.835  67.722  1.00  0.00    -0.211 NA 
HETATM   20  C   UNL     1     -11.029  16.787  70.205  1.00  0.00     0.036 C  
HETATM   21  O   UNL     1     -10.502  19.365  68.883  1.00  0.00    -0.513 OA 
HETATM   22  O   UNL     1     -11.748  15.558  70.243  1.00  0.00    -0.290 OA 
HETATM   23  H1  UNL     1     -11.821  17.523  67.767  1.00  0.00     0.000 HD 
HETATM   24  H2  UNL     1     -11.434  15.891  67.600  1.00  0.00     0.000 HD 
HETATM   25  H   UNL     1     -12.268  15.472  71.035  1.00  0.00     0.000 HD 
HETATM   26  H   UNL     1     -10.097  20.224  68.880  1.00  0.00     0.000 HD 
ENDBRANCH  15  16
ENDBRANCH  12  15
ENDBRANCH   8   9
ENDBRANCH   7   8
ENDBRANCH   6   7
ENDBRANCH   5   6
ENDBRANCH   4   5
ENDBRANCH   3   4
ENDBRANCH   2   3
TORSDOF 9
ENDMDL
MODEL      129
REMARK 921   NORMALIZED FREE ENERGY PREDICTED BY IDOCK:   -4.34 KCAL/MOL
REMARK 922        TOTAL FREE ENERGY PREDICTED BY IDOCK:   -7.73 KCAL/MOL
REMARK 923 INTER-LIGAND FREE ENERGY PREDICTED BY IDOCK:   -6.27 KCAL/MOL
REMARK 924 INTRA-LIGAND FREE ENERGY PREDICTED BY IDOCK:   -1.46 KCAL/MOL
REMARK 927      BINDING AFFINITY PREDICTED BY RF-SCORE:    0.00 PKD
ROOT
HETATM    1  C   UNL     1     -10.851   6.457  68.497  1.00  0.00    -0.382 C  
HETATM    2  C   UNL     1     -10.404   5.158  69.144  1.00  0.00    -0.226 C  
ENDROOT
BRANCH   2   3
HETATM    3  C   UNL     1      -9.474   5.421  70.325  1.00  0.00    -0.214 C  
BRANCH   3   4
HETATM    4  C   UNL     1     -10.109   4.957  71.633  1.00  0.00    -0.266 C  
BRANCH   4   5
HETATM    5  C   UNL     1     -10.892   6.089  72.288  1.00  0.00    -0.289 C  
BRANCH   5   6
HETATM    6  C   UNL     1      -9.963   7.020  73.061  1.00  0.00    -0.227 C  
BRANCH   6   7
HETATM    7  C   UNL     1      -9.948   8.404  72.423  1.00  0.00    -0.380 C  
BRANCH   7   8
HETATM    8  C   UNL     1     -11.270   8.703  71.712  1.00  0.00    -0.396 C  
BRANCH   8   9
HETATM    9  C   UNL     1     -11.113   9.820  70.714  1.00  0.00    -0.415 A  
HETATM   10  C   UNL     1      -9.912   9.961  70.012  1.00  0.00    -0.302 A  
HETATM   11  C   UNL     1      -9.728  11.021  69.132  1.00  0.00    -0.096 A  
HETATM   12  C   UNL     1     -10.752  11.944  68.894  1.00  0.00    -0.236 A  
HETATM   13  C   UNL     1     -12.139  10.742  70.493  1.00  0.00    -0.459 A  
HETATM   14  C   UNL     1     -11.960  11.793  69.589  1.00  0.00    -0.378 A  
BRANCH  12  15
HETATM   15  C   UNL     1     -10.557  13.139  67.986  1.00  0.00    -0.246 C  
BRANCH  15  16
HETATM   16  C   UNL     1      -9.311  13.977  68.318  1.00  0.00    -0.208 C  
HETATM   17  C   UNL     1      -9.485  15.508  68.463  1.00  0.00    -0.200 C  
HETATM   18  C   UNL     1      -8.077  16.107  68.752  1.00  0.00    -0.218 C  
HETATM   19  N   UNL     1      -9.992  16.116  67.203  1.00  0.00    -0.246 NA 
HETATM   20  C   UNL     1     -10.431  15.885  69.636  1.00  0.00    -0.295 C  
HETATM   21  O   UNL     1      -8.130  17.530  68.817  1.00  0.00    -0.275 OA 
HETATM   22  O   UNL     1     -11.769  15.453  69.405  1.00  0.00    -0.310 OA 
HETATM   23  H1  UNL     1     -10.107  17.125  67.298  1.00  0.00     0.000 HD 
HETATM   24  H2  UNL     1     -10.855  15.669  66.893  1.00  0.00     0.000 HD 
HETATM   25  H   UNL     1     -12.348  15.684  70.123  1.00  0.00     0.000 HD 
HETATM   26  H   UNL     1      -7.271  17.895  68.993  1.00  0.00     0.000 HD 
ENDBRANCH  15  16
ENDBRANCH  12  15
ENDBRANCH   8   9
ENDBRANCH   7   8
ENDBRANCH   6   7
ENDBRANCH   5   6
ENDBRANCH   4   5
ENDBRANCH   3   4
ENDBRANCH   2   3
TORSDOF 9
ENDMDL
MODEL      130
REMARK 921   NORMALIZED FREE ENERGY PREDICTED BY IDOCK:   -4.33 KCAL/MOL
REMARK 922        TOTAL FREE ENERGY PREDICTED BY IDOCK:   -7.72 KCAL/MOL
REMARK 923 INTER-LIGAND FREE ENERGY PREDICTED BY IDOCK:   -6.70 KCAL/MOL
REMARK 924 INTRA-LIGAND FREE ENERGY PREDICTED BY IDOCK:   -1.02 KCAL/MOL
REMARK 927      BINDING AFFINITY PREDICTED BY RF-SCORE:    0.00 PKD
ROOT
HETATM    1  C   UNL     1     -10.518   4.890  65.851  1.00  0.00    -0.282 C  
HETATM    2  C   UNL     1     -10.361   5.375  67.281  1.00  0.00    -0.273 C  
ENDROOT
BRANCH   2   3
HETATM    3  C   UNL     1     -10.856   6.810  67.436  1.00  0.00    -0.417 C  
BRANCH   3   4
HETATM    4  C   UNL     1      -9.904   7.624  68.307  1.00  0.00    -0.181 C  
BRANCH   4   5
HETATM    5  C   UNL     1      -9.415   8.864  67.564  1.00  0.00    -0.172 C  
BRANCH   5   6
HETATM    6  C   UNL     1     -10.590   9.679  67.030  1.00  0.00    -0.267 C  
BRANCH   6   7
HETATM    7  C   UNL     1     -10.279  10.206  65.635  1.00  0.00    -0.288 C  
BRANCH   7   8
HETATM    8  C   UNL     1      -9.119  11.204  65.664  1.00  0.00    -0.221 C  
BRANCH   8   9
HETATM    9  C   UNL     1      -9.488  12.448  66.430  1.00  0.00    -0.240 A  
HETATM   10  C   UNL     1     -10.455  13.318  65.919  1.00  0.00    -0.289 A  
HETATM   11  C   UNL     1     -10.764  14.500  66.582  1.00  0.00    -0.305 A  
HETATM   12  C   UNL     1     -10.149  14.825  67.796  1.00  0.00    -0.224 A  
HETATM   13  C   UNL     1      -8.859  12.767  67.637  1.00  0.00    -0.189 A  
HETATM   14  C   UNL     1      -9.189  13.944  68.314  1.00  0.00    -0.207 A  
BRANCH  12  15
HETATM   15  C   UNL     1     -10.426  16.131  68.508  1.00  0.00    -0.269 C  
BRANCH  15  16
HETATM   16  C   UNL     1     -10.648  17.322  67.561  1.00  0.00    -0.329 C  
HETATM   17  C   UNL     1      -9.901  18.642  67.868  1.00  0.00    -0.329 C  
HETATM   18  C   UNL     1     -10.337  19.679  66.792  1.00  0.00    -0.476 C  
HETATM   19  N   UNL     1     -10.279  19.180  69.203  1.00  0.00    -0.541 NA 
HETATM   20  C   UNL     1      -8.358  18.476  67.796  1.00  0.00    -0.259 C  
HETATM   21  O   UNL     1      -9.757  20.957  67.049  1.00  0.00    -0.664 OA 
HETATM   22  O   UNL     1      -7.864  17.610  68.814  1.00  0.00    -0.274 OA 
HETATM   23  H1  UNL     1      -9.787  20.050  69.406  1.00  0.00     0.000 HD 
HETATM   24  H2  UNL     1     -10.135  18.488  69.939  1.00  0.00     0.000 HD 
HETATM   25  H   UNL     1      -6.920  17.508  68.769  1.00  0.00     0.000 HD 
HETATM   26  H   UNL     1     -10.023  21.590  66.392  1.00  0.00     0.000 HD 
ENDBRANCH  15  16
ENDBRANCH  12  15
ENDBRANCH   8   9
ENDBRANCH   7   8
ENDBRANCH   6   7
ENDBRANCH   5   6
ENDBRANCH   4   5
ENDBRANCH   3   4
ENDBRANCH   2   3
TORSDOF 9
ENDMDL
MODEL      131
REMARK 921   NORMALIZED FREE ENERGY PREDICTED BY IDOCK:   -4.32 KCAL/MOL
REMARK 922        TOTAL FREE ENERGY PREDICTED BY IDOCK:   -7.71 KCAL/MOL
REMARK 923 INTER-LIGAND FREE ENERGY PREDICTED BY IDOCK:   -6.86 KCAL/MOL
REMARK 924 INTRA-LIGAND FREE ENERGY PREDICTED BY IDOCK:   -0.85 KCAL/MOL
REMARK 927      BINDING AFFINITY PREDICTED BY RF-SCORE:    0.00 PKD
ROOT
HETATM    1  C   UNL     1      -8.200   2.038  66.269  1.00  0.00    -0.089 C  
HETATM    2  C   UNL     1      -8.241   3.104  67.350  1.00  0.00    -0.084 C  
ENDROOT
BRANCH   2   3
HETATM    3  C   UNL     1      -9.428   4.042  67.156  1.00  0.00    -0.224 C  
BRANCH   3   4
HETATM    4  C   UNL     1      -9.842   4.677  68.479  1.00  0.00    -0.181 C  
BRANCH   4   5
HETATM    5  C   UNL     1     -10.634   5.959  68.242  1.00  0.00    -0.310 C  
BRANCH   5   6
HETATM    6  C   UNL     1     -10.586   6.366  66.772  1.00  0.00    -0.328 C  
BRANCH   6   7
HETATM    7  C   UNL     1     -10.028   7.777  66.629  1.00  0.00    -0.299 C  
BRANCH   7   8
HETATM    8  C   UNL     1     -10.492   8.676  67.778  1.00  0.00    -0.287 C  
BRANCH   8   9
HETATM    9  C   UNL     1     -10.759  10.079  67.299  1.00  0.00    -0.309 A  
HETATM   10  C   UNL     1     -11.417  10.985  68.135  1.00  0.00    -0.374 A  
HETATM   11  C   UNL     1     -11.725  12.265  67.688  1.00  0.00    -0.403 A  
HETATM   12  C   UNL     1     -11.347  12.690  66.410  1.00  0.00    -0.381 A  
HETATM   13  C   UNL     1     -10.385  10.489  66.016  1.00  0.00    -0.279 A  
HETATM   14  C   UNL     1     -10.676  11.784  65.578  1.00  0.00    -0.329 A  
BRANCH  12  15
HETATM   15  C   UNL     1     -11.721  14.057  65.879  1.00  0.00    -0.373 C  
BRANCH  15  16
HETATM   16  C   UNL     1     -11.427  15.207  66.856  1.00  0.00    -0.215 C  
HETATM   17  C   UNL     1     -10.407  16.287  66.420  1.00  0.00    -0.314 C  
HETATM   18  C   UNL     1     -10.267  17.293  67.600  1.00  0.00    -0.333 C  
HETATM   19  N   UNL     1      -9.067  15.692  66.163  1.00  0.00    -0.337 NA 
HETATM   20  C   UNL     1     -10.877  17.066  65.161  1.00  0.00    -0.049 C  
HETATM   21  O   UNL     1      -9.279  18.280  67.316  1.00  0.00    -0.252 OA 
HETATM   22  O   UNL     1     -10.940  16.232  64.008  1.00  0.00    -1.106 OA 
HETATM   23  H1  UNL     1      -8.395  16.404  65.876  1.00  0.00     0.000 HD 
HETATM   24  H2  UNL     1      -9.119  14.932  65.486  1.00  0.00     0.000 HD 
HETATM   25  H   UNL     1     -11.228  16.709  63.237  1.00  0.00     0.000 HD 
HETATM   26  H   UNL     1      -9.194  18.894  68.036  1.00  0.00     0.000 HD 
ENDBRANCH  15  16
ENDBRANCH  12  15
ENDBRANCH   8   9
ENDBRANCH   7   8
ENDBRANCH   6   7
ENDBRANCH   5   6
ENDBRANCH   4   5
ENDBRANCH   3   4
ENDBRANCH   2   3
TORSDOF 9
ENDMDL
MODEL      132
REMARK 921   NORMALIZED FREE ENERGY PREDICTED BY IDOCK:   -4.32 KCAL/MOL
REMARK 922        TOTAL FREE ENERGY PREDICTED BY IDOCK:   -7.70 KCAL/MOL
REMARK 923 INTER-LIGAND FREE ENERGY PREDICTED BY IDOCK:   -5.38 KCAL/MOL
REMARK 924 INTRA-LIGAND FREE ENERGY PREDICTED BY IDOCK:   -2.32 KCAL/MOL
REMARK 927      BINDING AFFINITY PREDICTED BY RF-SCORE:    0.00 PKD
ROOT
HETATM    1  C   UNL     1     -11.025  10.246  67.440  1.00  0.00    -0.317 C  
HETATM    2  C   UNL     1     -11.294  10.526  68.907  1.00  0.00    -0.313 C  
ENDROOT
BRANCH   2   3
HETATM    3  C   UNL     1     -10.138  10.050  69.782  1.00  0.00    -0.284 C  
BRANCH   3   4
HETATM    4  C   UNL     1     -10.612   9.767  71.204  1.00  0.00    -0.215 C  
BRANCH   4   5
HETATM    5  C   UNL     1     -12.127   9.604  71.249  1.00  0.00    -0.457 C  
BRANCH   5   6
HETATM    6  C   UNL     1     -12.534   8.564  72.290  1.00  0.00    -0.448 C  
BRANCH   6   7
HETATM    7  C   UNL     1     -11.333   7.713  72.687  1.00  0.00    -0.423 C  
BRANCH   7   8
HETATM    8  C   UNL     1     -11.360   6.353  71.987  1.00  0.00    -0.338 C  
BRANCH   8   9
HETATM    9  C   UNL     1     -10.638   6.405  70.665  1.00  0.00    -0.288 A  
HETATM   10  C   UNL     1     -11.366   6.343  69.473  1.00  0.00    -0.460 A  
HETATM   11  C   UNL     1     -10.712   6.329  68.246  1.00  0.00    -0.356 A  
HETATM   12  C   UNL     1      -9.319   6.421  68.173  1.00  0.00    -0.108 A  
HETATM   13  C   UNL     1      -9.244   6.487  70.605  1.00  0.00    -0.163 A  
HETATM   14  C   UNL     1      -8.592   6.497  69.369  1.00  0.00    -0.134 A  
BRANCH  12  15
HETATM   15  C   UNL     1      -8.580   6.350  66.854  1.00  0.00    -0.110 C  
BRANCH  15  16
HETATM   16  C   UNL     1      -9.015   7.421  65.839  1.00  0.00    -0.114 C  
HETATM   17  C   UNL     1      -8.008   8.545  65.494  1.00  0.00    -0.110 C  
HETATM   18  C   UNL     1      -8.713   9.503  64.490  1.00  0.00    -0.205 C  
HETATM   19  N   UNL     1      -7.644   9.333  66.703  1.00  0.00    -0.093 NA 
HETATM   20  C   UNL     1      -6.717   7.995  64.827  1.00  0.00    -0.059 C  
HETATM   21  O   UNL     1      -7.882  10.621  64.181  1.00  0.00    -0.345 OA 
HETATM   22  O   UNL     1      -5.960   7.179  65.717  1.00  0.00    -0.035 OA 
HETATM   23  H1  UNL     1      -6.980  10.074  66.476  1.00  0.00     0.000 HD 
HETATM   24  H2  UNL     1      -7.294   8.733  67.449  1.00  0.00     0.000 HD 
HETATM   25  H   UNL     1      -5.171   6.842  65.309  1.00  0.00     0.000 HD 
HETATM   26  H   UNL     1      -8.312  11.206  63.569  1.00  0.00     0.000 HD 
ENDBRANCH  15  16
ENDBRANCH  12  15
ENDBRANCH   8   9
ENDBRANCH   7   8
ENDBRANCH   6   7
ENDBRANCH   5   6
ENDBRANCH   4   5
ENDBRANCH   3   4
ENDBRANCH   2   3
TORSDOF 9
ENDMDL
MODEL      133
REMARK 921   NORMALIZED FREE ENERGY PREDICTED BY IDOCK:   -4.31 KCAL/MOL
REMARK 922        TOTAL FREE ENERGY PREDICTED BY IDOCK:   -7.68 KCAL/MOL
REMARK 923 INTER-LIGAND FREE ENERGY PREDICTED BY IDOCK:   -6.60 KCAL/MOL
REMARK 924 INTRA-LIGAND FREE ENERGY PREDICTED BY IDOCK:   -1.09 KCAL/MOL
REMARK 927      BINDING AFFINITY PREDICTED BY RF-SCORE:    0.00 PKD
ROOT
HETATM    1  C   UNL     1      -6.989  13.236  68.162  1.00  0.00    -0.114 C  
HETATM    2  C   UNL     1      -5.811  14.184  68.026  1.00  0.00    -0.138 C  
ENDROOT
BRANCH   2   3
HETATM    3  C   UNL     1      -6.253  15.638  68.159  1.00  0.00    -0.135 C  
BRANCH   3   4
HETATM    4  C   UNL     1      -7.600  15.863  67.479  1.00  0.00    -0.186 C  
BRANCH   4   5
HETATM    5  C   UNL     1      -8.287  17.107  68.031  1.00  0.00    -0.218 C  
BRANCH   5   6
HETATM    6  C   UNL     1      -9.436  16.730  68.961  1.00  0.00    -0.217 C  
BRANCH   6   7
HETATM    7  C   UNL     1     -10.759  16.749  68.205  1.00  0.00    -0.361 C  
BRANCH   7   8
HETATM    8  C   UNL     1     -10.993  15.432  67.462  1.00  0.00    -0.315 C  
BRANCH   8   9
HETATM    9  C   UNL     1     -11.256  14.302  68.423  1.00  0.00    -0.291 A  
HETATM   10  C   UNL     1     -10.754  13.026  68.148  1.00  0.00    -0.258 A  
HETATM   11  C   UNL     1     -11.038  11.958  68.993  1.00  0.00    -0.300 A  
HETATM   12  C   UNL     1     -11.791  12.143  70.157  1.00  0.00    -0.368 A  
HETATM   13  C   UNL     1     -12.019  14.496  69.577  1.00  0.00    -0.363 A  
HETATM   14  C   UNL     1     -12.282  13.426  70.437  1.00  0.00    -0.415 A  
BRANCH  12  15
HETATM   15  C   UNL     1     -12.162  10.988  71.061  1.00  0.00    -0.456 C  
BRANCH  15  16
HETATM   16  C   UNL     1     -11.862   9.605  70.460  1.00  0.00    -0.284 C  
HETATM   17  C   UNL     1     -11.627   8.426  71.435  1.00  0.00    -0.284 C  
HETATM   18  C   UNL     1     -11.304   7.171  70.572  1.00  0.00    -0.297 C  
HETATM   19  N   UNL     1     -10.462   8.683  72.324  1.00  0.00    -0.332 NA 
HETATM   20  C   UNL     1     -12.880   8.119  72.300  1.00  0.00    -0.231 C  
HETATM   21  O   UNL     1     -10.990   6.051  71.396  1.00  0.00    -0.260 OA 
HETATM   22  O   UNL     1     -13.190   9.186  73.192  1.00  0.00    -0.772 OA 
HETATM   23  H1  UNL     1     -10.307   7.906  72.967  1.00  0.00     0.000 HD 
HETATM   24  H2  UNL     1     -10.561   9.567  72.823  1.00  0.00     0.000 HD 
HETATM   25  H   UNL     1     -13.957   8.999  73.721  1.00  0.00     0.000 HD 
HETATM   26  H   UNL     1     -10.793   5.285  70.869  1.00  0.00     0.000 HD 
ENDBRANCH  15  16
ENDBRANCH  12  15
ENDBRANCH   8   9
ENDBRANCH   7   8
ENDBRANCH   6   7
ENDBRANCH   5   6
ENDBRANCH   4   5
ENDBRANCH   3   4
ENDBRANCH   2   3
TORSDOF 9
ENDMDL
MODEL      134
REMARK 921   NORMALIZED FREE ENERGY PREDICTED BY IDOCK:   -4.31 KCAL/MOL
REMARK 922        TOTAL FREE ENERGY PREDICTED BY IDOCK:   -7.68 KCAL/MOL
REMARK 923 INTER-LIGAND FREE ENERGY PREDICTED BY IDOCK:   -6.92 KCAL/MOL
REMARK 924 INTRA-LIGAND FREE ENERGY PREDICTED BY IDOCK:   -0.76 KCAL/MOL
REMARK 927      BINDING AFFINITY PREDICTED BY RF-SCORE:    0.00 PKD
ROOT
HETATM    1  C   UNL     1      -8.411   8.025  73.884  1.00  0.00    -0.321 C  
HETATM    2  C   UNL     1      -8.911   8.154  72.456  1.00  0.00    -0.272 C  
ENDROOT
BRANCH   2   3
HETATM    3  C   UNL     1      -8.286   7.092  71.554  1.00  0.00    -0.111 C  
BRANCH   3   4
HETATM    4  C   UNL     1      -8.200   7.584  70.113  1.00  0.00    -0.132 C  
BRANCH   4   5
HETATM    5  C   UNL     1      -7.857   6.437  69.168  1.00  0.00    -0.109 C  
BRANCH   5   6
HETATM    6  C   UNL     1      -7.725   6.934  67.731  1.00  0.00    -0.112 C  
BRANCH   6   7
HETATM    7  C   UNL     1      -8.354   8.315  67.588  1.00  0.00    -0.127 C  
BRANCH   7   8
HETATM    8  C   UNL     1      -9.687   8.244  66.839  1.00  0.00    -0.291 C  
BRANCH   8   9
HETATM    9  C   UNL     1     -10.288   9.614  66.663  1.00  0.00    -0.279 A  
HETATM   10  C   UNL     1     -10.904  10.247  67.746  1.00  0.00    -0.346 A  
HETATM   11  C   UNL     1     -11.517  11.485  67.587  1.00  0.00    -0.357 A  
HETATM   12  C   UNL     1     -11.492  12.145  66.354  1.00  0.00    -0.430 A  
HETATM   13  C   UNL     1     -10.266  10.259  65.424  1.00  0.00    -0.312 A  
HETATM   14  C   UNL     1     -10.861  11.515  65.272  1.00  0.00    -0.319 A  
BRANCH  12  15
HETATM   15  C   UNL     1     -12.200  13.466  66.139  1.00  0.00    -0.471 C  
BRANCH  15  16
HETATM   16  C   UNL     1     -11.481  14.668  66.773  1.00  0.00    -0.371 C  
HETATM   17  C   UNL     1     -10.569  15.528  65.865  1.00  0.00    -0.339 C  
HETATM   18  C   UNL     1      -9.939  16.635  66.760  1.00  0.00    -0.279 C  
HETATM   19  N   UNL     1      -9.461  14.719  65.289  1.00  0.00    -0.357 NA 
HETATM   20  C   UNL     1     -11.360  16.213  64.717  1.00  0.00    -0.249 C  
HETATM   21  O   UNL     1      -9.015  17.428  66.019  1.00  0.00    -0.493 OA 
HETATM   22  O   UNL     1     -11.892  15.267  63.794  1.00  0.00    -0.840 OA 
HETATM   23  H1  UNL     1      -8.860  15.286  64.691  1.00  0.00     0.000 HD 
HETATM   24  H2  UNL     1      -9.814  13.899  64.796  1.00  0.00     0.000 HD 
HETATM   25  H   UNL     1     -12.376  15.687  63.091  1.00  0.00     0.000 HD 
HETATM   26  H   UNL     1      -8.631  18.104  66.565  1.00  0.00     0.000 HD 
ENDBRANCH  15  16
ENDBRANCH  12  15
ENDBRANCH   8   9
ENDBRANCH   7   8
ENDBRANCH   6   7
ENDBRANCH   5   6
ENDBRANCH   4   5
ENDBRANCH   3   4
ENDBRANCH   2   3
TORSDOF 9
ENDMDL
MODEL      135
REMARK 921   NORMALIZED FREE ENERGY PREDICTED BY IDOCK:   -4.29 KCAL/MOL
REMARK 922        TOTAL FREE ENERGY PREDICTED BY IDOCK:   -7.65 KCAL/MOL
REMARK 923 INTER-LIGAND FREE ENERGY PREDICTED BY IDOCK:   -6.85 KCAL/MOL
REMARK 924 INTRA-LIGAND FREE ENERGY PREDICTED BY IDOCK:   -0.80 KCAL/MOL
REMARK 927      BINDING AFFINITY PREDICTED BY RF-SCORE:    0.00 PKD
ROOT
HETATM    1  C   UNL     1      -7.996   7.376  65.351  1.00  0.00    -0.125 C  
HETATM    2  C   UNL     1      -8.829   7.223  66.611  1.00  0.00    -0.151 C  
ENDROOT
BRANCH   2   3
HETATM    3  C   UNL     1      -8.566   8.364  67.589  1.00  0.00    -0.130 C  
BRANCH   3   4
HETATM    4  C   UNL     1      -9.374   9.602  67.212  1.00  0.00    -0.163 C  
BRANCH   4   5
HETATM    5  C   UNL     1     -10.631   9.711  68.068  1.00  0.00    -0.292 C  
BRANCH   5   6
HETATM    6  C   UNL     1     -11.289  11.079  67.900  1.00  0.00    -0.381 C  
BRANCH   6   7
HETATM    7  C   UNL     1     -10.896  11.696  66.564  1.00  0.00    -0.328 C  
BRANCH   7   8
HETATM    8  C   UNL     1     -11.995  12.620  66.034  1.00  0.00    -0.478 C  
BRANCH   8   9
HETATM    9  C   UNL     1     -11.572  14.064  66.096  1.00  0.00    -0.374 A  
HETATM   10  C   UNL     1     -11.252  14.746  64.918  1.00  0.00    -0.411 A  
HETATM   11  C   UNL     1     -10.802  16.060  64.961  1.00  0.00    -0.421 A  
HETATM   12  C   UNL     1     -10.700  16.745  66.177  1.00  0.00    -0.116 A  
HETATM   13  C   UNL     1     -11.464  14.735  67.317  1.00  0.00    -0.378 A  
HETATM   14  C   UNL     1     -11.034  16.064  67.356  1.00  0.00    -0.237 A  
BRANCH  12  15
HETATM   15  C   UNL     1     -10.158  18.156  66.257  1.00  0.00    -0.373 C  
BRANCH  15  16
HETATM   16  C   UNL     1      -8.682  18.233  66.679  1.00  0.00    -0.289 C  
HETATM   17  C   UNL     1      -8.240  19.427  67.559  1.00  0.00    -0.286 C  
HETATM   18  C   UNL     1      -6.708  19.282  67.797  1.00  0.00    -0.223 C  
HETATM   19  N   UNL     1      -8.476  20.723  66.869  1.00  0.00    -0.571 NA 
HETATM   20  C   UNL     1      -8.954  19.436  68.938  1.00  0.00    -0.298 C  
HETATM   21  O   UNL     1      -6.198  20.391  68.534  1.00  0.00    -0.285 OA 
HETATM   22  O   UNL     1     -10.356  19.660  68.814  1.00  0.00    -0.540 OA 
HETATM   23  H1  UNL     1      -8.185  21.511  67.449  1.00  0.00     0.000 HD 
HETATM   24  H2  UNL     1      -9.447  20.817  66.572  1.00  0.00     0.000 HD 
HETATM   25  H   UNL     1     -10.793  19.666  69.659  1.00  0.00     0.000 HD 
HETATM   26  H   UNL     1      -5.264  20.303  68.679  1.00  0.00     0.000 HD 
ENDBRANCH  15  16
ENDBRANCH  12  15
ENDBRANCH   8   9
ENDBRANCH   7   8
ENDBRANCH   6   7
ENDBRANCH   5   6
ENDBRANCH   4   5
ENDBRANCH   3   4
ENDBRANCH   2   3
TORSDOF 9
ENDMDL
MODEL      136
REMARK 921   NORMALIZED FREE ENERGY PREDICTED BY IDOCK:   -4.28 KCAL/MOL
REMARK 922        TOTAL FREE ENERGY PREDICTED BY IDOCK:   -7.64 KCAL/MOL
REMARK 923 INTER-LIGAND FREE ENERGY PREDICTED BY IDOCK:   -7.00 KCAL/MOL
REMARK 924 INTRA-LIGAND FREE ENERGY PREDICTED BY IDOCK:   -0.64 KCAL/MOL
REMARK 927      BINDING AFFINITY PREDICTED BY RF-SCORE:    0.00 PKD
ROOT
HETATM    1  C   UNL     1     -12.367  15.328  73.936  1.00  0.00    -0.756 C  
HETATM    2  C   UNL     1     -13.378  15.101  72.826  1.00  0.00    -0.596 C  
ENDROOT
BRANCH   2   3
HETATM    3  C   UNL     1     -13.625  13.612  72.599  1.00  0.00    -0.596 C  
BRANCH   3   4
HETATM    4  C   UNL     1     -12.971  13.144  71.302  1.00  0.00    -0.339 C  
BRANCH   4   5
HETATM    5  C   UNL     1     -12.796  14.307  70.332  1.00  0.00    -0.276 C  
BRANCH   5   6
HETATM    6  C   UNL     1     -11.898  13.912  69.162  1.00  0.00    -0.401 C  
BRANCH   6   7
HETATM    7  C   UNL     1     -11.655  15.109  68.252  1.00  0.00    -0.357 C  
BRANCH   7   8
HETATM    8  C   UNL     1     -11.633  14.692  66.779  1.00  0.00    -0.370 C  
BRANCH   8   9
HETATM    9  C   UNL     1     -10.961  13.356  66.600  1.00  0.00    -0.297 A  
HETATM   10  C   UNL     1     -11.725  12.233  66.271  1.00  0.00    -0.431 A  
HETATM   11  C   UNL     1     -11.131  10.980  66.161  1.00  0.00    -0.082 A  
HETATM   12  C   UNL     1      -9.752  10.822  66.334  1.00  0.00    -0.241 A  
HETATM   13  C   UNL     1      -9.584  13.208  66.785  1.00  0.00    -0.249 A  
HETATM   14  C   UNL     1      -8.986  11.952  66.651  1.00  0.00    -0.198 A  
BRANCH  12  15
HETATM   15  C   UNL     1      -9.090   9.462  66.277  1.00  0.00    -0.204 C  
BRANCH  15  16
HETATM   16  C   UNL     1     -10.035   8.295  66.606  1.00  0.00    -0.348 C  
HETATM   17  C   UNL     1      -9.457   6.860  66.566  1.00  0.00    -0.153 C  
HETATM   18  C   UNL     1     -10.625   5.883  66.891  1.00  0.00    -0.315 C  
HETATM   19  N   UNL     1      -8.940   6.522  65.212  1.00  0.00    -0.362 NA 
HETATM   20  C   UNL     1      -8.332   6.649  67.616  1.00  0.00    -0.122 C  
HETATM   21  O   UNL     1     -10.198   4.526  66.794  1.00  0.00    -0.219 OA 
HETATM   22  O   UNL     1      -7.182   7.443  67.336  1.00  0.00    -0.088 OA 
HETATM   23  H1  UNL     1      -8.559   5.577  65.186  1.00  0.00     0.000 HD 
HETATM   24  H2  UNL     1      -8.259   7.210  64.890  1.00  0.00     0.000 HD 
HETATM   25  H   UNL     1      -6.493   7.314  67.979  1.00  0.00     0.000 HD 
HETATM   26  H   UNL     1     -10.910   3.929  66.992  1.00  0.00     0.000 HD 
ENDBRANCH  15  16
ENDBRANCH  12  15
ENDBRANCH   8   9
ENDBRANCH   7   8
ENDBRANCH   6   7
ENDBRANCH   5   6
ENDBRANCH   4   5
ENDBRANCH   3   4
ENDBRANCH   2   3
TORSDOF 9
ENDMDL
MODEL      137
REMARK 921   NORMALIZED FREE ENERGY PREDICTED BY IDOCK:   -4.27 KCAL/MOL
REMARK 922        TOTAL FREE ENERGY PREDICTED BY IDOCK:   -7.63 KCAL/MOL
REMARK 923 INTER-LIGAND FREE ENERGY PREDICTED BY IDOCK:   -5.82 KCAL/MOL
REMARK 924 INTRA-LIGAND FREE ENERGY PREDICTED BY IDOCK:   -1.81 KCAL/MOL
REMARK 927      BINDING AFFINITY PREDICTED BY RF-SCORE:    0.00 PKD
ROOT
HETATM    1  C   UNL     1      -5.639  10.302  68.250  1.00  0.00    -0.040 C  
HETATM    2  C   UNL     1      -7.152  10.403  68.175  1.00  0.00    -0.082 C  
ENDROOT
BRANCH   2   3
HETATM    3  C   UNL     1      -7.805   9.869  69.446  1.00  0.00    -0.127 C  
BRANCH   3   4
HETATM    4  C   UNL     1      -7.509   8.384  69.629  1.00  0.00    -0.073 C  
BRANCH   4   5
HETATM    5  C   UNL     1      -8.320   7.545  68.647  1.00  0.00    -0.129 C  
BRANCH   5   6
HETATM    6  C   UNL     1      -9.745   7.337  69.154  1.00  0.00    -0.160 C  
BRANCH   6   7
HETATM    7  C   UNL     1     -10.738   7.439  68.002  1.00  0.00    -0.191 C  
BRANCH   7   8
HETATM    8  C   UNL     1     -10.100   8.095  66.775  1.00  0.00    -0.365 C  
BRANCH   8   9
HETATM    9  C   UNL     1     -10.394   9.572  66.730  1.00  0.00    -0.298 A  
HETATM   10  C   UNL     1     -11.149  10.161  67.748  1.00  0.00    -0.293 A  
HETATM   11  C   UNL     1     -11.482  11.510  67.692  1.00  0.00    -0.357 A  
HETATM   12  C   UNL     1     -11.033  12.317  66.641  1.00  0.00    -0.321 A  
HETATM   13  C   UNL     1      -9.949  10.366  65.670  1.00  0.00    -0.337 A  
HETATM   14  C   UNL     1     -10.264  11.727  65.628  1.00  0.00    -0.284 A  
BRANCH  12  15
HETATM   15  C   UNL     1     -11.428  13.773  66.526  1.00  0.00    -0.364 C  
BRANCH  15  16
HETATM   16  C   UNL     1     -12.136  14.327  67.774  1.00  0.00    -0.316 C  
HETATM   17  C   UNL     1     -11.349  15.302  68.683  1.00  0.00    -0.317 C  
HETATM   18  C   UNL     1     -12.274  15.666  69.880  1.00  0.00    -0.294 C  
HETATM   19  N   UNL     1     -10.122  14.660  69.229  1.00  0.00    -0.377 NA 
HETATM   20  C   UNL     1     -10.961  16.612  67.943  1.00  0.00    -0.276 C  
HETATM   21  O   UNL     1     -11.595  16.500  70.816  1.00  0.00    -0.562 OA 
HETATM   22  O   UNL     1     -10.036  16.376  66.885  1.00  0.00    -0.255 OA 
HETATM   23  H1  UNL     1      -9.603  15.303  69.828  1.00  0.00     0.000 HD 
HETATM   24  H2  UNL     1      -9.535  14.283  68.486  1.00  0.00     0.000 HD 
HETATM   25  H   UNL     1      -9.799  17.178  66.432  1.00  0.00     0.000 HD 
HETATM   26  H   UNL     1     -12.160  16.722  71.547  1.00  0.00     0.000 HD 
ENDBRANCH  15  16
ENDBRANCH  12  15
ENDBRANCH   8   9
ENDBRANCH   7   8
ENDBRANCH   6   7
ENDBRANCH   5   6
ENDBRANCH   4   5
ENDBRANCH   3   4
ENDBRANCH   2   3
TORSDOF 9
ENDMDL
MODEL      138
REMARK 921   NORMALIZED FREE ENERGY PREDICTED BY IDOCK:   -4.26 KCAL/MOL
REMARK 922        TOTAL FREE ENERGY PREDICTED BY IDOCK:   -7.62 KCAL/MOL
REMARK 923 INTER-LIGAND FREE ENERGY PREDICTED BY IDOCK:   -6.43 KCAL/MOL
REMARK 924 INTRA-LIGAND FREE ENERGY PREDICTED BY IDOCK:   -1.19 KCAL/MOL
REMARK 927      BINDING AFFINITY PREDICTED BY RF-SCORE:    0.00 PKD
ROOT
HETATM    1  C   UNL     1     -10.035   2.412  73.447  1.00  0.00    -0.165 C  
HETATM    2  C   UNL     1     -10.151   3.692  72.639  1.00  0.00    -0.231 C  
ENDROOT
BRANCH   2   3
HETATM    3  C   UNL     1      -8.966   3.857  71.692  1.00  0.00    -0.157 C  
BRANCH   3   4
HETATM    4  C   UNL     1      -8.208   5.148  71.987  1.00  0.00    -0.117 C  
BRANCH   4   5
HETATM    5  C   UNL     1      -8.677   5.765  73.300  1.00  0.00    -0.118 C  
BRANCH   5   6
HETATM    6  C   UNL     1      -9.092   7.220  73.103  1.00  0.00    -0.193 C  
BRANCH   6   7
HETATM    7  C   UNL     1     -10.597   7.373  73.285  1.00  0.00    -0.442 C  
BRANCH   7   8
HETATM    8  C   UNL     1     -11.337   7.217  71.954  1.00  0.00    -0.294 C  
BRANCH   8   9
HETATM    9  C   UNL     1     -11.480   8.541  71.251  1.00  0.00    -0.329 A  
HETATM   10  C   UNL     1     -12.436   9.462  71.691  1.00  0.00    -0.460 A  
HETATM   11  C   UNL     1     -12.624  10.663  71.017  1.00  0.00    -0.516 A  
HETATM   12  C   UNL     1     -11.834  10.998  69.912  1.00  0.00    -0.431 A  
HETATM   13  C   UNL     1     -10.692   8.860  70.142  1.00  0.00    -0.245 A  
HETATM   14  C   UNL     1     -10.867  10.079  69.481  1.00  0.00    -0.283 A  
BRANCH  12  15
HETATM   15  C   UNL     1     -12.057  12.272  69.127  1.00  0.00    -0.214 C  
BRANCH  15  16
HETATM   16  C   UNL     1     -10.939  13.314  69.300  1.00  0.00    -0.140 C  
HETATM   17  C   UNL     1     -11.350  14.793  69.498  1.00  0.00    -0.283 C  
HETATM   18  C   UNL     1     -10.039  15.626  69.602  1.00  0.00    -0.291 C  
HETATM   19  N   UNL     1     -12.125  15.299  68.334  1.00  0.00    -0.552 NA 
HETATM   20  C   UNL     1     -12.173  15.006  70.799  1.00  0.00    -0.329 C  
HETATM   21  O   UNL     1     -10.326  17.020  69.703  1.00  0.00    -0.211 OA 
HETATM   22  O   UNL     1     -13.437  14.349  70.747  1.00  0.00    -0.427 OA 
HETATM   23  H1  UNL     1     -12.397  16.274  68.464  1.00  0.00     0.000 HD 
HETATM   24  H2  UNL     1     -12.933  14.709  68.137  1.00  0.00     0.000 HD 
HETATM   25  H   UNL     1     -13.940  14.479  71.543  1.00  0.00     0.000 HD 
HETATM   26  H   UNL     1      -9.526  17.528  69.766  1.00  0.00     0.000 HD 
ENDBRANCH  15  16
ENDBRANCH  12  15
ENDBRANCH   8   9
ENDBRANCH   7   8
ENDBRANCH   6   7
ENDBRANCH   5   6
ENDBRANCH   4   5
ENDBRANCH   3   4
ENDBRANCH   2   3
TORSDOF 9
ENDMDL
MODEL      139
REMARK 921   NORMALIZED FREE ENERGY PREDICTED BY IDOCK:   -4.26 KCAL/MOL
REMARK 922        TOTAL FREE ENERGY PREDICTED BY IDOCK:   -7.61 KCAL/MOL
REMARK 923 INTER-LIGAND FREE ENERGY PREDICTED BY IDOCK:   -6.58 KCAL/MOL
REMARK 924 INTRA-LIGAND FREE ENERGY PREDICTED BY IDOCK:   -1.03 KCAL/MOL
REMARK 927      BINDING AFFINITY PREDICTED BY RF-SCORE:    0.00 PKD
ROOT
HETATM    1  C   UNL     1      -7.574   8.062  63.435  1.00  0.00    -0.130 C  
HETATM    2  C   UNL     1      -8.101   7.013  64.398  1.00  0.00    -0.052 C  
ENDROOT
BRANCH   2   3
HETATM    3  C   UNL     1      -7.587   7.254  65.814  1.00  0.00    -0.091 C  
BRANCH   3   4
HETATM    4  C   UNL     1      -8.195   8.521  66.407  1.00  0.00    -0.108 C  
BRANCH   4   5
HETATM    5  C   UNL     1      -9.708   8.387  66.536  1.00  0.00    -0.330 C  
BRANCH   5   6
HETATM    6  C   UNL     1     -10.386   9.753  66.461  1.00  0.00    -0.262 C  
BRANCH   6   7
HETATM    7  C   UNL     1     -10.021  10.455  65.160  1.00  0.00    -0.390 C  
BRANCH   7   8
HETATM    8  C   UNL     1     -11.164  11.347  64.669  1.00  0.00    -0.220 C  
BRANCH   8   9
HETATM    9  C   UNL     1     -11.126  12.699  65.333  1.00  0.00    -0.327 A  
HETATM   10  C   UNL     1     -10.256  13.683  64.853  1.00  0.00    -0.363 A  
HETATM   11  C   UNL     1     -10.163  14.916  65.490  1.00  0.00    -0.401 A  
HETATM   12  C   UNL     1     -10.967  15.216  66.595  1.00  0.00    -0.318 A  
HETATM   13  C   UNL     1     -11.926  12.984  66.442  1.00  0.00    -0.466 A  
HETATM   14  C   UNL     1     -11.848  14.232  67.066  1.00  0.00    -0.455 A  
BRANCH  12  15
HETATM   15  C   UNL     1     -10.844  16.527  67.341  1.00  0.00    -0.202 C  
BRANCH  15  16
HETATM   16  C   UNL     1     -10.200  17.654  66.516  1.00  0.00    -0.355 C  
HETATM   17  C   UNL     1      -9.297  18.670  67.257  1.00  0.00    -0.287 C  
HETATM   18  C   UNL     1      -8.820  19.714  66.206  1.00  0.00    -0.371 C  
HETATM   19  N   UNL     1     -10.054  19.395  68.313  1.00  0.00    -0.411 NA 
HETATM   20  C   UNL     1      -8.047  17.997  67.886  1.00  0.00    -0.243 C  
HETATM   21  O   UNL     1      -8.046  20.742  66.822  1.00  0.00    -0.550 OA 
HETATM   22  O   UNL     1      -8.394  17.090  68.929  1.00  0.00    -0.252 OA 
HETATM   23  H1  UNL     1      -9.459  20.065  68.802  1.00  0.00     0.000 HD 
HETATM   24  H2  UNL     1     -10.501  18.749  68.963  1.00  0.00     0.000 HD 
HETATM   25  H   UNL     1      -7.629  16.678  69.314  1.00  0.00     0.000 HD 
HETATM   26  H   UNL     1      -7.754  21.379  66.180  1.00  0.00     0.000 HD 
ENDBRANCH  15  16
ENDBRANCH  12  15
ENDBRANCH   8   9
ENDBRANCH   7   8
ENDBRANCH   6   7
ENDBRANCH   5   6
ENDBRANCH   4   5
ENDBRANCH   3   4
ENDBRANCH   2   3
TORSDOF 9
ENDMDL
MODEL      140
REMARK 921   NORMALIZED FREE ENERGY PREDICTED BY IDOCK:   -4.25 KCAL/MOL
REMARK 922        TOTAL FREE ENERGY PREDICTED BY IDOCK:   -7.59 KCAL/MOL
REMARK 923 INTER-LIGAND FREE ENERGY PREDICTED BY IDOCK:   -6.44 KCAL/MOL
REMARK 924 INTRA-LIGAND FREE ENERGY PREDICTED BY IDOCK:   -1.15 KCAL/MOL
REMARK 927      BINDING AFFINITY PREDICTED BY RF-SCORE:    0.00 PKD
ROOT
HETATM    1  C   UNL     1      -7.319  14.507  68.823  1.00  0.00    -0.129 C  
HETATM    2  C   UNL     1      -7.950  14.442  67.443  1.00  0.00    -0.220 C  
ENDROOT
BRANCH   2   3
HETATM    3  C   UNL     1      -8.948  15.579  67.238  1.00  0.00    -0.216 C  
BRANCH   3   4
HETATM    4  C   UNL     1      -9.309  15.727  65.763  1.00  0.00    -0.298 C  
BRANCH   4   5
HETATM    5  C   UNL     1     -10.669  15.102  65.472  1.00  0.00    -0.379 C  
BRANCH   5   6
HETATM    6  C   UNL     1     -10.511  13.715  64.855  1.00  0.00    -0.426 C  
BRANCH   6   7
HETATM    7  C   UNL     1     -11.284  12.683  65.666  1.00  0.00    -0.344 C  
BRANCH   7   8
HETATM    8  C   UNL     1     -11.480  13.145  67.112  1.00  0.00    -0.378 C  
BRANCH   8   9
HETATM    9  C   UNL     1     -11.346  11.996  68.076  1.00  0.00    -0.358 A  
HETATM   10  C   UNL     1     -11.835  12.122  69.379  1.00  0.00    -0.370 A  
HETATM   11  C   UNL     1     -11.666  11.094  70.300  1.00  0.00    -0.431 A  
HETATM   12  C   UNL     1     -11.045   9.895  69.934  1.00  0.00    -0.318 A  
HETATM   13  C   UNL     1     -10.714  10.807  67.701  1.00  0.00    -0.305 A  
HETATM   14  C   UNL     1     -10.567   9.766  68.622  1.00  0.00    -0.249 A  
BRANCH  12  15
HETATM   15  C   UNL     1     -10.797   8.785  70.931  1.00  0.00    -0.293 C  
BRANCH  15  16
HETATM   16  C   UNL     1     -10.720   7.385  70.298  1.00  0.00    -0.250 C  
HETATM   17  C   UNL     1     -10.473   6.178  71.235  1.00  0.00    -0.224 C  
HETATM   18  C   UNL     1     -10.396   4.907  70.339  1.00  0.00    -0.178 C  
HETATM   19  N   UNL     1      -9.178   6.310  71.956  1.00  0.00    -0.146 NA 
HETATM   20  C   UNL     1     -11.621   5.987  72.264  1.00  0.00    -0.307 C  
HETATM   21  O   UNL     1     -10.086   3.752  71.116  1.00  0.00    -0.128 OA 
HETATM   22  O   UNL     1     -11.699   7.070  73.187  1.00  0.00    -0.501 OA 
HETATM   23  H1  UNL     1      -9.015   5.514  72.574  1.00  0.00     0.000 HD 
HETATM   24  H2  UNL     1      -9.120   7.194  72.462  1.00  0.00     0.000 HD 
HETATM   25  H   UNL     1     -12.402   6.953  73.816  1.00  0.00     0.000 HD 
HETATM   26  H   UNL     1     -10.039   2.977  70.569  1.00  0.00     0.000 HD 
ENDBRANCH  15  16
ENDBRANCH  12  15
ENDBRANCH   8   9
ENDBRANCH   7   8
ENDBRANCH   6   7
ENDBRANCH   5   6
ENDBRANCH   4   5
ENDBRANCH   3   4
ENDBRANCH   2   3
TORSDOF 9
ENDMDL
MODEL      141
REMARK 921   NORMALIZED FREE ENERGY PREDICTED BY IDOCK:   -4.24 KCAL/MOL
REMARK 922        TOTAL FREE ENERGY PREDICTED BY IDOCK:   -7.58 KCAL/MOL
REMARK 923 INTER-LIGAND FREE ENERGY PREDICTED BY IDOCK:   -6.39 KCAL/MOL
REMARK 924 INTRA-LIGAND FREE ENERGY PREDICTED BY IDOCK:   -1.19 KCAL/MOL
REMARK 927      BINDING AFFINITY PREDICTED BY RF-SCORE:    0.00 PKD
ROOT
HETATM    1  C   UNL     1     -12.071  16.070  71.969  1.00  0.00    -0.606 C  
HETATM    2  C   UNL     1     -11.995  14.828  71.098  1.00  0.00    -0.392 C  
ENDROOT
BRANCH   2   3
HETATM    3  C   UNL     1     -12.984  13.764  71.565  1.00  0.00    -0.444 C  
BRANCH   3   4
HETATM    4  C   UNL     1     -12.618  12.395  71.001  1.00  0.00    -0.349 C  
BRANCH   4   5
HETATM    5  C   UNL     1     -13.151  11.280  71.894  1.00  0.00    -0.510 C  
BRANCH   5   6
HETATM    6  C   UNL     1     -12.720   9.911  71.376  1.00  0.00    -0.503 C  
BRANCH   6   7
HETATM    7  C   UNL     1     -11.213   9.879  71.152  1.00  0.00    -0.404 C  
BRANCH   7   8
HETATM    8  C   UNL     1     -10.873   9.514  69.705  1.00  0.00    -0.264 C  
BRANCH   8   9
HETATM    9  C   UNL     1      -9.987  10.556  69.073  1.00  0.00    -0.223 A  
HETATM   10  C   UNL     1      -8.598  10.413  69.130  1.00  0.00    -0.169 A  
HETATM   11  C   UNL     1      -7.764  11.395  68.605  1.00  0.00    -0.137 A  
HETATM   12  C   UNL     1      -8.293  12.523  67.970  1.00  0.00    -0.171 A  
HETATM   13  C   UNL     1     -10.528  11.684  68.450  1.00  0.00    -0.230 A  
HETATM   14  C   UNL     1      -9.687  12.657  67.903  1.00  0.00    -0.216 A  
BRANCH  12  15
HETATM   15  C   UNL     1      -7.410  13.632  67.443  1.00  0.00    -0.127 C  
BRANCH  15  16
HETATM   16  C   UNL     1      -7.462  14.922  68.279  1.00  0.00    -0.113 C  
HETATM   17  C   UNL     1      -7.685  16.261  67.535  1.00  0.00    -0.146 C  
HETATM   18  C   UNL     1      -7.651  17.393  68.603  1.00  0.00    -0.265 C  
HETATM   19  N   UNL     1      -6.596  16.522  66.555  1.00  0.00    -0.235 NA 
HETATM   20  C   UNL     1      -9.057  16.309  66.809  1.00  0.00    -0.232 C  
HETATM   21  O   UNL     1      -7.765  18.676  67.992  1.00  0.00    -0.251 OA 
HETATM   22  O   UNL     1      -9.136  15.361  65.748  1.00  0.00    -0.409 OA 
HETATM   23  H1  UNL     1      -6.743  17.404  66.064  1.00  0.00     0.000 HD 
HETATM   24  H2  UNL     1      -6.486  15.745  65.903  1.00  0.00     0.000 HD 
HETATM   25  H   UNL     1      -9.976  15.391  65.304  1.00  0.00     0.000 HD 
HETATM   26  H   UNL     1      -7.744  19.367  68.643  1.00  0.00     0.000 HD 
ENDBRANCH  15  16
ENDBRANCH  12  15
ENDBRANCH   8   9
ENDBRANCH   7   8
ENDBRANCH   6   7
ENDBRANCH   5   6
ENDBRANCH   4   5
ENDBRANCH   3   4
ENDBRANCH   2   3
TORSDOF 9
ENDMDL
MODEL      142
REMARK 921   NORMALIZED FREE ENERGY PREDICTED BY IDOCK:   -4.21 KCAL/MOL
REMARK 922        TOTAL FREE ENERGY PREDICTED BY IDOCK:   -7.53 KCAL/MOL
REMARK 923 INTER-LIGAND FREE ENERGY PREDICTED BY IDOCK:   -6.12 KCAL/MOL
REMARK 924 INTRA-LIGAND FREE ENERGY PREDICTED BY IDOCK:   -1.40 KCAL/MOL
REMARK 927      BINDING AFFINITY PREDICTED BY RF-SCORE:    0.00 PKD
ROOT
HETATM    1  C   UNL     1      -7.613  10.213  69.791  1.00  0.00    -0.175 C  
HETATM    2  C   UNL     1      -6.245   9.569  69.924  1.00  0.00    -0.045 C  
ENDROOT
BRANCH   2   3
HETATM    3  C   UNL     1      -5.873   8.794  68.663  1.00  0.00    -0.044 C  
BRANCH   3   4
HETATM    4  C   UNL     1      -5.338   9.731  67.585  1.00  0.00    -0.036 C  
BRANCH   4   5
HETATM    5  C   UNL     1      -6.220   9.687  66.342  1.00  0.00    -0.068 C  
BRANCH   5   6
HETATM    6  C   UNL     1      -7.049   8.406  66.305  1.00  0.00    -0.077 C  
BRANCH   6   7
HETATM    7  C   UNL     1      -8.349   8.637  65.546  1.00  0.00    -0.157 C  
BRANCH   7   8
HETATM    8  C   UNL     1      -9.531   8.806  66.504  1.00  0.00    -0.281 C  
BRANCH   8   9
HETATM    9  C   UNL     1     -10.248  10.109  66.263  1.00  0.00    -0.288 A  
HETATM   10  C   UNL     1     -10.237  10.682  64.988  1.00  0.00    -0.380 A  
HETATM   11  C   UNL     1     -10.841  11.913  64.761  1.00  0.00    -0.359 A  
HETATM   12  C   UNL     1     -11.512  12.585  65.789  1.00  0.00    -0.407 A  
HETATM   13  C   UNL     1     -10.906  10.776  67.300  1.00  0.00    -0.344 A  
HETATM   14  C   UNL     1     -11.533  12.001  67.063  1.00  0.00    -0.402 A  
BRANCH  12  15
HETATM   15  C   UNL     1     -12.128  13.952  65.582  1.00  0.00    -0.442 C  
BRANCH  15  16
HETATM   16  C   UNL     1     -11.690  14.996  66.623  1.00  0.00    -0.144 C  
HETATM   17  C   UNL     1     -10.578  15.996  66.223  1.00  0.00    -0.285 C  
HETATM   18  C   UNL     1     -10.302  16.898  67.461  1.00  0.00    -0.318 C  
HETATM   19  N   UNL     1      -9.314  15.290  65.879  1.00  0.00    -0.409 NA 
HETATM   20  C   UNL     1     -11.002  16.904  65.036  1.00  0.00    -0.046 C  
HETATM   21  O   UNL     1      -9.227  17.799  67.208  1.00  0.00    -0.247 OA 
HETATM   22  O   UNL     1     -11.184  16.163  63.833  1.00  0.00    -1.167 OA 
HETATM   23  H1  UNL     1      -8.581  15.948  65.616  1.00  0.00     0.000 HD 
HETATM   24  H2  UNL     1      -9.463  14.587  65.156  1.00  0.00     0.000 HD 
HETATM   25  H   UNL     1     -11.443  16.719  63.107  1.00  0.00     0.000 HD 
HETATM   26  H   UNL     1      -9.058  18.350  67.963  1.00  0.00     0.000 HD 
ENDBRANCH  15  16
ENDBRANCH  12  15
ENDBRANCH   8   9
ENDBRANCH   7   8
ENDBRANCH   6   7
ENDBRANCH   5   6
ENDBRANCH   4   5
ENDBRANCH   3   4
ENDBRANCH   2   3
TORSDOF 9
ENDMDL
MODEL      143
REMARK 921   NORMALIZED FREE ENERGY PREDICTED BY IDOCK:   -4.20 KCAL/MOL
REMARK 922        TOTAL FREE ENERGY PREDICTED BY IDOCK:   -7.52 KCAL/MOL
REMARK 923 INTER-LIGAND FREE ENERGY PREDICTED BY IDOCK:   -6.64 KCAL/MOL
REMARK 924 INTRA-LIGAND FREE ENERGY PREDICTED BY IDOCK:   -0.88 KCAL/MOL
REMARK 927      BINDING AFFINITY PREDICTED BY RF-SCORE:    0.00 PKD
ROOT
HETATM    1  C   UNL     1     -10.009   4.929  71.704  1.00  0.00    -0.255 C  
HETATM    2  C   UNL     1     -10.671   6.267  71.980  1.00  0.00    -0.268 C  
ENDROOT
BRANCH   2   3
HETATM    3  C   UNL     1     -11.734   6.584  70.932  1.00  0.00    -0.416 C  
BRANCH   3   4
HETATM    4  C   UNL     1     -11.320   6.062  69.560  1.00  0.00    -0.306 C  
BRANCH   4   5
HETATM    5  C   UNL     1     -10.882   7.207  68.653  1.00  0.00    -0.149 C  
BRANCH   5   6
HETATM    6  C   UNL     1     -10.453   6.685  67.284  1.00  0.00    -0.342 C  
BRANCH   6   7
HETATM    7  C   UNL     1      -9.608   7.726  66.561  1.00  0.00    -0.270 C  
BRANCH   7   8
HETATM    8  C   UNL     1      -9.097   8.797  67.528  1.00  0.00    -0.146 C  
BRANCH   8   9
HETATM    9  C   UNL     1      -9.386  10.182  67.011  1.00  0.00    -0.178 A  
HETATM   10  C   UNL     1      -9.100  11.294  67.807  1.00  0.00    -0.152 A  
HETATM   11  C   UNL     1      -9.415  12.577  67.371  1.00  0.00    -0.184 A  
HETATM   12  C   UNL     1      -9.984  12.787  66.111  1.00  0.00    -0.272 A  
HETATM   13  C   UNL     1      -9.964  10.379  65.754  1.00  0.00    -0.334 A  
HETATM   14  C   UNL     1     -10.258  11.671  65.308  1.00  0.00    -0.316 A  
BRANCH  12  15
HETATM   15  C   UNL     1     -10.389  14.166  65.636  1.00  0.00    -0.348 C  
BRANCH  15  16
HETATM   16  C   UNL     1     -10.571  15.187  66.772  1.00  0.00    -0.298 C  
HETATM   17  C   UNL     1     -10.299  16.678  66.457  1.00  0.00    -0.299 C  
HETATM   18  C   UNL     1     -10.512  17.474  67.778  1.00  0.00    -0.381 C  
HETATM   19  N   UNL     1      -8.895  16.890  66.014  1.00  0.00    -0.515 NA 
HETATM   20  C   UNL     1     -11.271  17.238  65.382  1.00  0.00     0.475 C  
HETATM   21  O   UNL     1     -10.200  18.854  67.599  1.00  0.00    -0.350 OA 
HETATM   22  O   UNL     1     -11.075  16.624  64.111  1.00  0.00    -1.338 OA 
HETATM   23  H1  UNL     1      -8.716  17.872  65.807  1.00  0.00     0.000 HD 
HETATM   24  H2  UNL     1      -8.658  16.291  65.224  1.00  0.00     0.000 HD 
HETATM   25  H   UNL     1     -11.670  16.967  63.453  1.00  0.00     0.000 HD 
HETATM   26  H   UNL     1     -10.330  19.340  68.404  1.00  0.00     0.000 HD 
ENDBRANCH  15  16
ENDBRANCH  12  15
ENDBRANCH   8   9
ENDBRANCH   7   8
ENDBRANCH   6   7
ENDBRANCH   5   6
ENDBRANCH   4   5
ENDBRANCH   3   4
ENDBRANCH   2   3
TORSDOF 9
ENDMDL
MODEL      144
REMARK 921   NORMALIZED FREE ENERGY PREDICTED BY IDOCK:   -4.20 KCAL/MOL
REMARK 922        TOTAL FREE ENERGY PREDICTED BY IDOCK:   -7.52 KCAL/MOL
REMARK 923 INTER-LIGAND FREE ENERGY PREDICTED BY IDOCK:   -5.25 KCAL/MOL
REMARK 924 INTRA-LIGAND FREE ENERGY PREDICTED BY IDOCK:   -2.27 KCAL/MOL
REMARK 927      BINDING AFFINITY PREDICTED BY RF-SCORE:    0.00 PKD
ROOT
HETATM    1  C   UNL     1      -9.904  11.989  67.509  1.00  0.00    -0.190 C  
HETATM    2  C   UNL     1      -9.117  10.693  67.426  1.00  0.00    -0.146 C  
ENDROOT
BRANCH   2   3
HETATM    3  C   UNL     1     -10.045   9.491  67.274  1.00  0.00    -0.272 C  
BRANCH   3   4
HETATM    4  C   UNL     1      -9.722   8.710  66.004  1.00  0.00    -0.238 C  
BRANCH   4   5
HETATM    5  C   UNL     1      -8.458   9.248  65.343  1.00  0.00    -0.157 C  
BRANCH   5   6
HETATM    6  C   UNL     1      -7.463   8.123  65.071  1.00  0.00    -0.087 C  
BRANCH   6   7
HETATM    7  C   UNL     1      -6.457   8.017  66.211  1.00  0.00    -0.047 C  
BRANCH   7   8
HETATM    8  C   UNL     1      -6.438   6.606  66.805  1.00  0.00    -0.043 C  
BRANCH   8   9
HETATM    9  C   UNL     1      -7.607   6.387  67.729  1.00  0.00    -0.102 A  
HETATM   10  C   UNL     1      -8.604   5.470  67.381  1.00  0.00    -0.108 A  
HETATM   11  C   UNL     1      -9.720   5.298  68.192  1.00  0.00    -0.184 A  
HETATM   12  C   UNL     1      -9.852   6.004  69.393  1.00  0.00    -0.203 A  
HETATM   13  C   UNL     1      -7.733   7.105  68.921  1.00  0.00    -0.113 A  
HETATM   14  C   UNL     1      -8.845   6.913  69.745  1.00  0.00    -0.141 A  
BRANCH  12  15
HETATM   15  C   UNL     1     -11.083   5.879  70.263  1.00  0.00    -0.368 C  
BRANCH  15  16
HETATM   16  C   UNL     1     -11.802   7.213  70.522  1.00  0.00    -0.286 C  
HETATM   17  C   UNL     1     -12.273   7.516  71.965  1.00  0.00    -0.280 C  
HETATM   18  C   UNL     1     -12.999   8.893  71.933  1.00  0.00    -0.382 C  
HETATM   19  N   UNL     1     -13.245   6.496  72.441  1.00  0.00    -0.374 NA 
HETATM   20  C   UNL     1     -11.087   7.607  72.964  1.00  0.00    -0.381 C  
HETATM   21  O   UNL     1     -13.542   9.214  73.212  1.00  0.00    -0.935 OA 
HETATM   22  O   UNL     1     -10.423   6.356  73.123  1.00  0.00    -0.213 OA 
HETATM   23  H1  UNL     1     -13.556   6.695  73.393  1.00  0.00     0.000 HD 
HETATM   24  H2  UNL     1     -12.866   5.553  72.362  1.00  0.00     0.000 HD 
HETATM   25  H   UNL     1      -9.697   6.412  73.734  1.00  0.00     0.000 HD 
HETATM   26  H   UNL     1     -13.985  10.054  73.193  1.00  0.00     0.000 HD 
ENDBRANCH  15  16
ENDBRANCH  12  15
ENDBRANCH   8   9
ENDBRANCH   7   8
ENDBRANCH   6   7
ENDBRANCH   5   6
ENDBRANCH   4   5
ENDBRANCH   3   4
ENDBRANCH   2   3
TORSDOF 9
ENDMDL
MODEL      145
REMARK 921   NORMALIZED FREE ENERGY PREDICTED BY IDOCK:   -4.20 KCAL/MOL
REMARK 922        TOTAL FREE ENERGY PREDICTED BY IDOCK:   -7.51 KCAL/MOL
REMARK 923 INTER-LIGAND FREE ENERGY PREDICTED BY IDOCK:   -5.66 KCAL/MOL
REMARK 924 INTRA-LIGAND FREE ENERGY PREDICTED BY IDOCK:   -1.85 KCAL/MOL
REMARK 927      BINDING AFFINITY PREDICTED BY RF-SCORE:    0.00 PKD
ROOT
HETATM    1  C   UNL     1     -10.035   9.732  66.427  1.00  0.00    -0.314 C  
HETATM    2  C   UNL     1     -10.796  10.638  67.379  1.00  0.00    -0.353 C  
ENDROOT
BRANCH   2   3
HETATM    3  C   UNL     1      -9.936  11.027  68.578  1.00  0.00    -0.198 C  
BRANCH   3   4
HETATM    4  C   UNL     1     -10.804  11.341  69.793  1.00  0.00    -0.089 C  
BRANCH   4   5
HETATM    5  C   UNL     1     -12.168  10.670  69.672  1.00  0.00    -0.277 C  
BRANCH   5   6
HETATM    6  C   UNL     1     -12.546   9.964  70.972  1.00  0.00    -0.431 C  
BRANCH   6   7
HETATM    7  C   UNL     1     -11.346   9.212  71.535  1.00  0.00    -0.439 C  
BRANCH   7   8
HETATM    8  C   UNL     1     -11.485   7.703  71.319  1.00  0.00    -0.293 C  
BRANCH   8   9
HETATM    9  C   UNL     1     -10.766   7.262  70.071  1.00  0.00    -0.261 A  
HETATM   10  C   UNL     1     -11.312   6.251  69.276  1.00  0.00    -0.411 A  
HETATM   11  C   UNL     1     -10.632   5.789  68.153  1.00  0.00    -0.286 A  
HETATM   12  C   UNL     1      -9.412   6.355  67.770  1.00  0.00    -0.115 A  
HETATM   13  C   UNL     1      -9.542   7.828  69.703  1.00  0.00    -0.163 A  
HETATM   14  C   UNL     1      -8.873   7.378  68.561  1.00  0.00    -0.126 A  
BRANCH  12  15
HETATM   15  C   UNL     1      -8.625   5.832  66.587  1.00  0.00    -0.118 C  
BRANCH  15  16
HETATM   16  C   UNL     1      -8.869   4.344  66.285  1.00  0.00    -0.114 C  
HETATM   17  C   UNL     1      -9.627   3.983  64.985  1.00  0.00    -0.180 C  
HETATM   18  C   UNL     1      -9.773   2.433  64.952  1.00  0.00     0.088 C  
HETATM   19  N   UNL     1     -10.993   4.572  64.974  1.00  0.00    -0.787 NA 
HETATM   20  C   UNL     1      -8.860   4.433  63.712  1.00  0.00    -0.139 C  
HETATM   21  O   UNL     1     -10.537   2.015  63.823  1.00  0.00    -0.323 OA 
HETATM   22  O   UNL     1      -8.764   5.851  63.617  1.00  0.00    -0.336 OA 
HETATM   23  H1  UNL     1     -11.493   4.334  64.117  1.00  0.00     0.000 HD 
HETATM   24  H2  UNL     1     -10.967   5.581  65.124  1.00  0.00     0.000 HD 
HETATM   25  H   UNL     1      -8.294   6.126  62.838  1.00  0.00     0.000 HD 
HETATM   26  H   UNL     1     -10.626   1.070  63.803  1.00  0.00     0.000 HD 
ENDBRANCH  15  16
ENDBRANCH  12  15
ENDBRANCH   8   9
ENDBRANCH   7   8
ENDBRANCH   6   7
ENDBRANCH   5   6
ENDBRANCH   4   5
ENDBRANCH   3   4
ENDBRANCH   2   3
TORSDOF 9
ENDMDL
MODEL      146
REMARK 921   NORMALIZED FREE ENERGY PREDICTED BY IDOCK:   -4.20 KCAL/MOL
REMARK 922        TOTAL FREE ENERGY PREDICTED BY IDOCK:   -7.51 KCAL/MOL
REMARK 923 INTER-LIGAND FREE ENERGY PREDICTED BY IDOCK:   -6.72 KCAL/MOL
REMARK 924 INTRA-LIGAND FREE ENERGY PREDICTED BY IDOCK:   -0.79 KCAL/MOL
REMARK 927      BINDING AFFINITY PREDICTED BY RF-SCORE:    0.00 PKD
ROOT
HETATM    1  C   UNL     1     -12.112  14.371  64.219  1.00  0.00    -0.461 C  
HETATM    2  C   UNL     1     -10.716  14.466  64.808  1.00  0.00    -0.423 C  
ENDROOT
BRANCH   2   3
HETATM    3  C   UNL     1     -10.526  13.463  65.943  1.00  0.00    -0.287 C  
BRANCH   3   4
HETATM    4  C   UNL     1     -10.656  14.146  67.301  1.00  0.00    -0.277 C  
BRANCH   4   5
HETATM    5  C   UNL     1     -12.017  13.857  67.925  1.00  0.00    -0.393 C  
BRANCH   5   6
HETATM    6  C   UNL     1     -11.867  13.395  69.372  1.00  0.00    -0.390 C  
BRANCH   6   7
HETATM    7  C   UNL     1     -11.305  11.980  69.421  1.00  0.00    -0.317 C  
BRANCH   7   8
HETATM    8  C   UNL     1     -12.332  10.993  69.981  1.00  0.00    -0.377 C  
BRANCH   8   9
HETATM    9  C   UNL     1     -11.673   9.953  70.850  1.00  0.00    -0.449 A  
HETATM   10  C   UNL     1     -12.451   9.170  71.707  1.00  0.00    -0.447 A  
HETATM   11  C   UNL     1     -11.853   8.248  72.560  1.00  0.00    -0.439 A  
HETATM   12  C   UNL     1     -10.469   8.051  72.548  1.00  0.00    -0.383 A  
HETATM   13  C   UNL     1     -10.287   9.773  70.837  1.00  0.00    -0.245 A  
HETATM   14  C   UNL     1      -9.692   8.828  71.678  1.00  0.00    -0.366 A  
BRANCH  12  15
HETATM   15  C   UNL     1      -9.789   7.096  73.506  1.00  0.00    -0.322 C  
BRANCH  15  16
HETATM   16  C   UNL     1     -10.606   5.828  73.805  1.00  0.00    -0.285 C  
HETATM   17  C   UNL     1     -10.160   4.504  73.140  1.00  0.00    -0.156 C  
HETATM   18  C   UNL     1     -11.174   3.406  73.574  1.00  0.00    -0.180 C  
HETATM   19  N   UNL     1     -10.199   4.604  71.656  1.00  0.00    -0.188 NA 
HETATM   20  C   UNL     1      -8.739   4.068  73.592  1.00  0.00    -0.094 C  
HETATM   21  O   UNL     1     -10.886   2.163  72.936  1.00  0.00    -0.154 OA 
HETATM   22  O   UNL     1      -7.734   4.977  73.150  1.00  0.00    -0.091 OA 
HETATM   23  H1  UNL     1      -9.905   3.732  71.217  1.00  0.00     0.000 HD 
HETATM   24  H2  UNL     1      -9.650   5.395  71.320  1.00  0.00     0.000 HD 
HETATM   25  H   UNL     1      -6.864   4.710  73.427  1.00  0.00     0.000 HD 
HETATM   26  H   UNL     1     -11.505   1.493  73.201  1.00  0.00     0.000 HD 
ENDBRANCH  15  16
ENDBRANCH  12  15
ENDBRANCH   8   9
ENDBRANCH   7   8
ENDBRANCH   6   7
ENDBRANCH   5   6
ENDBRANCH   4   5
ENDBRANCH   3   4
ENDBRANCH   2   3
TORSDOF 9
ENDMDL
MODEL      147
REMARK 921   NORMALIZED FREE ENERGY PREDICTED BY IDOCK:   -4.19 KCAL/MOL
REMARK 922        TOTAL FREE ENERGY PREDICTED BY IDOCK:   -7.51 KCAL/MOL
REMARK 923 INTER-LIGAND FREE ENERGY PREDICTED BY IDOCK:   -5.66 KCAL/MOL
REMARK 924 INTRA-LIGAND FREE ENERGY PREDICTED BY IDOCK:   -1.85 KCAL/MOL
REMARK 927      BINDING AFFINITY PREDICTED BY RF-SCORE:    0.00 PKD
ROOT
HETATM    1  C   UNL     1     -13.348  13.222  71.206  1.00  0.00    -0.150 C  
HETATM    2  C   UNL     1     -12.264  14.217  71.578  1.00  0.00    -0.378 C  
ENDROOT
BRANCH   2   3
HETATM    3  C   UNL     1     -11.309  14.457  70.413  1.00  0.00    -0.148 C  
BRANCH   3   4
HETATM    4  C   UNL     1     -12.072  14.883  69.162  1.00  0.00    -0.267 C  
BRANCH   4   5
HETATM    5  C   UNL     1     -11.129  15.504  68.137  1.00  0.00    -0.325 C  
BRANCH   5   6
HETATM    6  C   UNL     1     -11.118  14.693  66.844  1.00  0.00    -0.333 C  
BRANCH   6   7
HETATM    7  C   UNL     1     -12.330  13.772  66.785  1.00  0.00    -0.365 C  
BRANCH   7   8
HETATM    8  C   UNL     1     -11.943  12.375  66.291  1.00  0.00    -0.369 C  
BRANCH   8   9
HETATM    9  C   UNL     1     -11.267  11.580  67.377  1.00  0.00    -0.367 A  
HETATM   10  C   UNL     1     -12.001  11.161  68.490  1.00  0.00    -0.250 A  
HETATM   11  C   UNL     1     -11.380  10.478  69.531  1.00  0.00    -0.341 A  
HETATM   12  C   UNL     1     -10.020  10.157  69.469  1.00  0.00    -0.257 A  
HETATM   13  C   UNL     1      -9.905  11.274  67.309  1.00  0.00    -0.203 A  
HETATM   14  C   UNL     1      -9.289  10.567  68.345  1.00  0.00    -0.158 A  
BRANCH  12  15
HETATM   15  C   UNL     1      -9.308   9.467  70.612  1.00  0.00    -0.314 C  
BRANCH  15  16
HETATM   16  C   UNL     1     -10.247   8.696  71.555  1.00  0.00    -0.345 C  
HETATM   17  C   UNL     1     -10.167   7.150  71.554  1.00  0.00    -0.197 C  
HETATM   18  C   UNL     1     -11.242   6.632  72.554  1.00  0.00    -0.266 C  
HETATM   19  N   UNL     1     -10.484   6.594  70.211  1.00  0.00    -0.202 NA 
HETATM   20  C   UNL     1      -8.776   6.632  72.013  1.00  0.00    -0.127 C  
HETATM   21  O   UNL     1     -11.295   5.207  72.554  1.00  0.00    -0.209 OA 
HETATM   22  O   UNL     1      -7.743   6.985  71.097  1.00  0.00    -0.089 OA 
HETATM   23  H1  UNL     1     -10.431   5.575  70.209  1.00  0.00     0.000 HD 
HETATM   24  H2  UNL     1      -9.889   7.000  69.488  1.00  0.00     0.000 HD 
HETATM   25  H   UNL     1      -6.893   6.668  71.379  1.00  0.00     0.000 HD 
HETATM   26  H   UNL     1     -11.951   4.891  73.164  1.00  0.00     0.000 HD 
ENDBRANCH  15  16
ENDBRANCH  12  15
ENDBRANCH   8   9
ENDBRANCH   7   8
ENDBRANCH   6   7
ENDBRANCH   5   6
ENDBRANCH   4   5
ENDBRANCH   3   4
ENDBRANCH   2   3
TORSDOF 9
ENDMDL
MODEL      148
REMARK 921   NORMALIZED FREE ENERGY PREDICTED BY IDOCK:   -4.18 KCAL/MOL
REMARK 922        TOTAL FREE ENERGY PREDICTED BY IDOCK:   -7.49 KCAL/MOL
REMARK 923 INTER-LIGAND FREE ENERGY PREDICTED BY IDOCK:   -6.31 KCAL/MOL
REMARK 924 INTRA-LIGAND FREE ENERGY PREDICTED BY IDOCK:   -1.18 KCAL/MOL
REMARK 927      BINDING AFFINITY PREDICTED BY RF-SCORE:    0.00 PKD
ROOT
HETATM    1  C   UNL     1     -10.279   3.705  64.015  1.00  0.00    -0.232 C  
HETATM    2  C   UNL     1      -9.162   2.932  64.695  1.00  0.00    -0.144 C  
ENDROOT
BRANCH   2   3
HETATM    3  C   UNL     1      -9.132   3.209  66.195  1.00  0.00    -0.153 C  
BRANCH   3   4
HETATM    4  C   UNL     1      -8.118   4.299  66.528  1.00  0.00    -0.102 C  
BRANCH   4   5
HETATM    5  C   UNL     1      -8.733   5.350  67.446  1.00  0.00    -0.107 C  
BRANCH   5   6
HETATM    6  C   UNL     1     -10.256   5.254  67.443  1.00  0.00    -0.240 C  
BRANCH   6   7
HETATM    7  C   UNL     1     -10.869   6.569  66.978  1.00  0.00    -0.465 C  
BRANCH   7   8
HETATM    8  C   UNL     1      -9.798   7.647  66.793  1.00  0.00    -0.307 C  
BRANCH   8   9
HETATM    9  C   UNL     1     -10.360   9.023  67.040  1.00  0.00    -0.339 A  
HETATM   10  C   UNL     1     -10.309   9.985  66.028  1.00  0.00    -0.222 A  
HETATM   11  C   UNL     1     -10.768  11.278  66.258  1.00  0.00    -0.312 A  
HETATM   12  C   UNL     1     -11.330  11.632  67.489  1.00  0.00    -0.364 A  
HETATM   13  C   UNL     1     -10.910   9.368  68.277  1.00  0.00    -0.163 A  
HETATM   14  C   UNL     1     -11.392  10.661  68.498  1.00  0.00    -0.348 A  
BRANCH  12  15
HETATM   15  C   UNL     1     -11.783  13.046  67.784  1.00  0.00    -0.405 C  
BRANCH  15  16
HETATM   16  C   UNL     1     -11.641  14.007  66.591  1.00  0.00    -0.400 C  
HETATM   17  C   UNL     1     -10.665  15.200  66.733  1.00  0.00    -0.311 C  
HETATM   18  C   UNL     1     -10.749  16.024  65.416  1.00  0.00    -0.383 C  
HETATM   19  N   UNL     1     -11.060  16.090  67.858  1.00  0.00    -0.331 NA 
HETATM   20  C   UNL     1      -9.195  14.737  66.932  1.00  0.00    -0.245 C  
HETATM   21  O   UNL     1      -9.940  17.195  65.493  1.00  0.00    -0.565 OA 
HETATM   22  O   UNL     1      -9.012  14.052  68.168  1.00  0.00    -0.171 OA 
HETATM   23  H1  UNL     1     -10.417  16.877  67.952  1.00  0.00     0.000 HD 
HETATM   24  H2  UNL     1     -11.148  15.572  68.732  1.00  0.00     0.000 HD 
HETATM   25  H   UNL     1      -8.113  13.769  68.289  1.00  0.00     0.000 HD 
HETATM   26  H   UNL     1      -9.991  17.698  64.688  1.00  0.00     0.000 HD 
ENDBRANCH  15  16
ENDBRANCH  12  15
ENDBRANCH   8   9
ENDBRANCH   7   8
ENDBRANCH   6   7
ENDBRANCH   5   6
ENDBRANCH   4   5
ENDBRANCH   3   4
ENDBRANCH   2   3
TORSDOF 9
ENDMDL
MODEL      149
REMARK 921   NORMALIZED FREE ENERGY PREDICTED BY IDOCK:   -4.18 KCAL/MOL
REMARK 922        TOTAL FREE ENERGY PREDICTED BY IDOCK:   -7.49 KCAL/MOL
REMARK 923 INTER-LIGAND FREE ENERGY PREDICTED BY IDOCK:   -5.73 KCAL/MOL
REMARK 924 INTRA-LIGAND FREE ENERGY PREDICTED BY IDOCK:   -1.76 KCAL/MOL
REMARK 927      BINDING AFFINITY PREDICTED BY RF-SCORE:    0.00 PKD
ROOT
HETATM    1  C   UNL     1     -10.506   7.366  73.571  1.00  0.00    -0.396 C  
HETATM    2  C   UNL     1      -9.488   8.047  72.673  1.00  0.00    -0.317 C  
ENDROOT
BRANCH   2   3
HETATM    3  C   UNL     1      -9.580   7.528  71.241  1.00  0.00    -0.165 C  
BRANCH   3   4
HETATM    4  C   UNL     1     -11.035   7.421  70.792  1.00  0.00    -0.272 C  
BRANCH   4   5
HETATM    5  C   UNL     1     -11.286   6.099  70.076  1.00  0.00    -0.471 C  
BRANCH   5   6
HETATM    6  C   UNL     1      -9.990   5.307  69.920  1.00  0.00    -0.309 C  
BRANCH   6   7
HETATM    7  C   UNL     1      -9.726   5.005  68.450  1.00  0.00    -0.209 C  
BRANCH   7   8
HETATM    8  C   UNL     1      -8.540   5.815  67.921  1.00  0.00    -0.101 C  
BRANCH   8   9
HETATM    9  C   UNL     1      -8.957   7.214  67.549  1.00  0.00    -0.121 A  
HETATM   10  C   UNL     1      -8.137   8.295  67.882  1.00  0.00    -0.127 A  
HETATM   11  C   UNL     1      -8.534   9.598  67.600  1.00  0.00    -0.125 A  
HETATM   12  C   UNL     1      -9.739   9.854  66.939  1.00  0.00    -0.236 A  
HETATM   13  C   UNL     1     -10.169   7.459  66.897  1.00  0.00    -0.346 A  
HETATM   14  C   UNL     1     -10.555   8.767  66.594  1.00  0.00    -0.141 A  
BRANCH  12  15
HETATM   15  C   UNL     1     -10.221  11.264  66.672  1.00  0.00    -0.268 C  
BRANCH  15  16
HETATM   16  C   UNL     1      -9.752  12.290  67.717  1.00  0.00    -0.199 C  
HETATM   17  C   UNL     1     -10.044  13.786  67.446  1.00  0.00    -0.244 C  
HETATM   18  C   UNL     1      -9.430  14.597  68.624  1.00  0.00    -0.211 C  
HETATM   19  N   UNL     1      -9.397  14.244  66.187  1.00  0.00    -0.492 NA 
HETATM   20  C   UNL     1     -11.567  14.086  67.383  1.00  0.00    -0.368 C  
HETATM   21  O   UNL     1      -9.581  15.999  68.414  1.00  0.00    -0.200 OA 
HETATM   22  O   UNL     1     -12.193  13.453  66.270  1.00  0.00    -0.414 OA 
HETATM   23  H1  UNL     1      -9.590  15.230  66.008  1.00  0.00     0.000 HD 
HETATM   24  H2  UNL     1      -9.666  13.661  65.395  1.00  0.00     0.000 HD 
HETATM   25  H   UNL     1     -13.124  13.637  66.232  1.00  0.00     0.000 HD 
HETATM   26  H   UNL     1      -9.205  16.494  69.133  1.00  0.00     0.000 HD 
ENDBRANCH  15  16
ENDBRANCH  12  15
ENDBRANCH   8   9
ENDBRANCH   7   8
ENDBRANCH   6   7
ENDBRANCH   5   6
ENDBRANCH   4   5
ENDBRANCH   3   4
ENDBRANCH   2   3
TORSDOF 9
ENDMDL
MODEL      150
REMARK 921   NORMALIZED FREE ENERGY PREDICTED BY IDOCK:   -4.17 KCAL/MOL
REMARK 922        TOTAL FREE ENERGY PREDICTED BY IDOCK:   -7.48 KCAL/MOL
REMARK 923 INTER-LIGAND FREE ENERGY PREDICTED BY IDOCK:   -5.66 KCAL/MOL
REMARK 924 INTRA-LIGAND FREE ENERGY PREDICTED BY IDOCK:   -1.82 KCAL/MOL
REMARK 927      BINDING AFFINITY PREDICTED BY RF-SCORE:    0.00 PKD
ROOT
HETATM    1  C   UNL     1     -10.468   6.872  67.667  1.00  0.00    -0.290 C  
HETATM    2  C   UNL     1      -9.681   5.576  67.588  1.00  0.00    -0.145 C  
ENDROOT
BRANCH   2   3
HETATM    3  C   UNL     1      -8.700   5.453  68.750  1.00  0.00    -0.098 C  
BRANCH   3   4
HETATM    4  C   UNL     1      -8.812   4.084  69.414  1.00  0.00    -0.143 C  
BRANCH   4   5
HETATM    5  C   UNL     1      -9.776   4.130  70.594  1.00  0.00    -0.273 C  
BRANCH   5   6
HETATM    6  C   UNL     1      -9.022   4.302  71.910  1.00  0.00    -0.152 C  
BRANCH   6   7
HETATM    7  C   UNL     1      -8.959   5.775  72.296  1.00  0.00    -0.139 C  
BRANCH   7   8
HETATM    8  C   UNL     1     -10.352   6.330  72.599  1.00  0.00    -0.219 C  
BRANCH   8   9
HETATM    9  C   UNL     1     -10.654   7.539  71.752  1.00  0.00    -0.237 A  
HETATM   10  C   UNL     1      -9.616   8.198  71.088  1.00  0.00    -0.196 A  
HETATM   11  C   UNL     1      -9.867   9.350  70.351  1.00  0.00    -0.313 A  
HETATM   12  C   UNL     1     -11.167   9.851  70.221  1.00  0.00    -0.364 A  
HETATM   13  C   UNL     1     -11.955   8.036  71.638  1.00  0.00    -0.336 A  
HETATM   14  C   UNL     1     -12.208   9.181  70.878  1.00  0.00    -0.239 A  
BRANCH  12  15
HETATM   15  C   UNL     1     -11.458  11.134  69.474  1.00  0.00    -0.374 C  
BRANCH  15  16
HETATM   16  C   UNL     1     -11.364  11.000  67.945  1.00  0.00    -0.381 C  
HETATM   17  C   UNL     1     -10.794  12.196  67.145  1.00  0.00    -0.244 C  
HETATM   18  C   UNL     1     -10.852  11.813  65.638  1.00  0.00    -0.292 C  
HETATM   19  N   UNL     1     -11.619  13.419  67.340  1.00  0.00    -0.333 NA 
HETATM   20  C   UNL     1      -9.318  12.504  67.519  1.00  0.00    -0.187 C  
HETATM   21  O   UNL     1     -10.421  12.897  64.818  1.00  0.00    -0.318 OA 
HETATM   22  O   UNL     1      -9.188  12.955  68.864  1.00  0.00    -0.386 OA 
HETATM   23  H1  UNL     1     -11.244  14.208  66.813  1.00  0.00     0.000 HD 
HETATM   24  H2  UNL     1     -11.724  13.645  68.329  1.00  0.00     0.000 HD 
HETATM   25  H   UNL     1      -8.285  13.144  69.093  1.00  0.00     0.000 HD 
HETATM   26  H   UNL     1     -10.457  12.663  63.897  1.00  0.00     0.000 HD 
ENDBRANCH  15  16
ENDBRANCH  12  15
ENDBRANCH   8   9
ENDBRANCH   7   8
ENDBRANCH   6   7
ENDBRANCH   5   6
ENDBRANCH   4   5
ENDBRANCH   3   4
ENDBRANCH   2   3
TORSDOF 9
ENDMDL
MODEL      151
REMARK 921   NORMALIZED FREE ENERGY PREDICTED BY IDOCK:   -4.16 KCAL/MOL
REMARK 922        TOTAL FREE ENERGY PREDICTED BY IDOCK:   -7.45 KCAL/MOL
REMARK 923 INTER-LIGAND FREE ENERGY PREDICTED BY IDOCK:   -6.17 KCAL/MOL
REMARK 924 INTRA-LIGAND FREE ENERGY PREDICTED BY IDOCK:   -1.29 KCAL/MOL
REMARK 927      BINDING AFFINITY PREDICTED BY RF-SCORE:    0.00 PKD
ROOT
HETATM    1  C   UNL     1     -11.697  15.582  71.385  1.00  0.00    -0.470 C  
HETATM    2  C   UNL     1     -12.147  14.257  70.796  1.00  0.00    -0.418 C  
ENDROOT
BRANCH   2   3
HETATM    3  C   UNL     1     -12.122  14.292  69.271  1.00  0.00    -0.351 C  
BRANCH   3   4
HETATM    4  C   UNL     1     -11.634  15.646  68.765  1.00  0.00    -0.393 C  
BRANCH   4   5
HETATM    5  C   UNL     1     -10.440  15.479  67.833  1.00  0.00    -0.266 C  
BRANCH   5   6
HETATM    6  C   UNL     1     -10.897  15.277  66.390  1.00  0.00    -0.317 C  
BRANCH   6   7
HETATM    7  C   UNL     1     -10.067  14.190  65.718  1.00  0.00    -0.352 C  
BRANCH   7   8
HETATM    8  C   UNL     1     -10.851  12.880  65.608  1.00  0.00    -0.296 C  
BRANCH   8   9
HETATM    9  C   UNL     1     -10.286  11.827  66.526  1.00  0.00    -0.258 A  
HETATM   10  C   UNL     1     -10.782  10.521  66.473  1.00  0.00    -0.191 A  
HETATM   11  C   UNL     1     -10.315   9.551  67.353  1.00  0.00    -0.319 A  
HETATM   12  C   UNL     1      -9.310   9.846  68.280  1.00  0.00    -0.136 A  
HETATM   13  C   UNL     1      -9.289  12.136  67.455  1.00  0.00    -0.181 A  
HETATM   14  C   UNL     1      -8.805  11.153  68.322  1.00  0.00    -0.155 A  
BRANCH  12  15
HETATM   15  C   UNL     1      -8.826   8.825  69.287  1.00  0.00    -0.140 C  
BRANCH  15  16
HETATM   16  C   UNL     1      -9.843   7.710  69.581  1.00  0.00    -0.181 C  
HETATM   17  C   UNL     1     -10.594   7.752  70.934  1.00  0.00    -0.213 C  
HETATM   18  C   UNL     1     -11.516   6.499  70.989  1.00  0.00    -0.336 C  
HETATM   19  N   UNL     1      -9.649   7.677  72.080  1.00  0.00    -0.153 NA 
HETATM   20  C   UNL     1     -11.479   9.021  71.076  1.00  0.00    -0.295 C  
HETATM   21  O   UNL     1     -12.187   6.412  72.244  1.00  0.00    -0.483 OA 
HETATM   22  O   UNL     1     -10.702  10.214  71.129  1.00  0.00    -0.261 OA 
HETATM   23  H1  UNL     1     -10.144   7.705  72.972  1.00  0.00     0.000 HD 
HETATM   24  H2  UNL     1      -8.936   8.405  72.025  1.00  0.00     0.000 HD 
HETATM   25  H   UNL     1     -11.244  10.990  71.216  1.00  0.00     0.000 HD 
HETATM   26  H   UNL     1     -12.749   5.647  72.277  1.00  0.00     0.000 HD 
ENDBRANCH  15  16
ENDBRANCH  12  15
ENDBRANCH   8   9
ENDBRANCH   7   8
ENDBRANCH   6   7
ENDBRANCH   5   6
ENDBRANCH   4   5
ENDBRANCH   3   4
ENDBRANCH   2   3
TORSDOF 9
ENDMDL
MODEL      152
REMARK 921   NORMALIZED FREE ENERGY PREDICTED BY IDOCK:   -4.15 KCAL/MOL
REMARK 922        TOTAL FREE ENERGY PREDICTED BY IDOCK:   -7.44 KCAL/MOL
REMARK 923 INTER-LIGAND FREE ENERGY PREDICTED BY IDOCK:   -5.48 KCAL/MOL
REMARK 924 INTRA-LIGAND FREE ENERGY PREDICTED BY IDOCK:   -1.97 KCAL/MOL
REMARK 927      BINDING AFFINITY PREDICTED BY RF-SCORE:    0.00 PKD
ROOT
HETATM    1  C   UNL     1     -12.773   7.198  71.190  1.00  0.00    -0.363 C  
HETATM    2  C   UNL     1     -12.096   8.279  72.014  1.00  0.00    -0.402 C  
ENDROOT
BRANCH   2   3
HETATM    3  C   UNL     1     -11.042   7.685  72.944  1.00  0.00    -0.448 C  
BRANCH   3   4
HETATM    4  C   UNL     1     -10.648   6.281  72.496  1.00  0.00    -0.239 C  
BRANCH   4   5
HETATM    5  C   UNL     1      -9.132   6.148  72.399  1.00  0.00    -0.136 C  
BRANCH   5   6
HETATM    6  C   UNL     1      -8.742   5.058  71.405  1.00  0.00    -0.141 C  
BRANCH   6   7
HETATM    7  C   UNL     1      -8.532   5.655  70.018  1.00  0.00    -0.122 C  
BRANCH   7   8
HETATM    8  C   UNL     1      -7.965   7.074  70.104  1.00  0.00    -0.114 C  
BRANCH   8   9
HETATM    9  C   UNL     1      -8.997   8.099  69.712  1.00  0.00    -0.144 A  
HETATM   10  C   UNL     1      -9.842   7.853  68.626  1.00  0.00    -0.177 A  
HETATM   11  C   UNL     1     -10.759   8.813  68.212  1.00  0.00    -0.121 A  
HETATM   12  C   UNL     1     -10.888  10.025  68.897  1.00  0.00    -0.250 A  
HETATM   13  C   UNL     1      -9.109   9.311  70.397  1.00  0.00    -0.288 A  
HETATM   14  C   UNL     1     -10.048  10.264  69.994  1.00  0.00    -0.167 A  
BRANCH  12  15
HETATM   15  C   UNL     1     -11.837  11.109  68.433  1.00  0.00    -0.302 C  
BRANCH  15  16
HETATM   16  C   UNL     1     -12.107  12.194  69.488  1.00  0.00    -0.263 C  
HETATM   17  C   UNL     1     -11.439  13.577  69.294  1.00  0.00    -0.291 C  
HETATM   18  C   UNL     1     -11.840  14.458  70.513  1.00  0.00    -0.299 C  
HETATM   19  N   UNL     1      -9.956  13.464  69.278  1.00  0.00    -0.259 NA 
HETATM   20  C   UNL     1     -11.918  14.285  67.997  1.00  0.00    -0.318 C  
HETATM   21  O   UNL     1     -11.198  15.730  70.459  1.00  0.00    -0.314 OA 
HETATM   22  O   UNL     1     -11.507  13.588  66.823  1.00  0.00    -0.319 OA 
HETATM   23  H1  UNL     1      -9.515  14.375  69.150  1.00  0.00     0.000 HD 
HETATM   24  H2  UNL     1      -9.640  12.794  68.577  1.00  0.00     0.000 HD 
HETATM   25  H   UNL     1     -11.801  14.021  66.030  1.00  0.00     0.000 HD 
HETATM   26  H   UNL     1     -11.442  16.267  71.203  1.00  0.00     0.000 HD 
ENDBRANCH  15  16
ENDBRANCH  12  15
ENDBRANCH   8   9
ENDBRANCH   7   8
ENDBRANCH   6   7
ENDBRANCH   5   6
ENDBRANCH   4   5
ENDBRANCH   3   4
ENDBRANCH   2   3
TORSDOF 9
ENDMDL
MODEL      153
REMARK 921   NORMALIZED FREE ENERGY PREDICTED BY IDOCK:   -4.15 KCAL/MOL
REMARK 922        TOTAL FREE ENERGY PREDICTED BY IDOCK:   -7.44 KCAL/MOL
REMARK 923 INTER-LIGAND FREE ENERGY PREDICTED BY IDOCK:   -6.62 KCAL/MOL
REMARK 924 INTRA-LIGAND FREE ENERGY PREDICTED BY IDOCK:   -0.83 KCAL/MOL
REMARK 927      BINDING AFFINITY PREDICTED BY RF-SCORE:    0.00 PKD
ROOT
HETATM    1  C   UNL     1     -10.507  19.866  66.178  1.00  0.00    -0.581 C  
HETATM    2  C   UNL     1     -10.408  19.256  67.564  1.00  0.00    -0.542 C  
ENDROOT
BRANCH   2   3
HETATM    3  C   UNL     1      -9.748  17.881  67.517  1.00  0.00    -0.278 C  
BRANCH   3   4
HETATM    4  C   UNL     1     -10.206  17.016  68.688  1.00  0.00    -0.321 C  
BRANCH   4   5
HETATM    5  C   UNL     1     -10.949  15.780  68.191  1.00  0.00    -0.330 C  
BRANCH   5   6
HETATM    6  C   UNL     1     -12.161  15.482  69.071  1.00  0.00    -0.246 C  
BRANCH   6   7
HETATM    7  C   UNL     1     -11.752  14.630  70.266  1.00  0.00    -0.355 C  
BRANCH   7   8
HETATM    8  C   UNL     1     -12.614  13.369  70.370  1.00  0.00    -0.237 C  
BRANCH   8   9
HETATM    9  C   UNL     1     -11.815  12.134  70.047  1.00  0.00    -0.383 A  
HETATM   10  C   UNL     1     -11.955  10.989  70.837  1.00  0.00    -0.391 A  
HETATM   11  C   UNL     1     -11.181   9.860  70.590  1.00  0.00    -0.416 A  
HETATM   12  C   UNL     1     -10.279   9.827  69.522  1.00  0.00    -0.238 A  
HETATM   13  C   UNL     1     -10.909  12.116  68.983  1.00  0.00    -0.208 A  
HETATM   14  C   UNL     1     -10.150  10.971  68.722  1.00  0.00    -0.214 A  
BRANCH  12  15
HETATM   15  C   UNL     1      -9.385   8.633  69.267  1.00  0.00    -0.153 C  
BRANCH  15  16
HETATM   16  C   UNL     1     -10.122   7.417  68.680  1.00  0.00    -0.186 C  
HETATM   17  C   UNL     1      -9.782   6.993  67.231  1.00  0.00    -0.149 C  
HETATM   18  C   UNL     1     -10.692   5.780  66.880  1.00  0.00    -0.305 C  
HETATM   19  N   UNL     1     -10.079   8.085  66.265  1.00  0.00    -0.481 NA 
HETATM   20  C   UNL     1      -8.299   6.557  67.078  1.00  0.00    -0.113 C  
HETATM   21  O   UNL     1     -10.504   5.374  65.526  1.00  0.00    -0.403 OA 
HETATM   22  O   UNL     1      -7.397   7.640  67.291  1.00  0.00    -0.087 OA 
HETATM   23  H1  UNL     1      -9.855   7.806  65.309  1.00  0.00     0.000 HD 
HETATM   24  H2  UNL     1      -9.607   8.951  66.522  1.00  0.00     0.000 HD 
HETATM   25  H   UNL     1      -6.490   7.373  67.198  1.00  0.00     0.000 HD 
HETATM   26  H   UNL     1     -11.059   4.634  65.312  1.00  0.00     0.000 HD 
ENDBRANCH  15  16
ENDBRANCH  12  15
ENDBRANCH   8   9
ENDBRANCH   7   8
ENDBRANCH   6   7
ENDBRANCH   5   6
ENDBRANCH   4   5
ENDBRANCH   3   4
ENDBRANCH   2   3
TORSDOF 9
ENDMDL
MODEL      154
REMARK 921   NORMALIZED FREE ENERGY PREDICTED BY IDOCK:   -4.14 KCAL/MOL
REMARK 922        TOTAL FREE ENERGY PREDICTED BY IDOCK:   -7.43 KCAL/MOL
REMARK 923 INTER-LIGAND FREE ENERGY PREDICTED BY IDOCK:   -5.99 KCAL/MOL
REMARK 924 INTRA-LIGAND FREE ENERGY PREDICTED BY IDOCK:   -1.44 KCAL/MOL
REMARK 927      BINDING AFFINITY PREDICTED BY RF-SCORE:    0.00 PKD
ROOT
HETATM    1  C   UNL     1      -9.728   3.977  67.731  1.00  0.00    -0.155 C  
HETATM    2  C   UNL     1     -10.574   5.201  68.033  1.00  0.00    -0.011 C  
ENDROOT
BRANCH   2   3
HETATM    3  C   UNL     1     -10.090   5.911  69.294  1.00  0.00    -0.251 C  
BRANCH   3   4
HETATM    4  C   UNL     1      -8.570   6.038  69.298  1.00  0.00    -0.118 C  
BRANCH   4   5
HETATM    5  C   UNL     1      -8.021   5.930  70.717  1.00  0.00    -0.114 C  
BRANCH   5   6
HETATM    6  C   UNL     1      -9.100   6.253  71.746  1.00  0.00    -0.144 C  
BRANCH   6   7
HETATM    7  C   UNL     1      -8.843   7.618  72.374  1.00  0.00    -0.176 C  
BRANCH   7   8
HETATM    8  C   UNL     1     -10.150   8.388  72.585  1.00  0.00    -0.322 C  
BRANCH   8   9
HETATM    9  C   UNL     1     -10.562   9.117  71.333  1.00  0.00    -0.412 A  
HETATM   10  C   UNL     1      -9.612   9.392  70.345  1.00  0.00    -0.319 A  
HETATM   11  C   UNL     1      -9.962  10.117  69.210  1.00  0.00    -0.234 A  
HETATM   12  C   UNL     1     -11.277  10.548  69.010  1.00  0.00    -0.316 A  
HETATM   13  C   UNL     1     -11.877   9.551  71.148  1.00  0.00    -0.436 A  
HETATM   14  C   UNL     1     -12.231  10.259  69.996  1.00  0.00    -0.191 A  
BRANCH  12  15
HETATM   15  C   UNL     1     -11.671  11.387  67.814  1.00  0.00    -0.279 C  
BRANCH  15  16
HETATM   16  C   UNL     1     -11.045  12.792  67.805  1.00  0.00    -0.289 C  
HETATM   17  C   UNL     1     -10.684  13.417  66.436  1.00  0.00    -0.286 C  
HETATM   18  C   UNL     1     -10.035  14.803  66.719  1.00  0.00    -0.251 C  
HETATM   19  N   UNL     1      -9.689  12.585  65.708  1.00  0.00    -0.369 NA 
HETATM   20  C   UNL     1     -11.934  13.632  65.540  1.00  0.00    -0.384 C  
HETATM   21  O   UNL     1      -9.593  15.417  65.510  1.00  0.00    -0.313 OA 
HETATM   22  O   UNL     1     -12.537  12.399  65.155  1.00  0.00    -0.622 OA 
HETATM   23  H1  UNL     1      -9.451  12.996  64.805  1.00  0.00     0.000 HD 
HETATM   24  H2  UNL     1     -10.009  11.622  65.607  1.00  0.00     0.000 HD 
HETATM   25  H   UNL     1     -13.302  12.531  64.607  1.00  0.00     0.000 HD 
HETATM   26  H   UNL     1      -9.197  16.263  65.683  1.00  0.00     0.000 HD 
ENDBRANCH  15  16
ENDBRANCH  12  15
ENDBRANCH   8   9
ENDBRANCH   7   8
ENDBRANCH   6   7
ENDBRANCH   5   6
ENDBRANCH   4   5
ENDBRANCH   3   4
ENDBRANCH   2   3
TORSDOF 9
ENDMDL
MODEL      155
REMARK 921   NORMALIZED FREE ENERGY PREDICTED BY IDOCK:   -4.14 KCAL/MOL
REMARK 922        TOTAL FREE ENERGY PREDICTED BY IDOCK:   -7.43 KCAL/MOL
REMARK 923 INTER-LIGAND FREE ENERGY PREDICTED BY IDOCK:   -6.57 KCAL/MOL
REMARK 924 INTRA-LIGAND FREE ENERGY PREDICTED BY IDOCK:   -0.86 KCAL/MOL
REMARK 927      BINDING AFFINITY PREDICTED BY RF-SCORE:    0.00 PKD
ROOT
HETATM    1  C   UNL     1     -11.880  16.263  72.267  1.00  0.00    -0.601 C  
HETATM    2  C   UNL     1     -12.590  15.582  71.110  1.00  0.00    -0.509 C  
ENDROOT
BRANCH   2   3
HETATM    3  C   UNL     1     -14.028  15.228  71.477  1.00  0.00    -0.627 C  
BRANCH   3   4
HETATM    4  C   UNL     1     -14.092  13.883  72.195  1.00  0.00    -0.630 C  
BRANCH   4   5
HETATM    5  C   UNL     1     -13.002  12.945  71.688  1.00  0.00    -0.410 C  
BRANCH   5   6
HETATM    6  C   UNL     1     -13.361  11.488  71.969  1.00  0.00    -0.397 C  
BRANCH   6   7
HETATM    7  C   UNL     1     -12.955  10.606  70.796  1.00  0.00    -0.396 C  
BRANCH   7   8
HETATM    8  C   UNL     1     -11.953  11.319  69.884  1.00  0.00    -0.440 C  
BRANCH   8   9
HETATM    9  C   UNL     1     -10.961  10.349  69.297  1.00  0.00    -0.287 A  
HETATM   10  C   UNL     1      -9.960   9.804  70.107  1.00  0.00    -0.315 A  
HETATM   11  C   UNL     1      -9.001   8.953  69.569  1.00  0.00    -0.145 A  
HETATM   12  C   UNL     1      -9.039   8.589  68.219  1.00  0.00    -0.138 A  
HETATM   13  C   UNL     1     -11.004  10.000  67.945  1.00  0.00    -0.311 A  
HETATM   14  C   UNL     1     -10.052   9.126  67.412  1.00  0.00    -0.289 A  
BRANCH  12  15
HETATM   15  C   UNL     1      -7.975   7.712  67.596  1.00  0.00    -0.121 C  
BRANCH  15  16
HETATM   16  C   UNL     1      -8.536   6.550  66.760  1.00  0.00    -0.113 C  
HETATM   17  C   UNL     1      -8.170   6.494  65.257  1.00  0.00    -0.135 C  
HETATM   18  C   UNL     1      -8.897   5.259  64.651  1.00  0.00    -0.038 C  
HETATM   19  N   UNL     1      -8.648   7.706  64.539  1.00  0.00    -0.367 NA 
HETATM   20  C   UNL     1      -6.642   6.327  65.030  1.00  0.00    -0.039 C  
HETATM   21  O   UNL     1      -8.682   5.178  63.243  1.00  0.00    -0.229 OA 
HETATM   22  O   UNL     1      -5.906   7.464  65.474  1.00  0.00    -0.036 OA 
HETATM   23  H1  UNL     1      -8.406   7.670  63.548  1.00  0.00     0.000 HD 
HETATM   24  H2  UNL     1      -8.303   8.561  64.977  1.00  0.00     0.000 HD 
HETATM   25  H   UNL     1      -4.972   7.361  65.335  1.00  0.00     0.000 HD 
HETATM   26  H   UNL     1      -9.126   4.425  62.873  1.00  0.00     0.000 HD 
ENDBRANCH  15  16
ENDBRANCH  12  15
ENDBRANCH   8   9
ENDBRANCH   7   8
ENDBRANCH   6   7
ENDBRANCH   5   6
ENDBRANCH   4   5
ENDBRANCH   3   4
ENDBRANCH   2   3
TORSDOF 9
ENDMDL
MODEL      156
REMARK 921   NORMALIZED FREE ENERGY PREDICTED BY IDOCK:   -4.13 KCAL/MOL
REMARK 922        TOTAL FREE ENERGY PREDICTED BY IDOCK:   -7.41 KCAL/MOL
REMARK 923 INTER-LIGAND FREE ENERGY PREDICTED BY IDOCK:   -6.34 KCAL/MOL
REMARK 924 INTRA-LIGAND FREE ENERGY PREDICTED BY IDOCK:   -1.07 KCAL/MOL
REMARK 927      BINDING AFFINITY PREDICTED BY RF-SCORE:    0.00 PKD
ROOT
HETATM    1  C   UNL     1      -7.327   7.658  72.102  1.00  0.00    -0.075 C  
HETATM    2  C   UNL     1      -6.831   8.786  71.215  1.00  0.00    -0.082 C  
ENDROOT
BRANCH   2   3
HETATM    3  C   UNL     1      -7.969   9.385  70.393  1.00  0.00    -0.190 C  
BRANCH   3   4
HETATM    4  C   UNL     1      -9.320   9.081  71.032  1.00  0.00    -0.339 C  
BRANCH   4   5
HETATM    5  C   UNL     1     -10.455   9.694  70.218  1.00  0.00    -0.338 C  
BRANCH   5   6
HETATM    6  C   UNL     1     -10.609   8.984  68.876  1.00  0.00    -0.203 C  
BRANCH   6   7
HETATM    7  C   UNL     1     -10.874   9.995  67.767  1.00  0.00    -0.337 C  
BRANCH   7   8
HETATM    8  C   UNL     1     -11.724  11.164  68.273  1.00  0.00    -0.323 C  
BRANCH   8   9
HETATM    9  C   UNL     1     -11.259  12.471  67.687  1.00  0.00    -0.332 A  
HETATM   10  C   UNL     1     -12.027  13.105  66.706  1.00  0.00    -0.434 A  
HETATM   11  C   UNL     1     -11.583  14.281  66.111  1.00  0.00    -0.374 A  
HETATM   12  C   UNL     1     -10.383  14.879  66.509  1.00  0.00    -0.295 A  
HETATM   13  C   UNL     1     -10.053  13.054  68.085  1.00  0.00    -0.237 A  
HETATM   14  C   UNL     1      -9.621  14.249  67.502  1.00  0.00    -0.216 A  
BRANCH  12  15
HETATM   15  C   UNL     1      -9.850  16.127  65.837  1.00  0.00    -0.384 C  
BRANCH  15  16
HETATM   16  C   UNL     1      -8.544  16.655  66.453  1.00  0.00    -0.345 C  
HETATM   17  C   UNL     1      -8.565  18.056  67.109  1.00  0.00    -0.239 C  
HETATM   18  C   UNL     1      -7.120  18.356  67.604  1.00  0.00    -0.209 C  
HETATM   19  N   UNL     1      -8.941  19.108  66.125  1.00  0.00    -0.455 NA 
HETATM   20  C   UNL     1      -9.527  18.121  68.327  1.00  0.00    -0.307 C  
HETATM   21  O   UNL     1      -7.030  19.670  68.150  1.00  0.00    -0.265 OA 
HETATM   22  O   UNL     1     -10.889  17.949  67.944  1.00  0.00    -0.365 OA 
HETATM   23  H1  UNL     1      -8.956  20.032  66.557  1.00  0.00     0.000 HD 
HETATM   24  H2  UNL     1      -9.828  18.894  65.669  1.00  0.00     0.000 HD 
HETATM   25  H   UNL     1     -11.477  17.989  68.690  1.00  0.00     0.000 HD 
HETATM   26  H   UNL     1      -6.148  19.854  68.452  1.00  0.00     0.000 HD 
ENDBRANCH  15  16
ENDBRANCH  12  15
ENDBRANCH   8   9
ENDBRANCH   7   8
ENDBRANCH   6   7
ENDBRANCH   5   6
ENDBRANCH   4   5
ENDBRANCH   3   4
ENDBRANCH   2   3
TORSDOF 9
ENDMDL
MODEL      157
REMARK 921   NORMALIZED FREE ENERGY PREDICTED BY IDOCK:   -4.13 KCAL/MOL
REMARK 922        TOTAL FREE ENERGY PREDICTED BY IDOCK:   -7.41 KCAL/MOL
REMARK 923 INTER-LIGAND FREE ENERGY PREDICTED BY IDOCK:   -5.34 KCAL/MOL
REMARK 924 INTRA-LIGAND FREE ENERGY PREDICTED BY IDOCK:   -2.07 KCAL/MOL
REMARK 927      BINDING AFFINITY PREDICTED BY RF-SCORE:    0.00 PKD
ROOT
HETATM    1  C   UNL     1      -9.427  11.186  63.695  1.00  0.00    -0.278 C  
HETATM    2  C   UNL     1     -10.924  11.170  63.950  1.00  0.00    -0.271 C  
ENDROOT
BRANCH   2   3
HETATM    3  C   UNL     1     -11.576  12.473  63.496  1.00  0.00    -0.584 C  
BRANCH   3   4
HETATM    4  C   UNL     1     -12.628  12.935  64.500  1.00  0.00    -0.420 C  
BRANCH   4   5
HETATM    5  C   UNL     1     -12.498  14.430  64.773  1.00  0.00    -0.371 C  
BRANCH   5   6
HETATM    6  C   UNL     1     -11.037  14.869  64.724  1.00  0.00    -0.395 C  
BRANCH   6   7
HETATM    7  C   UNL     1     -10.721  15.792  65.894  1.00  0.00    -0.320 C  
BRANCH   7   8
HETATM    8  C   UNL     1     -10.911  15.077  67.233  1.00  0.00    -0.326 C  
BRANCH   8   9
HETATM    9  C   UNL     1     -10.035  13.855  67.329  1.00  0.00    -0.242 A  
HETATM   10  C   UNL     1     -10.595  12.625  67.683  1.00  0.00    -0.232 A  
HETATM   11  C   UNL     1      -9.792  11.499  67.835  1.00  0.00    -0.192 A  
HETATM   12  C   UNL     1      -8.416  11.561  67.594  1.00  0.00    -0.135 A  
HETATM   13  C   UNL     1      -8.659  13.931  67.095  1.00  0.00    -0.217 A  
HETATM   14  C   UNL     1      -7.858  12.794  67.225  1.00  0.00    -0.148 A  
BRANCH  12  15
HETATM   15  C   UNL     1      -7.512  10.366  67.808  1.00  0.00    -0.088 C  
BRANCH  15  16
HETATM   16  C   UNL     1      -8.259   9.024  67.874  1.00  0.00    -0.110 C  
HETATM   17  C   UNL     1      -8.106   8.171  69.156  1.00  0.00    -0.121 C  
HETATM   18  C   UNL     1      -8.920   6.862  68.940  1.00  0.00    -0.131 C  
HETATM   19  N   UNL     1      -6.685   7.794  69.387  1.00  0.00    -0.039 NA 
HETATM   20  C   UNL     1      -8.660   8.894  70.414  1.00  0.00    -0.180 C  
HETATM   21  O   UNL     1      -8.766   5.975  70.045  1.00  0.00    -0.132 OA 
HETATM   22  O   UNL     1      -7.906  10.059  70.739  1.00  0.00    -0.406 OA 
HETATM   23  H1  UNL     1      -6.583   7.232  70.233  1.00  0.00     0.000 HD 
HETATM   24  H2  UNL     1      -6.079   8.614  69.409  1.00  0.00     0.000 HD 
HETATM   25  H   UNL     1      -8.246  10.501  71.508  1.00  0.00     0.000 HD 
HETATM   26  H   UNL     1      -9.263   5.176  69.913  1.00  0.00     0.000 HD 
ENDBRANCH  15  16
ENDBRANCH  12  15
ENDBRANCH   8   9
ENDBRANCH   7   8
ENDBRANCH   6   7
ENDBRANCH   5   6
ENDBRANCH   4   5
ENDBRANCH   3   4
ENDBRANCH   2   3
TORSDOF 9
ENDMDL
MODEL      158
REMARK 921   NORMALIZED FREE ENERGY PREDICTED BY IDOCK:   -4.12 KCAL/MOL
REMARK 922        TOTAL FREE ENERGY PREDICTED BY IDOCK:   -7.40 KCAL/MOL
REMARK 923 INTER-LIGAND FREE ENERGY PREDICTED BY IDOCK:   -6.33 KCAL/MOL
REMARK 924 INTRA-LIGAND FREE ENERGY PREDICTED BY IDOCK:   -1.06 KCAL/MOL
REMARK 927      BINDING AFFINITY PREDICTED BY RF-SCORE:    0.00 PKD
ROOT
HETATM    1  C   UNL     1      -5.796  11.323  67.205  1.00  0.00    -0.071 C  
HETATM    2  C   UNL     1      -7.258  11.663  66.974  1.00  0.00    -0.143 C  
ENDROOT
BRANCH   2   3
HETATM    3  C   UNL     1      -8.076  11.485  68.250  1.00  0.00    -0.148 C  
BRANCH   3   4
HETATM    4  C   UNL     1      -9.048  10.317  68.116  1.00  0.00    -0.136 C  
BRANCH   4   5
HETATM    5  C   UNL     1     -10.235  10.698  67.238  1.00  0.00    -0.250 C  
BRANCH   5   6
HETATM    6  C   UNL     1     -11.484  10.938  68.083  1.00  0.00    -0.368 C  
BRANCH   6   7
HETATM    7  C   UNL     1     -11.782  12.429  68.177  1.00  0.00    -0.408 C  
BRANCH   7   8
HETATM    8  C   UNL     1     -11.784  13.084  66.794  1.00  0.00    -0.440 C  
BRANCH   8   9
HETATM    9  C   UNL     1     -11.276  14.500  66.859  1.00  0.00    -0.340 A  
HETATM   10  C   UNL     1     -11.361  15.215  68.057  1.00  0.00    -0.346 A  
HETATM   11  C   UNL     1     -10.952  16.542  68.120  1.00  0.00    -0.336 A  
HETATM   12  C   UNL     1     -10.407  17.180  67.001  1.00  0.00    -0.308 A  
HETATM   13  C   UNL     1     -10.742  15.130  65.731  1.00  0.00    -0.359 A  
HETATM   14  C   UNL     1     -10.310  16.457  65.803  1.00  0.00    -0.388 A  
BRANCH  12  15
HETATM   15  C   UNL     1     -10.008  18.639  67.027  1.00  0.00    -0.368 C  
BRANCH  15  16
HETATM   16  C   UNL     1      -9.032  18.998  68.160  1.00  0.00    -0.355 C  
HETATM   17  C   UNL     1      -7.535  18.661  67.962  1.00  0.00    -0.251 C  
HETATM   18  C   UNL     1      -6.791  19.084  69.261  1.00  0.00    -0.283 C  
HETATM   19  N   UNL     1      -7.331  17.199  67.771  1.00  0.00    -0.166 NA 
HETATM   20  C   UNL     1      -6.912  19.430  66.764  1.00  0.00    -0.196 C  
HETATM   21  O   UNL     1      -5.410  18.731  69.199  1.00  0.00    -0.195 OA 
HETATM   22  O   UNL     1      -7.475  19.029  65.518  1.00  0.00    -0.476 OA 
HETATM   23  H1  UNL     1      -6.344  16.976  67.640  1.00  0.00     0.000 HD 
HETATM   24  H2  UNL     1      -7.900  16.839  67.006  1.00  0.00     0.000 HD 
HETATM   25  H   UNL     1      -7.094  19.500  64.786  1.00  0.00     0.000 HD 
HETATM   26  H   UNL     1      -4.956  18.989  69.992  1.00  0.00     0.000 HD 
ENDBRANCH  15  16
ENDBRANCH  12  15
ENDBRANCH   8   9
ENDBRANCH   7   8
ENDBRANCH   6   7
ENDBRANCH   5   6
ENDBRANCH   4   5
ENDBRANCH   3   4
ENDBRANCH   2   3
TORSDOF 9
ENDMDL
MODEL      159
REMARK 921   NORMALIZED FREE ENERGY PREDICTED BY IDOCK:   -4.09 KCAL/MOL
REMARK 922        TOTAL FREE ENERGY PREDICTED BY IDOCK:   -7.35 KCAL/MOL
REMARK 923 INTER-LIGAND FREE ENERGY PREDICTED BY IDOCK:   -5.72 KCAL/MOL
REMARK 924 INTRA-LIGAND FREE ENERGY PREDICTED BY IDOCK:   -1.63 KCAL/MOL
REMARK 927      BINDING AFFINITY PREDICTED BY RF-SCORE:    0.00 PKD
ROOT
HETATM    1  C   UNL     1     -12.615  10.049  71.049  1.00  0.00    -0.463 C  
HETATM    2  C   UNL     1     -11.462   9.287  71.678  1.00  0.00    -0.468 C  
ENDROOT
BRANCH   2   3
HETATM    3  C   UNL     1     -11.900   7.897  72.130  1.00  0.00    -0.384 C  
BRANCH   3   4
HETATM    4  C   UNL     1     -11.925   6.924  70.955  1.00  0.00    -0.430 C  
BRANCH   4   5
HETATM    5  C   UNL     1     -10.884   5.824  71.139  1.00  0.00    -0.316 C  
BRANCH   5   6
HETATM    6  C   UNL     1      -9.975   6.127  72.328  1.00  0.00    -0.186 C  
BRANCH   6   7
HETATM    7  C   UNL     1      -8.604   6.583  71.844  1.00  0.00    -0.129 C  
BRANCH   7   8
HETATM    8  C   UNL     1      -8.485   6.469  70.323  1.00  0.00    -0.135 C  
BRANCH   8   9
HETATM    9  C   UNL     1      -8.331   7.825  69.684  1.00  0.00    -0.129 A  
HETATM   10  C   UNL     1      -8.047   8.939  70.479  1.00  0.00    -0.145 A  
HETATM   11  C   UNL     1      -7.961  10.207  69.915  1.00  0.00    -0.149 A  
HETATM   12  C   UNL     1      -8.111  10.391  68.537  1.00  0.00    -0.116 A  
HETATM   13  C   UNL     1      -8.493   7.998  68.307  1.00  0.00    -0.123 A  
HETATM   14  C   UNL     1      -8.382   9.270  67.739  1.00  0.00    -0.116 A  
BRANCH  12  15
HETATM   15  C   UNL     1      -8.079  11.767  67.906  1.00  0.00    -0.144 C  
BRANCH  15  16
HETATM   16  C   UNL     1      -9.407  12.535  68.019  1.00  0.00    -0.205 C  
HETATM   17  C   UNL     1      -9.930  13.269  66.761  1.00  0.00    -0.263 C  
HETATM   18  C   UNL     1     -11.249  13.991  67.163  1.00  0.00    -0.313 C  
HETATM   19  N   UNL     1      -8.965  14.302  66.297  1.00  0.00    -0.491 NA 
HETATM   20  C   UNL     1     -10.240  12.290  65.595  1.00  0.00    -0.261 C  
HETATM   21  O   UNL     1     -11.759  14.765  66.080  1.00  0.00    -0.342 OA 
HETATM   22  O   UNL     1      -9.064  11.654  65.102  1.00  0.00    -0.407 OA 
HETATM   23  H1  UNL     1      -9.309  14.786  65.468  1.00  0.00     0.000 HD 
HETATM   24  H2  UNL     1      -8.038  13.905  66.141  1.00  0.00     0.000 HD 
HETATM   25  H   UNL     1      -9.253  11.056  64.389  1.00  0.00     0.000 HD 
HETATM   26  H   UNL     1     -12.564  15.206  66.326  1.00  0.00     0.000 HD 
ENDBRANCH  15  16
ENDBRANCH  12  15
ENDBRANCH   8   9
ENDBRANCH   7   8
ENDBRANCH   6   7
ENDBRANCH   5   6
ENDBRANCH   4   5
ENDBRANCH   3   4
ENDBRANCH   2   3
TORSDOF 9
ENDMDL
MODEL      160
REMARK 921   NORMALIZED FREE ENERGY PREDICTED BY IDOCK:   -4.07 KCAL/MOL
REMARK 922        TOTAL FREE ENERGY PREDICTED BY IDOCK:   -7.32 KCAL/MOL
REMARK 923 INTER-LIGAND FREE ENERGY PREDICTED BY IDOCK:   -6.58 KCAL/MOL
REMARK 924 INTRA-LIGAND FREE ENERGY PREDICTED BY IDOCK:   -0.74 KCAL/MOL
REMARK 927      BINDING AFFINITY PREDICTED BY RF-SCORE:    0.00 PKD
ROOT
HETATM    1  C   UNL     1      -8.552   3.964  62.685  1.00  0.00    -0.084 C  
HETATM    2  C   UNL     1      -8.856   4.964  63.787  1.00  0.00    -0.072 C  
ENDROOT
BRANCH   2   3
HETATM    3  C   UNL     1      -8.920   4.282  65.150  1.00  0.00    -0.139 C  
BRANCH   3   4
HETATM    4  C   UNL     1      -9.743   5.107  66.135  1.00  0.00    -0.192 C  
BRANCH   4   5
HETATM    5  C   UNL     1      -9.905   4.369  67.459  1.00  0.00    -0.180 C  
BRANCH   5   6
HETATM    6  C   UNL     1      -9.380   5.210  68.620  1.00  0.00    -0.164 C  
BRANCH   6   7
HETATM    7  C   UNL     1     -10.479   6.118  69.157  1.00  0.00    -0.310 C  
BRANCH   7   8
HETATM    8  C   UNL     1      -9.894   7.290  69.949  1.00  0.00    -0.178 C  
BRANCH   8   9
HETATM    9  C   UNL     1     -10.425   8.608  69.446  1.00  0.00    -0.224 A  
HETATM   10  C   UNL     1     -10.437   8.873  68.074  1.00  0.00    -0.263 A  
HETATM   11  C   UNL     1     -10.867  10.107  67.596  1.00  0.00    -0.346 A  
HETATM   12  C   UNL     1     -11.337  11.092  68.471  1.00  0.00    -0.355 A  
HETATM   13  C   UNL     1     -10.883   9.588  70.330  1.00  0.00    -0.338 A  
HETATM   14  C   UNL     1     -11.336  10.818  69.846  1.00  0.00    -0.385 A  
BRANCH  12  15
HETATM   15  C   UNL     1     -11.756  12.461  67.982  1.00  0.00    -0.414 C  
BRANCH  15  16
HETATM   16  C   UNL     1     -11.517  12.686  66.480  1.00  0.00    -0.409 C  
HETATM   17  C   UNL     1     -11.947  14.043  65.872  1.00  0.00    -0.408 C  
HETATM   18  C   UNL     1     -11.636  13.985  64.348  1.00  0.00    -0.369 C  
HETATM   19  N   UNL     1     -13.408  14.270  66.034  1.00  0.00    -0.272 NA 
HETATM   20  C   UNL     1     -11.167  15.237  66.489  1.00  0.00    -0.228 C  
HETATM   21  O   UNL     1     -12.080  15.170  63.690  1.00  0.00    -0.917 OA 
HETATM   22  O   UNL     1     -11.470  15.419  67.870  1.00  0.00    -0.335 OA 
HETATM   23  H1  UNL     1     -13.692  15.164  65.634  1.00  0.00     0.000 HD 
HETATM   24  H2  UNL     1     -13.693  14.190  67.010  1.00  0.00     0.000 HD 
HETATM   25  H   UNL     1     -10.993  16.149  68.247  1.00  0.00     0.000 HD 
HETATM   26  H   UNL     1     -11.890  15.135  62.760  1.00  0.00     0.000 HD 
ENDBRANCH  15  16
ENDBRANCH  12  15
ENDBRANCH   8   9
ENDBRANCH   7   8
ENDBRANCH   6   7
ENDBRANCH   5   6
ENDBRANCH   4   5
ENDBRANCH   3   4
ENDBRANCH   2   3
TORSDOF 9
ENDMDL
MODEL      161
REMARK 921   NORMALIZED FREE ENERGY PREDICTED BY IDOCK:   -4.06 KCAL/MOL
REMARK 922        TOTAL FREE ENERGY PREDICTED BY IDOCK:   -7.30 KCAL/MOL
REMARK 923 INTER-LIGAND FREE ENERGY PREDICTED BY IDOCK:   -5.31 KCAL/MOL
REMARK 924 INTRA-LIGAND FREE ENERGY PREDICTED BY IDOCK:   -2.00 KCAL/MOL
REMARK 927      BINDING AFFINITY PREDICTED BY RF-SCORE:    0.00 PKD
ROOT
HETATM    1  C   UNL     1     -10.930  13.878  65.718  1.00  0.00    -0.285 C  
HETATM    2  C   UNL     1      -9.877  12.791  65.844  1.00  0.00    -0.243 C  
ENDROOT
BRANCH   2   3
HETATM    3  C   UNL     1     -10.490  11.482  66.333  1.00  0.00    -0.292 C  
BRANCH   3   4
HETATM    4  C   UNL     1     -10.652  10.494  65.182  1.00  0.00    -0.121 C  
BRANCH   4   5
HETATM    5  C   UNL     1      -9.628  10.765  64.086  1.00  0.00    -0.333 C  
BRANCH   5   6
HETATM    6  C   UNL     1      -8.873   9.490  63.716  1.00  0.00    -0.238 C  
BRANCH   6   7
HETATM    7  C   UNL     1      -7.518   9.456  64.410  1.00  0.00    -0.110 C  
BRANCH   7   8
HETATM    8  C   UNL     1      -7.348   8.180  65.238  1.00  0.00    -0.073 C  
BRANCH   8   9
HETATM    9  C   UNL     1      -8.260   8.182  66.437  1.00  0.00    -0.108 A  
HETATM   10  C   UNL     1      -9.356   7.316  66.479  1.00  0.00    -0.216 A  
HETATM   11  C   UNL     1     -10.242   7.346  67.550  1.00  0.00    -0.289 A  
HETATM   12  C   UNL     1     -10.034   8.211  68.629  1.00  0.00    -0.201 A  
HETATM   13  C   UNL     1      -8.048   9.058  67.506  1.00  0.00    -0.108 A  
HETATM   14  C   UNL     1      -8.927   9.070  68.592  1.00  0.00    -0.137 A  
BRANCH  12  15
HETATM   15  C   UNL     1     -11.014   8.305  69.779  1.00  0.00    -0.132 C  
BRANCH  15  16
HETATM   16  C   UNL     1     -11.290   9.744  70.245  1.00  0.00    -0.333 C  
HETATM   17  C   UNL     1     -12.522   9.989  71.150  1.00  0.00    -0.379 C  
HETATM   18  C   UNL     1     -12.590  11.518  71.433  1.00  0.00    -0.314 C  
HETATM   19  N   UNL     1     -13.783   9.593  70.467  1.00  0.00    -0.371 NA 
HETATM   20  C   UNL     1     -12.413   9.241  72.508  1.00  0.00    -0.140 C  
HETATM   21  O   UNL     1     -13.749  11.847  72.196  1.00  0.00    -0.384 OA 
HETATM   22  O   UNL     1     -12.440   7.826  72.344  1.00  0.00    -0.501 OA 
HETATM   23  H1  UNL     1     -14.595   9.754  71.063  1.00  0.00     0.000 HD 
HETATM   24  H2  UNL     1     -13.744   8.627  70.141  1.00  0.00     0.000 HD 
HETATM   25  H   UNL     1     -12.373   7.369  73.174  1.00  0.00     0.000 HD 
HETATM   26  H   UNL     1     -13.790  12.780  72.368  1.00  0.00     0.000 HD 
ENDBRANCH  15  16
ENDBRANCH  12  15
ENDBRANCH   8   9
ENDBRANCH   7   8
ENDBRANCH   6   7
ENDBRANCH   5   6
ENDBRANCH   4   5
ENDBRANCH   3   4
ENDBRANCH   2   3
TORSDOF 9
ENDMDL
MODEL      162
REMARK 921   NORMALIZED FREE ENERGY PREDICTED BY IDOCK:   -4.04 KCAL/MOL
REMARK 922        TOTAL FREE ENERGY PREDICTED BY IDOCK:   -7.27 KCAL/MOL
REMARK 923 INTER-LIGAND FREE ENERGY PREDICTED BY IDOCK:   -5.90 KCAL/MOL
REMARK 924 INTRA-LIGAND FREE ENERGY PREDICTED BY IDOCK:   -1.37 KCAL/MOL
REMARK 927      BINDING AFFINITY PREDICTED BY RF-SCORE:    0.00 PKD
ROOT
HETATM    1  C   UNL     1     -12.263  12.247  63.375  1.00  0.00    -0.630 C  
HETATM    2  C   UNL     1     -12.450  12.388  64.875  1.00  0.00    -0.439 C  
ENDROOT
BRANCH   2   3
HETATM    3  C   UNL     1     -12.327  13.844  65.313  1.00  0.00    -0.485 C  
BRANCH   3   4
HETATM    4  C   UNL     1     -11.183  14.538  64.580  1.00  0.00    -0.359 C  
BRANCH   4   5
HETATM    5  C   UNL     1     -10.311  15.323  65.555  1.00  0.00    -0.408 C  
BRANCH   5   6
HETATM    6  C   UNL     1     -11.118  15.769  66.772  1.00  0.00    -0.116 C  
BRANCH   6   7
HETATM    7  C   UNL     1     -10.467  15.264  68.054  1.00  0.00    -0.248 C  
BRANCH   7   8
HETATM    8  C   UNL     1     -11.484  14.555  68.951  1.00  0.00    -0.327 C  
BRANCH   8   9
HETATM    9  C   UNL     1     -11.206  13.076  69.029  1.00  0.00    -0.316 A  
HETATM   10  C   UNL     1     -12.142  12.224  69.621  1.00  0.00    -0.277 A  
HETATM   11  C   UNL     1     -11.875  10.865  69.755  1.00  0.00    -0.419 A  
HETATM   12  C   UNL     1     -10.688  10.314  69.263  1.00  0.00    -0.265 A  
HETATM   13  C   UNL     1     -10.011  12.539  68.542  1.00  0.00    -0.170 A  
HETATM   14  C   UNL     1      -9.757  11.169  68.657  1.00  0.00    -0.202 A  
BRANCH  12  15
HETATM   15  C   UNL     1     -10.349   8.851  69.448  1.00  0.00    -0.217 C  
BRANCH  15  16
HETATM   16  C   UNL     1     -10.060   8.108  68.133  1.00  0.00    -0.237 C  
HETATM   17  C   UNL     1      -9.147   6.860  68.190  1.00  0.00    -0.124 C  
HETATM   18  C   UNL     1      -8.989   6.337  66.732  1.00  0.00    -0.125 C  
HETATM   19  N   UNL     1      -7.794   7.203  68.704  1.00  0.00    -0.120 NA 
HETATM   20  C   UNL     1      -9.756   5.724  69.058  1.00  0.00    -0.140 C  
HETATM   21  O   UNL     1      -8.090   5.231  66.681  1.00  0.00    -0.104 OA 
HETATM   22  O   UNL     1      -9.848   6.090  70.432  1.00  0.00    -0.172 OA 
HETATM   23  H1  UNL     1      -7.191   6.381  68.742  1.00  0.00     0.000 HD 
HETATM   24  H2  UNL     1      -7.845   7.671  69.608  1.00  0.00     0.000 HD 
HETATM   25  H   UNL     1     -10.221   5.395  70.962  1.00  0.00     0.000 HD 
HETATM   26  H   UNL     1      -7.993   4.912  65.791  1.00  0.00     0.000 HD 
ENDBRANCH  15  16
ENDBRANCH  12  15
ENDBRANCH   8   9
ENDBRANCH   7   8
ENDBRANCH   6   7
ENDBRANCH   5   6
ENDBRANCH   4   5
ENDBRANCH   3   4
ENDBRANCH   2   3
TORSDOF 9
ENDMDL
MODEL      163
REMARK 921   NORMALIZED FREE ENERGY PREDICTED BY IDOCK:   -4.04 KCAL/MOL
REMARK 922        TOTAL FREE ENERGY PREDICTED BY IDOCK:   -7.27 KCAL/MOL
REMARK 923 INTER-LIGAND FREE ENERGY PREDICTED BY IDOCK:   -6.29 KCAL/MOL
REMARK 924 INTRA-LIGAND FREE ENERGY PREDICTED BY IDOCK:   -0.98 KCAL/MOL
REMARK 927      BINDING AFFINITY PREDICTED BY RF-SCORE:    0.00 PKD
ROOT
HETATM    1  C   UNL     1     -11.707   7.881  72.530  1.00  0.00    -0.423 C  
HETATM    2  C   UNL     1     -12.408   7.317  71.307  1.00  0.00    -0.401 C  
ENDROOT
BRANCH   2   3
HETATM    3  C   UNL     1     -11.429   6.576  70.401  1.00  0.00    -0.465 C  
BRANCH   3   4
HETATM    4  C   UNL     1     -10.003   6.692  70.930  1.00  0.00    -0.204 C  
BRANCH   4   5
HETATM    5  C   UNL     1      -9.085   7.314  69.883  1.00  0.00    -0.141 C  
BRANCH   5   6
HETATM    6  C   UNL     1      -9.856   7.640  68.606  1.00  0.00    -0.175 C  
BRANCH   6   7
HETATM    7  C   UNL     1      -9.883   9.146  68.374  1.00  0.00    -0.181 C  
BRANCH   7   8
HETATM    8  C   UNL     1     -10.707   9.502  67.134  1.00  0.00    -0.252 C  
BRANCH   8   9
HETATM    9  C   UNL     1     -10.724  10.990  66.899  1.00  0.00    -0.325 A  
HETATM   10  C   UNL     1     -10.409  11.862  67.944  1.00  0.00    -0.212 A  
HETATM   11  C   UNL     1     -10.478  13.239  67.762  1.00  0.00    -0.242 A  
HETATM   12  C   UNL     1     -10.822  13.783  66.521  1.00  0.00    -0.287 A  
HETATM   13  C   UNL     1     -11.079  11.522  65.656  1.00  0.00    -0.261 A  
HETATM   14  C   UNL     1     -11.125  12.906  65.469  1.00  0.00    -0.306 A  
BRANCH  12  15
HETATM   15  C   UNL     1     -10.960  15.275  66.312  1.00  0.00    -0.300 C  
BRANCH  15  16
HETATM   16  C   UNL     1      -9.620  16.006  66.130  1.00  0.00    -0.366 C  
HETATM   17  C   UNL     1      -9.408  17.335  66.896  1.00  0.00    -0.255 C  
HETATM   18  C   UNL     1      -8.003  17.876  66.501  1.00  0.00    -0.270 C  
HETATM   19  N   UNL     1     -10.419  18.352  66.502  1.00  0.00    -0.392 NA 
HETATM   20  C   UNL     1      -9.445  17.138  68.437  1.00  0.00    -0.276 C  
HETATM   21  O   UNL     1      -7.758  19.147  67.099  1.00  0.00    -0.241 OA 
HETATM   22  O   UNL     1     -10.732  16.731  68.894  1.00  0.00    -0.315 OA 
HETATM   23  H1  UNL     1     -10.280  19.228  67.007  1.00  0.00     0.000 HD 
HETATM   24  H2  UNL     1     -11.369  18.000  66.619  1.00  0.00     0.000 HD 
HETATM   25  H   UNL     1     -10.754  16.611  69.837  1.00  0.00     0.000 HD 
HETATM   26  H   UNL     1      -6.900  19.477  66.858  1.00  0.00     0.000 HD 
ENDBRANCH  15  16
ENDBRANCH  12  15
ENDBRANCH   8   9
ENDBRANCH   7   8
ENDBRANCH   6   7
ENDBRANCH   5   6
ENDBRANCH   4   5
ENDBRANCH   3   4
ENDBRANCH   2   3
TORSDOF 9
ENDMDL
MODEL      164
REMARK 921   NORMALIZED FREE ENERGY PREDICTED BY IDOCK:   -4.03 KCAL/MOL
REMARK 922        TOTAL FREE ENERGY PREDICTED BY IDOCK:   -7.25 KCAL/MOL
REMARK 923 INTER-LIGAND FREE ENERGY PREDICTED BY IDOCK:   -6.36 KCAL/MOL
REMARK 924 INTRA-LIGAND FREE ENERGY PREDICTED BY IDOCK:   -0.90 KCAL/MOL
REMARK 927      BINDING AFFINITY PREDICTED BY RF-SCORE:    0.00 PKD
ROOT
HETATM    1  C   UNL     1      -5.670   8.748  74.534  1.00  0.00    -0.128 C  
HETATM    2  C   UNL     1      -6.121   9.133  73.136  1.00  0.00     0.128 C  
ENDROOT
BRANCH   2   3
HETATM    3  C   UNL     1      -7.110   8.116  72.574  1.00  0.00    -0.116 C  
BRANCH   3   4
HETATM    4  C   UNL     1      -8.375   8.059  73.424  1.00  0.00    -0.278 C  
BRANCH   4   5
HETATM    5  C   UNL     1      -9.315   6.967  72.925  1.00  0.00    -0.156 C  
BRANCH   5   6
HETATM    6  C   UNL     1     -10.736   7.194  73.436  1.00  0.00    -0.410 C  
BRANCH   6   7
HETATM    7  C   UNL     1     -11.516   8.067  72.461  1.00  0.00    -0.471 C  
BRANCH   7   8
HETATM    8  C   UNL     1     -11.052   7.843  71.020  1.00  0.00    -0.268 C  
BRANCH   8   9
HETATM    9  C   UNL     1     -11.188   9.100  70.201  1.00  0.00    -0.211 A  
HETATM   10  C   UNL     1     -11.914  10.183  70.706  1.00  0.00    -0.442 A  
HETATM   11  C   UNL     1     -12.101  11.328  69.940  1.00  0.00    -0.414 A  
HETATM   12  C   UNL     1     -11.533  11.442  68.667  1.00  0.00    -0.359 A  
HETATM   13  C   UNL     1     -10.624   9.198  68.926  1.00  0.00    -0.214 A  
HETATM   14  C   UNL     1     -10.794  10.360  68.168  1.00  0.00    -0.311 A  
BRANCH  12  15
HETATM   15  C   UNL     1     -11.770  12.652  67.791  1.00  0.00    -0.412 C  
BRANCH  15  16
HETATM   16  C   UNL     1     -10.480  13.373  67.363  1.00  0.00    -0.243 C  
HETATM   17  C   UNL     1     -10.580  14.868  66.972  1.00  0.00    -0.289 C  
HETATM   18  C   UNL     1      -9.156  15.329  66.545  1.00  0.00    -0.300 C  
HETATM   19  N   UNL     1     -11.492  15.063  65.813  1.00  0.00    -0.289 NA 
HETATM   20  C   UNL     1     -11.051  15.756  68.156  1.00  0.00    -0.341 C  
HETATM   21  O   UNL     1      -9.172  16.679  66.086  1.00  0.00    -0.300 OA 
HETATM   22  O   UNL     1     -12.388  15.460  68.549  1.00  0.00    -0.534 OA 
HETATM   23  H1  UNL     1     -11.559  16.048  65.555  1.00  0.00     0.000 HD 
HETATM   24  H2  UNL     1     -12.412  14.660  65.989  1.00  0.00     0.000 HD 
HETATM   25  H   UNL     1     -12.676  16.004  69.274  1.00  0.00     0.000 HD 
HETATM   26  H   UNL     1      -8.303  16.960  65.825  1.00  0.00     0.000 HD 
ENDBRANCH  15  16
ENDBRANCH  12  15
ENDBRANCH   8   9
ENDBRANCH   7   8
ENDBRANCH   6   7
ENDBRANCH   5   6
ENDBRANCH   4   5
ENDBRANCH   3   4
ENDBRANCH   2   3
TORSDOF 9
ENDMDL
MODEL      165
REMARK 921   NORMALIZED FREE ENERGY PREDICTED BY IDOCK:   -4.02 KCAL/MOL
REMARK 922        TOTAL FREE ENERGY PREDICTED BY IDOCK:   -7.24 KCAL/MOL
REMARK 923 INTER-LIGAND FREE ENERGY PREDICTED BY IDOCK:   -6.22 KCAL/MOL
REMARK 924 INTRA-LIGAND FREE ENERGY PREDICTED BY IDOCK:   -1.02 KCAL/MOL
REMARK 927      BINDING AFFINITY PREDICTED BY RF-SCORE:    0.00 PKD
ROOT
HETATM    1  C   UNL     1      -8.880   5.662  73.263  1.00  0.00    -0.121 C  
HETATM    2  C   UNL     1      -9.164   7.108  73.627  1.00  0.00    -0.237 C  
ENDROOT
BRANCH   2   3
HETATM    3  C   UNL     1      -8.052   7.689  74.495  1.00  0.00    -0.256 C  
BRANCH   3   4
HETATM    4  C   UNL     1      -6.692   7.516  73.825  1.00  0.00    -0.085 C  
BRANCH   4   5
HETATM    5  C   UNL     1      -6.577   8.407  72.593  1.00  0.00    -0.104 C  
BRANCH   5   6
HETATM    6  C   UNL     1      -6.342   7.573  71.336  1.00  0.00    -0.035 C  
BRANCH   6   7
HETATM    7  C   UNL     1      -6.491   8.438  70.091  1.00  0.00    -0.038 C  
BRANCH   7   8
HETATM    8  C   UNL     1      -7.328   9.687  70.377  1.00  0.00    -0.156 C  
BRANCH   8   9
HETATM    9  C   UNL     1      -8.276   9.980  69.244  1.00  0.00    -0.147 A  
HETATM   10  C   UNL     1      -8.418   9.060  68.201  1.00  0.00    -0.129 A  
HETATM   11  C   UNL     1      -9.243   9.341  67.117  1.00  0.00    -0.157 A  
HETATM   12  C   UNL     1      -9.982  10.527  67.066  1.00  0.00    -0.244 A  
HETATM   13  C   UNL     1      -9.002  11.173  69.199  1.00  0.00     0.057 A  
HETATM   14  C   UNL     1      -9.849  11.442  68.120  1.00  0.00    -0.195 A  
BRANCH  12  15
HETATM   15  C   UNL     1     -10.842  10.883  65.872  1.00  0.00    -0.132 C  
BRANCH  15  16
HETATM   16  C   UNL     1     -11.412  12.311  65.919  1.00  0.00    -0.428 C  
HETATM   17  C   UNL     1     -11.351  13.158  64.625  1.00  0.00    -0.333 C  
HETATM   18  C   UNL     1     -11.947  14.556  64.962  1.00  0.00    -0.399 C  
HETATM   19  N   UNL     1      -9.947  13.355  64.173  1.00  0.00    -0.757 NA 
HETATM   20  C   UNL     1     -12.183  12.533  63.472  1.00  0.00    -0.558 C  
HETATM   21  O   UNL     1     -11.854  15.435  63.842  1.00  0.00    -0.909 OA 
HETATM   22  O   UNL     1     -11.645  11.287  63.038  1.00  0.00    -0.857 OA 
HETATM   23  H1  UNL     1      -9.907  13.913  63.320  1.00  0.00     0.000 HD 
HETATM   24  H2  UNL     1      -9.463  12.465  64.060  1.00  0.00     0.000 HD 
HETATM   25  H   UNL     1     -12.154  10.904  62.333  1.00  0.00     0.000 HD 
HETATM   26  H   UNL     1     -12.217  16.288  64.048  1.00  0.00     0.000 HD 
ENDBRANCH  15  16
ENDBRANCH  12  15
ENDBRANCH   8   9
ENDBRANCH   7   8
ENDBRANCH   6   7
ENDBRANCH   5   6
ENDBRANCH   4   5
ENDBRANCH   3   4
ENDBRANCH   2   3
TORSDOF 9
ENDMDL
MODEL      166
REMARK 921   NORMALIZED FREE ENERGY PREDICTED BY IDOCK:   -4.01 KCAL/MOL
REMARK 922        TOTAL FREE ENERGY PREDICTED BY IDOCK:   -7.23 KCAL/MOL
REMARK 923 INTER-LIGAND FREE ENERGY PREDICTED BY IDOCK:   -5.83 KCAL/MOL
REMARK 924 INTRA-LIGAND FREE ENERGY PREDICTED BY IDOCK:   -1.40 KCAL/MOL
REMARK 927      BINDING AFFINITY PREDICTED BY RF-SCORE:    0.00 PKD
ROOT
HETATM    1  C   UNL     1      -8.292   8.262  73.348  1.00  0.00    -0.252 C  
HETATM    2  C   UNL     1      -8.719   7.094  74.219  1.00  0.00    -0.242 C  
ENDROOT
BRANCH   2   3
HETATM    3  C   UNL     1      -8.787   5.800  73.413  1.00  0.00    -0.123 C  
BRANCH   3   4
HETATM    4  C   UNL     1      -7.604   5.692  72.455  1.00  0.00    -0.101 C  
BRANCH   4   5
HETATM    5  C   UNL     1      -8.062   5.223  71.078  1.00  0.00    -0.112 C  
BRANCH   5   6
HETATM    6  C   UNL     1      -8.284   6.409  70.143  1.00  0.00    -0.129 C  
BRANCH   6   7
HETATM    7  C   UNL     1      -9.532   6.192  69.297  1.00  0.00    -0.147 C  
BRANCH   7   8
HETATM    8  C   UNL     1     -10.791   6.658  70.034  1.00  0.00    -0.331 C  
BRANCH   8   9
HETATM    9  C   UNL     1     -10.968   8.149  69.923  1.00  0.00    -0.168 A  
HETATM   10  C   UNL     1     -11.370   8.886  71.041  1.00  0.00    -0.350 A  
HETATM   11  C   UNL     1     -11.597  10.255  70.942  1.00  0.00    -0.454 A  
HETATM   12  C   UNL     1     -11.386  10.932  69.737  1.00  0.00    -0.374 A  
HETATM   13  C   UNL     1     -10.764   8.814  68.711  1.00  0.00    -0.111 A  
HETATM   14  C   UNL     1     -10.970  10.193  68.620  1.00  0.00    -0.273 A  
BRANCH  12  15
HETATM   15  C   UNL     1     -11.680  12.409  69.587  1.00  0.00    -0.377 C  
BRANCH  15  16
HETATM   16  C   UNL     1     -11.034  13.051  68.348  1.00  0.00    -0.288 C  
HETATM   17  C   UNL     1     -10.875  14.590  68.328  1.00  0.00    -0.241 C  
HETATM   18  C   UNL     1     -10.242  14.970  66.958  1.00  0.00    -0.257 C  
HETATM   19  N   UNL     1     -12.193  15.272  68.430  1.00  0.00    -0.528 NA 
HETATM   20  C   UNL     1      -9.940  15.099  69.460  1.00  0.00    -0.201 C  
HETATM   21  O   UNL     1     -10.135  16.385  66.819  1.00  0.00    -0.267 OA 
HETATM   22  O   UNL     1     -10.494  14.874  70.754  1.00  0.00    -0.502 OA 
HETATM   23  H1  UNL     1     -12.088  16.286  68.417  1.00  0.00     0.000 HD 
HETATM   24  H2  UNL     1     -12.713  14.960  69.250  1.00  0.00     0.000 HD 
HETATM   25  H   UNL     1      -9.922  15.185  71.446  1.00  0.00     0.000 HD 
HETATM   26  H   UNL     1      -9.749  16.618  65.982  1.00  0.00     0.000 HD 
ENDBRANCH  15  16
ENDBRANCH  12  15
ENDBRANCH   8   9
ENDBRANCH   7   8
ENDBRANCH   6   7
ENDBRANCH   5   6
ENDBRANCH   4   5
ENDBRANCH   3   4
ENDBRANCH   2   3
TORSDOF 9
ENDMDL
MODEL      167
REMARK 921   NORMALIZED FREE ENERGY PREDICTED BY IDOCK:   -4.01 KCAL/MOL
REMARK 922        TOTAL FREE ENERGY PREDICTED BY IDOCK:   -7.22 KCAL/MOL
REMARK 923 INTER-LIGAND FREE ENERGY PREDICTED BY IDOCK:   -6.49 KCAL/MOL
REMARK 924 INTRA-LIGAND FREE ENERGY PREDICTED BY IDOCK:   -0.73 KCAL/MOL
REMARK 927      BINDING AFFINITY PREDICTED BY RF-SCORE:    0.00 PKD
ROOT
HETATM    1  C   UNL     1     -10.241  15.790  66.609  1.00  0.00    -0.290 C  
HETATM    2  C   UNL     1     -10.593  14.343  66.313  1.00  0.00    -0.292 C  
ENDROOT
BRANCH   2   3
HETATM    3  C   UNL     1     -12.016  14.018  66.759  1.00  0.00    -0.473 C  
BRANCH   3   4
HETATM    4  C   UNL     1     -12.902  13.693  65.561  1.00  0.00    -0.443 C  
BRANCH   4   5
HETATM    5  C   UNL     1     -12.117  13.805  64.259  1.00  0.00    -0.481 C  
BRANCH   5   6
HETATM    6  C   UNL     1     -11.772  12.424  63.708  1.00  0.00    -0.566 C  
BRANCH   6   7
HETATM    7  C   UNL     1     -10.299  12.113  63.941  1.00  0.00    -0.441 C  
BRANCH   7   8
HETATM    8  C   UNL     1     -10.058  10.604  64.036  1.00  0.00    -0.378 C  
BRANCH   8   9
HETATM    9  C   UNL     1     -10.142  10.127  65.463  1.00  0.00    -0.338 A  
HETATM   10  C   UNL     1      -9.473   8.961  65.845  1.00  0.00    -0.303 A  
HETATM   11  C   UNL     1      -9.588   8.472  67.142  1.00  0.00    -0.232 A  
HETATM   12  C   UNL     1     -10.337   9.158  68.104  1.00  0.00    -0.263 A  
HETATM   13  C   UNL     1     -10.901  10.815  66.412  1.00  0.00    -0.172 A  
HETATM   14  C   UNL     1     -10.996  10.335  67.721  1.00  0.00    -0.360 A  
BRANCH  12  15
HETATM   15  C   UNL     1     -10.525   8.619  69.505  1.00  0.00    -0.222 C  
BRANCH  15  16
HETATM   16  C   UNL     1      -9.497   7.546  69.903  1.00  0.00    -0.160 C  
HETATM   17  C   UNL     1      -8.800   7.684  71.278  1.00  0.00    -0.133 C  
HETATM   18  C   UNL     1      -7.790   6.506  71.403  1.00  0.00    -0.100 C  
HETATM   19  N   UNL     1      -8.034   8.956  71.371  1.00  0.00    -0.264 NA 
HETATM   20  C   UNL     1      -9.806   7.598  72.459  1.00  0.00    -0.196 C  
HETATM   21  O   UNL     1      -7.039   6.602  72.611  1.00  0.00    -0.078 OA 
HETATM   22  O   UNL     1     -10.712   8.698  72.472  1.00  0.00    -0.307 OA 
HETATM   23  H1  UNL     1      -7.575   9.047  72.277  1.00  0.00     0.000 HD 
HETATM   24  H2  UNL     1      -8.624   9.763  71.168  1.00  0.00     0.000 HD 
HETATM   25  H   UNL     1     -11.327   8.645  73.194  1.00  0.00     0.000 HD 
HETATM   26  H   UNL     1      -6.423   5.883  72.687  1.00  0.00     0.000 HD 
ENDBRANCH  15  16
ENDBRANCH  12  15
ENDBRANCH   8   9
ENDBRANCH   7   8
ENDBRANCH   6   7
ENDBRANCH   5   6
ENDBRANCH   4   5
ENDBRANCH   3   4
ENDBRANCH   2   3
TORSDOF 9
ENDMDL
MODEL      168
REMARK 921   NORMALIZED FREE ENERGY PREDICTED BY IDOCK:   -4.01 KCAL/MOL
REMARK 922        TOTAL FREE ENERGY PREDICTED BY IDOCK:   -7.22 KCAL/MOL
REMARK 923 INTER-LIGAND FREE ENERGY PREDICTED BY IDOCK:   -5.03 KCAL/MOL
REMARK 924 INTRA-LIGAND FREE ENERGY PREDICTED BY IDOCK:   -2.19 KCAL/MOL
REMARK 927      BINDING AFFINITY PREDICTED BY RF-SCORE:    0.00 PKD
ROOT
HETATM    1  C   UNL     1     -11.538  10.943  68.289  1.00  0.00    -0.335 C  
HETATM    2  C   UNL     1     -11.787  12.420  68.039  1.00  0.00    -0.376 C  
ENDROOT
BRANCH   2   3
HETATM    3  C   UNL     1     -11.820  12.730  66.546  1.00  0.00    -0.471 C  
BRANCH   3   4
HETATM    4  C   UNL     1     -12.315  14.152  66.296  1.00  0.00    -0.451 C  
BRANCH   4   5
HETATM    5  C   UNL     1     -11.407  14.876  65.308  1.00  0.00    -0.358 C  
BRANCH   5   6
HETATM    6  C   UNL     1     -10.508  15.879  66.026  1.00  0.00    -0.357 C  
BRANCH   6   7
HETATM    7  C   UNL     1      -9.044  15.488  65.866  1.00  0.00    -0.231 C  
BRANCH   7   8
HETATM    8  C   UNL     1      -8.416  15.121  67.213  1.00  0.00    -0.220 C  
BRANCH   8   9
HETATM    9  C   UNL     1      -8.248  13.631  67.349  1.00  0.00    -0.187 A  
HETATM   10  C   UNL     1      -7.813  13.088  68.561  1.00  0.00    -0.105 A  
HETATM   11  C   UNL     1      -7.594  11.721  68.686  1.00  0.00    -0.125 A  
HETATM   12  C   UNL     1      -7.847  10.852  67.619  1.00  0.00    -0.113 A  
HETATM   13  C   UNL     1      -8.494  12.774  66.272  1.00  0.00     0.427 A  
HETATM   14  C   UNL     1      -8.297  11.397  66.408  1.00  0.00    -0.140 A  
BRANCH  12  15
HETATM   15  C   UNL     1      -7.563   9.369  67.711  1.00  0.00    -0.088 C  
BRANCH  15  16
HETATM   16  C   UNL     1      -8.786   8.524  68.104  1.00  0.00    -0.142 C  
HETATM   17  C   UNL     1      -9.484   7.699  66.995  1.00  0.00    -0.163 C  
HETATM   18  C   UNL     1     -10.702   6.984  67.650  1.00  0.00    -0.261 C  
HETATM   19  N   UNL     1      -9.997   8.578  65.910  1.00  0.00    -0.432 NA 
HETATM   20  C   UNL     1      -8.547   6.620  66.387  1.00  0.00    -0.130 C  
HETATM   21  O   UNL     1     -11.456   6.264  66.677  1.00  0.00    -0.693 OA 
HETATM   22  O   UNL     1      -7.450   7.197  65.684  1.00  0.00    -0.076 OA 
HETATM   23  H1  UNL     1     -10.457   8.035  65.179  1.00  0.00     0.000 HD 
HETATM   24  H2  UNL     1      -9.260   9.170  65.528  1.00  0.00     0.000 HD 
HETATM   25  H   UNL     1      -6.877   6.536  65.312  1.00  0.00     0.000 HD 
HETATM   26  H   UNL     1     -12.199   5.828  67.076  1.00  0.00     0.000 HD 
ENDBRANCH  15  16
ENDBRANCH  12  15
ENDBRANCH   8   9
ENDBRANCH   7   8
ENDBRANCH   6   7
ENDBRANCH   5   6
ENDBRANCH   4   5
ENDBRANCH   3   4
ENDBRANCH   2   3
TORSDOF 9
ENDMDL
MODEL      169
REMARK 921   NORMALIZED FREE ENERGY PREDICTED BY IDOCK:   -4.01 KCAL/MOL
REMARK 922        TOTAL FREE ENERGY PREDICTED BY IDOCK:   -7.22 KCAL/MOL
REMARK 923 INTER-LIGAND FREE ENERGY PREDICTED BY IDOCK:   -6.50 KCAL/MOL
REMARK 924 INTRA-LIGAND FREE ENERGY PREDICTED BY IDOCK:   -0.72 KCAL/MOL
REMARK 927      BINDING AFFINITY PREDICTED BY RF-SCORE:    0.00 PKD
ROOT
HETATM    1  C   UNL     1      -8.469   8.414  71.468  1.00  0.00    -0.202 C  
HETATM    2  C   UNL     1      -9.158   7.239  70.797  1.00  0.00    -0.152 C  
ENDROOT
BRANCH   2   3
HETATM    3  C   UNL     1     -10.671   7.431  70.762  1.00  0.00    -0.245 C  
BRANCH   3   4
HETATM    4  C   UNL     1     -11.164   8.106  72.039  1.00  0.00    -0.372 C  
BRANCH   4   5
HETATM    5  C   UNL     1     -12.007   9.334  71.712  1.00  0.00    -0.455 C  
BRANCH   5   6
HETATM    6  C   UNL     1     -11.346  10.178  70.626  1.00  0.00    -0.433 C  
BRANCH   6   7
HETATM    7  C   UNL     1     -12.402  10.882  69.784  1.00  0.00    -0.326 C  
BRANCH   7   8
HETATM    8  C   UNL     1     -11.874  11.203  68.384  1.00  0.00    -0.302 C  
BRANCH   8   9
HETATM    9  C   UNL     1     -11.648  12.682  68.211  1.00  0.00    -0.377 A  
HETATM   10  C   UNL     1     -11.330  13.194  66.950  1.00  0.00    -0.355 A  
HETATM   11  C   UNL     1     -11.059  14.548  66.784  1.00  0.00    -0.325 A  
HETATM   12  C   UNL     1     -11.141  15.435  67.862  1.00  0.00    -0.323 A  
HETATM   13  C   UNL     1     -11.723  13.557  69.298  1.00  0.00    -0.382 A  
HETATM   14  C   UNL     1     -11.474  14.921  69.124  1.00  0.00    -0.324 A  
BRANCH  12  15
HETATM   15  C   UNL     1     -10.796  16.901  67.720  1.00  0.00    -0.281 C  
BRANCH  15  16
HETATM   16  C   UNL     1      -9.629  17.355  68.613  1.00  0.00    -0.295 C  
HETATM   17  C   UNL     1      -8.189  17.029  68.147  1.00  0.00    -0.217 C  
HETATM   18  C   UNL     1      -7.219  17.555  69.244  1.00  0.00    -0.088 C  
HETATM   19  N   UNL     1      -7.983  15.561  68.018  1.00  0.00    -0.130 NA 
HETATM   20  C   UNL     1      -7.835  17.721  66.802  1.00  0.00    -0.233 C  
HETATM   21  O   UNL     1      -5.867  17.221  68.935  1.00  0.00    -0.155 OA 
HETATM   22  O   UNL     1      -8.619  17.224  65.721  1.00  0.00    -0.532 OA 
HETATM   23  H1  UNL     1      -7.034  15.345  67.710  1.00  0.00     0.000 HD 
HETATM   24  H2  UNL     1      -8.680  15.138  67.405  1.00  0.00     0.000 HD 
HETATM   25  H   UNL     1      -8.402  17.648  64.898  1.00  0.00     0.000 HD 
HETATM   26  H   UNL     1      -5.275  17.542  69.604  1.00  0.00     0.000 HD 
ENDBRANCH  15  16
ENDBRANCH  12  15
ENDBRANCH   8   9
ENDBRANCH   7   8
ENDBRANCH   6   7
ENDBRANCH   5   6
ENDBRANCH   4   5
ENDBRANCH   3   4
ENDBRANCH   2   3
TORSDOF 9
ENDMDL
MODEL      170
REMARK 921   NORMALIZED FREE ENERGY PREDICTED BY IDOCK:   -4.00 KCAL/MOL
REMARK 922        TOTAL FREE ENERGY PREDICTED BY IDOCK:   -7.21 KCAL/MOL
REMARK 923 INTER-LIGAND FREE ENERGY PREDICTED BY IDOCK:   -5.34 KCAL/MOL
REMARK 924 INTRA-LIGAND FREE ENERGY PREDICTED BY IDOCK:   -1.87 KCAL/MOL
REMARK 927      BINDING AFFINITY PREDICTED BY RF-SCORE:    0.00 PKD
ROOT
HETATM    1  C   UNL     1     -12.915   9.878  71.460  1.00  0.00    -0.523 C  
HETATM    2  C   UNL     1     -11.907  10.210  70.373  1.00  0.00    -0.373 C  
ENDROOT
BRANCH   2   3
HETATM    3  C   UNL     1     -12.385  11.377  69.514  1.00  0.00    -0.211 C  
BRANCH   3   4
HETATM    4  C   UNL     1     -11.829  12.699  70.034  1.00  0.00    -0.358 C  
BRANCH   4   5
HETATM    5  C   UNL     1     -11.291  13.549  68.888  1.00  0.00    -0.332 C  
BRANCH   5   6
HETATM    6  C   UNL     1     -11.744  12.997  67.539  1.00  0.00    -0.421 C  
BRANCH   6   7
HETATM    7  C   UNL     1     -10.598  13.041  66.535  1.00  0.00    -0.292 C  
BRANCH   7   8
HETATM    8  C   UNL     1      -9.295  12.532  67.157  1.00  0.00    -0.201 C  
BRANCH   8   9
HETATM    9  C   UNL     1      -9.312  11.033  67.308  1.00  0.00    -0.167 A  
HETATM   10  C   UNL     1      -9.978  10.247  66.363  1.00  0.00    -0.287 A  
HETATM   11  C   UNL     1     -10.055   8.868  66.518  1.00  0.00    -0.356 A  
HETATM   12  C   UNL     1      -9.432   8.230  67.597  1.00  0.00    -0.176 A  
HETATM   13  C   UNL     1      -8.695  10.409  68.395  1.00  0.00    -0.129 A  
HETATM   14  C   UNL     1      -8.753   9.019  68.536  1.00  0.00    -0.133 A  
BRANCH  12  15
HETATM   15  C   UNL     1      -9.550   6.738  67.820  1.00  0.00    -0.133 C  
BRANCH  15  16
HETATM   16  C   UNL     1     -10.549   6.044  66.879  1.00  0.00    -0.384 C  
HETATM   17  C   UNL     1      -9.998   4.999  65.880  1.00  0.00    -0.167 C  
HETATM   18  C   UNL     1     -11.201   4.493  65.031  1.00  0.00     0.287 C  
HETATM   19  N   UNL     1      -9.006   5.607  64.953  1.00  0.00    -0.360 NA 
HETATM   20  C   UNL     1      -9.355   3.780  66.598  1.00  0.00    -0.190 C  
HETATM   21  O   UNL     1     -10.768   3.583  64.023  1.00  0.00    -0.334 OA 
HETATM   22  O   UNL     1      -8.185   4.143  67.326  1.00  0.00    -0.099 OA 
HETATM   23  H1  UNL     1      -8.642   4.918  64.294  1.00  0.00     0.000 HD 
HETATM   24  H2  UNL     1      -8.254   6.071  65.462  1.00  0.00     0.000 HD 
HETATM   25  H   UNL     1      -7.791   3.398  67.765  1.00  0.00     0.000 HD 
HETATM   26  H   UNL     1     -11.502   3.274  63.505  1.00  0.00     0.000 HD 
ENDBRANCH  15  16
ENDBRANCH  12  15
ENDBRANCH   8   9
ENDBRANCH   7   8
ENDBRANCH   6   7
ENDBRANCH   5   6
ENDBRANCH   4   5
ENDBRANCH   3   4
ENDBRANCH   2   3
TORSDOF 9
ENDMDL
MODEL      171
REMARK 921   NORMALIZED FREE ENERGY PREDICTED BY IDOCK:   -4.00 KCAL/MOL
REMARK 922        TOTAL FREE ENERGY PREDICTED BY IDOCK:   -7.21 KCAL/MOL
REMARK 923 INTER-LIGAND FREE ENERGY PREDICTED BY IDOCK:   -6.06 KCAL/MOL
REMARK 924 INTRA-LIGAND FREE ENERGY PREDICTED BY IDOCK:   -1.15 KCAL/MOL
REMARK 927      BINDING AFFINITY PREDICTED BY RF-SCORE:    0.00 PKD
ROOT
HETATM    1  C   UNL     1     -11.246  14.502  65.764  1.00  0.00    -0.334 C  
HETATM    2  C   UNL     1     -10.583  13.403  66.573  1.00  0.00    -0.287 C  
ENDROOT
BRANCH   2   3
HETATM    3  C   UNL     1     -11.364  13.109  67.851  1.00  0.00    -0.321 C  
BRANCH   3   4
HETATM    4  C   UNL     1     -10.904  14.011  68.991  1.00  0.00    -0.268 C  
BRANCH   4   5
HETATM    5  C   UNL     1     -12.072  14.815  69.552  1.00  0.00    -0.328 C  
BRANCH   5   6
HETATM    6  C   UNL     1     -12.448  14.329  70.950  1.00  0.00    -0.424 C  
BRANCH   6   7
HETATM    7  C   UNL     1     -13.511  13.242  70.865  1.00  0.00     0.289 C  
BRANCH   7   8
HETATM    8  C   UNL     1     -13.455  12.313  72.081  1.00  0.00    -0.431 C  
BRANCH   8   9
HETATM    9  C   UNL     1     -12.992  10.933  71.693  1.00  0.00    -0.569 A  
HETATM   10  C   UNL     1     -13.643   9.811  72.213  1.00  0.00    -0.397 A  
HETATM   11  C   UNL     1     -13.192   8.530  71.914  1.00  0.00    -0.398 A  
HETATM   12  C   UNL     1     -12.107   8.333  71.054  1.00  0.00    -0.225 A  
HETATM   13  C   UNL     1     -11.900  10.749  70.840  1.00  0.00    -0.400 A  
HETATM   14  C   UNL     1     -11.464   9.460  70.522  1.00  0.00    -0.317 A  
BRANCH  12  15
HETATM   15  C   UNL     1     -11.560   6.953  70.758  1.00  0.00    -0.397 C  
BRANCH  15  16
HETATM   16  C   UNL     1     -11.389   6.071  72.006  1.00  0.00    -0.345 C  
HETATM   17  C   UNL     1     -10.075   5.264  72.149  1.00  0.00    -0.190 C  
HETATM   18  C   UNL     1     -10.184   4.435  73.462  1.00  0.00    -0.164 C  
HETATM   19  N   UNL     1      -9.899   4.313  71.019  1.00  0.00    -0.188 NA 
HETATM   20  C   UNL     1      -8.828   6.185  72.249  1.00  0.00    -0.137 C  
HETATM   21  O   UNL     1      -9.046   3.594  73.631  1.00  0.00    -0.094 OA 
HETATM   22  O   UNL     1      -8.601   6.913  71.046  1.00  0.00    -0.133 OA 
HETATM   23  H1  UNL     1      -9.034   3.781  71.113  1.00  0.00     0.000 HD 
HETATM   24  H2  UNL     1      -9.950   4.789  70.118  1.00  0.00     0.000 HD 
HETATM   25  H   UNL     1      -7.838   7.476  71.107  1.00  0.00     0.000 HD 
HETATM   26  H   UNL     1      -9.112   3.088  74.432  1.00  0.00     0.000 HD 
ENDBRANCH  15  16
ENDBRANCH  12  15
ENDBRANCH   8   9
ENDBRANCH   7   8
ENDBRANCH   6   7
ENDBRANCH   5   6
ENDBRANCH   4   5
ENDBRANCH   3   4
ENDBRANCH   2   3
TORSDOF 9
ENDMDL
MODEL      172
REMARK 921   NORMALIZED FREE ENERGY PREDICTED BY IDOCK:   -3.98 KCAL/MOL
REMARK 922        TOTAL FREE ENERGY PREDICTED BY IDOCK:   -7.19 KCAL/MOL
REMARK 923 INTER-LIGAND FREE ENERGY PREDICTED BY IDOCK:   -5.52 KCAL/MOL
REMARK 924 INTRA-LIGAND FREE ENERGY PREDICTED BY IDOCK:   -1.66 KCAL/MOL
REMARK 927      BINDING AFFINITY PREDICTED BY RF-SCORE:    0.00 PKD
ROOT
HETATM    1  C   UNL     1     -10.625  15.434  66.813  1.00  0.00    -0.309 C  
HETATM    2  C   UNL     1      -9.768  14.199  66.600  1.00  0.00    -0.297 C  
ENDROOT
BRANCH   2   3
HETATM    3  C   UNL     1     -10.395  12.971  67.254  1.00  0.00    -0.238 C  
BRANCH   3   4
HETATM    4  C   UNL     1     -11.442  12.342  66.340  1.00  0.00    -0.427 C  
BRANCH   4   5
HETATM    5  C   UNL     1     -11.053  12.509  64.875  1.00  0.00    -0.336 C  
BRANCH   5   6
HETATM    6  C   UNL     1     -10.727  11.159  64.240  1.00  0.00    -0.403 C  
BRANCH   6   7
HETATM    7  C   UNL     1      -9.299  10.747  64.572  1.00  0.00    -0.273 C  
BRANCH   7   8
HETATM    8  C   UNL     1      -9.230   9.282  65.010  1.00  0.00    -0.242 C  
BRANCH   8   9
HETATM    9  C   UNL     1      -9.418   9.148  66.498  1.00  0.00    -0.266 A  
HETATM   10  C   UNL     1     -10.634   8.680  67.005  1.00  0.00    -0.293 A  
HETATM   11  C   UNL     1     -10.846   8.607  68.378  1.00  0.00     0.003 A  
HETATM   12  C   UNL     1      -9.837   8.955  69.281  1.00  0.00    -0.176 A  
HETATM   13  C   UNL     1      -8.405   9.509  67.391  1.00  0.00    -0.125 A  
HETATM   14  C   UNL     1      -8.613   9.411  68.770  1.00  0.00    -0.127 A  
BRANCH  12  15
HETATM   15  C   UNL     1     -10.062   8.939  70.777  1.00  0.00    -0.282 C  
BRANCH  15  16
HETATM   16  C   UNL     1     -11.121   7.924  71.237  1.00  0.00    -0.278 C  
HETATM   17  C   UNL     1     -10.667   6.770  72.163  1.00  0.00    -0.220 C  
HETATM   18  C   UNL     1     -11.913   5.878  72.434  1.00  0.00    -0.150 C  
HETATM   19  N   UNL     1      -9.632   5.926  71.508  1.00  0.00    -0.153 NA 
HETATM   20  C   UNL     1     -10.126   7.288  73.525  1.00  0.00    -0.340 C  
HETATM   21  O   UNL     1     -11.566   4.738  73.216  1.00  0.00    -0.348 OA 
HETATM   22  O   UNL     1      -8.925   8.040  73.373  1.00  0.00    -0.245 OA 
HETATM   23  H1  UNL     1      -9.332   5.166  72.118  1.00  0.00     0.000 HD 
HETATM   24  H2  UNL     1      -8.840   6.485  71.190  1.00  0.00     0.000 HD 
HETATM   25  H   UNL     1      -8.594   8.356  74.207  1.00  0.00     0.000 HD 
HETATM   26  H   UNL     1     -12.326   4.193  73.382  1.00  0.00     0.000 HD 
ENDBRANCH  15  16
ENDBRANCH  12  15
ENDBRANCH   8   9
ENDBRANCH   7   8
ENDBRANCH   6   7
ENDBRANCH   5   6
ENDBRANCH   4   5
ENDBRANCH   3   4
ENDBRANCH   2   3
TORSDOF 9
ENDMDL
MODEL      173
REMARK 921   NORMALIZED FREE ENERGY PREDICTED BY IDOCK:   -3.98 KCAL/MOL
REMARK 922        TOTAL FREE ENERGY PREDICTED BY IDOCK:   -7.18 KCAL/MOL
REMARK 923 INTER-LIGAND FREE ENERGY PREDICTED BY IDOCK:   -6.49 KCAL/MOL
REMARK 924 INTRA-LIGAND FREE ENERGY PREDICTED BY IDOCK:   -0.69 KCAL/MOL
REMARK 927      BINDING AFFINITY PREDICTED BY RF-SCORE:    0.00 PKD
ROOT
HETATM    1  C   UNL     1     -12.761  15.573  73.675  1.00  0.00    -0.713 C  
HETATM    2  C   UNL     1     -13.489  15.581  72.343  1.00  0.00    -0.606 C  
ENDROOT
BRANCH   2   3
HETATM    3  C   UNL     1     -14.214  14.260  72.101  1.00  0.00    -0.632 C  
BRANCH   3   4
HETATM    4  C   UNL     1     -13.219  13.135  71.831  1.00  0.00    -0.526 C  
BRANCH   4   5
HETATM    5  C   UNL     1     -12.361  13.451  70.611  1.00  0.00    -0.423 C  
BRANCH   5   6
HETATM    6  C   UNL     1     -12.116  12.197  69.776  1.00  0.00    -0.306 C  
BRANCH   6   7
HETATM    7  C   UNL     1     -11.042  12.459  68.727  1.00  0.00    -0.307 C  
BRANCH   7   8
HETATM    8  C   UNL     1     -11.221  11.551  67.509  1.00  0.00    -0.360 C  
BRANCH   8   9
HETATM    9  C   UNL     1     -10.408  10.290  67.643  1.00  0.00    -0.264 A  
HETATM   10  C   UNL     1     -10.470   9.313  66.646  1.00  0.00    -0.237 A  
HETATM   11  C   UNL     1      -9.774   8.117  66.782  1.00  0.00    -0.303 A  
HETATM   12  C   UNL     1      -8.962   7.882  67.896  1.00  0.00    -0.129 A  
HETATM   13  C   UNL     1      -9.607  10.062  68.766  1.00  0.00    -0.168 A  
HETATM   14  C   UNL     1      -8.890   8.869  68.889  1.00  0.00    -0.137 A  
BRANCH  12  15
HETATM   15  C   UNL     1      -8.240   6.567  68.096  1.00  0.00    -0.117 C  
BRANCH  15  16
HETATM   16  C   UNL     1      -8.247   6.068  69.551  1.00  0.00    -0.115 C  
HETATM   17  C   UNL     1      -9.367   5.088  69.976  1.00  0.00    -0.150 C  
HETATM   18  C   UNL     1      -9.164   4.784  71.489  1.00  0.00    -0.142 C  
HETATM   19  N   UNL     1     -10.713   5.699  69.807  1.00  0.00    -0.335 NA 
HETATM   20  C   UNL     1      -9.305   3.748  69.191  1.00  0.00    -0.173 C  
HETATM   21  O   UNL     1     -10.207   3.949  71.987  1.00  0.00    -0.169 OA 
HETATM   22  O   UNL     1      -9.576   3.927  67.804  1.00  0.00    -0.182 OA 
HETATM   23  H1  UNL     1     -11.451   5.053  70.087  1.00  0.00     0.000 HD 
HETATM   24  H2  UNL     1     -10.853   6.038  68.856  1.00  0.00     0.000 HD 
HETATM   25  H   UNL     1      -9.538   3.107  67.324  1.00  0.00     0.000 HD 
HETATM   26  H   UNL     1     -10.083   3.763  72.911  1.00  0.00     0.000 HD 
ENDBRANCH  15  16
ENDBRANCH  12  15
ENDBRANCH   8   9
ENDBRANCH   7   8
ENDBRANCH   6   7
ENDBRANCH   5   6
ENDBRANCH   4   5
ENDBRANCH   3   4
ENDBRANCH   2   3
TORSDOF 9
ENDMDL
MODEL      174
REMARK 921   NORMALIZED FREE ENERGY PREDICTED BY IDOCK:   -3.97 KCAL/MOL
REMARK 922        TOTAL FREE ENERGY PREDICTED BY IDOCK:   -7.17 KCAL/MOL
REMARK 923 INTER-LIGAND FREE ENERGY PREDICTED BY IDOCK:   -6.41 KCAL/MOL
REMARK 924 INTRA-LIGAND FREE ENERGY PREDICTED BY IDOCK:   -0.77 KCAL/MOL
REMARK 927      BINDING AFFINITY PREDICTED BY RF-SCORE:    0.00 PKD
ROOT
HETATM    1  C   UNL     1      -5.665   4.421  68.659  1.00  0.00    -0.020 C  
HETATM    2  C   UNL     1      -6.836   3.788  67.928  1.00  0.00    -0.047 C  
ENDROOT
BRANCH   2   3
HETATM    3  C   UNL     1      -7.615   4.827  67.127  1.00  0.00    -0.087 C  
BRANCH   3   4
HETATM    4  C   UNL     1      -6.954   6.198  67.224  1.00  0.00    -0.069 C  
BRANCH   4   5
HETATM    5  C   UNL     1      -7.862   7.280  66.651  1.00  0.00    -0.102 C  
BRANCH   5   6
HETATM    6  C   UNL     1      -7.364   7.743  65.284  1.00  0.00    -0.078 C  
BRANCH   6   7
HETATM    7  C   UNL     1      -7.792   9.182  65.023  1.00  0.00    -0.112 C  
BRANCH   7   8
HETATM    8  C   UNL     1      -9.014   9.241  64.103  1.00  0.00    -0.125 C  
BRANCH   8   9
HETATM    9  C   UNL     1      -9.859  10.453  64.395  1.00  0.00    -0.395 A  
HETATM   10  C   UNL     1     -10.276  11.278  63.346  1.00  0.00    -0.454 A  
HETATM   11  C   UNL     1     -11.006  12.434  63.603  1.00  0.00    -0.525 A  
HETATM   12  C   UNL     1     -11.377  12.774  64.907  1.00  0.00    -0.341 A  
HETATM   13  C   UNL     1     -10.215  10.789  65.704  1.00  0.00    -0.320 A  
HETATM   14  C   UNL     1     -10.969  11.938  65.956  1.00  0.00    -0.355 A  
BRANCH  12  15
HETATM   15  C   UNL     1     -12.121  14.055  65.219  1.00  0.00    -0.415 C  
BRANCH  15  16
HETATM   16  C   UNL     1     -11.547  14.833  66.415  1.00  0.00    -0.301 C  
HETATM   17  C   UNL     1     -10.503  15.938  66.128  1.00  0.00    -0.326 C  
HETATM   18  C   UNL     1     -10.063  16.525  67.501  1.00  0.00    -0.267 C  
HETATM   19  N   UNL     1      -9.296  15.381  65.459  1.00  0.00    -0.334 NA 
HETATM   20  C   UNL     1     -11.088  17.090  65.264  1.00  0.00     0.097 C  
HETATM   21  O   UNL     1      -9.034  17.499  67.335  1.00  0.00    -0.227 OA 
HETATM   22  O   UNL     1     -11.430  16.654  63.951  1.00  0.00    -1.604 OA 
HETATM   23  H1  UNL     1      -8.608  16.110  65.269  1.00  0.00     0.000 HD 
HETATM   24  H2  UNL     1      -9.541  14.869  64.612  1.00  0.00     0.000 HD 
HETATM   25  H   UNL     1     -11.788  17.359  63.423  1.00  0.00     0.000 HD 
HETATM   26  H   UNL     1      -8.766  17.857  68.173  1.00  0.00     0.000 HD 
ENDBRANCH  15  16
ENDBRANCH  12  15
ENDBRANCH   8   9
ENDBRANCH   7   8
ENDBRANCH   6   7
ENDBRANCH   5   6
ENDBRANCH   4   5
ENDBRANCH   3   4
ENDBRANCH   2   3
TORSDOF 9
ENDMDL
MODEL      175
REMARK 921   NORMALIZED FREE ENERGY PREDICTED BY IDOCK:   -3.97 KCAL/MOL
REMARK 922        TOTAL FREE ENERGY PREDICTED BY IDOCK:   -7.16 KCAL/MOL
REMARK 923 INTER-LIGAND FREE ENERGY PREDICTED BY IDOCK:   -5.93 KCAL/MOL
REMARK 924 INTRA-LIGAND FREE ENERGY PREDICTED BY IDOCK:   -1.23 KCAL/MOL
REMARK 927      BINDING AFFINITY PREDICTED BY RF-SCORE:    0.00 PKD
ROOT
HETATM    1  C   UNL     1     -12.239  16.090  72.121  1.00  0.00    -0.597 C  
HETATM    2  C   UNL     1     -12.661  14.935  71.231  1.00  0.00    -0.412 C  
ENDROOT
BRANCH   2   3
HETATM    3  C   UNL     1     -11.765  14.830  70.000  1.00  0.00    -0.344 C  
BRANCH   3   4
HETATM    4  C   UNL     1     -11.332  16.213  69.522  1.00  0.00    -0.321 C  
BRANCH   4   5
HETATM    5  C   UNL     1     -10.204  16.105  68.502  1.00  0.00    -0.241 C  
BRANCH   5   6
HETATM    6  C   UNL     1     -10.648  16.628  67.138  1.00  0.00    -0.264 C  
BRANCH   6   7
HETATM    7  C   UNL     1     -10.459  15.557  66.072  1.00  0.00    -0.335 C  
BRANCH   7   8
HETATM    8  C   UNL     1     -11.445  14.402  66.263  1.00  0.00    -0.361 C  
BRANCH   8   9
HETATM    9  C   UNL     1     -10.727  13.081  66.354  1.00  0.00    -0.295 A  
HETATM   10  C   UNL     1     -11.450  11.889  66.256  1.00  0.00    -0.367 A  
HETATM   11  C   UNL     1     -10.813  10.661  66.398  1.00  0.00    -0.132 A  
HETATM   12  C   UNL     1      -9.431  10.588  66.598  1.00  0.00    -0.199 A  
HETATM   13  C   UNL     1      -9.347  13.020  66.565  1.00  0.00    -0.220 A  
HETATM   14  C   UNL     1      -8.705  11.784  66.683  1.00  0.00    -0.186 A  
BRANCH  12  15
HETATM   15  C   UNL     1      -8.723   9.268  66.814  1.00  0.00    -0.138 C  
BRANCH  15  16
HETATM   16  C   UNL     1      -9.100   8.566  68.129  1.00  0.00    -0.138 C  
HETATM   17  C   UNL     1      -9.704   7.143  68.045  1.00  0.00    -0.138 C  
HETATM   18  C   UNL     1     -10.031   6.694  69.499  1.00  0.00    -0.163 C  
HETATM   19  N   UNL     1     -10.973   7.140  67.267  1.00  0.00    -0.549 NA 
HETATM   20  C   UNL     1      -8.715   6.120  67.423  1.00  0.00    -0.104 C  
HETATM   21  O   UNL     1     -10.672   5.420  69.508  1.00  0.00    -0.295 OA 
HETATM   22  O   UNL     1      -8.435   6.407  66.056  1.00  0.00    -0.132 OA 
HETATM   23  H1  UNL     1     -11.371   6.202  67.211  1.00  0.00     0.000 HD 
HETATM   24  H2  UNL     1     -10.845   7.548  66.341  1.00  0.00     0.000 HD 
HETATM   25  H   UNL     1      -7.829   5.781  65.676  1.00  0.00     0.000 HD 
HETATM   26  H   UNL     1     -10.872   5.146  70.396  1.00  0.00     0.000 HD 
ENDBRANCH  15  16
ENDBRANCH  12  15
ENDBRANCH   8   9
ENDBRANCH   7   8
ENDBRANCH   6   7
ENDBRANCH   5   6
ENDBRANCH   4   5
ENDBRANCH   3   4
ENDBRANCH   2   3
TORSDOF 9
ENDMDL
MODEL      176
REMARK 921   NORMALIZED FREE ENERGY PREDICTED BY IDOCK:   -3.95 KCAL/MOL
REMARK 922        TOTAL FREE ENERGY PREDICTED BY IDOCK:   -7.14 KCAL/MOL
REMARK 923 INTER-LIGAND FREE ENERGY PREDICTED BY IDOCK:   -6.27 KCAL/MOL
REMARK 924 INTRA-LIGAND FREE ENERGY PREDICTED BY IDOCK:   -0.87 KCAL/MOL
REMARK 927      BINDING AFFINITY PREDICTED BY RF-SCORE:    0.00 PKD
ROOT
HETATM    1  C   UNL     1     -12.945  15.781  73.545  1.00  0.00    -0.693 C  
HETATM    2  C   UNL     1     -13.877  15.363  72.421  1.00  0.00    -0.661 C  
ENDROOT
BRANCH   2   3
HETATM    3  C   UNL     1     -13.752  13.871  72.125  1.00  0.00    -0.619 C  
BRANCH   3   4
HETATM    4  C   UNL     1     -12.565  13.596  71.207  1.00  0.00    -0.435 C  
BRANCH   4   5
HETATM    5  C   UNL     1     -12.371  14.737  70.214  1.00  0.00    -0.400 C  
BRANCH   5   6
HETATM    6  C   UNL     1     -12.127  14.201  68.806  1.00  0.00    -0.326 C  
BRANCH   6   7
HETATM    7  C   UNL     1     -11.463  15.265  67.941  1.00  0.00    -0.325 C  
BRANCH   7   8
HETATM    8  C   UNL     1     -11.304  14.787  66.496  1.00  0.00    -0.344 C  
BRANCH   8   9
HETATM    9  C   UNL     1     -10.578  13.469  66.434  1.00  0.00    -0.283 A  
HETATM   10  C   UNL     1     -11.205  12.356  65.867  1.00  0.00    -0.373 A  
HETATM   11  C   UNL     1     -10.573  11.117  65.855  1.00  0.00    -0.294 A  
HETATM   12  C   UNL     1      -9.281  10.965  66.369  1.00  0.00    -0.193 A  
HETATM   13  C   UNL     1      -9.291  13.327  66.959  1.00  0.00    -0.242 A  
HETATM   14  C   UNL     1      -8.648  12.086  66.925  1.00  0.00    -0.189 A  
BRANCH  12  15
HETATM   15  C   UNL     1      -8.594   9.618  66.421  1.00  0.00    -0.136 C  
BRANCH  15  16
HETATM   16  C   UNL     1      -7.760   9.393  67.693  1.00  0.00    -0.088 C  
HETATM   17  C   UNL     1      -8.297   8.393  68.745  1.00  0.00    -0.116 C  
HETATM   18  C   UNL     1      -7.294   8.391  69.935  1.00  0.00    -0.060 C  
HETATM   19  N   UNL     1      -9.625   8.817  69.266  1.00  0.00    -0.161 NA 
HETATM   20  C   UNL     1      -8.400   6.947  68.185  1.00  0.00    -0.118 C  
HETATM   21  O   UNL     1      -7.756   7.555  70.993  1.00  0.00    -0.087 OA 
HETATM   22  O   UNL     1      -9.372   6.842  67.149  1.00  0.00    -0.129 OA 
HETATM   23  H1  UNL     1      -9.980   8.158  69.959  1.00  0.00     0.000 HD 
HETATM   24  H2  UNL     1     -10.294   8.961  68.510  1.00  0.00     0.000 HD 
HETATM   25  H   UNL     1      -9.434   5.957  66.806  1.00  0.00     0.000 HD 
HETATM   26  H   UNL     1      -7.144   7.554  71.719  1.00  0.00     0.000 HD 
ENDBRANCH  15  16
ENDBRANCH  12  15
ENDBRANCH   8   9
ENDBRANCH   7   8
ENDBRANCH   6   7
ENDBRANCH   5   6
ENDBRANCH   4   5
ENDBRANCH   3   4
ENDBRANCH   2   3
TORSDOF 9
ENDMDL
MODEL      177
REMARK 921   NORMALIZED FREE ENERGY PREDICTED BY IDOCK:   -3.95 KCAL/MOL
REMARK 922        TOTAL FREE ENERGY PREDICTED BY IDOCK:   -7.14 KCAL/MOL
REMARK 923 INTER-LIGAND FREE ENERGY PREDICTED BY IDOCK:   -5.66 KCAL/MOL
REMARK 924 INTRA-LIGAND FREE ENERGY PREDICTED BY IDOCK:   -1.48 KCAL/MOL
REMARK 927      BINDING AFFINITY PREDICTED BY RF-SCORE:    0.00 PKD
ROOT
HETATM    1  C   UNL     1     -10.154   8.205  72.675  1.00  0.00    -0.379 C  
HETATM    2  C   UNL     1     -10.648   6.908  73.290  1.00  0.00    -0.353 C  
ENDROOT
BRANCH   2   3
HETATM    3  C   UNL     1     -11.287   6.005  72.239  1.00  0.00    -0.353 C  
BRANCH   3   4
HETATM    4  C   UNL     1     -11.516   6.764  70.935  1.00  0.00    -0.384 C  
BRANCH   4   5
HETATM    5  C   UNL     1     -11.264   5.863  69.731  1.00  0.00    -0.331 C  
BRANCH   5   6
HETATM    6  C   UNL     1      -9.780   5.823  69.379  1.00  0.00    -0.200 C  
BRANCH   6   7
HETATM    7  C   UNL     1      -9.191   7.228  69.405  1.00  0.00    -0.148 C  
BRANCH   7   8
HETATM    8  C   UNL     1      -9.202   7.861  68.011  1.00  0.00    -0.134 C  
BRANCH   8   9
HETATM    9  C   UNL     1      -9.881   9.206  68.028  1.00  0.00    -0.197 A  
HETATM   10  C   UNL     1     -10.520   9.647  69.190  1.00  0.00    -0.230 A  
HETATM   11  C   UNL     1     -11.203  10.858  69.205  1.00  0.00    -0.327 A  
HETATM   12  C   UNL     1     -11.229  11.682  68.075  1.00  0.00    -0.327 A  
HETATM   13  C   UNL     1      -9.909  10.016  66.889  1.00  0.00    -0.248 A  
HETATM   14  C   UNL     1     -10.576  11.244  66.915  1.00  0.00    -0.300 A  
BRANCH  12  15
HETATM   15  C   UNL     1     -12.012  12.977  68.047  1.00  0.00    -0.335 C  
BRANCH  15  16
HETATM   16  C   UNL     1     -11.153  14.230  68.281  1.00  0.00    -0.276 C  
HETATM   17  C   UNL     1     -11.587  15.210  69.397  1.00  0.00    -0.323 C  
HETATM   18  C   UNL     1     -10.579  16.397  69.387  1.00  0.00    -0.317 C  
HETATM   19  N   UNL     1     -12.945  15.759  69.136  1.00  0.00     0.146 NA 
HETATM   20  C   UNL     1     -11.558  14.551  70.804  1.00  0.00    -0.205 C  
HETATM   21  O   UNL     1     -10.955  17.394  70.334  1.00  0.00    -0.078 OA 
HETATM   22  O   UNL     1     -12.523  13.510  70.928  1.00  0.00    -0.356 OA 
HETATM   23  H1  UNL     1     -13.232  16.405  69.872  1.00  0.00     0.000 HD 
HETATM   24  H2  UNL     1     -13.630  15.015  69.004  1.00  0.00     0.000 HD 
HETATM   25  H   UNL     1     -12.505  13.107  71.788  1.00  0.00     0.000 HD 
HETATM   26  H   UNL     1     -10.340  18.118  70.328  1.00  0.00     0.000 HD 
ENDBRANCH  15  16
ENDBRANCH  12  15
ENDBRANCH   8   9
ENDBRANCH   7   8
ENDBRANCH   6   7
ENDBRANCH   5   6
ENDBRANCH   4   5
ENDBRANCH   3   4
ENDBRANCH   2   3
TORSDOF 9
ENDMDL
MODEL      178
REMARK 921   NORMALIZED FREE ENERGY PREDICTED BY IDOCK:   -3.95 KCAL/MOL
REMARK 922        TOTAL FREE ENERGY PREDICTED BY IDOCK:   -7.13 KCAL/MOL
REMARK 923 INTER-LIGAND FREE ENERGY PREDICTED BY IDOCK:   -6.33 KCAL/MOL
REMARK 924 INTRA-LIGAND FREE ENERGY PREDICTED BY IDOCK:   -0.80 KCAL/MOL
REMARK 927      BINDING AFFINITY PREDICTED BY RF-SCORE:    0.00 PKD
ROOT
HETATM    1  C   UNL     1      -9.752   5.638  69.346  1.00  0.00    -0.208 C  
HETATM    2  C   UNL     1      -9.117   6.921  69.851  1.00  0.00    -0.144 C  
ENDROOT
BRANCH   2   3
HETATM    3  C   UNL     1     -10.168   7.877  70.408  1.00  0.00    -0.197 C  
BRANCH   3   4
HETATM    4  C   UNL     1      -9.587   9.274  70.601  1.00  0.00    -0.334 C  
BRANCH   4   5
HETATM    5  C   UNL     1      -9.900  10.163  69.402  1.00  0.00    -0.247 C  
BRANCH   5   6
HETATM    6  C   UNL     1     -11.407  10.352  69.243  1.00  0.00    -0.296 C  
BRANCH   6   7
HETATM    7  C   UNL     1     -11.764  11.832  69.296  1.00  0.00    -0.398 C  
BRANCH   7   8
HETATM    8  C   UNL     1     -11.641  12.484  67.916  1.00  0.00    -0.403 C  
BRANCH   8   9
HETATM    9  C   UNL     1     -10.895  13.791  67.994  1.00  0.00    -0.263 A  
HETATM   10  C   UNL     1      -9.532  13.795  68.300  1.00  0.00    -0.214 A  
HETATM   11  C   UNL     1      -8.841  14.994  68.435  1.00  0.00    -0.178 A  
HETATM   12  C   UNL     1      -9.481  16.220  68.225  1.00  0.00    -0.214 A  
HETATM   13  C   UNL     1     -11.549  15.009  67.792  1.00  0.00    -0.336 A  
HETATM   14  C   UNL     1     -10.846  16.212  67.905  1.00  0.00    -0.332 A  
BRANCH  12  15
HETATM   15  C   UNL     1      -8.768  17.539  68.422  1.00  0.00    -0.276 C  
BRANCH  15  16
HETATM   16  C   UNL     1      -8.003  18.025  67.180  1.00  0.00    -0.224 C  
HETATM   17  C   UNL     1      -7.610  19.521  67.108  1.00  0.00    -0.244 C  
HETATM   18  C   UNL     1      -6.895  19.745  65.744  1.00  0.00    -0.282 C  
HETATM   19  N   UNL     1      -8.811  20.397  67.146  1.00  0.00    -0.450 NA 
HETATM   20  C   UNL     1      -6.636  19.928  68.248  1.00  0.00    -0.277 C  
HETATM   21  O   UNL     1      -6.571  21.121  65.556  1.00  0.00    -0.483 OA 
HETATM   22  O   UNL     1      -7.247  19.841  69.532  1.00  0.00    -0.325 OA 
HETATM   23  H1  UNL     1      -8.553  21.383  67.099  1.00  0.00     0.000 HD 
HETATM   24  H2  UNL     1      -9.392  20.201  67.961  1.00  0.00     0.000 HD 
HETATM   25  H   UNL     1      -6.651  20.091  70.229  1.00  0.00     0.000 HD 
HETATM   26  H   UNL     1      -6.135  21.258  64.724  1.00  0.00     0.000 HD 
ENDBRANCH  15  16
ENDBRANCH  12  15
ENDBRANCH   8   9
ENDBRANCH   7   8
ENDBRANCH   6   7
ENDBRANCH   5   6
ENDBRANCH   4   5
ENDBRANCH   3   4
ENDBRANCH   2   3
TORSDOF 9
ENDMDL
MODEL      179
REMARK 921   NORMALIZED FREE ENERGY PREDICTED BY IDOCK:   -3.94 KCAL/MOL
REMARK 922        TOTAL FREE ENERGY PREDICTED BY IDOCK:   -7.13 KCAL/MOL
REMARK 923 INTER-LIGAND FREE ENERGY PREDICTED BY IDOCK:   -6.26 KCAL/MOL
REMARK 924 INTRA-LIGAND FREE ENERGY PREDICTED BY IDOCK:   -0.87 KCAL/MOL
REMARK 927      BINDING AFFINITY PREDICTED BY RF-SCORE:    0.00 PKD
ROOT
HETATM    1  C   UNL     1      -9.713  19.874  66.162  1.00  0.00    -0.527 C  
HETATM    2  C   UNL     1     -10.694  19.031  66.958  1.00  0.00    -0.516 C  
ENDROOT
BRANCH   2   3
HETATM    3  C   UNL     1     -10.039  18.454  68.210  1.00  0.00    -0.410 C  
BRANCH   3   4
HETATM    4  C   UNL     1     -10.451  17.001  68.420  1.00  0.00    -0.370 C  
BRANCH   4   5
HETATM    5  C   UNL     1      -9.610  16.068  67.555  1.00  0.00    -0.222 C  
BRANCH   5   6
HETATM    6  C   UNL     1     -10.491  15.271  66.596  1.00  0.00    -0.290 C  
BRANCH   6   7
HETATM    7  C   UNL     1     -11.520  14.459  67.373  1.00  0.00    -0.377 C  
BRANCH   7   8
HETATM    8  C   UNL     1     -11.615  13.027  66.841  1.00  0.00    -0.419 C  
BRANCH   8   9
HETATM    9  C   UNL     1     -11.137  12.032  67.866  1.00  0.00    -0.289 A  
HETATM   10  C   UNL     1     -12.063  11.380  68.686  1.00  0.00    -0.214 A  
HETATM   11  C   UNL     1     -11.636  10.504  69.678  1.00  0.00    -0.342 A  
HETATM   12  C   UNL     1     -10.277  10.221  69.850  1.00  0.00    -0.250 A  
HETATM   13  C   UNL     1      -9.776  11.765  68.036  1.00  0.00    -0.185 A  
HETATM   14  C   UNL     1      -9.351  10.866  69.018  1.00  0.00    -0.144 A  
BRANCH  12  15
HETATM   15  C   UNL     1      -9.782   9.317  70.958  1.00  0.00    -0.341 C  
BRANCH  15  16
HETATM   16  C   UNL     1     -10.342   7.886  70.891  1.00  0.00    -0.215 C  
HETATM   17  C   UNL     1      -9.721   6.819  71.825  1.00  0.00    -0.160 C  
HETATM   18  C   UNL     1     -10.434   5.469  71.522  1.00  0.00    -0.235 C  
HETATM   19  N   UNL     1      -8.269   6.643  71.554  1.00  0.00    -0.112 NA 
HETATM   20  C   UNL     1      -9.929   7.160  73.326  1.00  0.00    -0.254 C  
HETATM   21  O   UNL     1      -9.863   4.407  72.284  1.00  0.00    -0.157 OA 
HETATM   22  O   UNL     1      -9.227   8.339  73.711  1.00  0.00    -0.230 OA 
HETATM   23  H1  UNL     1      -7.859   5.940  72.170  1.00  0.00     0.000 HD 
HETATM   24  H2  UNL     1      -7.767   7.528  71.612  1.00  0.00     0.000 HD 
HETATM   25  H   UNL     1      -9.354   8.547  74.629  1.00  0.00     0.000 HD 
HETATM   26  H   UNL     1     -10.298   3.583  72.098  1.00  0.00     0.000 HD 
ENDBRANCH  15  16
ENDBRANCH  12  15
ENDBRANCH   8   9
ENDBRANCH   7   8
ENDBRANCH   6   7
ENDBRANCH   5   6
ENDBRANCH   4   5
ENDBRANCH   3   4
ENDBRANCH   2   3
TORSDOF 9
ENDMDL
MODEL      180
REMARK 921   NORMALIZED FREE ENERGY PREDICTED BY IDOCK:   -3.94 KCAL/MOL
REMARK 922        TOTAL FREE ENERGY PREDICTED BY IDOCK:   -7.13 KCAL/MOL
REMARK 923 INTER-LIGAND FREE ENERGY PREDICTED BY IDOCK:   -5.51 KCAL/MOL
REMARK 924 INTRA-LIGAND FREE ENERGY PREDICTED BY IDOCK:   -1.62 KCAL/MOL
REMARK 927      BINDING AFFINITY PREDICTED BY RF-SCORE:    0.00 PKD
ROOT
HETATM    1  C   UNL     1      -9.631  10.743  63.543  1.00  0.00    -0.359 C  
HETATM    2  C   UNL     1      -9.955  10.902  65.018  1.00  0.00    -0.356 C  
ENDROOT
BRANCH   2   3
HETATM    3  C   UNL     1      -9.961   9.553  65.731  1.00  0.00    -0.316 C  
BRANCH   3   4
HETATM    4  C   UNL     1      -9.797   9.732  67.237  1.00  0.00    -0.228 C  
BRANCH   4   5
HETATM    5  C   UNL     1     -11.069  10.301  67.857  1.00  0.00    -0.341 C  
BRANCH   5   6
HETATM    6  C   UNL     1     -10.770  10.978  69.192  1.00  0.00    -0.274 C  
BRANCH   6   7
HETATM    7  C   UNL     1     -11.563  10.317  70.312  1.00  0.00    -0.396 C  
BRANCH   7   8
HETATM    8  C   UNL     1     -10.659   9.463  71.204  1.00  0.00    -0.403 C  
BRANCH   8   9
HETATM    9  C   UNL     1     -10.285   8.171  70.525  1.00  0.00    -0.207 A  
HETATM   10  C   UNL     1      -8.942   7.894  70.253  1.00  0.00    -0.151 A  
HETATM   11  C   UNL     1      -8.583   6.735  69.573  1.00  0.00    -0.133 A  
HETATM   12  C   UNL     1      -9.550   5.801  69.185  1.00  0.00    -0.171 A  
HETATM   13  C   UNL     1     -11.260   7.250  70.133  1.00  0.00    -0.264 A  
HETATM   14  C   UNL     1     -10.895   6.075  69.471  1.00  0.00    -0.439 A  
BRANCH  12  15
HETATM   15  C   UNL     1      -9.192   4.562  68.394  1.00  0.00    -0.178 C  
BRANCH  15  16
HETATM   16  C   UNL     1     -10.141   4.278  67.218  1.00  0.00    -0.043 C  
HETATM   17  C   UNL     1      -9.601   4.489  65.782  1.00  0.00    -0.188 C  
HETATM   18  C   UNL     1     -10.768   4.177  64.800  1.00  0.00    -0.125 C  
HETATM   19  N   UNL     1      -9.182   5.900  65.564  1.00  0.00    -0.360 NA 
HETATM   20  C   UNL     1      -8.415   3.541  65.455  1.00  0.00    -0.107 C  
HETATM   21  O   UNL     1     -10.381   4.428  63.451  1.00  0.00    -0.404 OA 
HETATM   22  O   UNL     1      -7.267   3.824  66.251  1.00  0.00    -0.063 OA 
HETATM   23  H1  UNL     1      -8.826   6.039  64.618  1.00  0.00     0.000 HD 
HETATM   24  H2  UNL     1      -8.507   6.202  66.266  1.00  0.00     0.000 HD 
HETATM   25  H   UNL     1      -6.542   3.243  66.051  1.00  0.00     0.000 HD 
HETATM   26  H   UNL     1     -11.093   4.238  62.851  1.00  0.00     0.000 HD 
ENDBRANCH  15  16
ENDBRANCH  12  15
ENDBRANCH   8   9
ENDBRANCH   7   8
ENDBRANCH   6   7
ENDBRANCH   5   6
ENDBRANCH   4   5
ENDBRANCH   3   4
ENDBRANCH   2   3
TORSDOF 9
ENDMDL
MODEL      181
REMARK 921   NORMALIZED FREE ENERGY PREDICTED BY IDOCK:   -3.94 KCAL/MOL
REMARK 922        TOTAL FREE ENERGY PREDICTED BY IDOCK:   -7.13 KCAL/MOL
REMARK 923 INTER-LIGAND FREE ENERGY PREDICTED BY IDOCK:   -6.34 KCAL/MOL
REMARK 924 INTRA-LIGAND FREE ENERGY PREDICTED BY IDOCK:   -0.79 KCAL/MOL
REMARK 927      BINDING AFFINITY PREDICTED BY RF-SCORE:    0.00 PKD
ROOT
HETATM    1  C   UNL     1     -11.890  16.232  72.268  1.00  0.00    -0.601 C  
HETATM    2  C   UNL     1     -12.628  15.527  71.144  1.00  0.00    -0.509 C  
ENDROOT
BRANCH   2   3
HETATM    3  C   UNL     1     -14.051  15.164  71.560  1.00  0.00    -0.636 C  
BRANCH   3   4
HETATM    4  C   UNL     1     -14.082  13.818  72.276  1.00  0.00    -0.627 C  
BRANCH   4   5
HETATM    5  C   UNL     1     -13.055  12.862  71.680  1.00  0.00    -0.430 C  
BRANCH   5   6
HETATM    6  C   UNL     1     -13.407  11.412  72.002  1.00  0.00    -0.388 C  
BRANCH   6   7
HETATM    7  C   UNL     1     -13.135  10.520  70.797  1.00  0.00    -0.335 C  
BRANCH   7   8
HETATM    8  C   UNL     1     -11.650  10.520  70.429  1.00  0.00    -0.430 C  
BRANCH   8   9
HETATM    9  C   UNL     1     -11.092   9.120  70.408  1.00  0.00    -0.293 A  
HETATM   10  C   UNL     1     -11.180   8.320  71.550  1.00  0.00    -0.316 A  
HETATM   11  C   UNL     1     -10.618   7.049  71.568  1.00  0.00    -0.232 A  
HETATM   12  C   UNL     1      -9.993   6.524  70.433  1.00  0.00    -0.202 A  
HETATM   13  C   UNL     1     -10.460   8.611  69.270  1.00  0.00    -0.226 A  
HETATM   14  C   UNL     1      -9.918   7.323  69.283  1.00  0.00    -0.170 A  
BRANCH  12  15
HETATM   15  C   UNL     1      -9.323   5.166  70.444  1.00  0.00    -0.210 C  
BRANCH  15  16
HETATM   16  C   UNL     1      -9.735   4.260  69.272  1.00  0.00    -0.240 C  
HETATM   17  C   UNL     1      -8.625   3.766  68.312  1.00  0.00    -0.096 C  
HETATM   18  C   UNL     1      -9.316   2.915  67.208  1.00  0.00    -0.138 C  
HETATM   19  N   UNL     1      -7.936   4.906  67.650  1.00  0.00    -0.094 NA 
HETATM   20  C   UNL     1      -7.575   2.877  69.035  1.00  0.00    -0.047 C  
HETATM   21  O   UNL     1      -8.373   2.486  66.228  1.00  0.00    -0.085 OA 
HETATM   22  O   UNL     1      -6.829   3.609  70.003  1.00  0.00    -0.033 OA 
HETATM   23  H1  UNL     1      -7.204   4.581  67.018  1.00  0.00     0.000 HD 
HETATM   24  H2  UNL     1      -7.572   5.571  68.332  1.00  0.00     0.000 HD 
HETATM   25  H   UNL     1      -6.187   3.065  70.445  1.00  0.00     0.000 HD 
HETATM   26  H   UNL     1      -8.794   1.966  65.553  1.00  0.00     0.000 HD 
ENDBRANCH  15  16
ENDBRANCH  12  15
ENDBRANCH   8   9
ENDBRANCH   7   8
ENDBRANCH   6   7
ENDBRANCH   5   6
ENDBRANCH   4   5
ENDBRANCH   3   4
ENDBRANCH   2   3
TORSDOF 9
ENDMDL
MODEL      182
REMARK 921   NORMALIZED FREE ENERGY PREDICTED BY IDOCK:   -3.94 KCAL/MOL
REMARK 922        TOTAL FREE ENERGY PREDICTED BY IDOCK:   -7.12 KCAL/MOL
REMARK 923 INTER-LIGAND FREE ENERGY PREDICTED BY IDOCK:   -6.27 KCAL/MOL
REMARK 924 INTRA-LIGAND FREE ENERGY PREDICTED BY IDOCK:   -0.85 KCAL/MOL
REMARK 927      BINDING AFFINITY PREDICTED BY RF-SCORE:    0.00 PKD
ROOT
HETATM    1  C   UNL     1      -8.029   1.791  66.373  1.00  0.00    -0.073 C  
HETATM    2  C   UNL     1      -7.943   2.628  67.637  1.00  0.00    -0.067 C  
ENDROOT
BRANCH   2   3
HETATM    3  C   UNL     1      -8.895   3.818  67.578  1.00  0.00    -0.140 C  
BRANCH   3   4
HETATM    4  C   UNL     1      -9.435   4.153  68.965  1.00  0.00    -0.244 C  
BRANCH   4   5
HETATM    5  C   UNL     1     -10.347   5.375  68.912  1.00  0.00    -0.260 C  
BRANCH   5   6
HETATM    6  C   UNL     1     -10.238   6.079  67.561  1.00  0.00    -0.225 C  
BRANCH   6   7
HETATM    7  C   UNL     1      -9.912   7.554  67.757  1.00  0.00    -0.214 C  
BRANCH   7   8
HETATM    8  C   UNL     1     -10.169   7.993  69.201  1.00  0.00    -0.221 C  
BRANCH   8   9
HETATM    9  C   UNL     1     -10.693   9.404  69.257  1.00  0.00    -0.228 A  
HETATM   10  C   UNL     1     -11.037   9.968  70.489  1.00  0.00    -0.400 A  
HETATM   11  C   UNL     1     -11.579  11.247  70.554  1.00  0.00    -0.233 A  
HETATM   12  C   UNL     1     -11.751  12.015  69.398  1.00  0.00    -0.402 A  
HETATM   13  C   UNL     1     -10.869  10.158  68.094  1.00  0.00    -0.310 A  
HETATM   14  C   UNL     1     -11.392  11.452  68.165  1.00  0.00    -0.374 A  
BRANCH  12  15
HETATM   15  C   UNL     1     -12.391  13.386  69.435  1.00  0.00    -0.126 C  
BRANCH  15  16
HETATM   16  C   UNL     1     -11.673  14.383  70.360  1.00  0.00    -0.346 C  
HETATM   17  C   UNL     1     -12.490  15.025  71.508  1.00  0.00    -0.333 C  
HETATM   18  C   UNL     1     -11.544  16.013  72.249  1.00  0.00    -0.369 C  
HETATM   19  N   UNL     1     -13.644  15.801  70.981  1.00  0.00    -0.659 NA 
HETATM   20  C   UNL     1     -12.999  13.970  72.528  1.00  0.00    -0.389 C  
HETATM   21  O   UNL     1     -12.242  16.715  73.276  1.00  0.00    -0.443 OA 
HETATM   22  O   UNL     1     -13.947  13.078  71.950  1.00  0.00    -0.214 OA 
HETATM   23  H1  UNL     1     -14.183  16.224  71.737  1.00  0.00     0.000 HD 
HETATM   24  H2  UNL     1     -14.234  15.231  70.376  1.00  0.00     0.000 HD 
HETATM   25  H   UNL     1     -14.258  12.433  72.574  1.00  0.00     0.000 HD 
HETATM   26  H   UNL     1     -11.665  17.319  73.729  1.00  0.00     0.000 HD 
ENDBRANCH  15  16
ENDBRANCH  12  15
ENDBRANCH   8   9
ENDBRANCH   7   8
ENDBRANCH   6   7
ENDBRANCH   5   6
ENDBRANCH   4   5
ENDBRANCH   3   4
ENDBRANCH   2   3
TORSDOF 9
ENDMDL
MODEL      183
REMARK 921   NORMALIZED FREE ENERGY PREDICTED BY IDOCK:   -3.93 KCAL/MOL
REMARK 922        TOTAL FREE ENERGY PREDICTED BY IDOCK:   -7.11 KCAL/MOL
REMARK 923 INTER-LIGAND FREE ENERGY PREDICTED BY IDOCK:   -6.41 KCAL/MOL
REMARK 924 INTRA-LIGAND FREE ENERGY PREDICTED BY IDOCK:   -0.70 KCAL/MOL
REMARK 927      BINDING AFFINITY PREDICTED BY RF-SCORE:    0.00 PKD
ROOT
HETATM    1  C   UNL     1     -10.673   5.060  72.860  1.00  0.00    -0.299 C  
HETATM    2  C   UNL     1     -10.633   6.018  71.682  1.00  0.00    -0.286 C  
ENDROOT
BRANCH   2   3
HETATM    3  C   UNL     1     -10.676   5.265  70.356  1.00  0.00    -0.216 C  
BRANCH   3   4
HETATM    4  C   UNL     1     -10.728   6.235  69.180  1.00  0.00    -0.362 C  
BRANCH   4   5
HETATM    5  C   UNL     1     -10.508   5.502  67.861  1.00  0.00    -0.244 C  
BRANCH   5   6
HETATM    6  C   UNL     1     -10.496   6.478  66.688  1.00  0.00    -0.229 C  
BRANCH   6   7
HETATM    7  C   UNL     1     -10.431   7.914  67.194  1.00  0.00    -0.414 C  
BRANCH   7   8
HETATM    8  C   UNL     1      -9.610   8.799  66.253  1.00  0.00    -0.328 C  
BRANCH   8   9
HETATM    9  C   UNL     1      -9.905  10.258  66.479  1.00  0.00    -0.265 A  
HETATM   10  C   UNL     1     -10.928  10.880  65.757  1.00  0.00    -0.045 A  
HETATM   11  C   UNL     1     -11.175  12.240  65.908  1.00  0.00    -0.381 A  
HETATM   12  C   UNL     1     -10.438  13.007  66.816  1.00  0.00    -0.264 A  
HETATM   13  C   UNL     1      -9.155  11.017  67.381  1.00  0.00    -0.143 A  
HETATM   14  C   UNL     1      -9.422  12.379  67.549  1.00  0.00    -0.187 A  
BRANCH  12  15
HETATM   15  C   UNL     1     -10.648  14.499  66.958  1.00  0.00    -0.278 C  
BRANCH  15  16
HETATM   16  C   UNL     1     -11.686  14.883  68.025  1.00  0.00    -0.344 C  
HETATM   17  C   UNL     1     -11.173  15.523  69.338  1.00  0.00    -0.300 C  
HETATM   18  C   UNL     1     -12.413  15.767  70.247  1.00  0.00    -0.256 C  
HETATM   19  N   UNL     1     -10.248  14.608  70.060  1.00  0.00    -0.414 NA 
HETATM   20  C   UNL     1     -10.467  16.885  69.092  1.00  0.00    -0.335 C  
HETATM   21  O   UNL     1     -12.021  16.281  71.519  1.00  0.00    -0.600 OA 
HETATM   22  O   UNL     1      -9.264  16.737  68.343  1.00  0.00    -0.214 OA 
HETATM   23  H1  UNL     1      -9.909  15.030  70.925  1.00  0.00     0.000 HD 
HETATM   24  H2  UNL     1      -9.477  14.309  69.463  1.00  0.00     0.000 HD 
HETATM   25  H   UNL     1      -8.832  17.570  68.192  1.00  0.00     0.000 HD 
HETATM   26  H   UNL     1     -12.778  16.429  72.074  1.00  0.00     0.000 HD 
ENDBRANCH  15  16
ENDBRANCH  12  15
ENDBRANCH   8   9
ENDBRANCH   7   8
ENDBRANCH   6   7
ENDBRANCH   5   6
ENDBRANCH   4   5
ENDBRANCH   3   4
ENDBRANCH   2   3
TORSDOF 9
ENDMDL
MODEL      184
REMARK 921   NORMALIZED FREE ENERGY PREDICTED BY IDOCK:   -3.92 KCAL/MOL
REMARK 922        TOTAL FREE ENERGY PREDICTED BY IDOCK:   -7.09 KCAL/MOL
REMARK 923 INTER-LIGAND FREE ENERGY PREDICTED BY IDOCK:   -6.13 KCAL/MOL
REMARK 924 INTRA-LIGAND FREE ENERGY PREDICTED BY IDOCK:   -0.96 KCAL/MOL
REMARK 927      BINDING AFFINITY PREDICTED BY RF-SCORE:    0.00 PKD
ROOT
HETATM    1  C   UNL     1     -10.140  11.879  63.476  1.00  0.00    -0.464 C  
HETATM    2  C   UNL     1     -11.408  12.618  63.089  1.00  0.00    -0.100 C  
ENDROOT
BRANCH   2   3
HETATM    3  C   UNL     1     -12.470  12.502  64.179  1.00  0.00    -0.518 C  
BRANCH   3   4
HETATM    4  C   UNL     1     -11.845  12.635  65.565  1.00  0.00    -0.479 C  
BRANCH   4   5
HETATM    5  C   UNL     1     -11.716  14.101  65.963  1.00  0.00    -0.389 C  
BRANCH   5   6
HETATM    6  C   UNL     1     -10.249  14.512  66.063  1.00  0.00    -0.329 C  
BRANCH   6   7
HETATM    7  C   UNL     1      -9.621  13.934  67.325  1.00  0.00    -0.243 C  
BRANCH   7   8
HETATM    8  C   UNL     1      -9.026  12.548  67.065  1.00  0.00    -0.211 C  
BRANCH   8   9
HETATM    9  C   UNL     1      -9.484  11.554  68.100  1.00  0.00    -0.184 A  
HETATM   10  C   UNL     1     -10.775  11.647  68.628  1.00  0.00    -0.246 A  
HETATM   11  C   UNL     1     -11.194  10.775  69.628  1.00  0.00    -0.355 A  
HETATM   12  C   UNL     1     -10.353   9.761  70.096  1.00  0.00    -0.335 A  
HETATM   13  C   UNL     1      -8.631  10.551  68.567  1.00  0.00    -0.135 A  
HETATM   14  C   UNL     1      -9.063   9.661  69.554  1.00  0.00    -0.209 A  
BRANCH  12  15
HETATM   15  C   UNL     1     -10.763   8.837  71.222  1.00  0.00    -0.339 C  
BRANCH  15  16
HETATM   16  C   UNL     1      -9.609   7.994  71.788  1.00  0.00    -0.231 C  
HETATM   17  C   UNL     1      -9.886   6.505  72.108  1.00  0.00    -0.157 C  
HETATM   18  C   UNL     1      -8.576   5.909  72.702  1.00  0.00    -0.119 C  
HETATM   19  N   UNL     1     -10.959   6.363  73.129  1.00  0.00    -0.383 NA 
HETATM   20  C   UNL     1     -10.267   5.692  70.840  1.00  0.00    -0.223 C  
HETATM   21  O   UNL     1      -8.767   4.555  73.105  1.00  0.00    -0.108 OA 
HETATM   22  O   UNL     1     -11.510   6.115  70.286  1.00  0.00    -0.375 OA 
HETATM   23  H1  UNL     1     -11.142   5.382  73.340  1.00  0.00     0.000 HD 
HETATM   24  H2  UNL     1     -11.809   6.850  72.848  1.00  0.00     0.000 HD 
HETATM   25  H   UNL     1     -11.743   5.617  69.511  1.00  0.00     0.000 HD 
HETATM   26  H   UNL     1      -7.968   4.191  73.467  1.00  0.00     0.000 HD 
ENDBRANCH  15  16
ENDBRANCH  12  15
ENDBRANCH   8   9
ENDBRANCH   7   8
ENDBRANCH   6   7
ENDBRANCH   5   6
ENDBRANCH   4   5
ENDBRANCH   3   4
ENDBRANCH   2   3
TORSDOF 9
ENDMDL
MODEL      185
REMARK 921   NORMALIZED FREE ENERGY PREDICTED BY IDOCK:   -3.91 KCAL/MOL
REMARK 922        TOTAL FREE ENERGY PREDICTED BY IDOCK:   -7.07 KCAL/MOL
REMARK 923 INTER-LIGAND FREE ENERGY PREDICTED BY IDOCK:   -5.54 KCAL/MOL
REMARK 924 INTRA-LIGAND FREE ENERGY PREDICTED BY IDOCK:   -1.53 KCAL/MOL
REMARK 927      BINDING AFFINITY PREDICTED BY RF-SCORE:    0.00 PKD
ROOT
HETATM    1  C   UNL     1     -12.032   6.949  70.813  1.00  0.00    -0.424 C  
HETATM    2  C   UNL     1     -11.808   7.525  72.200  1.00  0.00    -0.338 C  
ENDROOT
BRANCH   2   3
HETATM    3  C   UNL     1     -10.322   7.726  72.481  1.00  0.00    -0.328 C  
BRANCH   3   4
HETATM    4  C   UNL     1      -9.470   6.868  71.551  1.00  0.00    -0.155 C  
BRANCH   4   5
HETATM    5  C   UNL     1      -7.992   6.981  71.909  1.00  0.00    -0.098 C  
BRANCH   5   6
HETATM    6  C   UNL     1      -7.121   6.294  70.861  1.00  0.00    -0.070 C  
BRANCH   6   7
HETATM    7  C   UNL     1      -6.762   7.270  69.747  1.00  0.00    -0.044 C  
BRANCH   7   8
HETATM    8  C   UNL     1      -7.580   6.996  68.483  1.00  0.00    -0.115 C  
BRANCH   8   9
HETATM    9  C   UNL     1      -8.543   8.120  68.202  1.00  0.00    -0.129 A  
HETATM   10  C   UNL     1      -8.095   9.444  68.237  1.00  0.00    -0.109 A  
HETATM   11  C   UNL     1      -8.982  10.496  68.039  1.00  0.00    -0.135 A  
HETATM   12  C   UNL     1     -10.331  10.255  67.758  1.00  0.00    -0.246 A  
HETATM   13  C   UNL     1      -9.891   7.868  67.932  1.00  0.00    -0.201 A  
HETATM   14  C   UNL     1     -10.775   8.926  67.710  1.00  0.00    -0.204 A  
BRANCH  12  15
HETATM   15  C   UNL     1     -11.328  11.382  67.597  1.00  0.00    -0.359 C  
BRANCH  15  16
HETATM   16  C   UNL     1     -11.026  12.316  66.413  1.00  0.00    -0.326 C  
HETATM   17  C   UNL     1     -11.021  13.841  66.674  1.00  0.00    -0.296 C  
HETATM   18  C   UNL     1     -10.735  14.542  65.314  1.00  0.00    -0.376 C  
HETATM   19  N   UNL     1     -12.345  14.311  67.163  1.00  0.00    -0.586 NA 
HETATM   20  C   UNL     1      -9.918  14.261  67.685  1.00  0.00    -0.225 C  
HETATM   21  O   UNL     1     -10.795  15.960  65.446  1.00  0.00    -0.364 OA 
HETATM   22  O   UNL     1     -10.158  13.735  68.988  1.00  0.00    -0.414 OA 
HETATM   23  H1  UNL     1     -12.342  15.316  67.336  1.00  0.00     0.000 HD 
HETATM   24  H2  UNL     1     -12.645  13.791  67.987  1.00  0.00     0.000 HD 
HETATM   25  H   UNL     1      -9.483  13.992  69.606  1.00  0.00     0.000 HD 
HETATM   26  H   UNL     1     -10.621  16.388  64.616  1.00  0.00     0.000 HD 
ENDBRANCH  15  16
ENDBRANCH  12  15
ENDBRANCH   8   9
ENDBRANCH   7   8
ENDBRANCH   6   7
ENDBRANCH   5   6
ENDBRANCH   4   5
ENDBRANCH   3   4
ENDBRANCH   2   3
TORSDOF 9
ENDMDL
MODEL      186
REMARK 921   NORMALIZED FREE ENERGY PREDICTED BY IDOCK:   -3.90 KCAL/MOL
REMARK 922        TOTAL FREE ENERGY PREDICTED BY IDOCK:   -7.06 KCAL/MOL
REMARK 923 INTER-LIGAND FREE ENERGY PREDICTED BY IDOCK:   -6.36 KCAL/MOL
REMARK 924 INTRA-LIGAND FREE ENERGY PREDICTED BY IDOCK:   -0.69 KCAL/MOL
REMARK 927      BINDING AFFINITY PREDICTED BY RF-SCORE:    0.00 PKD
ROOT
HETATM    1  C   UNL     1     -12.126  15.034  63.994  1.00  0.00    -0.119 C  
HETATM    2  C   UNL     1     -12.469  14.310  65.284  1.00  0.00    -0.428 C  
ENDROOT
BRANCH   2   3
HETATM    3  C   UNL     1     -12.660  12.815  65.044  1.00  0.00    -0.538 C  
BRANCH   3   4
HETATM    4  C   UNL     1     -11.316  12.115  64.868  1.00  0.00    -0.378 C  
BRANCH   4   5
HETATM    5  C   UNL     1     -10.670  11.833  66.221  1.00  0.00    -0.312 C  
BRANCH   5   6
HETATM    6  C   UNL     1     -11.730  11.619  67.298  1.00  0.00    -0.255 C  
BRANCH   6   7
HETATM    7  C   UNL     1     -11.253  10.587  68.313  1.00  0.00    -0.354 C  
BRANCH   7   8
HETATM    8  C   UNL     1     -11.692  10.959  69.732  1.00  0.00    -0.413 C  
BRANCH   8   9
HETATM    9  C   UNL     1     -11.357   9.865  70.711  1.00  0.00    -0.430 A  
HETATM   10  C   UNL     1     -12.374   9.273  71.465  1.00  0.00    -0.439 A  
HETATM   11  C   UNL     1     -12.076   8.304  72.417  1.00  0.00    -0.430 A  
HETATM   12  C   UNL     1     -10.761   7.868  72.611  1.00  0.00    -0.411 A  
HETATM   13  C   UNL     1     -10.038   9.444  70.903  1.00  0.00    -0.366 A  
HETATM   14  C   UNL     1      -9.744   8.453  71.844  1.00  0.00    -0.331 A  
BRANCH  12  15
HETATM   15  C   UNL     1     -10.403   6.857  73.679  1.00  0.00    -0.397 C  
BRANCH  15  16
HETATM   16  C   UNL     1      -8.930   6.911  74.118  1.00  0.00    -0.220 C  
HETATM   17  C   UNL     1      -8.050   5.665  73.857  1.00  0.00    -0.107 C  
HETATM   18  C   UNL     1      -6.636   5.970  74.432  1.00  0.00    -0.075 C  
HETATM   19  N   UNL     1      -8.583   4.468  74.562  1.00  0.00    -0.102 NA 
HETATM   20  C   UNL     1      -7.908   5.351  72.342  1.00  0.00    -0.103 C  
HETATM   21  O   UNL     1      -5.778   4.838  74.308  1.00  0.00    -0.023 OA 
HETATM   22  O   UNL     1      -9.149   4.968  71.755  1.00  0.00    -0.134 OA 
HETATM   23  H1  UNL     1      -8.003   3.647  74.390  1.00  0.00     0.000 HD 
HETATM   24  H2  UNL     1      -9.558   4.295  74.319  1.00  0.00     0.000 HD 
HETATM   25  H   UNL     1      -9.062   4.777  70.828  1.00  0.00     0.000 HD 
HETATM   26  H   UNL     1      -4.915   5.024  74.660  1.00  0.00     0.000 HD 
ENDBRANCH  15  16
ENDBRANCH  12  15
ENDBRANCH   8   9
ENDBRANCH   7   8
ENDBRANCH   6   7
ENDBRANCH   5   6
ENDBRANCH   4   5
ENDBRANCH   3   4
ENDBRANCH   2   3
TORSDOF 9
ENDMDL
MODEL      187
REMARK 921   NORMALIZED FREE ENERGY PREDICTED BY IDOCK:   -3.89 KCAL/MOL
REMARK 922        TOTAL FREE ENERGY PREDICTED BY IDOCK:   -7.04 KCAL/MOL
REMARK 923 INTER-LIGAND FREE ENERGY PREDICTED BY IDOCK:   -6.24 KCAL/MOL
REMARK 924 INTRA-LIGAND FREE ENERGY PREDICTED BY IDOCK:   -0.80 KCAL/MOL
REMARK 927      BINDING AFFINITY PREDICTED BY RF-SCORE:    0.00 PKD
ROOT
HETATM    1  C   UNL     1      -9.588   2.970  71.124  1.00  0.00    -0.229 C  
HETATM    2  C   UNL     1      -9.806   4.395  70.648  1.00  0.00    -0.280 C  
ENDROOT
BRANCH   2   3
HETATM    3  C   UNL     1     -10.746   5.152  71.581  1.00  0.00    -0.181 C  
BRANCH   3   4
HETATM    4  C   UNL     1     -10.462   6.650  71.542  1.00  0.00    -0.242 C  
BRANCH   4   5
HETATM    5  C   UNL     1      -9.488   6.989  70.419  1.00  0.00    -0.162 C  
BRANCH   5   6
HETATM    6  C   UNL     1      -8.891   8.380  70.614  1.00  0.00    -0.161 C  
BRANCH   6   7
HETATM    7  C   UNL     1      -9.998   9.416  70.762  1.00  0.00    -0.358 C  
BRANCH   7   8
HETATM    8  C   UNL     1     -10.753   9.615  69.445  1.00  0.00    -0.248 C  
BRANCH   8   9
HETATM    9  C   UNL     1     -10.738  11.060  69.020  1.00  0.00    -0.258 A  
HETATM   10  C   UNL     1      -9.647  11.563  68.305  1.00  0.00    -0.189 A  
HETATM   11  C   UNL     1      -9.589  12.908  67.957  1.00  0.00    -0.221 A  
HETATM   12  C   UNL     1     -10.636  13.778  68.275  1.00  0.00    -0.262 A  
HETATM   13  C   UNL     1     -11.786  11.923  69.352  1.00  0.00    -0.389 A  
HETATM   14  C   UNL     1     -11.736  13.269  68.981  1.00  0.00    -0.368 A  
BRANCH  12  15
HETATM   15  C   UNL     1     -10.572  15.257  67.959  1.00  0.00    -0.261 C  
BRANCH  15  16
HETATM   16  C   UNL     1      -9.192  15.729  67.470  1.00  0.00    -0.207 C  
HETATM   17  C   UNL     1      -9.130  17.008  66.601  1.00  0.00    -0.254 C  
HETATM   18  C   UNL     1      -7.638  17.230  66.213  1.00  0.00    -0.325 C  
HETATM   19  N   UNL     1      -9.911  16.847  65.345  1.00  0.00    -0.546 NA 
HETATM   20  C   UNL     1      -9.632  18.264  67.365  1.00  0.00    -0.283 C  
HETATM   21  O   UNL     1      -7.498  18.347  65.337  1.00  0.00    -0.494 OA 
HETATM   22  O   UNL     1     -11.020  18.183  67.676  1.00  0.00    -0.324 OA 
HETATM   23  H1  UNL     1      -9.870  17.690  64.772  1.00  0.00     0.000 HD 
HETATM   24  H2  UNL     1     -10.874  16.572  65.537  1.00  0.00     0.000 HD 
HETATM   25  H   UNL     1     -11.327  18.951  68.144  1.00  0.00     0.000 HD 
HETATM   26  H   UNL     1      -6.588  18.482  65.101  1.00  0.00     0.000 HD 
ENDBRANCH  15  16
ENDBRANCH  12  15
ENDBRANCH   8   9
ENDBRANCH   7   8
ENDBRANCH   6   7
ENDBRANCH   5   6
ENDBRANCH   4   5
ENDBRANCH   3   4
ENDBRANCH   2   3
TORSDOF 9
ENDMDL
MODEL      188
REMARK 921   NORMALIZED FREE ENERGY PREDICTED BY IDOCK:   -3.88 KCAL/MOL
REMARK 922        TOTAL FREE ENERGY PREDICTED BY IDOCK:   -7.02 KCAL/MOL
REMARK 923 INTER-LIGAND FREE ENERGY PREDICTED BY IDOCK:   -5.54 KCAL/MOL
REMARK 924 INTRA-LIGAND FREE ENERGY PREDICTED BY IDOCK:   -1.48 KCAL/MOL
REMARK 927      BINDING AFFINITY PREDICTED BY RF-SCORE:    0.00 PKD
ROOT
HETATM    1  C   UNL     1      -8.221   7.490  71.577  1.00  0.00    -0.105 C  
HETATM    2  C   UNL     1      -8.359   7.494  70.065  1.00  0.00    -0.136 C  
ENDROOT
BRANCH   2   3
HETATM    3  C   UNL     1      -9.724   6.966  69.634  1.00  0.00    -0.157 C  
BRANCH   3   4
HETATM    4  C   UNL     1     -10.611   6.695  70.845  1.00  0.00    -0.263 C  
BRANCH   4   5
HETATM    5  C   UNL     1     -11.818   7.628  70.853  1.00  0.00    -0.272 C  
BRANCH   5   6
HETATM    6  C   UNL     1     -11.654   8.723  71.904  1.00  0.00    -0.432 C  
BRANCH   6   7
HETATM    7  C   UNL     1     -11.376  10.063  71.235  1.00  0.00    -0.336 C  
BRANCH   7   8
HETATM    8  C   UNL     1     -11.702  10.016  69.740  1.00  0.00    -0.144 C  
BRANCH   8   9
HETATM    9  C   UNL     1     -10.968  11.094  68.987  1.00  0.00    -0.286 A  
HETATM   10  C   UNL     1     -11.638  12.266  68.622  1.00  0.00    -0.372 A  
HETATM   11  C   UNL     1     -10.993  13.245  67.874  1.00  0.00    -0.270 A  
HETATM   12  C   UNL     1      -9.651  13.102  67.508  1.00  0.00    -0.208 A  
HETATM   13  C   UNL     1      -9.629  10.936  68.618  1.00  0.00    -0.192 A  
HETATM   14  C   UNL     1      -8.977  11.933  67.887  1.00  0.00    -0.179 A  
BRANCH  12  15
HETATM   15  C   UNL     1      -8.943  14.126  66.647  1.00  0.00    -0.193 C  
BRANCH  15  16
HETATM   16  C   UNL     1      -9.765  15.400  66.392  1.00  0.00    -0.311 C  
HETATM   17  C   UNL     1      -9.222  16.738  66.950  1.00  0.00    -0.232 C  
HETATM   18  C   UNL     1     -10.258  17.842  66.591  1.00  0.00    -0.371 C  
HETATM   19  N   UNL     1      -9.093  16.693  68.432  1.00  0.00    -0.218 NA 
HETATM   20  C   UNL     1      -7.854  17.124  66.324  1.00  0.00    -0.316 C  
HETATM   21  O   UNL     1      -9.876  19.100  67.143  1.00  0.00    -0.316 OA 
HETATM   22  O   UNL     1      -6.822  16.209  66.684  1.00  0.00    -0.236 OA 
HETATM   23  H1  UNL     1      -8.735  17.574  68.800  1.00  0.00     0.000 HD 
HETATM   24  H2  UNL     1      -8.524  15.902  68.734  1.00  0.00     0.000 HD 
HETATM   25  H   UNL     1      -5.985  16.446  66.300  1.00  0.00     0.000 HD 
HETATM   26  H   UNL     1     -10.509  19.774  66.924  1.00  0.00     0.000 HD 
ENDBRANCH  15  16
ENDBRANCH  12  15
ENDBRANCH   8   9
ENDBRANCH   7   8
ENDBRANCH   6   7
ENDBRANCH   5   6
ENDBRANCH   4   5
ENDBRANCH   3   4
ENDBRANCH   2   3
TORSDOF 9
ENDMDL
MODEL      189
REMARK 921   NORMALIZED FREE ENERGY PREDICTED BY IDOCK:   -3.87 KCAL/MOL
REMARK 922        TOTAL FREE ENERGY PREDICTED BY IDOCK:   -7.01 KCAL/MOL
REMARK 923 INTER-LIGAND FREE ENERGY PREDICTED BY IDOCK:   -5.75 KCAL/MOL
REMARK 924 INTRA-LIGAND FREE ENERGY PREDICTED BY IDOCK:   -1.26 KCAL/MOL
REMARK 927      BINDING AFFINITY PREDICTED BY RF-SCORE:    0.00 PKD
ROOT
HETATM    1  C   UNL     1      -7.296  10.116  63.185  1.00  0.00    -0.141 C  
HETATM    2  C   UNL     1      -8.153   8.863  63.155  1.00  0.00    -0.173 C  
ENDROOT
BRANCH   2   3
HETATM    3  C   UNL     1      -7.831   7.945  64.330  1.00  0.00    -0.139 C  
BRANCH   3   4
HETATM    4  C   UNL     1      -7.573   8.753  65.598  1.00  0.00    -0.086 C  
BRANCH   4   5
HETATM    5  C   UNL     1      -8.417   8.231  66.756  1.00  0.00    -0.122 C  
BRANCH   5   6
HETATM    6  C   UNL     1      -9.882   8.624  66.584  1.00  0.00    -0.336 C  
BRANCH   6   7
HETATM    7  C   UNL     1     -10.563   8.743  67.942  1.00  0.00    -0.236 C  
BRANCH   7   8
HETATM    8  C   UNL     1      -9.919   9.842  68.791  1.00  0.00    -0.179 C  
BRANCH   8   9
HETATM    9  C   UNL     1     -10.100  11.197  68.159  1.00  0.00    -0.193 A  
HETATM   10  C   UNL     1     -11.380  11.635  67.808  1.00  0.00    -0.356 A  
HETATM   11  C   UNL     1     -11.560  12.856  67.169  1.00  0.00    -0.421 A  
HETATM   12  C   UNL     1     -10.472  13.695  66.903  1.00  0.00    -0.272 A  
HETATM   13  C   UNL     1      -9.004  12.022  67.889  1.00  0.00    -0.182 A  
HETATM   14  C   UNL     1      -9.190  13.260  67.268  1.00  0.00    -0.222 A  
BRANCH  12  15
HETATM   15  C   UNL     1     -10.634  15.002  66.158  1.00  0.00    -0.314 C  
BRANCH  15  16
HETATM   16  C   UNL     1      -9.356  15.857  66.116  1.00  0.00    -0.385 C  
HETATM   17  C   UNL     1      -9.441  17.315  66.627  1.00  0.00    -0.265 C  
HETATM   18  C   UNL     1      -8.036  17.955  66.432  1.00  0.00    -0.267 C  
HETATM   19  N   UNL     1     -10.421  18.108  65.837  1.00  0.00    -0.565 NA 
HETATM   20  C   UNL     1      -9.812  17.390  68.134  1.00  0.00    -0.301 C  
HETATM   21  O   UNL     1      -8.046  19.332  66.802  1.00  0.00    -0.255 OA 
HETATM   22  O   UNL     1     -11.128  16.907  68.387  1.00  0.00    -0.341 OA 
HETATM   23  H1  UNL     1     -10.477  19.070  66.174  1.00  0.00     0.000 HD 
HETATM   24  H2  UNL     1     -11.338  17.663  65.822  1.00  0.00     0.000 HD 
HETATM   25  H   UNL     1     -11.355  16.953  69.309  1.00  0.00     0.000 HD 
HETATM   26  H   UNL     1      -7.188  19.723  66.683  1.00  0.00     0.000 HD 
ENDBRANCH  15  16
ENDBRANCH  12  15
ENDBRANCH   8   9
ENDBRANCH   7   8
ENDBRANCH   6   7
ENDBRANCH   5   6
ENDBRANCH   4   5
ENDBRANCH   3   4
ENDBRANCH   2   3
TORSDOF 9
ENDMDL
MODEL      190
REMARK 921   NORMALIZED FREE ENERGY PREDICTED BY IDOCK:   -3.86 KCAL/MOL
REMARK 922        TOTAL FREE ENERGY PREDICTED BY IDOCK:   -7.00 KCAL/MOL
REMARK 923 INTER-LIGAND FREE ENERGY PREDICTED BY IDOCK:   -6.20 KCAL/MOL
REMARK 924 INTRA-LIGAND FREE ENERGY PREDICTED BY IDOCK:   -0.80 KCAL/MOL
REMARK 927      BINDING AFFINITY PREDICTED BY RF-SCORE:    0.00 PKD
ROOT
HETATM    1  C   UNL     1      -7.232   6.646  66.962  1.00  0.00    -0.081 C  
HETATM    2  C   UNL     1      -8.523   6.678  67.761  1.00  0.00    -0.122 C  
ENDROOT
BRANCH   2   3
HETATM    3  C   UNL     1      -8.503   7.795  68.800  1.00  0.00    -0.129 C  
BRANCH   3   4
HETATM    4  C   UNL     1      -9.909   8.084  69.317  1.00  0.00    -0.178 C  
BRANCH   4   5
HETATM    5  C   UNL     1      -9.871   9.106  70.449  1.00  0.00    -0.263 C  
BRANCH   5   6
HETATM    6  C   UNL     1     -11.032  10.090  70.334  1.00  0.00    -0.384 C  
BRANCH   6   7
HETATM    7  C   UNL     1     -11.101  10.666  68.925  1.00  0.00    -0.314 C  
BRANCH   7   8
HETATM    8  C   UNL     1     -11.883  11.982  68.901  1.00  0.00    -0.356 C  
BRANCH   8   9
HETATM    9  C   UNL     1     -11.162  13.030  68.093  1.00  0.00    -0.305 A  
HETATM   10  C   UNL     1      -9.773  13.148  68.190  1.00  0.00    -0.228 A  
HETATM   11  C   UNL     1      -9.098  14.148  67.499  1.00  0.00    -0.195 A  
HETATM   12  C   UNL     1      -9.785  15.030  66.658  1.00  0.00    -0.273 A  
HETATM   13  C   UNL     1     -11.861  13.912  67.264  1.00  0.00    -0.442 A  
HETATM   14  C   UNL     1     -11.177  14.901  66.552  1.00  0.00    -0.335 A  
BRANCH  12  15
HETATM   15  C   UNL     1      -9.083  16.162  65.940  1.00  0.00    -0.268 C  
BRANCH  15  16
HETATM   16  C   UNL     1      -9.832  17.503  66.010  1.00  0.00    -0.195 C  
HETATM   17  C   UNL     1      -9.130  18.691  66.711  1.00  0.00    -0.301 C  
HETATM   18  C   UNL     1     -10.117  19.894  66.677  1.00  0.00    -0.475 C  
HETATM   19  N   UNL     1      -8.834  18.379  68.135  1.00  0.00    -0.294 NA 
HETATM   20  C   UNL     1      -7.819  19.108  65.990  1.00  0.00    -0.235 C  
HETATM   21  O   UNL     1      -9.581  21.014  67.380  1.00  0.00    -0.577 OA 
HETATM   22  O   UNL     1      -6.823  18.091  66.057  1.00  0.00    -0.246 OA 
HETATM   23  H1  UNL     1      -8.371  19.162  68.598  1.00  0.00     0.000 HD 
HETATM   24  H2  UNL     1      -8.294  17.519  68.226  1.00  0.00     0.000 HD 
HETATM   25  H   UNL     1      -6.021  18.347  65.616  1.00  0.00     0.000 HD 
HETATM   26  H   UNL     1     -10.183  21.749  67.359  1.00  0.00     0.000 HD 
ENDBRANCH  15  16
ENDBRANCH  12  15
ENDBRANCH   8   9
ENDBRANCH   7   8
ENDBRANCH   6   7
ENDBRANCH   5   6
ENDBRANCH   4   5
ENDBRANCH   3   4
ENDBRANCH   2   3
TORSDOF 9
ENDMDL
MODEL      191
REMARK 921   NORMALIZED FREE ENERGY PREDICTED BY IDOCK:   -3.84 KCAL/MOL
REMARK 922        TOTAL FREE ENERGY PREDICTED BY IDOCK:   -6.97 KCAL/MOL
REMARK 923 INTER-LIGAND FREE ENERGY PREDICTED BY IDOCK:   -6.26 KCAL/MOL
REMARK 924 INTRA-LIGAND FREE ENERGY PREDICTED BY IDOCK:   -0.71 KCAL/MOL
REMARK 927      BINDING AFFINITY PREDICTED BY RF-SCORE:    0.00 PKD
ROOT
HETATM    1  C   UNL     1     -10.704   1.712  63.186  1.00  0.00    -0.167 C  
HETATM    2  C   UNL     1      -9.472   2.598  63.233  1.00  0.00    -0.096 C  
ENDROOT
BRANCH   2   3
HETATM    3  C   UNL     1      -9.490   3.505  64.460  1.00  0.00    -0.154 C  
BRANCH   3   4
HETATM    4  C   UNL     1      -8.304   4.465  64.445  1.00  0.00    -0.109 C  
BRANCH   4   5
HETATM    5  C   UNL     1      -7.856   4.795  65.865  1.00  0.00    -0.095 C  
BRANCH   5   6
HETATM    6  C   UNL     1      -7.363   6.236  65.961  1.00  0.00    -0.080 C  
BRANCH   6   7
HETATM    7  C   UNL     1      -7.663   6.809  67.340  1.00  0.00    -0.110 C  
BRANCH   7   8
HETATM    8  C   UNL     1      -9.164   6.784  67.639  1.00  0.00    -0.118 C  
BRANCH   8   9
HETATM    9  C   UNL     1      -9.778   8.148  67.464  1.00  0.00    -0.207 A  
HETATM   10  C   UNL     1     -10.496   8.727  68.514  1.00  0.00    -0.212 A  
HETATM   11  C   UNL     1     -11.121   9.958  68.351  1.00  0.00    -0.193 A  
HETATM   12  C   UNL     1     -11.010  10.666  67.149  1.00  0.00    -0.312 A  
HETATM   13  C   UNL     1      -9.669   8.841  66.255  1.00  0.00    -0.342 A  
HETATM   14  C   UNL     1     -10.278  10.089  66.101  1.00  0.00    -0.283 A  
BRANCH  12  15
HETATM   15  C   UNL     1     -11.727  11.979  66.926  1.00  0.00    -0.342 C  
BRANCH  15  16
HETATM   16  C   UNL     1     -11.085  12.862  65.842  1.00  0.00    -0.310 C  
HETATM   17  C   UNL     1     -11.637  14.296  65.654  1.00  0.00    -0.346 C  
HETATM   18  C   UNL     1     -10.848  14.944  64.479  1.00  0.00    -0.140 C  
HETATM   19  N   UNL     1     -13.078  14.276  65.284  1.00  0.00    -0.657 NA 
HETATM   20  C   UNL     1     -11.441  15.173  66.922  1.00  0.00    -0.214 C  
HETATM   21  O   UNL     1     -11.351  16.244  64.180  1.00  0.00    -1.184 OA 
HETATM   22  O   UNL     1     -12.209  14.700  68.025  1.00  0.00    -0.585 OA 
HETATM   23  H1  UNL     1     -13.442  15.221  65.160  1.00  0.00     0.000 HD 
HETATM   24  H2  UNL     1     -13.630  13.748  65.959  1.00  0.00     0.000 HD 
HETATM   25  H   UNL     1     -12.088  15.236  68.800  1.00  0.00     0.000 HD 
HETATM   26  H   UNL     1     -10.870  16.639  63.463  1.00  0.00     0.000 HD 
ENDBRANCH  15  16
ENDBRANCH  12  15
ENDBRANCH   8   9
ENDBRANCH   7   8
ENDBRANCH   6   7
ENDBRANCH   5   6
ENDBRANCH   4   5
ENDBRANCH   3   4
ENDBRANCH   2   3
TORSDOF 9
ENDMDL
MODEL      192
REMARK 921   NORMALIZED FREE ENERGY PREDICTED BY IDOCK:   -3.83 KCAL/MOL
REMARK 922        TOTAL FREE ENERGY PREDICTED BY IDOCK:   -6.96 KCAL/MOL
REMARK 923 INTER-LIGAND FREE ENERGY PREDICTED BY IDOCK:   -6.23 KCAL/MOL
REMARK 924 INTRA-LIGAND FREE ENERGY PREDICTED BY IDOCK:   -0.72 KCAL/MOL
REMARK 927      BINDING AFFINITY PREDICTED BY RF-SCORE:    0.00 PKD
ROOT
HETATM    1  C   UNL     1     -12.967  15.796  73.604  1.00  0.00    -0.673 C  
HETATM    2  C   UNL     1     -13.619  15.620  72.243  1.00  0.00    -0.590 C  
ENDROOT
BRANCH   2   3
HETATM    3  C   UNL     1     -14.253  14.238  72.109  1.00  0.00    -0.632 C  
BRANCH   3   4
HETATM    4  C   UNL     1     -13.186  13.164  71.922  1.00  0.00    -0.526 C  
BRANCH   4   5
HETATM    5  C   UNL     1     -12.378  13.418  70.653  1.00  0.00    -0.423 C  
BRANCH   5   6
HETATM    6  C   UNL     1     -12.009  12.104  69.970  1.00  0.00    -0.391 C  
BRANCH   6   7
HETATM    7  C   UNL     1     -11.037  12.357  68.824  1.00  0.00    -0.307 C  
BRANCH   7   8
HETATM    8  C   UNL     1     -11.269  11.377  67.671  1.00  0.00    -0.346 C  
BRANCH   8   9
HETATM    9  C   UNL     1     -10.301  10.224  67.732  1.00  0.00    -0.246 A  
HETATM   10  C   UNL     1      -9.173  10.220  66.907  1.00  0.00    -0.171 A  
HETATM   11  C   UNL     1      -8.301   9.136  66.906  1.00  0.00    -0.119 A  
HETATM   12  C   UNL     1      -8.508   8.048  67.759  1.00  0.00    -0.128 A  
HETATM   13  C   UNL     1     -10.524   9.136  68.581  1.00  0.00    -0.235 A  
HETATM   14  C   UNL     1      -9.633   8.060  68.595  1.00  0.00    -0.150 A  
BRANCH  12  15
HETATM   15  C   UNL     1      -7.607   6.831  67.736  1.00  0.00    -0.107 C  
BRANCH  15  16
HETATM   16  C   UNL     1      -8.364   5.495  67.806  1.00  0.00    -0.099 C  
HETATM   17  C   UNL     1      -8.544   4.693  66.495  1.00  0.00    -0.112 C  
HETATM   18  C   UNL     1      -9.373   3.422  66.841  1.00  0.00    -0.175 C  
HETATM   19  N   UNL     1      -9.305   5.475  65.483  1.00  0.00    -0.341 NA 
HETATM   20  C   UNL     1      -7.186   4.246  65.888  1.00  0.00    -0.072 C  
HETATM   21  O   UNL     1      -9.659   2.663  65.668  1.00  0.00    -0.360 OA 
HETATM   22  O   UNL     1      -6.401   5.353  65.455  1.00  0.00    -0.033 OA 
HETATM   23  H1  UNL     1      -9.424   4.947  64.618  1.00  0.00     0.000 HD 
HETATM   24  H2  UNL     1      -8.874   6.383  65.311  1.00  0.00     0.000 HD 
HETATM   25  H   UNL     1      -5.570   5.079  65.084  1.00  0.00     0.000 HD 
HETATM   26  H   UNL     1     -10.165   1.887  65.880  1.00  0.00     0.000 HD 
ENDBRANCH  15  16
ENDBRANCH  12  15
ENDBRANCH   8   9
ENDBRANCH   7   8
ENDBRANCH   6   7
ENDBRANCH   5   6
ENDBRANCH   4   5
ENDBRANCH   3   4
ENDBRANCH   2   3
TORSDOF 9
ENDMDL
MODEL      193
REMARK 921   NORMALIZED FREE ENERGY PREDICTED BY IDOCK:   -3.83 KCAL/MOL
REMARK 922        TOTAL FREE ENERGY PREDICTED BY IDOCK:   -6.95 KCAL/MOL
REMARK 923 INTER-LIGAND FREE ENERGY PREDICTED BY IDOCK:   -5.18 KCAL/MOL
REMARK 924 INTRA-LIGAND FREE ENERGY PREDICTED BY IDOCK:   -1.77 KCAL/MOL
REMARK 927      BINDING AFFINITY PREDICTED BY RF-SCORE:    0.00 PKD
ROOT
HETATM    1  C   UNL     1     -12.313  12.086  63.652  1.00  0.00    -0.648 C  
HETATM    2  C   UNL     1     -11.411  12.421  64.827  1.00  0.00    -0.375 C  
ENDROOT
BRANCH   2   3
HETATM    3  C   UNL     1     -10.378  13.477  64.447  1.00  0.00    -0.306 C  
BRANCH   3   4
HETATM    4  C   UNL     1     -10.714  14.822  65.082  1.00  0.00    -0.433 C  
BRANCH   4   5
HETATM    5  C   UNL     1     -11.691  14.646  66.240  1.00  0.00    -0.325 C  
BRANCH   5   6
HETATM    6  C   UNL     1     -11.162  15.314  67.507  1.00  0.00    -0.317 C  
BRANCH   6   7
HETATM    7  C   UNL     1      -9.641  15.402  67.465  1.00  0.00    -0.206 C  
BRANCH   7   8
HETATM    8  C   UNL     1      -9.005  14.566  68.578  1.00  0.00    -0.188 C  
BRANCH   8   9
HETATM    9  C   UNL     1      -8.934  13.111  68.196  1.00  0.00    -0.195 A  
HETATM   10  C   UNL     1      -7.721  12.564  67.767  1.00  0.00    -0.142 A  
HETATM   11  C   UNL     1      -7.650  11.238  67.353  1.00  0.00    -0.120 A  
HETATM   12  C   UNL     1      -8.777  10.411  67.397  1.00  0.00    -0.125 A  
HETATM   13  C   UNL     1     -10.069  12.296  68.234  1.00  0.00    -0.218 A  
HETATM   14  C   UNL     1      -9.989  10.958  67.840  1.00  0.00    -0.195 A  
BRANCH  12  15
HETATM   15  C   UNL     1      -8.740   8.982  66.898  1.00  0.00    -0.132 C  
BRANCH  15  16
HETATM   16  C   UNL     1      -7.504   8.653  66.044  1.00  0.00    -0.085 C  
HETATM   17  C   UNL     1      -7.730   8.244  64.569  1.00  0.00    -0.123 C  
HETATM   18  C   UNL     1      -6.333   7.927  63.959  1.00  0.00    -0.061 C  
HETATM   19  N   UNL     1      -8.564   7.016  64.469  1.00  0.00    -0.333 NA 
HETATM   20  C   UNL     1      -8.384   9.381  63.737  1.00  0.00    -0.183 C  
HETATM   21  O   UNL     1      -6.456   7.459  62.617  1.00  0.00    -0.056 OA 
HETATM   22  O   UNL     1      -9.710   9.670  64.173  1.00  0.00    -0.409 OA 
HETATM   23  H1  UNL     1      -8.713   6.746  63.497  1.00  0.00     0.000 HD 
HETATM   24  H2  UNL     1      -9.447   7.122  64.968  1.00  0.00     0.000 HD 
HETATM   25  H   UNL     1     -10.110  10.366  63.664  1.00  0.00     0.000 HD 
HETATM   26  H   UNL     1      -5.603   7.265  62.245  1.00  0.00     0.000 HD 
ENDBRANCH  15  16
ENDBRANCH  12  15
ENDBRANCH   8   9
ENDBRANCH   7   8
ENDBRANCH   6   7
ENDBRANCH   5   6
ENDBRANCH   4   5
ENDBRANCH   3   4
ENDBRANCH   2   3
TORSDOF 9
ENDMDL
MODEL      194
REMARK 921   NORMALIZED FREE ENERGY PREDICTED BY IDOCK:   -3.82 KCAL/MOL
REMARK 922        TOTAL FREE ENERGY PREDICTED BY IDOCK:   -6.95 KCAL/MOL
REMARK 923 INTER-LIGAND FREE ENERGY PREDICTED BY IDOCK:   -5.16 KCAL/MOL
REMARK 924 INTRA-LIGAND FREE ENERGY PREDICTED BY IDOCK:   -1.79 KCAL/MOL
REMARK 927      BINDING AFFINITY PREDICTED BY RF-SCORE:    0.00 PKD
ROOT
HETATM    1  C   UNL     1      -7.282  11.005  68.263  1.00  0.00    -0.085 C  
HETATM    2  C   UNL     1      -6.027  10.166  68.421  1.00  0.00    -0.041 C  
ENDROOT
BRANCH   2   3
HETATM    3  C   UNL     1      -5.950   9.080  67.352  1.00  0.00    -0.050 C  
BRANCH   3   4
HETATM    4  C   UNL     1      -5.527   9.667  66.009  1.00  0.00    -0.043 C  
BRANCH   4   5
HETATM    5  C   UNL     1      -6.601   9.434  64.952  1.00  0.00    -0.082 C  
BRANCH   5   6
HETATM    6  C   UNL     1      -7.394   8.164  65.250  1.00  0.00    -0.073 C  
BRANCH   6   7
HETATM    7  C   UNL     1      -8.855   8.347  64.859  1.00  0.00     0.022 C  
BRANCH   7   8
HETATM    8  C   UNL     1      -9.737   8.560  66.091  1.00  0.00    -0.259 C  
BRANCH   8   9
HETATM    9  C   UNL     1     -10.156  10.001  66.221  1.00  0.00    -0.310 A  
HETATM   10  C   UNL     1      -9.953  10.882  65.155  1.00  0.00    -0.341 A  
HETATM   11  C   UNL     1     -10.278  12.228  65.278  1.00  0.00    -0.305 A  
HETATM   12  C   UNL     1     -10.855  12.723  66.452  1.00  0.00    -0.294 A  
HETATM   13  C   UNL     1     -10.722  10.486  67.403  1.00  0.00    -0.334 A  
HETATM   14  C   UNL     1     -11.070  11.835  67.515  1.00  0.00    -0.330 A  
BRANCH  12  15
HETATM   15  C   UNL     1     -11.164  14.194  66.633  1.00  0.00    -0.330 C  
BRANCH  15  16
HETATM   16  C   UNL     1     -11.844  14.527  67.971  1.00  0.00    -0.350 C  
HETATM   17  C   UNL     1     -11.154  15.555  68.900  1.00  0.00    -0.282 C  
HETATM   18  C   UNL     1     -12.021  15.669  70.188  1.00  0.00    -0.367 C  
HETATM   19  N   UNL     1      -9.797  15.095  69.300  1.00  0.00    -0.241 NA 
HETATM   20  C   UNL     1     -11.053  16.961  68.248  1.00  0.00    -0.213 C  
HETATM   21  O   UNL     1     -11.412  16.537  71.140  1.00  0.00    -0.564 OA 
HETATM   22  O   UNL     1     -10.195  16.964  67.110  1.00  0.00    -0.285 OA 
HETATM   23  H1  UNL     1      -9.341  15.773  69.912  1.00  0.00     0.000 HD 
HETATM   24  H2  UNL     1      -9.220  14.879  68.487  1.00  0.00     0.000 HD 
HETATM   25  H   UNL     1     -10.133  17.825  66.712  1.00  0.00     0.000 HD 
HETATM   26  H   UNL     1     -11.941  16.607  71.926  1.00  0.00     0.000 HD 
ENDBRANCH  15  16
ENDBRANCH  12  15
ENDBRANCH   8   9
ENDBRANCH   7   8
ENDBRANCH   6   7
ENDBRANCH   5   6
ENDBRANCH   4   5
ENDBRANCH   3   4
ENDBRANCH   2   3
TORSDOF 9
ENDMDL
MODEL      195
REMARK 921   NORMALIZED FREE ENERGY PREDICTED BY IDOCK:   -3.82 KCAL/MOL
REMARK 922        TOTAL FREE ENERGY PREDICTED BY IDOCK:   -6.94 KCAL/MOL
REMARK 923 INTER-LIGAND FREE ENERGY PREDICTED BY IDOCK:   -4.96 KCAL/MOL
REMARK 924 INTRA-LIGAND FREE ENERGY PREDICTED BY IDOCK:   -1.98 KCAL/MOL
REMARK 927      BINDING AFFINITY PREDICTED BY RF-SCORE:    0.00 PKD
ROOT
HETATM    1  C   UNL     1     -12.287  12.278  63.341  1.00  0.00    -0.624 C  
HETATM    2  C   UNL     1     -11.561  12.384  64.671  1.00  0.00    -0.400 C  
ENDROOT
BRANCH   2   3
HETATM    3  C   UNL     1     -10.340  13.294  64.563  1.00  0.00    -0.394 C  
BRANCH   3   4
HETATM    4  C   UNL     1     -10.372  14.378  65.636  1.00  0.00    -0.360 C  
BRANCH   4   5
HETATM    5  C   UNL     1     -11.734  14.425  66.319  1.00  0.00    -0.394 C  
BRANCH   5   6
HETATM    6  C   UNL     1     -11.586  14.361  67.837  1.00  0.00    -0.374 C  
BRANCH   6   7
HETATM    7  C   UNL     1     -10.350  13.554  68.216  1.00  0.00    -0.253 C  
BRANCH   7   8
HETATM    8  C   UNL     1     -10.703  12.088  68.479  1.00  0.00    -0.261 C  
BRANCH   8   9
HETATM    9  C   UNL     1      -9.835  11.163  67.666  1.00  0.00    -0.191 A  
HETATM   10  C   UNL     1      -8.488  11.475  67.462  1.00  0.00    -0.143 A  
HETATM   11  C   UNL     1      -7.687  10.665  66.665  1.00  0.00    -0.132 A  
HETATM   12  C   UNL     1      -8.197   9.499  66.085  1.00  0.00    -0.115 A  
HETATM   13  C   UNL     1     -10.358  10.006  67.083  1.00  0.00    -0.300 A  
HETATM   14  C   UNL     1      -9.545   9.181  66.301  1.00  0.00    -0.321 A  
BRANCH  12  15
HETATM   15  C   UNL     1      -7.363   8.632  65.167  1.00  0.00    -0.088 C  
BRANCH  15  16
HETATM   16  C   UNL     1      -8.131   7.443  64.566  1.00  0.00    -0.079 C  
HETATM   17  C   UNL     1      -7.714   6.016  64.999  1.00  0.00    -0.097 C  
HETATM   18  C   UNL     1      -8.614   5.016  64.216  1.00  0.00    -0.130 C  
HETATM   19  N   UNL     1      -6.297   5.735  64.642  1.00  0.00    -0.032 NA 
HETATM   20  C   UNL     1      -7.922   5.779  66.520  1.00  0.00    -0.102 C  
HETATM   21  O   UNL     1      -8.240   3.668  64.492  1.00  0.00    -0.092 OA 
HETATM   22  O   UNL     1      -7.062   6.594  67.312  1.00  0.00    -0.075 OA 
HETATM   23  H1  UNL     1      -6.022   4.795  64.928  1.00  0.00     0.000 HD 
HETATM   24  H2  UNL     1      -5.669   6.441  65.025  1.00  0.00     0.000 HD 
HETATM   25  H   UNL     1      -7.189   6.449  68.242  1.00  0.00     0.000 HD 
HETATM   26  H   UNL     1      -8.789   3.057  64.015  1.00  0.00     0.000 HD 
ENDBRANCH  15  16
ENDBRANCH  12  15
ENDBRANCH   8   9
ENDBRANCH   7   8
ENDBRANCH   6   7
ENDBRANCH   5   6
ENDBRANCH   4   5
ENDBRANCH   3   4
ENDBRANCH   2   3
TORSDOF 9
ENDMDL
MODEL      196
REMARK 921   NORMALIZED FREE ENERGY PREDICTED BY IDOCK:   -3.78 KCAL/MOL
REMARK 922        TOTAL FREE ENERGY PREDICTED BY IDOCK:   -6.88 KCAL/MOL
REMARK 923 INTER-LIGAND FREE ENERGY PREDICTED BY IDOCK:   -5.86 KCAL/MOL
REMARK 924 INTRA-LIGAND FREE ENERGY PREDICTED BY IDOCK:   -1.01 KCAL/MOL
REMARK 927      BINDING AFFINITY PREDICTED BY RF-SCORE:    0.00 PKD
ROOT
HETATM    1  C   UNL     1      -5.971   8.965  74.100  1.00  0.00    -0.110 C  
HETATM    2  C   UNL     1      -6.176   8.534  72.658  1.00  0.00    -0.087 C  
ENDROOT
BRANCH   2   3
HETATM    3  C   UNL     1      -7.102   7.324  72.569  1.00  0.00    -0.068 C  
BRANCH   3   4
HETATM    4  C   UNL     1      -8.337   7.518  73.443  1.00  0.00    -0.181 C  
BRANCH   4   5
HETATM    5  C   UNL     1      -9.449   6.558  73.031  1.00  0.00    -0.152 C  
BRANCH   5   6
HETATM    6  C   UNL     1     -10.807   7.052  73.522  1.00  0.00    -0.289 C  
BRANCH   6   7
HETATM    7  C   UNL     1     -11.375   8.087  72.559  1.00  0.00    -0.469 C  
BRANCH   7   8
HETATM    8  C   UNL     1     -11.132   7.682  71.103  1.00  0.00    -0.269 C  
BRANCH   8   9
HETATM    9  C   UNL     1     -11.027   8.891  70.210  1.00  0.00    -0.266 A  
HETATM   10  C   UNL     1     -10.414   8.780  68.959  1.00  0.00    -0.220 A  
HETATM   11  C   UNL     1     -10.255   9.898  68.148  1.00  0.00    -0.210 A  
HETATM   12  C   UNL     1     -10.742  11.148  68.543  1.00  0.00    -0.235 A  
HETATM   13  C   UNL     1     -11.509  10.137  70.621  1.00  0.00    -0.432 A  
HETATM   14  C   UNL     1     -11.369  11.254  69.793  1.00  0.00    -0.348 A  
BRANCH  12  15
HETATM   15  C   UNL     1     -10.531  12.391  67.705  1.00  0.00    -0.231 C  
BRANCH  15  16
HETATM   16  C   UNL     1     -11.304  13.621  68.210  1.00  0.00    -0.322 C  
HETATM   17  C   UNL     1     -10.530  14.953  68.356  1.00  0.00    -0.243 C  
HETATM   18  C   UNL     1     -11.528  16.007  68.920  1.00  0.00    -0.362 C  
HETATM   19  N   UNL     1      -9.406  14.823  69.322  1.00  0.00    -0.393 NA 
HETATM   20  C   UNL     1      -9.986  15.469  66.995  1.00  0.00    -0.239 C  
HETATM   21  O   UNL     1     -10.875  17.250  69.165  1.00  0.00    -0.324 OA 
HETATM   22  O   UNL     1      -8.991  14.605  66.454  1.00  0.00    -0.414 OA 
HETATM   23  H1  UNL     1      -8.896  15.702  69.418  1.00  0.00     0.000 HD 
HETATM   24  H2  UNL     1      -8.784  14.055  69.071  1.00  0.00     0.000 HD 
HETATM   25  H   UNL     1      -8.658  14.921  65.621  1.00  0.00     0.000 HD 
HETATM   26  H   UNL     1     -11.484  17.893  69.509  1.00  0.00     0.000 HD 
ENDBRANCH  15  16
ENDBRANCH  12  15
ENDBRANCH   8   9
ENDBRANCH   7   8
ENDBRANCH   6   7
ENDBRANCH   5   6
ENDBRANCH   4   5
ENDBRANCH   3   4
ENDBRANCH   2   3
TORSDOF 9
ENDMDL
MODEL      197
REMARK 921   NORMALIZED FREE ENERGY PREDICTED BY IDOCK:   -3.77 KCAL/MOL
REMARK 922        TOTAL FREE ENERGY PREDICTED BY IDOCK:   -6.87 KCAL/MOL
REMARK 923 INTER-LIGAND FREE ENERGY PREDICTED BY IDOCK:   -5.53 KCAL/MOL
REMARK 924 INTRA-LIGAND FREE ENERGY PREDICTED BY IDOCK:   -1.33 KCAL/MOL
REMARK 927      BINDING AFFINITY PREDICTED BY RF-SCORE:    0.00 PKD
ROOT
HETATM    1  C   UNL     1     -10.088   2.731  73.408  1.00  0.00    -0.188 C  
HETATM    2  C   UNL     1     -10.147   4.080  72.712  1.00  0.00    -0.219 C  
ENDROOT
BRANCH   2   3
HETATM    3  C   UNL     1      -8.872   4.347  71.916  1.00  0.00    -0.139 C  
BRANCH   3   4
HETATM    4  C   UNL     1      -8.200   5.635  72.381  1.00  0.00    -0.111 C  
BRANCH   4   5
HETATM    5  C   UNL     1      -8.964   6.256  73.546  1.00  0.00    -0.128 C  
BRANCH   5   6
HETATM    6  C   UNL     1      -9.273   7.726  73.275  1.00  0.00    -0.318 C  
BRANCH   6   7
HETATM    7  C   UNL     1     -10.745   7.902  72.925  1.00  0.00    -0.440 C  
BRANCH   7   8
HETATM    8  C   UNL     1     -11.027   7.487  71.479  1.00  0.00    -0.256 C  
BRANCH   8   9
HETATM    9  C   UNL     1     -10.637   8.575  70.513  1.00  0.00    -0.238 A  
HETATM   10  C   UNL     1      -9.665   8.324  69.540  1.00  0.00    -0.174 A  
HETATM   11  C   UNL     1      -9.250   9.334  68.679  1.00  0.00    -0.135 A  
HETATM   12  C   UNL     1      -9.824  10.608  68.735  1.00  0.00    -0.196 A  
HETATM   13  C   UNL     1     -11.211   9.847  70.585  1.00  0.00    -0.416 A  
HETATM   14  C   UNL     1     -10.809  10.853  69.703  1.00  0.00    -0.271 A  
BRANCH  12  15
HETATM   15  C   UNL     1      -9.350  11.739  67.849  1.00  0.00    -0.184 C  
BRANCH  15  16
HETATM   16  C   UNL     1     -10.406  12.832  67.617  1.00  0.00    -0.221 C  
HETATM   17  C   UNL     1      -9.989  14.305  67.849  1.00  0.00    -0.230 C  
HETATM   18  C   UNL     1     -11.245  15.187  67.589  1.00  0.00    -0.327 C  
HETATM   19  N   UNL     1      -9.555  14.529  69.254  1.00  0.00    -0.410 NA 
HETATM   20  C   UNL     1      -8.861  14.756  66.881  1.00  0.00    -0.248 C  
HETATM   21  O   UNL     1     -10.972  16.559  67.862  1.00  0.00    -0.343 OA 
HETATM   22  O   UNL     1      -7.641  14.060  67.118  1.00  0.00    -0.341 OA 
HETATM   23  H1  UNL     1      -9.279  15.499  69.408  1.00  0.00     0.000 HD 
HETATM   24  H2  UNL     1      -8.813  13.882  69.524  1.00  0.00     0.000 HD 
HETATM   25  H   UNL     1      -6.951  14.336  66.526  1.00  0.00     0.000 HD 
HETATM   26  H   UNL     1     -11.739  17.097  67.703  1.00  0.00     0.000 HD 
ENDBRANCH  15  16
ENDBRANCH  12  15
ENDBRANCH   8   9
ENDBRANCH   7   8
ENDBRANCH   6   7
ENDBRANCH   5   6
ENDBRANCH   4   5
ENDBRANCH   3   4
ENDBRANCH   2   3
TORSDOF 9
ENDMDL
MODEL      198
REMARK 921   NORMALIZED FREE ENERGY PREDICTED BY IDOCK:   -3.75 KCAL/MOL
REMARK 922        TOTAL FREE ENERGY PREDICTED BY IDOCK:   -6.84 KCAL/MOL
REMARK 923 INTER-LIGAND FREE ENERGY PREDICTED BY IDOCK:   -5.72 KCAL/MOL
REMARK 924 INTRA-LIGAND FREE ENERGY PREDICTED BY IDOCK:   -1.11 KCAL/MOL
REMARK 927      BINDING AFFINITY PREDICTED BY RF-SCORE:    0.00 PKD
ROOT
HETATM    1  C   UNL     1     -10.005  11.129  63.884  1.00  0.00    -0.381 C  
HETATM    2  C   UNL     1     -10.352  11.335  65.348  1.00  0.00    -0.328 C  
ENDROOT
BRANCH   2   3
HETATM    3  C   UNL     1     -10.161  10.050  66.148  1.00  0.00    -0.317 C  
BRANCH   3   4
HETATM    4  C   UNL     1     -10.249  10.322  67.646  1.00  0.00    -0.247 C  
BRANCH   4   5
HETATM    5  C   UNL     1     -11.565  11.007  67.997  1.00  0.00    -0.326 C  
BRANCH   5   6
HETATM    6  C   UNL     1     -11.597  11.408  69.469  1.00  0.00    -0.399 C  
BRANCH   6   7
HETATM    7  C   UNL     1     -12.845  10.852  70.144  1.00  0.00    -0.144 C  
BRANCH   7   8
HETATM    8  C   UNL     1     -12.553  10.422  71.583  1.00  0.00    -0.521 C  
BRANCH   8   9
HETATM    9  C   UNL     1     -11.846   9.092  71.624  1.00  0.00    -0.443 A  
HETATM   10  C   UNL     1     -10.481   9.040  71.920  1.00  0.00    -0.373 A  
HETATM   11  C   UNL     1      -9.799   7.829  71.902  1.00  0.00    -0.217 A  
HETATM   12  C   UNL     1     -10.469   6.631  71.632  1.00  0.00    -0.232 A  
HETATM   13  C   UNL     1     -12.524   7.903  71.342  1.00  0.00    -0.330 A  
HETATM   14  C   UNL     1     -11.841   6.684  71.349  1.00  0.00    -0.388 A  
BRANCH  12  15
HETATM   15  C   UNL     1      -9.740   5.307  71.550  1.00  0.00    -0.215 C  
BRANCH  15  16
HETATM   16  C   UNL     1      -9.884   4.601  70.192  1.00  0.00    -0.306 C  
HETATM   17  C   UNL     1      -8.753   4.791  69.152  1.00  0.00    -0.087 C  
HETATM   18  C   UNL     1      -9.170   4.013  67.870  1.00  0.00    -0.158 C  
HETATM   19  N   UNL     1      -8.589   6.224  68.787  1.00  0.00    -0.122 NA 
HETATM   20  C   UNL     1      -7.394   4.225  69.651  1.00  0.00    -0.050 C  
HETATM   21  O   UNL     1      -8.219   4.204  66.824  1.00  0.00    -0.101 OA 
HETATM   22  O   UNL     1      -6.893   4.947  70.772  1.00  0.00    -0.038 OA 
HETATM   23  H1  UNL     1      -7.844   6.349  68.102  1.00  0.00     0.000 HD 
HETATM   24  H2  UNL     1      -8.441   6.805  69.612  1.00  0.00     0.000 HD 
HETATM   25  H   UNL     1      -6.062   4.601  71.077  1.00  0.00     0.000 HD 
HETATM   26  H   UNL     1      -8.474   3.729  66.042  1.00  0.00     0.000 HD 
ENDBRANCH  15  16
ENDBRANCH  12  15
ENDBRANCH   8   9
ENDBRANCH   7   8
ENDBRANCH   6   7
ENDBRANCH   5   6
ENDBRANCH   4   5
ENDBRANCH   3   4
ENDBRANCH   2   3
TORSDOF 9
ENDMDL
MODEL      199
REMARK 921   NORMALIZED FREE ENERGY PREDICTED BY IDOCK:   -3.75 KCAL/MOL
REMARK 922        TOTAL FREE ENERGY PREDICTED BY IDOCK:   -6.83 KCAL/MOL
REMARK 923 INTER-LIGAND FREE ENERGY PREDICTED BY IDOCK:   -5.41 KCAL/MOL
REMARK 924 INTRA-LIGAND FREE ENERGY PREDICTED BY IDOCK:   -1.42 KCAL/MOL
REMARK 927      BINDING AFFINITY PREDICTED BY RF-SCORE:    0.00 PKD
ROOT
HETATM    1  C   UNL     1     -11.469  14.290  66.170  1.00  0.00    -0.357 C  
HETATM    2  C   UNL     1     -11.007  15.577  66.829  1.00  0.00    -0.257 C  
ENDROOT
BRANCH   2   3
HETATM    3  C   UNL     1      -9.995  16.313  65.955  1.00  0.00    -0.370 C  
BRANCH   3   4
HETATM    4  C   UNL     1      -9.359  17.472  66.717  1.00  0.00    -0.275 C  
BRANCH   4   5
HETATM    5  C   UNL     1      -9.298  17.171  68.211  1.00  0.00    -0.265 C  
BRANCH   5   6
HETATM    6  C   UNL     1      -7.906  16.697  68.616  1.00  0.00    -0.234 C  
BRANCH   6   7
HETATM    7  C   UNL     1      -7.963  15.265  69.134  1.00  0.00    -0.214 C  
BRANCH   7   8
HETATM    8  C   UNL     1      -7.636  14.260  68.027  1.00  0.00    -0.144 C  
BRANCH   8   9
HETATM    9  C   UNL     1      -8.051  12.865  68.416  1.00  0.00    -0.130 A  
HETATM   10  C   UNL     1      -7.177  12.061  69.154  1.00  0.00     0.002 A  
HETATM   11  C   UNL     1      -7.518  10.751  69.471  1.00  0.00    -0.113 A  
HETATM   12  C   UNL     1      -8.757  10.221  69.098  1.00  0.00    -0.176 A  
HETATM   13  C   UNL     1      -9.288  12.343  68.029  1.00  0.00    -0.204 A  
HETATM   14  C   UNL     1      -9.638  11.034  68.369  1.00  0.00    -0.181 A  
BRANCH  12  15
HETATM   15  C   UNL     1      -9.130   8.781  69.379  1.00  0.00    -0.145 C  
BRANCH  15  16
HETATM   16  C   UNL     1      -9.009   8.385  70.860  1.00  0.00    -0.188 C  
HETATM   17  C   UNL     1     -10.311   8.065  71.633  1.00  0.00    -0.214 C  
HETATM   18  C   UNL     1      -9.908   7.743  73.102  1.00  0.00    -0.298 C  
HETATM   19  N   UNL     1     -11.228   9.237  71.656  1.00  0.00    -0.370 NA 
HETATM   20  C   UNL     1     -11.058   6.836  71.046  1.00  0.00    -0.273 C  
HETATM   21  O   UNL     1     -11.060   7.516  73.911  1.00  0.00    -0.476 OA 
HETATM   22  O   UNL     1     -11.545   7.083  69.730  1.00  0.00    -0.529 OA 
HETATM   23  H1  UNL     1     -12.087   9.026  72.166  1.00  0.00     0.000 HD 
HETATM   24  H2  UNL     1     -11.426   9.575  70.715  1.00  0.00     0.000 HD 
HETATM   25  H   UNL     1     -12.002   6.331  69.371  1.00  0.00     0.000 HD 
HETATM   26  H   UNL     1     -10.814   7.320  74.807  1.00  0.00     0.000 HD 
ENDBRANCH  15  16
ENDBRANCH  12  15
ENDBRANCH   8   9
ENDBRANCH   7   8
ENDBRANCH   6   7
ENDBRANCH   5   6
ENDBRANCH   4   5
ENDBRANCH   3   4
ENDBRANCH   2   3
TORSDOF 9
ENDMDL
MODEL      200
REMARK 921   NORMALIZED FREE ENERGY PREDICTED BY IDOCK:   -3.74 KCAL/MOL
REMARK 922        TOTAL FREE ENERGY PREDICTED BY IDOCK:   -6.82 KCAL/MOL
REMARK 923 INTER-LIGAND FREE ENERGY PREDICTED BY IDOCK:   -5.02 KCAL/MOL
REMARK 924 INTRA-LIGAND FREE ENERGY PREDICTED BY IDOCK:   -1.80 KCAL/MOL
REMARK 927      BINDING AFFINITY PREDICTED BY RF-SCORE:    0.00 PKD
ROOT
HETATM    1  C   UNL     1      -8.720   3.765  67.355  1.00  0.00    -0.125 C  
HETATM    2  C   UNL     1      -9.782   4.186  68.356  1.00  0.00    -0.150 C  
ENDROOT
BRANCH   2   3
HETATM    3  C   UNL     1      -9.164   4.922  69.541  1.00  0.00    -0.171 C  
BRANCH   3   4
HETATM    4  C   UNL     1      -7.947   5.732  69.104  1.00  0.00    -0.097 C  
BRANCH   4   5
HETATM    5  C   UNL     1      -6.763   5.473  70.029  1.00  0.00    -0.048 C  
BRANCH   5   6
HETATM    6  C   UNL     1      -7.101   4.402  71.062  1.00  0.00    -0.037 C  
BRANCH   6   7
HETATM    7  C   UNL     1      -6.650   4.842  72.450  1.00  0.00    -0.046 C  
BRANCH   7   8
HETATM    8  C   UNL     1      -7.824   4.873  73.432  1.00  0.00    -0.096 C  
BRANCH   8   9
HETATM    9  C   UNL     1      -8.782   5.987  73.102  1.00  0.00    -0.121 A  
HETATM   10  C   UNL     1     -10.146   5.713  72.965  1.00  0.00    -0.202 A  
HETATM   11  C   UNL     1     -11.036   6.718  72.602  1.00  0.00    -0.301 A  
HETATM   12  C   UNL     1     -10.597   8.032  72.410  1.00  0.00    -0.373 A  
HETATM   13  C   UNL     1      -8.330   7.295  72.902  1.00  0.00    -0.132 A  
HETATM   14  C   UNL     1      -9.231   8.307  72.561  1.00  0.00    -0.339 A  
BRANCH  12  15
HETATM   15  C   UNL     1     -11.535   9.130  71.958  1.00  0.00    -0.351 C  
BRANCH  15  16
HETATM   16  C   UNL     1     -10.948  10.040  70.867  1.00  0.00    -0.337 C  
HETATM   17  C   UNL     1     -11.894  11.057  70.184  1.00  0.00    -0.357 C  
HETATM   18  C   UNL     1     -11.063  11.807  69.103  1.00  0.00    -0.238 C  
HETATM   19  N   UNL     1     -13.024  10.371  69.500  1.00  0.00    -0.370 NA 
HETATM   20  C   UNL     1     -12.456  12.103  71.187  1.00  0.00    -0.234 C  
HETATM   21  O   UNL     1     -11.882  12.711  68.363  1.00  0.00    -0.311 OA 
HETATM   22  O   UNL     1     -13.310  11.508  72.160  1.00  0.00    -0.581 OA 
HETATM   23  H1  UNL     1     -13.648  11.041  69.051  1.00  0.00     0.000 HD 
HETATM   24  H2  UNL     1     -13.530   9.758  70.139  1.00  0.00     0.000 HD 
HETATM   25  H   UNL     1     -13.653  12.148  72.773  1.00  0.00     0.000 HD 
HETATM   26  H   UNL     1     -11.375  13.168  67.703  1.00  0.00     0.000 HD 
ENDBRANCH  15  16
ENDBRANCH  12  15
ENDBRANCH   8   9
ENDBRANCH   7   8
ENDBRANCH   6   7
ENDBRANCH   5   6
ENDBRANCH   4   5
ENDBRANCH   3   4
ENDBRANCH   2   3
TORSDOF 9
ENDMDL
MODEL      201
REMARK 921   NORMALIZED FREE ENERGY PREDICTED BY IDOCK:   -3.74 KCAL/MOL
REMARK 922        TOTAL FREE ENERGY PREDICTED BY IDOCK:   -6.82 KCAL/MOL
REMARK 923 INTER-LIGAND FREE ENERGY PREDICTED BY IDOCK:   -5.04 KCAL/MOL
REMARK 924 INTRA-LIGAND FREE ENERGY PREDICTED BY IDOCK:   -1.78 KCAL/MOL
REMARK 927      BINDING AFFINITY PREDICTED BY RF-SCORE:    0.00 PKD
ROOT
HETATM    1  C   UNL     1     -10.085   9.993  66.596  1.00  0.00    -0.289 C  
HETATM    2  C   UNL     1      -9.373   8.682  66.881  1.00  0.00    -0.216 C  
ENDROOT
BRANCH   2   3
HETATM    3  C   UNL     1     -10.359   7.601  67.314  1.00  0.00    -0.367 C  
BRANCH   3   4
HETATM    4  C   UNL     1      -9.723   6.217  67.231  1.00  0.00    -0.150 C  
BRANCH   4   5
HETATM    5  C   UNL     1      -8.376   6.282  66.519  1.00  0.00    -0.114 C  
BRANCH   5   6
HETATM    6  C   UNL     1      -7.655   4.939  66.590  1.00  0.00    -0.088 C  
BRANCH   6   7
HETATM    7  C   UNL     1      -6.385   5.062  67.424  1.00  0.00    -0.040 C  
BRANCH   7   8
HETATM    8  C   UNL     1      -6.563   4.425  68.804  1.00  0.00    -0.045 C  
BRANCH   8   9
HETATM    9  C   UNL     1      -7.291   5.351  69.743  1.00  0.00    -0.065 A  
HETATM   10  C   UNL     1      -8.403   4.888  70.452  1.00  0.00    -0.093 A  
HETATM   11  C   UNL     1      -9.123   5.745  71.277  1.00  0.00    -0.151 A  
HETATM   12  C   UNL     1      -8.727   7.075  71.451  1.00  0.00    -0.125 A  
HETATM   13  C   UNL     1      -6.892   6.681  69.902  1.00  0.00    -0.055 A  
HETATM   14  C   UNL     1      -7.603   7.534  70.750  1.00  0.00    -0.081 A  
BRANCH  12  15
HETATM   15  C   UNL     1      -9.526   8.043  72.297  1.00  0.00    -0.272 C  
BRANCH  15  16
HETATM   16  C   UNL     1     -10.029   9.275  71.526  1.00  0.00    -0.281 C  
HETATM   17  C   UNL     1     -11.492   9.269  71.023  1.00  0.00    -0.319 C  
HETATM   18  C   UNL     1     -11.719  10.599  70.247  1.00  0.00    -0.344 C  
HETATM   19  N   UNL     1     -11.735   8.142  70.082  1.00  0.00    -0.458 NA 
HETATM   20  C   UNL     1     -12.516   9.198  72.190  1.00  0.00    -0.366 C  
HETATM   21  O   UNL     1     -13.024  10.641  69.674  1.00  0.00    -0.542 OA 
HETATM   22  O   UNL     1     -12.437   7.963  72.896  1.00  0.00    -0.581 OA 
HETATM   23  H1  UNL     1     -12.700   8.137  69.750  1.00  0.00     0.000 HD 
HETATM   24  H2  UNL     1     -11.478   7.246  70.496  1.00  0.00     0.000 HD 
HETATM   25  H   UNL     1     -13.063   7.919  73.610  1.00  0.00     0.000 HD 
HETATM   26  H   UNL     1     -13.163  11.453  69.201  1.00  0.00     0.000 HD 
ENDBRANCH  15  16
ENDBRANCH  12  15
ENDBRANCH   8   9
ENDBRANCH   7   8
ENDBRANCH   6   7
ENDBRANCH   5   6
ENDBRANCH   4   5
ENDBRANCH   3   4
ENDBRANCH   2   3
TORSDOF 9
ENDMDL
MODEL      202
REMARK 921   NORMALIZED FREE ENERGY PREDICTED BY IDOCK:   -3.74 KCAL/MOL
REMARK 922        TOTAL FREE ENERGY PREDICTED BY IDOCK:   -6.82 KCAL/MOL
REMARK 923 INTER-LIGAND FREE ENERGY PREDICTED BY IDOCK:   -5.08 KCAL/MOL
REMARK 924 INTRA-LIGAND FREE ENERGY PREDICTED BY IDOCK:   -1.74 KCAL/MOL
REMARK 927      BINDING AFFINITY PREDICTED BY RF-SCORE:    0.00 PKD
ROOT
HETATM    1  C   UNL     1     -12.409   7.142  71.254  1.00  0.00    -0.418 C  
HETATM    2  C   UNL     1     -11.770   8.397  71.820  1.00  0.00    -0.371 C  
ENDROOT
BRANCH   2   3
HETATM    3  C   UNL     1     -10.745   8.057  72.899  1.00  0.00    -0.403 C  
BRANCH   3   4
HETATM    4  C   UNL     1      -9.466   7.502  72.280  1.00  0.00    -0.195 C  
BRANCH   4   5
HETATM    5  C   UNL     1      -8.873   6.402  73.154  1.00  0.00    -0.132 C  
BRANCH   5   6
HETATM    6  C   UNL     1      -9.355   5.026  72.702  1.00  0.00    -0.150 C  
BRANCH   6   7
HETATM    7  C   UNL     1      -8.643   4.610  71.421  1.00  0.00    -0.123 C  
BRANCH   7   8
HETATM    8  C   UNL     1      -9.644   4.242  70.323  1.00  0.00    -0.269 C  
BRANCH   8   9
HETATM    9  C   UNL     1      -9.710   5.312  69.265  1.00  0.00    -0.235 A  
HETATM   10  C   UNL     1      -8.579   6.086  68.987  1.00  0.00    -0.120 A  
HETATM   11  C   UNL     1      -8.639   7.117  68.057  1.00  0.00    -0.128 A  
HETATM   12  C   UNL     1      -9.816   7.376  67.346  1.00  0.00    -0.219 A  
HETATM   13  C   UNL     1     -10.894   5.568  68.568  1.00  0.00    -0.072 A  
HETATM   14  C   UNL     1     -10.945   6.590  67.616  1.00  0.00    -0.426 A  
BRANCH  12  15
HETATM   15  C   UNL     1      -9.924   8.529  66.371  1.00  0.00    -0.314 C  
BRANCH  15  16
HETATM   16  C   UNL     1      -8.953   9.685  66.663  1.00  0.00    -0.166 C  
HETATM   17  C   UNL     1      -7.767   9.898  65.692  1.00  0.00    -0.121 C  
HETATM   18  C   UNL     1      -6.930  11.090  66.241  1.00  0.00    -0.095 C  
HETATM   19  N   UNL     1      -6.885   8.701  65.644  1.00  0.00    -0.070 NA 
HETATM   20  C   UNL     1      -8.240  10.250  64.254  1.00  0.00    -0.157 C  
HETATM   21  O   UNL     1      -5.764  11.304  65.449  1.00  0.00    -0.472 OA 
HETATM   22  O   UNL     1      -8.937   9.169  63.640  1.00  0.00    -0.420 OA 
HETATM   23  H1  UNL     1      -6.103   8.842  65.004  1.00  0.00     0.000 HD 
HETATM   24  H2  UNL     1      -7.410   7.858  65.414  1.00  0.00     0.000 HD 
HETATM   25  H   UNL     1      -9.226   9.384  62.761  1.00  0.00     0.000 HD 
HETATM   26  H   UNL     1      -5.253  12.032  65.784  1.00  0.00     0.000 HD 
ENDBRANCH  15  16
ENDBRANCH  12  15
ENDBRANCH   8   9
ENDBRANCH   7   8
ENDBRANCH   6   7
ENDBRANCH   5   6
ENDBRANCH   4   5
ENDBRANCH   3   4
ENDBRANCH   2   3
TORSDOF 9
ENDMDL
MODEL      203
REMARK 921   NORMALIZED FREE ENERGY PREDICTED BY IDOCK:   -3.74 KCAL/MOL
REMARK 922        TOTAL FREE ENERGY PREDICTED BY IDOCK:   -6.81 KCAL/MOL
REMARK 923 INTER-LIGAND FREE ENERGY PREDICTED BY IDOCK:   -5.95 KCAL/MOL
REMARK 924 INTRA-LIGAND FREE ENERGY PREDICTED BY IDOCK:   -0.86 KCAL/MOL
REMARK 927      BINDING AFFINITY PREDICTED BY RF-SCORE:    0.00 PKD
ROOT
HETATM    1  C   UNL     1     -11.944  15.670  64.237  1.00  0.00    -0.121 C  
HETATM    2  C   UNL     1     -10.784  15.115  65.044  1.00  0.00    -0.451 C  
ENDROOT
BRANCH   2   3
HETATM    3  C   UNL     1     -11.204  14.814  66.480  1.00  0.00    -0.342 C  
BRANCH   3   4
HETATM    4  C   UNL     1     -11.391  13.314  66.690  1.00  0.00    -0.353 C  
BRANCH   4   5
HETATM    5  C   UNL     1     -10.649  12.520  65.620  1.00  0.00    -0.298 C  
BRANCH   5   6
HETATM    6  C   UNL     1     -10.868  11.021  65.803  1.00  0.00    -0.167 C  
BRANCH   6   7
HETATM    7  C   UNL     1      -9.840  10.233  65.001  1.00  0.00    -0.397 C  
BRANCH   7   8
HETATM    8  C   UNL     1      -8.826   9.547  65.920  1.00  0.00    -0.193 C  
BRANCH   8   9
HETATM    9  C   UNL     1      -9.514   8.686  66.946  1.00  0.00    -0.235 A  
HETATM   10  C   UNL     1      -9.528   9.081  68.287  1.00  0.00    -0.156 A  
HETATM   11  C   UNL     1     -10.106   8.269  69.257  1.00  0.00    -0.199 A  
HETATM   12  C   UNL     1     -10.724   7.063  68.910  1.00  0.00    -0.227 A  
HETATM   13  C   UNL     1     -10.119   7.478  66.589  1.00  0.00    -0.263 A  
HETATM   14  C   UNL     1     -10.720   6.676  67.563  1.00  0.00    -0.387 A  
BRANCH  12  15
HETATM   15  C   UNL     1     -11.309   6.135  69.953  1.00  0.00    -0.454 C  
BRANCH  15  16
HETATM   16  C   UNL     1     -10.254   5.349  70.748  1.00  0.00    -0.313 C  
HETATM   17  C   UNL     1     -10.221   5.529  72.285  1.00  0.00    -0.199 C  
HETATM   18  C   UNL     1      -9.045   4.665  72.826  1.00  0.00    -0.122 C  
HETATM   19  N   UNL     1      -9.958   6.946  72.657  1.00  0.00    -0.168 NA 
HETATM   20  C   UNL     1     -11.535   5.052  72.962  1.00  0.00    -0.265 C  
HETATM   21  O   UNL     1      -8.888   4.838  74.233  1.00  0.00    -0.112 OA 
HETATM   22  O   UNL     1     -12.652   5.856  72.591  1.00  0.00    -0.530 OA 
HETATM   23  H1  UNL     1      -9.936   7.065  73.670  1.00  0.00     0.000 HD 
HETATM   24  H2  UNL     1     -10.629   7.578  72.221  1.00  0.00     0.000 HD 
HETATM   25  H   UNL     1     -13.456   5.563  73.005  1.00  0.00     0.000 HD 
HETATM   26  H   UNL     1      -8.170   4.310  74.563  1.00  0.00     0.000 HD 
ENDBRANCH  15  16
ENDBRANCH  12  15
ENDBRANCH   8   9
ENDBRANCH   7   8
ENDBRANCH   6   7
ENDBRANCH   5   6
ENDBRANCH   4   5
ENDBRANCH   3   4
ENDBRANCH   2   3
TORSDOF 9
ENDMDL
MODEL      204
REMARK 921   NORMALIZED FREE ENERGY PREDICTED BY IDOCK:   -3.72 KCAL/MOL
REMARK 922        TOTAL FREE ENERGY PREDICTED BY IDOCK:   -6.79 KCAL/MOL
REMARK 923 INTER-LIGAND FREE ENERGY PREDICTED BY IDOCK:   -5.76 KCAL/MOL
REMARK 924 INTRA-LIGAND FREE ENERGY PREDICTED BY IDOCK:   -1.02 KCAL/MOL
REMARK 927      BINDING AFFINITY PREDICTED BY RF-SCORE:    0.00 PKD
ROOT
HETATM    1  C   UNL     1     -12.353  16.179  72.454  1.00  0.00    -0.554 C  
HETATM    2  C   UNL     1     -11.862  14.746  72.341  1.00  0.00    -0.264 C  
ENDROOT
BRANCH   2   3
HETATM    3  C   UNL     1     -13.030  13.764  72.291  1.00  0.00    -0.432 C  
BRANCH   3   4
HETATM    4  C   UNL     1     -12.678  12.542  71.449  1.00  0.00    -0.345 C  
BRANCH   4   5
HETATM    5  C   UNL     1     -13.251  11.272  72.069  1.00  0.00    -0.437 C  
BRANCH   5   6
HETATM    6  C   UNL     1     -13.164  10.101  71.094  1.00  0.00    -0.438 C  
BRANCH   6   7
HETATM    7  C   UNL     1     -12.093   9.115  71.543  1.00  0.00    -0.422 C  
BRANCH   7   8
HETATM    8  C   UNL     1     -11.348   8.520  70.346  1.00  0.00    -0.193 C  
BRANCH   8   9
HETATM    9  C   UNL     1     -10.435   9.536  69.711  1.00  0.00    -0.253 A  
HETATM   10  C   UNL     1      -9.197   9.819  70.295  1.00  0.00    -0.225 A  
HETATM   11  C   UNL     1      -8.368  10.796  69.757  1.00  0.00     0.336 A  
HETATM   12  C   UNL     1      -8.731  11.487  68.596  1.00  0.00    -0.103 A  
HETATM   13  C   UNL     1     -10.814  10.227  68.557  1.00  0.00    -0.281 A  
HETATM   14  C   UNL     1      -9.967  11.193  68.004  1.00  0.00    -0.190 A  
BRANCH  12  15
HETATM   15  C   UNL     1      -7.874  12.595  68.023  1.00  0.00    -0.149 C  
BRANCH  15  16
HETATM   16  C   UNL     1      -8.676  13.811  67.530  1.00  0.00    -0.194 C  
HETATM   17  C   UNL     1      -9.137  14.850  68.581  1.00  0.00    -0.185 C  
HETATM   18  C   UNL     1      -9.955  15.938  67.825  1.00  0.00    -0.229 C  
HETATM   19  N   UNL     1     -10.028  14.231  69.599  1.00  0.00    -0.292 NA 
HETATM   20  C   UNL     1      -7.940  15.539  69.292  1.00  0.00    -0.238 C  
HETATM   21  O   UNL     1     -10.493  16.897  68.733  1.00  0.00    -0.300 OA 
HETATM   22  O   UNL     1      -7.190  14.625  70.086  1.00  0.00    -0.378 OA 
HETATM   23  H1  UNL     1     -10.332  14.916  70.291  1.00  0.00     0.000 HD 
HETATM   24  H2  UNL     1      -9.588  13.424  70.039  1.00  0.00     0.000 HD 
HETATM   25  H   UNL     1      -6.458  15.047  70.521  1.00  0.00     0.000 HD 
HETATM   26  H   UNL     1     -10.992  17.560  68.272  1.00  0.00     0.000 HD 
ENDBRANCH  15  16
ENDBRANCH  12  15
ENDBRANCH   8   9
ENDBRANCH   7   8
ENDBRANCH   6   7
ENDBRANCH   5   6
ENDBRANCH   4   5
ENDBRANCH   3   4
ENDBRANCH   2   3
TORSDOF 9
ENDMDL
MODEL      205
REMARK 921   NORMALIZED FREE ENERGY PREDICTED BY IDOCK:   -3.72 KCAL/MOL
REMARK 922        TOTAL FREE ENERGY PREDICTED BY IDOCK:   -6.78 KCAL/MOL
REMARK 923 INTER-LIGAND FREE ENERGY PREDICTED BY IDOCK:   -5.49 KCAL/MOL
REMARK 924 INTRA-LIGAND FREE ENERGY PREDICTED BY IDOCK:   -1.29 KCAL/MOL
REMARK 927      BINDING AFFINITY PREDICTED BY RF-SCORE:    0.00 PKD
ROOT
HETATM    1  C   UNL     1     -12.524  12.650  64.398  1.00  0.00    -0.509 C  
HETATM    2  C   UNL     1     -12.343  13.766  65.411  1.00  0.00    -0.504 C  
ENDROOT
BRANCH   2   3
HETATM    3  C   UNL     1     -11.231  14.721  64.989  1.00  0.00    -0.399 C  
BRANCH   3   4
HETATM    4  C   UNL     1     -10.825  15.630  66.145  1.00  0.00    -0.264 C  
BRANCH   4   5
HETATM    5  C   UNL     1     -11.287  15.051  67.478  1.00  0.00    -0.340 C  
BRANCH   5   6
HETATM    6  C   UNL     1     -10.095  14.614  68.326  1.00  0.00    -0.228 C  
BRANCH   6   7
HETATM    7  C   UNL     1      -9.802  13.135  68.106  1.00  0.00    -0.228 C  
BRANCH   7   8
HETATM    8  C   UNL     1      -8.924  12.921  66.871  1.00  0.00    -0.210 C  
BRANCH   8   9
HETATM    9  C   UNL     1      -8.778  11.455  66.553  1.00  0.00    -0.181 A  
HETATM   10  C   UNL     1      -9.814  10.780  65.901  1.00  0.00    -0.290 A  
HETATM   11  C   UNL     1      -9.722   9.415  65.653  1.00  0.00    -0.336 A  
HETATM   12  C   UNL     1      -8.577   8.695  66.009  1.00  0.00    -0.173 A  
HETATM   13  C   UNL     1      -7.633  10.745  66.923  1.00  0.00    -0.123 A  
HETATM   14  C   UNL     1      -7.534   9.378  66.651  1.00  0.00    -0.093 A  
BRANCH  12  15
HETATM   15  C   UNL     1      -8.475   7.200  65.803  1.00  0.00    -0.151 C  
BRANCH  15  16
HETATM   16  C   UNL     1      -8.194   6.411  67.093  1.00  0.00    -0.113 C  
HETATM   17  C   UNL     1      -9.402   5.823  67.862  1.00  0.00    -0.105 C  
HETATM   18  C   UNL     1      -8.842   5.123  69.134  1.00  0.00    -0.092 C  
HETATM   19  N   UNL     1     -10.336   6.894  68.301  1.00  0.00    -0.183 NA 
HETATM   20  C   UNL     1     -10.179   4.772  67.022  1.00  0.00    -0.158 C  
HETATM   21  O   UNL     1      -9.899   4.622  69.949  1.00  0.00    -0.195 OA 
HETATM   22  O   UNL     1     -10.805   5.353  65.882  1.00  0.00    -0.620 OA 
HETATM   23  H1  UNL     1     -11.133   6.507  68.808  1.00  0.00     0.000 HD 
HETATM   24  H2  UNL     1     -10.637   7.473  67.517  1.00  0.00     0.000 HD 
HETATM   25  H   UNL     1     -11.280   4.710  65.368  1.00  0.00     0.000 HD 
HETATM   26  H   UNL     1      -9.558   4.194  70.726  1.00  0.00     0.000 HD 
ENDBRANCH  15  16
ENDBRANCH  12  15
ENDBRANCH   8   9
ENDBRANCH   7   8
ENDBRANCH   6   7
ENDBRANCH   5   6
ENDBRANCH   4   5
ENDBRANCH   3   4
ENDBRANCH   2   3
TORSDOF 9
ENDMDL
MODEL      206
REMARK 921   NORMALIZED FREE ENERGY PREDICTED BY IDOCK:   -3.70 KCAL/MOL
REMARK 922        TOTAL FREE ENERGY PREDICTED BY IDOCK:   -6.75 KCAL/MOL
REMARK 923 INTER-LIGAND FREE ENERGY PREDICTED BY IDOCK:   -5.49 KCAL/MOL
REMARK 924 INTRA-LIGAND FREE ENERGY PREDICTED BY IDOCK:   -1.26 KCAL/MOL
REMARK 927      BINDING AFFINITY PREDICTED BY RF-SCORE:    0.00 PKD
ROOT
HETATM    1  C   UNL     1      -9.853  10.289  69.159  1.00  0.00    -0.228 C  
HETATM    2  C   UNL     1     -11.176  10.874  68.696  1.00  0.00    -0.326 C  
ENDROOT
BRANCH   2   3
HETATM    3  C   UNL     1     -11.293  12.346  69.079  1.00  0.00    -0.336 C  
BRANCH   3   4
HETATM    4  C   UNL     1     -10.921  13.246  67.904  1.00  0.00    -0.270 C  
BRANCH   4   5
HETATM    5  C   UNL     1     -12.154  13.593  67.076  1.00  0.00    -0.423 C  
BRANCH   5   6
HETATM    6  C   UNL     1     -11.777  13.851  65.619  1.00  0.00    -0.362 C  
BRANCH   6   7
HETATM    7  C   UNL     1     -12.453  12.832  64.709  1.00  0.00    -0.539 C  
BRANCH   7   8
HETATM    8  C   UNL     1     -11.574  12.497  63.501  1.00  0.00    -0.584 C  
BRANCH   8   9
HETATM    9  C   UNL     1     -10.564  11.432  63.839  1.00  0.00    -0.452 A  
HETATM   10  C   UNL     1     -10.641  10.766  65.066  1.00  0.00    -0.243 A  
HETATM   11  C   UNL     1      -9.682   9.823  65.420  1.00  0.00    -0.383 A  
HETATM   12  C   UNL     1      -8.646   9.487  64.543  1.00  0.00    -0.206 A  
HETATM   13  C   UNL     1      -9.527  11.112  62.959  1.00  0.00    -0.386 A  
HETATM   14  C   UNL     1      -8.578  10.147  63.308  1.00  0.00    -0.198 A  
BRANCH  12  15
HETATM   15  C   UNL     1      -7.558   8.508  64.927  1.00  0.00    -0.098 C  
BRANCH  15  16
HETATM   16  C   UNL     1      -7.903   7.042  64.616  1.00  0.00    -0.123 C  
HETATM   17  C   UNL     1      -7.063   5.938  65.304  1.00  0.00    -0.065 C  
HETATM   18  C   UNL     1      -7.589   4.568  64.784  1.00  0.00    -0.073 C  
HETATM   19  N   UNL     1      -5.625   6.046  64.939  1.00  0.00    -0.017 NA 
HETATM   20  C   UNL     1      -7.208   5.967  66.851  1.00  0.00    -0.071 C  
HETATM   21  O   UNL     1      -6.812   3.491  65.306  1.00  0.00    -0.047 OA 
HETATM   22  O   UNL     1      -6.661   7.154  67.418  1.00  0.00    -0.062 OA 
HETATM   23  H1  UNL     1      -5.071   5.319  65.392  1.00  0.00     0.000 HD 
HETATM   24  H2  UNL     1      -5.257   6.976  65.140  1.00  0.00     0.000 HD 
HETATM   25  H   UNL     1      -6.750   7.171  68.364  1.00  0.00     0.000 HD 
HETATM   26  H   UNL     1      -7.133   2.655  64.988  1.00  0.00     0.000 HD 
ENDBRANCH  15  16
ENDBRANCH  12  15
ENDBRANCH   8   9
ENDBRANCH   7   8
ENDBRANCH   6   7
ENDBRANCH   5   6
ENDBRANCH   4   5
ENDBRANCH   3   4
ENDBRANCH   2   3
TORSDOF 9
ENDMDL
MODEL      207
REMARK 921   NORMALIZED FREE ENERGY PREDICTED BY IDOCK:   -3.68 KCAL/MOL
REMARK 922        TOTAL FREE ENERGY PREDICTED BY IDOCK:   -6.72 KCAL/MOL
REMARK 923 INTER-LIGAND FREE ENERGY PREDICTED BY IDOCK:   -5.40 KCAL/MOL
REMARK 924 INTRA-LIGAND FREE ENERGY PREDICTED BY IDOCK:   -1.32 KCAL/MOL
REMARK 927      BINDING AFFINITY PREDICTED BY RF-SCORE:    0.00 PKD
ROOT
HETATM    1  C   UNL     1     -12.160  12.474  65.499  1.00  0.00    -0.481 C  
HETATM    2  C   UNL     1     -12.141  13.880  64.927  1.00  0.00    -0.434 C  
ENDROOT
BRANCH   2   3
HETATM    3  C   UNL     1     -10.712  14.378  64.733  1.00  0.00    -0.423 C  
BRANCH   3   4
HETATM    4  C   UNL     1     -10.560  15.809  65.240  1.00  0.00    -0.446 C  
BRANCH   4   5
HETATM    5  C   UNL     1      -9.162  16.039  65.804  1.00  0.00    -0.215 C  
BRANCH   5   6
HETATM    6  C   UNL     1      -9.222  16.363  67.295  1.00  0.00    -0.224 C  
BRANCH   6   7
HETATM    7  C   UNL     1      -8.202  15.530  68.060  1.00  0.00    -0.146 C  
BRANCH   7   8
HETATM    8  C   UNL     1      -7.638  14.404  67.190  1.00  0.00    -0.021 C  
BRANCH   8   9
HETATM    9  C   UNL     1      -7.844  13.059  67.836  1.00  0.00    -0.149 A  
HETATM   10  C   UNL     1      -9.064  12.394  67.682  1.00  0.00    -0.186 A  
HETATM   11  C   UNL     1      -9.294  11.180  68.320  1.00  0.00    -0.176 A  
HETATM   12  C   UNL     1      -8.297  10.576  69.093  1.00  0.00    -0.154 A  
HETATM   13  C   UNL     1      -6.845  12.469  68.614  1.00  0.00    -0.088 A  
HETATM   14  C   UNL     1      -7.069  11.238  69.235  1.00  0.00    -0.112 A  
BRANCH  12  15
HETATM   15  C   UNL     1      -8.540   9.285  69.845  1.00  0.00    -0.178 C  
BRANCH  15  16
HETATM   16  C   UNL     1      -9.884   9.243  70.591  1.00  0.00    -0.332 C  
HETATM   17  C   UNL     1     -10.083   8.148  71.667  1.00  0.00    -0.199 C  
HETATM   18  C   UNL     1     -11.527   8.306  72.225  1.00  0.00    -0.384 C  
HETATM   19  N   UNL     1      -9.963   6.786  71.081  1.00  0.00    -0.182 NA 
HETATM   20  C   UNL     1      -9.081   8.293  72.846  1.00  0.00    -0.262 C  
HETATM   21  O   UNL     1     -11.826   7.279  73.168  1.00  0.00    -0.510 OA 
HETATM   22  O   UNL     1      -7.735   8.068  72.436  1.00  0.00    -0.098 OA 
HETATM   23  H1  UNL     1     -10.094   6.064  71.790  1.00  0.00     0.000 HD 
HETATM   24  H2  UNL     1      -9.080   6.668  70.585  1.00  0.00     0.000 HD 
HETATM   25  H   UNL     1      -7.122   8.157  73.157  1.00  0.00     0.000 HD 
HETATM   26  H   UNL     1     -12.708   7.375  73.508  1.00  0.00     0.000 HD 
ENDBRANCH  15  16
ENDBRANCH  12  15
ENDBRANCH   8   9
ENDBRANCH   7   8
ENDBRANCH   6   7
ENDBRANCH   5   6
ENDBRANCH   4   5
ENDBRANCH   3   4
ENDBRANCH   2   3
TORSDOF 9
ENDMDL
MODEL      208
REMARK 921   NORMALIZED FREE ENERGY PREDICTED BY IDOCK:   -3.64 KCAL/MOL
REMARK 922        TOTAL FREE ENERGY PREDICTED BY IDOCK:   -6.66 KCAL/MOL
REMARK 923 INTER-LIGAND FREE ENERGY PREDICTED BY IDOCK:   -6.02 KCAL/MOL
REMARK 924 INTRA-LIGAND FREE ENERGY PREDICTED BY IDOCK:   -0.64 KCAL/MOL
REMARK 927      BINDING AFFINITY PREDICTED BY RF-SCORE:    0.00 PKD
ROOT
HETATM    1  C   UNL     1      -9.101   7.340  73.654  1.00  0.00    -0.247 C  
HETATM    2  C   UNL     1      -9.534   8.498  72.772  1.00  0.00    -0.244 C  
ENDROOT
BRANCH   2   3
HETATM    3  C   UNL     1     -10.129   7.999  71.459  1.00  0.00    -0.228 C  
BRANCH   3   4
HETATM    4  C   UNL     1     -10.231   9.132  70.442  1.00  0.00    -0.268 C  
BRANCH   4   5
HETATM    5  C   UNL     1     -10.849   8.637  69.138  1.00  0.00    -0.060 C  
BRANCH   5   6
HETATM    6  C   UNL     1     -10.205   9.321  67.935  1.00  0.00    -0.263 C  
BRANCH   6   7
HETATM    7  C   UNL     1     -10.449  10.824  67.986  1.00  0.00    -0.225 C  
BRANCH   7   8
HETATM    8  C   UNL     1     -10.413  11.441  66.585  1.00  0.00    -0.285 C  
BRANCH   8   9
HETATM    9  C   UNL     1     -10.322  12.943  66.652  1.00  0.00    -0.258 A  
HETATM   10  C   UNL     1     -10.393  13.589  67.890  1.00  0.00    -0.249 A  
HETATM   11  C   UNL     1     -10.372  14.977  67.965  1.00  0.00    -0.236 A  
HETATM   12  C   UNL     1     -10.235  15.757  66.813  1.00  0.00    -0.284 A  
HETATM   13  C   UNL     1     -10.196  13.712  65.492  1.00  0.00    -0.316 A  
HETATM   14  C   UNL     1     -10.150  15.107  65.573  1.00  0.00    -0.402 A  
BRANCH  12  15
HETATM   15  C   UNL     1     -10.267  17.269  66.862  1.00  0.00    -0.322 C  
BRANCH  15  16
HETATM   16  C   UNL     1      -9.142  17.889  67.707  1.00  0.00    -0.258 C  
HETATM   17  C   UNL     1      -8.222  18.937  67.036  1.00  0.00    -0.270 C  
HETATM   18  C   UNL     1      -7.158  19.360  68.090  1.00  0.00    -0.275 C  
HETATM   19  N   UNL     1      -7.506  18.358  65.867  1.00  0.00    -0.484 NA 
HETATM   20  C   UNL     1      -9.003  20.203  66.588  1.00  0.00    -0.314 C  
HETATM   21  O   UNL     1      -6.213  20.267  67.526  1.00  0.00    -0.200 OA 
HETATM   22  O   UNL     1      -9.937  19.918  65.551  1.00  0.00    -0.336 OA 
HETATM   23  H1  UNL     1      -6.900  19.049  65.424  1.00  0.00     0.000 HD 
HETATM   24  H2  UNL     1      -8.155  17.945  65.198  1.00  0.00     0.000 HD 
HETATM   25  H   UNL     1     -10.415  20.693  65.277  1.00  0.00     0.000 HD 
HETATM   26  H   UNL     1      -5.563  20.525  68.170  1.00  0.00     0.000 HD 
ENDBRANCH  15  16
ENDBRANCH  12  15
ENDBRANCH   8   9
ENDBRANCH   7   8
ENDBRANCH   6   7
ENDBRANCH   5   6
ENDBRANCH   4   5
ENDBRANCH   3   4
ENDBRANCH   2   3
TORSDOF 9
ENDMDL
MODEL      209
REMARK 921   NORMALIZED FREE ENERGY PREDICTED BY IDOCK:   -3.63 KCAL/MOL
REMARK 922        TOTAL FREE ENERGY PREDICTED BY IDOCK:   -6.64 KCAL/MOL
REMARK 923 INTER-LIGAND FREE ENERGY PREDICTED BY IDOCK:   -5.37 KCAL/MOL
REMARK 924 INTRA-LIGAND FREE ENERGY PREDICTED BY IDOCK:   -1.27 KCAL/MOL
REMARK 927      BINDING AFFINITY PREDICTED BY RF-SCORE:    0.00 PKD
ROOT
HETATM    1  C   UNL     1      -6.486   9.925  67.522  1.00  0.00    -0.068 C  
HETATM    2  C   UNL     1      -6.116   8.863  68.541  1.00  0.00    -0.046 C  
ENDROOT
BRANCH   2   3
HETATM    3  C   UNL     1      -7.094   7.692  68.499  1.00  0.00    -0.081 C  
BRANCH   3   4
HETATM    4  C   UNL     1      -6.541   6.493  69.262  1.00  0.00    -0.044 C  
BRANCH   4   5
HETATM    5  C   UNL     1      -7.500   6.065  70.369  1.00  0.00    -0.090 C  
BRANCH   5   6
HETATM    6  C   UNL     1      -7.975   7.271  71.176  1.00  0.00    -0.101 C  
BRANCH   6   7
HETATM    7  C   UNL     1      -9.338   6.990  71.796  1.00  0.00    -0.150 C  
BRANCH   7   8
HETATM    8  C   UNL     1     -10.445   7.014  70.739  1.00  0.00    -0.231 C  
BRANCH   8   9
HETATM    9  C   UNL     1     -10.889   8.423  70.445  1.00  0.00    -0.246 A  
HETATM   10  C   UNL     1     -10.677   8.967  69.174  1.00  0.00    -0.176 A  
HETATM   11  C   UNL     1     -11.025  10.286  68.903  1.00  0.00    -0.279 A  
HETATM   12  C   UNL     1     -11.633  11.084  69.877  1.00  0.00    -0.416 A  
HETATM   13  C   UNL     1     -11.486   9.214  71.429  1.00  0.00    -0.420 A  
HETATM   14  C   UNL     1     -11.857  10.532  71.147  1.00  0.00    -0.391 A  
BRANCH  12  15
HETATM   15  C   UNL     1     -11.969  12.538  69.626  1.00  0.00    -0.339 C  
BRANCH  15  16
HETATM   16  C   UNL     1     -10.811  13.348  69.020  1.00  0.00    -0.220 C  
HETATM   17  C   UNL     1     -11.097  14.803  68.577  1.00  0.00    -0.264 C  
HETATM   18  C   UNL     1      -9.781  15.367  67.968  1.00  0.00    -0.207 C  
HETATM   19  N   UNL     1     -12.148  14.852  67.525  1.00  0.00    -0.467 NA 
HETATM   20  C   UNL     1     -11.516  15.709  69.768  1.00  0.00    -0.342 C  
HETATM   21  O   UNL     1      -9.978  16.683  67.455  1.00  0.00    -0.254 OA 
HETATM   22  O   UNL     1     -12.766  15.315  70.327  1.00  0.00    -0.540 OA 
HETATM   23  H1  UNL     1     -12.337  15.811  67.234  1.00  0.00     0.000 HD 
HETATM   24  H2  UNL     1     -12.999  14.377  67.825  1.00  0.00     0.000 HD 
HETATM   25  H   UNL     1     -13.022  15.869  71.056  1.00  0.00     0.000 HD 
HETATM   26  H   UNL     1      -9.174  17.028  67.082  1.00  0.00     0.000 HD 
ENDBRANCH  15  16
ENDBRANCH  12  15
ENDBRANCH   8   9
ENDBRANCH   7   8
ENDBRANCH   6   7
ENDBRANCH   5   6
ENDBRANCH   4   5
ENDBRANCH   3   4
ENDBRANCH   2   3
TORSDOF 9
ENDMDL
MODEL      210
REMARK 921   NORMALIZED FREE ENERGY PREDICTED BY IDOCK:   -3.61 KCAL/MOL
REMARK 922        TOTAL FREE ENERGY PREDICTED BY IDOCK:   -6.62 KCAL/MOL
REMARK 923 INTER-LIGAND FREE ENERGY PREDICTED BY IDOCK:   -4.97 KCAL/MOL
REMARK 924 INTRA-LIGAND FREE ENERGY PREDICTED BY IDOCK:   -1.65 KCAL/MOL
REMARK 927      BINDING AFFINITY PREDICTED BY RF-SCORE:    0.00 PKD
ROOT
HETATM    1  C   UNL     1      -9.521   3.696  70.342  1.00  0.00    -0.255 C  
HETATM    2  C   UNL     1      -9.548   5.156  69.926  1.00  0.00    -0.241 C  
ENDROOT
BRANCH   2   3
HETATM    3  C   UNL     1     -10.979   5.682  69.847  1.00  0.00    -0.309 C  
BRANCH   3   4
HETATM    4  C   UNL     1     -11.127   6.978  70.637  1.00  0.00    -0.307 C  
BRANCH   4   5
HETATM    5  C   UNL     1      -9.997   7.129  71.650  1.00  0.00    -0.186 C  
BRANCH   5   6
HETATM    6  C   UNL     1      -9.497   8.571  71.699  1.00  0.00    -0.316 C  
BRANCH   6   7
HETATM    7  C   UNL     1      -7.974   8.605  71.670  1.00  0.00    -0.166 C  
BRANCH   7   8
HETATM    8  C   UNL     1      -7.429   8.004  70.372  1.00  0.00    -0.075 C  
BRANCH   8   9
HETATM    9  C   UNL     1      -7.745   8.883  69.189  1.00  0.00    -0.092 A  
HETATM   10  C   UNL     1      -8.455   8.359  68.105  1.00  0.00    -0.132 A  
HETATM   11  C   UNL     1      -8.702   9.138  66.979  1.00  0.00    -0.131 A  
HETATM   12  C   UNL     1      -8.287  10.472  66.924  1.00  0.00    -0.126 A  
HETATM   13  C   UNL     1      -7.316  10.212  69.140  1.00  0.00    -0.089 A  
HETATM   14  C   UNL     1      -7.587  10.999  68.018  1.00  0.00    -0.092 A  
BRANCH  12  15
HETATM   15  C   UNL     1      -8.493  11.323  65.689  1.00  0.00     0.022 C  
BRANCH  15  16
HETATM   16  C   UNL     1      -9.875  11.149  65.037  1.00  0.00    -0.315 C  
HETATM   17  C   UNL     1     -10.910  12.286  65.216  1.00  0.00    -0.293 C  
HETATM   18  C   UNL     1     -12.218  11.836  64.501  1.00  0.00    -0.016 C  
HETATM   19  N   UNL     1     -11.225  12.509  66.652  1.00  0.00    -0.290 NA 
HETATM   20  C   UNL     1     -10.434  13.620  64.577  1.00  0.00    -0.390 C  
HETATM   21  O   UNL     1     -13.258  12.793  64.688  1.00  0.00    -0.776 OA 
HETATM   22  O   UNL     1      -9.289  14.152  65.238  1.00  0.00    -0.397 OA 
HETATM   23  H1  UNL     1     -11.907  13.259  66.771  1.00  0.00     0.000 HD 
HETATM   24  H2  UNL     1     -10.381  12.682  67.198  1.00  0.00     0.000 HD 
HETATM   25  H   UNL     1      -8.998  14.969  64.847  1.00  0.00     0.000 HD 
HETATM   26  H   UNL     1     -14.056  12.518  64.253  1.00  0.00     0.000 HD 
ENDBRANCH  15  16
ENDBRANCH  12  15
ENDBRANCH   8   9
ENDBRANCH   7   8
ENDBRANCH   6   7
ENDBRANCH   5   6
ENDBRANCH   4   5
ENDBRANCH   3   4
ENDBRANCH   2   3
TORSDOF 9
ENDMDL
MODEL      211
REMARK 921   NORMALIZED FREE ENERGY PREDICTED BY IDOCK:   -3.61 KCAL/MOL
REMARK 922        TOTAL FREE ENERGY PREDICTED BY IDOCK:   -6.62 KCAL/MOL
REMARK 923 INTER-LIGAND FREE ENERGY PREDICTED BY IDOCK:   -4.82 KCAL/MOL
REMARK 924 INTRA-LIGAND FREE ENERGY PREDICTED BY IDOCK:   -1.79 KCAL/MOL
REMARK 927      BINDING AFFINITY PREDICTED BY RF-SCORE:    0.00 PKD
ROOT
HETATM    1  C   UNL     1      -9.280   3.361  67.333  1.00  0.00    -0.228 C  
HETATM    2  C   UNL     1      -9.968   4.607  67.862  1.00  0.00    -0.138 C  
ENDROOT
BRANCH   2   3
HETATM    3  C   UNL     1      -9.884   4.682  69.384  1.00  0.00    -0.272 C  
BRANCH   3   4
HETATM    4  C   UNL     1      -8.593   4.045  69.890  1.00  0.00    -0.102 C  
BRANCH   4   5
HETATM    5  C   UNL     1      -8.801   3.415  71.263  1.00  0.00    -0.138 C  
BRANCH   5   6
HETATM    6  C   UNL     1     -10.137   3.844  71.863  1.00  0.00    -0.204 C  
BRANCH   6   7
HETATM    7  C   UNL     1      -9.933   4.414  73.262  1.00  0.00    -0.183 C  
BRANCH   7   8
HETATM    8  C   UNL     1     -10.864   5.601  73.520  1.00  0.00    -0.295 C  
BRANCH   8   9
HETATM    9  C   UNL     1     -10.798   6.601  72.396  1.00  0.00    -0.266 A  
HETATM   10  C   UNL     1     -11.942   6.872  71.639  1.00  0.00    -0.379 A  
HETATM   11  C   UNL     1     -11.885   7.747  70.560  1.00  0.00    -0.063 A  
HETATM   12  C   UNL     1     -10.697   8.409  70.234  1.00  0.00    -0.240 A  
HETATM   13  C   UNL     1      -9.603   7.249  72.073  1.00  0.00    -0.169 A  
HETATM   14  C   UNL     1      -9.555   8.146  71.002  1.00  0.00    -0.189 A  
BRANCH  12  15
HETATM   15  C   UNL     1     -10.595   9.321  69.030  1.00  0.00    -0.225 C  
BRANCH  15  16
HETATM   16  C   UNL     1      -9.462  10.357  69.129  1.00  0.00    -0.220 C  
HETATM   17  C   UNL     1      -9.318  11.386  67.982  1.00  0.00    -0.171 C  
HETATM   18  C   UNL     1      -8.083  12.274  68.311  1.00  0.00    -0.166 C  
HETATM   19  N   UNL     1      -9.066  10.712  66.680  1.00  0.00    -0.158 NA 
HETATM   20  C   UNL     1     -10.565  12.304  67.856  1.00  0.00    -0.212 C  
HETATM   21  O   UNL     1      -7.825  13.201  67.259  1.00  0.00    -0.246 OA 
HETATM   22  O   UNL     1     -11.727  11.579  67.462  1.00  0.00    -0.555 OA 
HETATM   23  H1  UNL     1      -8.971  11.390  65.923  1.00  0.00     0.000 HD 
HETATM   24  H2  UNL     1      -9.783  10.018  66.472  1.00  0.00     0.000 HD 
HETATM   25  H   UNL     1     -12.490  12.141  67.385  1.00  0.00     0.000 HD 
HETATM   26  H   UNL     1      -7.071  13.743  67.460  1.00  0.00     0.000 HD 
ENDBRANCH  15  16
ENDBRANCH  12  15
ENDBRANCH   8   9
ENDBRANCH   7   8
ENDBRANCH   6   7
ENDBRANCH   5   6
ENDBRANCH   4   5
ENDBRANCH   3   4
ENDBRANCH   2   3
TORSDOF 9
ENDMDL
MODEL      212
REMARK 921   NORMALIZED FREE ENERGY PREDICTED BY IDOCK:   -3.61 KCAL/MOL
REMARK 922        TOTAL FREE ENERGY PREDICTED BY IDOCK:   -6.61 KCAL/MOL
REMARK 923 INTER-LIGAND FREE ENERGY PREDICTED BY IDOCK:   -5.04 KCAL/MOL
REMARK 924 INTRA-LIGAND FREE ENERGY PREDICTED BY IDOCK:   -1.58 KCAL/MOL
REMARK 927      BINDING AFFINITY PREDICTED BY RF-SCORE:    0.00 PKD
ROOT
HETATM    1  C   UNL     1     -13.841   7.239  71.602  1.00  0.00    -0.461 C  
HETATM    2  C   UNL     1     -13.735   8.751  71.515  1.00  0.00    -0.384 C  
ENDROOT
BRANCH   2   3
HETATM    3  C   UNL     1     -12.393   9.243  72.051  1.00  0.00    -0.433 C  
BRANCH   3   4
HETATM    4  C   UNL     1     -11.236   8.595  71.297  1.00  0.00    -0.338 C  
BRANCH   4   5
HETATM    5  C   UNL     1      -9.995   8.507  72.180  1.00  0.00    -0.387 C  
BRANCH   5   6
HETATM    6  C   UNL     1     -10.251   7.619  73.395  1.00  0.00    -0.375 C  
BRANCH   6   7
HETATM    7  C   UNL     1     -10.564   6.195  72.954  1.00  0.00    -0.257 C  
BRANCH   7   8
HETATM    8  C   UNL     1      -9.303   5.473  72.472  1.00  0.00    -0.153 C  
BRANCH   8   9
HETATM    9  C   UNL     1      -9.247   5.418  70.968  1.00  0.00    -0.179 A  
HETATM   10  C   UNL     1      -8.087   5.822  70.300  1.00  0.00    -0.105 A  
HETATM   11  C   UNL     1      -8.039   5.835  68.911  1.00  0.00    -0.102 A  
HETATM   12  C   UNL     1      -9.130   5.403  68.150  1.00  0.00    -0.115 A  
HETATM   13  C   UNL     1     -10.348   4.994  70.218  1.00  0.00    -0.299 A  
HETATM   14  C   UNL     1     -10.288   4.985  68.822  1.00  0.00    -0.109 A  
BRANCH  12  15
HETATM   15  C   UNL     1      -9.124   5.461  66.638  1.00  0.00    -0.124 C  
BRANCH  15  16
HETATM   16  C   UNL     1      -7.752   5.801  66.033  1.00  0.00    -0.095 C  
HETATM   17  C   UNL     1      -7.702   6.830  64.878  1.00  0.00    -0.110 C  
HETATM   18  C   UNL     1      -6.216   6.951  64.431  1.00  0.00    -0.036 C  
HETATM   19  N   UNL     1      -8.497   6.369  63.708  1.00  0.00    -0.329 NA 
HETATM   20  C   UNL     1      -8.199   8.234  65.320  1.00  0.00    -0.148 C  
HETATM   21  O   UNL     1      -6.089   7.821  63.309  1.00  0.00    -0.061 OA 
HETATM   22  O   UNL     1      -9.584   8.231  65.658  1.00  0.00    -0.437 OA 
HETATM   23  H1  UNL     1      -8.465   7.047  62.947  1.00  0.00     0.000 HD 
HETATM   24  H2  UNL     1      -9.457   6.148  63.972  1.00  0.00     0.000 HD 
HETATM   25  H   UNL     1      -9.888   9.090  65.928  1.00  0.00     0.000 HD 
HETATM   26  H   UNL     1      -5.182   7.895  63.036  1.00  0.00     0.000 HD 
ENDBRANCH  15  16
ENDBRANCH  12  15
ENDBRANCH   8   9
ENDBRANCH   7   8
ENDBRANCH   6   7
ENDBRANCH   5   6
ENDBRANCH   4   5
ENDBRANCH   3   4
ENDBRANCH   2   3
TORSDOF 9
ENDMDL
MODEL      213
REMARK 921   NORMALIZED FREE ENERGY PREDICTED BY IDOCK:   -3.58 KCAL/MOL
REMARK 922        TOTAL FREE ENERGY PREDICTED BY IDOCK:   -6.58 KCAL/MOL
REMARK 923 INTER-LIGAND FREE ENERGY PREDICTED BY IDOCK:   -5.87 KCAL/MOL
REMARK 924 INTRA-LIGAND FREE ENERGY PREDICTED BY IDOCK:   -0.71 KCAL/MOL
REMARK 927      BINDING AFFINITY PREDICTED BY RF-SCORE:    0.00 PKD
ROOT
HETATM    1  C   UNL     1     -10.276  20.008  65.995  1.00  0.00    -0.568 C  
HETATM    2  C   UNL     1      -9.885  19.496  67.370  1.00  0.00    -0.470 C  
ENDROOT
BRANCH   2   3
HETATM    3  C   UNL     1      -9.007  18.252  67.268  1.00  0.00    -0.259 C  
BRANCH   3   4
HETATM    4  C   UNL     1      -9.338  17.258  68.377  1.00  0.00    -0.275 C  
BRANCH   4   5
HETATM    5  C   UNL     1     -10.480  16.339  67.957  1.00  0.00    -0.293 C  
BRANCH   5   6
HETATM    6  C   UNL     1     -11.391  16.024  69.141  1.00  0.00    -0.352 C  
BRANCH   6   7
HETATM    7  C   UNL     1     -10.800  14.899  69.981  1.00  0.00    -0.202 C  
BRANCH   7   8
HETATM    8  C   UNL     1     -11.623  13.615  69.847  1.00  0.00    -0.281 C  
BRANCH   8   9
HETATM    9  C   UNL     1     -11.087  12.734  68.749  1.00  0.00    -0.303 A  
HETATM   10  C   UNL     1      -9.907  13.088  68.089  1.00  0.00    -0.228 A  
HETATM   11  C   UNL     1      -9.430  12.320  67.032  1.00  0.00    -0.204 A  
HETATM   12  C   UNL     1     -10.093  11.154  66.635  1.00  0.00    -0.256 A  
HETATM   13  C   UNL     1     -11.763  11.577  68.354  1.00  0.00    -0.372 A  
HETATM   14  C   UNL     1     -11.269  10.794  67.308  1.00  0.00    -0.272 A  
BRANCH  12  15
HETATM   15  C   UNL     1      -9.627  10.332  65.453  1.00  0.00    -0.310 C  
BRANCH  15  16
HETATM   16  C   UNL     1      -9.414   8.844  65.774  1.00  0.00    -0.272 C  
HETATM   17  C   UNL     1      -8.267   8.101  65.047  1.00  0.00    -0.154 C  
HETATM   18  C   UNL     1      -8.305   6.618  65.520  1.00  0.00    -0.144 C  
HETATM   19  N   UNL     1      -8.463   8.118  63.572  1.00  0.00    -0.402 NA 
HETATM   20  C   UNL     1      -6.872   8.692  65.390  1.00  0.00    -0.071 C  
HETATM   21  O   UNL     1      -7.329   5.838  64.832  1.00  0.00    -0.064 OA 
HETATM   22  O   UNL     1      -6.720  10.024  64.906  1.00  0.00    -0.115 OA 
HETATM   23  H1  UNL     1      -7.707   7.629  63.092  1.00  0.00     0.000 HD 
HETATM   24  H2  UNL     1      -8.575   9.068  63.220  1.00  0.00     0.000 HD 
HETATM   25  H   UNL     1      -5.867  10.385  65.116  1.00  0.00     0.000 HD 
HETATM   26  H   UNL     1      -7.352   4.933  65.121  1.00  0.00     0.000 HD 
ENDBRANCH  15  16
ENDBRANCH  12  15
ENDBRANCH   8   9
ENDBRANCH   7   8
ENDBRANCH   6   7
ENDBRANCH   5   6
ENDBRANCH   4   5
ENDBRANCH   3   4
ENDBRANCH   2   3
TORSDOF 9
ENDMDL
MODEL      214
REMARK 921   NORMALIZED FREE ENERGY PREDICTED BY IDOCK:   -3.58 KCAL/MOL
REMARK 922        TOTAL FREE ENERGY PREDICTED BY IDOCK:   -6.57 KCAL/MOL
REMARK 923 INTER-LIGAND FREE ENERGY PREDICTED BY IDOCK:   -4.39 KCAL/MOL
REMARK 924 INTRA-LIGAND FREE ENERGY PREDICTED BY IDOCK:   -2.18 KCAL/MOL
REMARK 927      BINDING AFFINITY PREDICTED BY RF-SCORE:    0.00 PKD
ROOT
HETATM    1  C   UNL     1     -11.670  11.199  68.692  1.00  0.00    -0.389 C  
HETATM    2  C   UNL     1     -11.958  12.581  68.131  1.00  0.00    -0.274 C  
ENDROOT
BRANCH   2   3
HETATM    3  C   UNL     1     -12.041  12.552  66.608  1.00  0.00    -0.212 C  
BRANCH   3   4
HETATM    4  C   UNL     1     -12.635  13.850  66.070  1.00  0.00    -0.467 C  
BRANCH   4   5
HETATM    5  C   UNL     1     -11.779  14.412  64.941  1.00  0.00    -0.408 C  
BRANCH   5   6
HETATM    6  C   UNL     1     -10.919  15.574  65.433  1.00  0.00    -0.365 C  
BRANCH   6   7
HETATM    7  C   UNL     1      -9.442  15.211  65.353  1.00  0.00     0.018 C  
BRANCH   7   8
HETATM    8  C   UNL     1      -8.814  15.128  66.747  1.00  0.00    -0.302 C  
BRANCH   8   9
HETATM    9  C   UNL     1      -8.573  13.698  67.153  1.00  0.00    -0.203 A  
HETATM   10  C   UNL     1      -8.058  13.413  68.421  1.00  0.00    -0.138 A  
HETATM   11  C   UNL     1      -7.773  12.103  68.791  1.00  0.00    -0.034 A  
HETATM   12  C   UNL     1      -8.035  11.038  67.922  1.00  0.00    -0.112 A  
HETATM   13  C   UNL     1      -8.830  12.643  66.273  1.00  0.00     0.095 A  
HETATM   14  C   UNL     1      -8.565  11.325  66.656  1.00  0.00    -0.167 A  
BRANCH  12  15
HETATM   15  C   UNL     1      -7.681   9.610  68.278  1.00  0.00    -0.082 C  
BRANCH  15  16
HETATM   16  C   UNL     1      -8.841   8.617  68.095  1.00  0.00    -0.142 C  
HETATM   17  C   UNL     1      -9.189   7.683  69.279  1.00  0.00    -0.145 C  
HETATM   18  C   UNL     1     -10.356   6.763  68.813  1.00  0.00    -0.196 C  
HETATM   19  N   UNL     1      -8.036   6.814  69.639  1.00  0.00    -0.122 NA 
HETATM   20  C   UNL     1      -9.654   8.471  70.534  1.00  0.00    -0.170 C  
HETATM   21  O   UNL     1     -10.687   5.808  69.819  1.00  0.00    -0.295 OA 
HETATM   22  O   UNL     1      -8.610   9.271  71.082  1.00  0.00    -0.281 OA 
HETATM   23  H1  UNL     1      -8.265   6.198  70.419  1.00  0.00     0.000 HD 
HETATM   24  H2  UNL     1      -7.199   7.364  69.830  1.00  0.00     0.000 HD 
HETATM   25  H   UNL     1      -8.894   9.753  71.850  1.00  0.00     0.000 HD 
HETATM   26  H   UNL     1     -11.398   5.247  69.535  1.00  0.00     0.000 HD 
ENDBRANCH  15  16
ENDBRANCH  12  15
ENDBRANCH   8   9
ENDBRANCH   7   8
ENDBRANCH   6   7
ENDBRANCH   5   6
ENDBRANCH   4   5
ENDBRANCH   3   4
ENDBRANCH   2   3
TORSDOF 9
ENDMDL
MODEL      215
REMARK 921   NORMALIZED FREE ENERGY PREDICTED BY IDOCK:   -3.57 KCAL/MOL
REMARK 922        TOTAL FREE ENERGY PREDICTED BY IDOCK:   -6.56 KCAL/MOL
REMARK 923 INTER-LIGAND FREE ENERGY PREDICTED BY IDOCK:   -5.51 KCAL/MOL
REMARK 924 INTRA-LIGAND FREE ENERGY PREDICTED BY IDOCK:   -1.05 KCAL/MOL
REMARK 927      BINDING AFFINITY PREDICTED BY RF-SCORE:    0.00 PKD
ROOT
HETATM    1  C   UNL     1      -9.744  10.946  63.393  1.00  0.00    -0.392 C  
HETATM    2  C   UNL     1     -10.073  11.356  64.817  1.00  0.00    -0.326 C  
ENDROOT
BRANCH   2   3
HETATM    3  C   UNL     1      -9.869  10.196  65.788  1.00  0.00    -0.331 C  
BRANCH   3   4
HETATM    4  C   UNL     1     -10.063  10.652  67.231  1.00  0.00    -0.238 C  
BRANCH   4   5
HETATM    5  C   UNL     1     -11.235  11.622  67.340  1.00  0.00    -0.358 C  
BRANCH   5   6
HETATM    6  C   UNL     1     -11.275  12.276  68.719  1.00  0.00    -0.312 C  
BRANCH   6   7
HETATM    7  C   UNL     1     -12.457  11.748  69.522  1.00  0.00     0.022 C  
BRANCH   7   8
HETATM    8  C   UNL     1     -12.036  11.366  70.944  1.00  0.00    -0.383 C  
BRANCH   8   9
HETATM    9  C   UNL     1     -11.785   9.885  71.060  1.00  0.00    -0.466 A  
HETATM   10  C   UNL     1     -10.635   9.329  70.493  1.00  0.00    -0.309 A  
HETATM   11  C   UNL     1     -10.417   7.957  70.538  1.00  0.00    -0.214 A  
HETATM   12  C   UNL     1     -11.318   7.107  71.188  1.00  0.00    -0.306 A  
HETATM   13  C   UNL     1     -12.698   9.045  71.703  1.00  0.00    -0.421 A  
HETATM   14  C   UNL     1     -12.464   7.669  71.767  1.00  0.00    -0.358 A  
BRANCH  12  15
HETATM   15  C   UNL     1     -11.134   5.605  71.201  1.00  0.00    -0.202 C  
BRANCH  15  16
HETATM   16  C   UNL     1     -10.720   5.041  72.570  1.00  0.00    -0.271 C  
HETATM   17  C   UNL     1      -9.499   4.091  72.625  1.00  0.00    -0.128 C  
HETATM   18  C   UNL     1      -9.332   3.639  74.105  1.00  0.00    -0.092 C  
HETATM   19  N   UNL     1      -9.722   2.875  71.797  1.00  0.00    -0.148 NA 
HETATM   20  C   UNL     1      -8.188   4.792  72.173  1.00  0.00    -0.111 C  
HETATM   21  O   UNL     1      -8.275   2.691  74.234  1.00  0.00    -0.065 OA 
HETATM   22  O   UNL     1      -8.222   5.155  70.796  1.00  0.00    -0.100 OA 
HETATM   23  H1  UNL     1      -8.917   2.249  71.832  1.00  0.00     0.000 HD 
HETATM   24  H2  UNL     1      -9.966   3.117  70.836  1.00  0.00     0.000 HD 
HETATM   25  H   UNL     1      -7.420   5.584  70.519  1.00  0.00     0.000 HD 
HETATM   26  H   UNL     1      -8.173   2.415  75.138  1.00  0.00     0.000 HD 
ENDBRANCH  15  16
ENDBRANCH  12  15
ENDBRANCH   8   9
ENDBRANCH   7   8
ENDBRANCH   6   7
ENDBRANCH   5   6
ENDBRANCH   4   5
ENDBRANCH   3   4
ENDBRANCH   2   3
TORSDOF 9
ENDMDL
MODEL      216
REMARK 921   NORMALIZED FREE ENERGY PREDICTED BY IDOCK:   -3.56 KCAL/MOL
REMARK 922        TOTAL FREE ENERGY PREDICTED BY IDOCK:   -6.54 KCAL/MOL
REMARK 923 INTER-LIGAND FREE ENERGY PREDICTED BY IDOCK:   -5.45 KCAL/MOL
REMARK 924 INTRA-LIGAND FREE ENERGY PREDICTED BY IDOCK:   -1.08 KCAL/MOL
REMARK 927      BINDING AFFINITY PREDICTED BY RF-SCORE:    0.00 PKD
ROOT
HETATM    1  C   UNL     1      -6.459  14.596  69.065  1.00  0.00    -0.097 C  
HETATM    2  C   UNL     1      -6.046  15.355  67.816  1.00  0.00    -0.173 C  
ENDROOT
BRANCH   2   3
HETATM    3  C   UNL     1      -7.213  16.157  67.246  1.00  0.00    -0.232 C  
BRANCH   3   4
HETATM    4  C   UNL     1      -8.546  15.501  67.592  1.00  0.00    -0.175 C  
BRANCH   4   5
HETATM    5  C   UNL     1      -9.540  16.533  68.114  1.00  0.00    -0.226 C  
BRANCH   5   6
HETATM    6  C   UNL     1     -10.179  16.065  69.418  1.00  0.00    -0.270 C  
BRANCH   6   7
HETATM    7  C   UNL     1     -11.657  15.763  69.206  1.00  0.00    -0.380 C  
BRANCH   7   8
HETATM    8  C   UNL     1     -11.866  14.804  68.032  1.00  0.00    -0.324 C  
BRANCH   8   9
HETATM    9  C   UNL     1     -11.519  13.389  68.414  1.00  0.00    -0.351 A  
HETATM   10  C   UNL     1     -10.793  12.589  67.527  1.00  0.00    -0.264 A  
HETATM   11  C   UNL     1     -10.515  11.262  67.837  1.00  0.00    -0.218 A  
HETATM   12  C   UNL     1     -10.915  10.711  69.058  1.00  0.00    -0.295 A  
HETATM   13  C   UNL     1     -11.932  12.846  69.633  1.00  0.00    -0.358 A  
HETATM   14  C   UNL     1     -11.631  11.520  69.952  1.00  0.00    -0.387 A  
BRANCH  12  15
HETATM   15  C   UNL     1     -10.676   9.255  69.396  1.00  0.00    -0.222 C  
BRANCH  15  16
HETATM   16  C   UNL     1     -10.518   8.348  68.164  1.00  0.00    -0.228 C  
HETATM   17  C   UNL     1     -10.148   6.864  68.398  1.00  0.00    -0.168 C  
HETATM   18  C   UNL     1     -10.010   6.196  66.999  1.00  0.00    -0.162 C  
HETATM   19  N   UNL     1      -8.842   6.736  69.099  1.00  0.00    -0.134 NA 
HETATM   20  C   UNL     1     -11.241   6.105  69.200  1.00  0.00    -0.339 C  
HETATM   21  O   UNL     1      -9.586   4.840  67.119  1.00  0.00    -0.145 OA 
HETATM   22  O   UNL     1     -11.366   6.595  70.532  1.00  0.00    -0.307 OA 
HETATM   23  H1  UNL     1      -8.597   5.758  69.254  1.00  0.00     0.000 HD 
HETATM   24  H2  UNL     1      -8.831   7.267  69.970  1.00  0.00     0.000 HD 
HETATM   25  H   UNL     1     -12.035   6.131  71.023  1.00  0.00     0.000 HD 
HETATM   26  H   UNL     1      -9.502   4.433  66.265  1.00  0.00     0.000 HD 
ENDBRANCH  15  16
ENDBRANCH  12  15
ENDBRANCH   8   9
ENDBRANCH   7   8
ENDBRANCH   6   7
ENDBRANCH   5   6
ENDBRANCH   4   5
ENDBRANCH   3   4
ENDBRANCH   2   3
TORSDOF 9
ENDMDL
MODEL      217
REMARK 921   NORMALIZED FREE ENERGY PREDICTED BY IDOCK:   -3.55 KCAL/MOL
REMARK 922        TOTAL FREE ENERGY PREDICTED BY IDOCK:   -6.53 KCAL/MOL
REMARK 923 INTER-LIGAND FREE ENERGY PREDICTED BY IDOCK:   -5.51 KCAL/MOL
REMARK 924 INTRA-LIGAND FREE ENERGY PREDICTED BY IDOCK:   -1.02 KCAL/MOL
REMARK 927      BINDING AFFINITY PREDICTED BY RF-SCORE:    0.00 PKD
ROOT
HETATM    1  C   UNL     1      -6.593  14.527  68.582  1.00  0.00    -0.087 C  
HETATM    2  C   UNL     1      -7.586  14.530  67.433  1.00  0.00    -0.209 C  
ENDROOT
BRANCH   2   3
HETATM    3  C   UNL     1      -8.136  15.931  67.182  1.00  0.00    -0.240 C  
BRANCH   3   4
HETATM    4  C   UNL     1      -9.097  15.935  65.997  1.00  0.00    -0.363 C  
BRANCH   4   5
HETATM    5  C   UNL     1     -10.501  15.533  66.435  1.00  0.00    -0.310 C  
BRANCH   5   6
HETATM    6  C   UNL     1     -11.205  14.731  65.344  1.00  0.00    -0.347 C  
BRANCH   6   7
HETATM    7  C   UNL     1     -12.044  13.619  65.961  1.00  0.00    -0.480 C  
BRANCH   7   8
HETATM    8  C   UNL     1     -11.955  13.638  67.489  1.00  0.00    -0.393 C  
BRANCH   8   9
HETATM    9  C   UNL     1     -11.629  12.272  68.034  1.00  0.00    -0.408 A  
HETATM   10  C   UNL     1     -11.069  11.305  67.194  1.00  0.00    -0.364 A  
HETATM   11  C   UNL     1     -10.817  10.020  67.664  1.00  0.00    -0.336 A  
HETATM   12  C   UNL     1     -11.077   9.679  68.995  1.00  0.00    -0.104 A  
HETATM   13  C   UNL     1     -11.902  11.939  69.363  1.00  0.00    -0.389 A  
HETATM   14  C   UNL     1     -11.626  10.654  69.839  1.00  0.00    -0.396 A  
BRANCH  12  15
HETATM   15  C   UNL     1     -10.866   8.273  69.516  1.00  0.00    -0.124 C  
BRANCH  15  16
HETATM   16  C   UNL     1      -9.524   8.072  70.238  1.00  0.00    -0.167 C  
HETATM   17  C   UNL     1      -9.080   6.622  70.553  1.00  0.00    -0.152 C  
HETATM   18  C   UNL     1      -7.726   6.710  71.316  1.00  0.00    -0.094 C  
HETATM   19  N   UNL     1     -10.061   5.936  71.436  1.00  0.00    -0.192 NA 
HETATM   20  C   UNL     1      -8.866   5.780  69.265  1.00  0.00    -0.116 C  
HETATM   21  O   UNL     1      -7.283   5.417  71.721  1.00  0.00    -0.080 OA 
HETATM   22  O   UNL     1     -10.082   5.572  68.552  1.00  0.00    -0.156 OA 
HETATM   23  H1  UNL     1      -9.769   4.981  71.643  1.00  0.00     0.000 HD 
HETATM   24  H2  UNL     1     -11.001   5.962  71.041  1.00  0.00     0.000 HD 
HETATM   25  H   UNL     1      -9.950   5.057  67.764  1.00  0.00     0.000 HD 
HETATM   26  H   UNL     1      -6.456   5.470  72.187  1.00  0.00     0.000 HD 
ENDBRANCH  15  16
ENDBRANCH  12  15
ENDBRANCH   8   9
ENDBRANCH   7   8
ENDBRANCH   6   7
ENDBRANCH   5   6
ENDBRANCH   4   5
ENDBRANCH   3   4
ENDBRANCH   2   3
TORSDOF 9
ENDMDL
MODEL      218
REMARK 921   NORMALIZED FREE ENERGY PREDICTED BY IDOCK:   -3.55 KCAL/MOL
REMARK 922        TOTAL FREE ENERGY PREDICTED BY IDOCK:   -6.52 KCAL/MOL
REMARK 923 INTER-LIGAND FREE ENERGY PREDICTED BY IDOCK:   -5.38 KCAL/MOL
REMARK 924 INTRA-LIGAND FREE ENERGY PREDICTED BY IDOCK:   -1.14 KCAL/MOL
REMARK 927      BINDING AFFINITY PREDICTED BY RF-SCORE:    0.00 PKD
ROOT
HETATM    1  C   UNL     1     -12.415  14.075  65.593  1.00  0.00    -0.531 C  
HETATM    2  C   UNL     1     -12.284  13.568  67.019  1.00  0.00    -0.351 C  
ENDROOT
BRANCH   2   3
HETATM    3  C   UNL     1     -11.505  14.552  67.886  1.00  0.00    -0.348 C  
BRANCH   3   4
HETATM    4  C   UNL     1     -10.971  15.711  67.050  1.00  0.00    -0.261 C  
BRANCH   4   5
HETATM    5  C   UNL     1      -9.543  16.060  67.455  1.00  0.00    -0.225 C  
BRANCH   5   6
HETATM    6  C   UNL     1      -8.955  14.984  68.364  1.00  0.00    -0.179 C  
BRANCH   6   7
HETATM    7  C   UNL     1      -7.692  14.399  67.744  1.00  0.00    -0.172 C  
BRANCH   7   8
HETATM    8  C   UNL     1      -6.930  13.532  68.750  1.00  0.00    -0.102 C  
BRANCH   8   9
HETATM    9  C   UNL     1      -7.193  12.067  68.518  1.00  0.00    -0.101 A  
HETATM   10  C   UNL     1      -7.789  11.649  67.325  1.00  0.00    -0.157 A  
HETATM   11  C   UNL     1      -8.095  10.308  67.119  1.00  0.00    -0.121 A  
HETATM   12  C   UNL     1      -7.774   9.343  68.079  1.00  0.00    -0.084 A  
HETATM   13  C   UNL     1      -6.877  11.113  69.489  1.00  0.00    -0.127 A  
HETATM   14  C   UNL     1      -7.164   9.763  69.269  1.00  0.00    -0.072 A  
BRANCH  12  15
HETATM   15  C   UNL     1      -8.147   7.887  67.905  1.00  0.00    -0.129 C  
BRANCH  15  16
HETATM   16  C   UNL     1      -8.983   7.315  69.063  1.00  0.00    -0.134 C  
HETATM   17  C   UNL     1     -10.522   7.289  68.902  1.00  0.00    -0.206 C  
HETATM   18  C   UNL     1     -11.114   6.710  70.221  1.00  0.00    -0.326 C  
HETATM   19  N   UNL     1     -11.070   8.659  68.716  1.00  0.00    -0.417 NA 
HETATM   20  C   UNL     1     -10.975   6.386  67.722  1.00  0.00    -0.332 C  
HETATM   21  O   UNL     1     -12.539   6.728  70.193  1.00  0.00    -0.511 OA 
HETATM   22  O   UNL     1     -10.552   6.900  66.462  1.00  0.00    -0.497 OA 
HETATM   23  H1  UNL     1     -12.085   8.642  68.610  1.00  0.00     0.000 HD 
HETATM   24  H2  UNL     1     -10.621   9.139  67.936  1.00  0.00     0.000 HD 
HETATM   25  H   UNL     1     -10.829   6.347  65.739  1.00  0.00     0.000 HD 
HETATM   26  H   UNL     1     -12.900   6.375  70.998  1.00  0.00     0.000 HD 
ENDBRANCH  15  16
ENDBRANCH  12  15
ENDBRANCH   8   9
ENDBRANCH   7   8
ENDBRANCH   6   7
ENDBRANCH   5   6
ENDBRANCH   4   5
ENDBRANCH   3   4
ENDBRANCH   2   3
TORSDOF 9
ENDMDL
MODEL      219
REMARK 921   NORMALIZED FREE ENERGY PREDICTED BY IDOCK:   -3.54 KCAL/MOL
REMARK 922        TOTAL FREE ENERGY PREDICTED BY IDOCK:   -6.51 KCAL/MOL
REMARK 923 INTER-LIGAND FREE ENERGY PREDICTED BY IDOCK:   -5.63 KCAL/MOL
REMARK 924 INTRA-LIGAND FREE ENERGY PREDICTED BY IDOCK:   -0.87 KCAL/MOL
REMARK 927      BINDING AFFINITY PREDICTED BY RF-SCORE:    0.00 PKD
ROOT
HETATM    1  C   UNL     1     -10.297   7.249  68.033  1.00  0.00    -0.243 C  
HETATM    2  C   UNL     1      -9.093   8.172  67.972  1.00  0.00    -0.134 C  
ENDROOT
BRANCH   2   3
HETATM    3  C   UNL     1      -9.515   9.637  68.047  1.00  0.00    -0.146 C  
BRANCH   3   4
HETATM    4  C   UNL     1      -9.244  10.350  66.726  1.00  0.00    -0.176 C  
BRANCH   4   5
HETATM    5  C   UNL     1      -9.869  11.741  66.723  1.00  0.00    -0.218 C  
BRANCH   5   6
HETATM    6  C   UNL     1     -11.046  11.809  65.753  1.00  0.00    -0.351 C  
BRANCH   6   7
HETATM    7  C   UNL     1     -11.839  13.092  65.970  1.00  0.00    -0.471 C  
BRANCH   7   8
HETATM    8  C   UNL     1     -11.794  13.532  67.435  1.00  0.00    -0.423 C  
BRANCH   8   9
HETATM    9  C   UNL     1     -10.987  14.793  67.601  1.00  0.00    -0.292 A  
HETATM   10  C   UNL     1     -10.716  15.596  66.490  1.00  0.00    -0.293 A  
HETATM   11  C   UNL     1      -9.922  16.731  66.613  1.00  0.00    -0.300 A  
HETATM   12  C   UNL     1      -9.414  17.120  67.857  1.00  0.00    -0.257 A  
HETATM   13  C   UNL     1     -10.476  15.167  68.847  1.00  0.00    -0.241 A  
HETATM   14  C   UNL     1      -9.698  16.321  68.973  1.00  0.00    -0.252 A  
BRANCH  12  15
HETATM   15  C   UNL     1      -8.501  18.318  68.009  1.00  0.00    -0.273 C  
BRANCH  15  16
HETATM   16  C   UNL     1      -7.561  18.540  66.813  1.00  0.00    -0.246 C  
HETATM   17  C   UNL     1      -7.573  19.927  66.128  1.00  0.00    -0.324 C  
HETATM   18  C   UNL     1      -6.573  19.862  64.936  1.00  0.00    -0.226 C  
HETATM   19  N   UNL     1      -8.919  20.248  65.581  1.00  0.00    -0.450 NA 
HETATM   20  C   UNL     1      -7.122  21.062  67.088  1.00  0.00    -0.317 C  
HETATM   21  O   UNL     1      -6.583  21.080  64.194  1.00  0.00    -0.473 OA 
HETATM   22  O   UNL     1      -8.039  21.251  68.163  1.00  0.00     0.470 OA 
HETATM   23  H1  UNL     1      -8.928  21.163  65.129  1.00  0.00     0.000 HD 
HETATM   24  H2  UNL     1      -9.640  20.178  66.298  1.00  0.00     0.000 HD 
HETATM   25  H   UNL     1      -7.762  21.945  68.750  1.00  0.00     0.000 HD 
HETATM   26  H   UNL     1      -5.973  21.040  63.466  1.00  0.00     0.000 HD 
ENDBRANCH  15  16
ENDBRANCH  12  15
ENDBRANCH   8   9
ENDBRANCH   7   8
ENDBRANCH   6   7
ENDBRANCH   5   6
ENDBRANCH   4   5
ENDBRANCH   3   4
ENDBRANCH   2   3
TORSDOF 9
ENDMDL
MODEL      220
REMARK 921   NORMALIZED FREE ENERGY PREDICTED BY IDOCK:   -3.52 KCAL/MOL
REMARK 922        TOTAL FREE ENERGY PREDICTED BY IDOCK:   -6.48 KCAL/MOL
REMARK 923 INTER-LIGAND FREE ENERGY PREDICTED BY IDOCK:   -5.14 KCAL/MOL
REMARK 924 INTRA-LIGAND FREE ENERGY PREDICTED BY IDOCK:   -1.34 KCAL/MOL
REMARK 927      BINDING AFFINITY PREDICTED BY RF-SCORE:    0.00 PKD
ROOT
HETATM    1  C   UNL     1      -9.148  11.282  63.897  1.00  0.00    -0.002 C  
HETATM    2  C   UNL     1     -10.654  11.263  64.090  1.00  0.00    -0.437 C  
ENDROOT
BRANCH   2   3
HETATM    3  C   UNL     1     -11.288  12.570  63.622  1.00  0.00    -0.555 C  
BRANCH   3   4
HETATM    4  C   UNL     1     -12.464  12.954  64.514  1.00  0.00    -0.468 C  
BRANCH   4   5
HETATM    5  C   UNL     1     -12.117  14.159  65.381  1.00  0.00    -0.415 C  
BRANCH   5   6
HETATM    6  C   UNL     1     -10.759  13.975  66.053  1.00  0.00    -0.294 C  
BRANCH   6   7
HETATM    7  C   UNL     1     -10.937  13.681  67.538  1.00  0.00    -0.282 C  
BRANCH   7   8
HETATM    8  C   UNL     1     -11.651  12.345  67.758  1.00  0.00    -0.413 C  
BRANCH   8   9
HETATM    9  C   UNL     1     -10.666  11.210  67.864  1.00  0.00    -0.261 A  
HETATM   10  C   UNL     1     -10.930   9.999  67.218  1.00  0.00    -0.225 A  
HETATM   11  C   UNL     1     -10.062   8.921  67.354  1.00  0.00    -0.288 A  
HETATM   12  C   UNL     1      -8.885   9.036  68.101  1.00  0.00    -0.133 A  
HETATM   13  C   UNL     1      -9.498  11.334  68.621  1.00  0.00    -0.179 A  
HETATM   14  C   UNL     1      -8.616  10.257  68.737  1.00  0.00    -0.139 A  
BRANCH  12  15
HETATM   15  C   UNL     1      -7.954   7.863  68.312  1.00  0.00    -0.122 C  
BRANCH  15  16
HETATM   16  C   UNL     1      -8.675   6.511  68.445  1.00  0.00    -0.121 C  
HETATM   17  C   UNL     1      -8.682   5.826  69.833  1.00  0.00    -0.128 C  
HETATM   18  C   UNL     1      -9.432   4.471  69.674  1.00  0.00    -0.174 C  
HETATM   19  N   UNL     1      -7.300   5.534  70.299  1.00  0.00    -0.066 NA 
HETATM   20  C   UNL     1      -9.420   6.675  70.904  1.00  0.00    -0.164 C  
HETATM   21  O   UNL     1      -9.413   3.730  70.893  1.00  0.00    -0.138 OA 
HETATM   22  O   UNL     1      -8.743   7.898  71.179  1.00  0.00    -0.130 OA 
HETATM   23  H1  UNL     1      -7.304   5.082  71.214  1.00  0.00     0.000 HD 
HETATM   24  H2  UNL     1      -6.720   6.372  70.299  1.00  0.00     0.000 HD 
HETATM   25  H   UNL     1      -9.195   8.417  71.835  1.00  0.00     0.000 HD 
HETATM   26  H   UNL     1      -9.871   2.903  70.796  1.00  0.00     0.000 HD 
ENDBRANCH  15  16
ENDBRANCH  12  15
ENDBRANCH   8   9
ENDBRANCH   7   8
ENDBRANCH   6   7
ENDBRANCH   5   6
ENDBRANCH   4   5
ENDBRANCH   3   4
ENDBRANCH   2   3
TORSDOF 9
ENDMDL
MODEL      221
REMARK 921   NORMALIZED FREE ENERGY PREDICTED BY IDOCK:   -3.51 KCAL/MOL
REMARK 922        TOTAL FREE ENERGY PREDICTED BY IDOCK:   -6.46 KCAL/MOL
REMARK 923 INTER-LIGAND FREE ENERGY PREDICTED BY IDOCK:   -5.61 KCAL/MOL
REMARK 924 INTRA-LIGAND FREE ENERGY PREDICTED BY IDOCK:   -0.85 KCAL/MOL
REMARK 927      BINDING AFFINITY PREDICTED BY RF-SCORE:    0.00 PKD
ROOT
HETATM    1  C   UNL     1      -8.995   5.090  66.335  1.00  0.00    -0.123 C  
HETATM    2  C   UNL     1     -10.484   5.031  66.622  1.00  0.00    -0.301 C  
ENDROOT
BRANCH   2   3
HETATM    3  C   UNL     1     -11.023   6.400  67.027  1.00  0.00    -0.463 C  
BRANCH   3   4
HETATM    4  C   UNL     1      -9.960   7.479  66.848  1.00  0.00    -0.318 C  
BRANCH   4   5
HETATM    5  C   UNL     1     -10.304   8.720  67.665  1.00  0.00    -0.317 C  
BRANCH   5   6
HETATM    6  C   UNL     1     -10.529   9.926  66.756  1.00  0.00    -0.261 C  
BRANCH   6   7
HETATM    7  C   UNL     1      -9.223  10.682  66.545  1.00  0.00    -0.187 C  
BRANCH   7   8
HETATM    8  C   UNL     1      -8.486  10.901  67.868  1.00  0.00    -0.129 C  
BRANCH   8   9
HETATM    9  C   UNL     1      -8.299  12.368  68.152  1.00  0.00    -0.178 A  
HETATM   10  C   UNL     1      -9.296  13.279  67.790  1.00  0.00    -0.209 A  
HETATM   11  C   UNL     1      -9.115  14.643  67.989  1.00  0.00    -0.189 A  
HETATM   12  C   UNL     1      -7.954  15.132  68.597  1.00  0.00    -0.151 A  
HETATM   13  C   UNL     1      -7.130  12.846  68.751  1.00  0.00    -0.096 A  
HETATM   14  C   UNL     1      -6.961  14.216  68.972  1.00  0.00    -0.112 A  
BRANCH  12  15
HETATM   15  C   UNL     1      -7.707  16.615  68.773  1.00  0.00    -0.233 C  
BRANCH  15  16
HETATM   16  C   UNL     1      -8.919  17.493  68.423  1.00  0.00    -0.276 C  
HETATM   17  C   UNL     1      -8.666  18.795  67.625  1.00  0.00    -0.280 C  
HETATM   18  C   UNL     1     -10.041  19.504  67.450  1.00  0.00    -0.406 C  
HETATM   19  N   UNL     1      -7.765  19.718  68.366  1.00  0.00    -0.322 NA 
HETATM   20  C   UNL     1      -8.073  18.514  66.216  1.00  0.00    -0.233 C  
HETATM   21  O   UNL     1      -9.888  20.760  66.793  1.00  0.00    -0.620 OA 
HETATM   22  O   UNL     1      -6.767  17.949  66.287  1.00  0.00    -0.208 OA 
HETATM   23  H1  UNL     1      -7.597  20.575  67.840  1.00  0.00     0.000 HD 
HETATM   24  H2  UNL     1      -6.891  19.260  68.624  1.00  0.00     0.000 HD 
HETATM   25  H   UNL     1      -6.405  17.777  65.425  1.00  0.00     0.000 HD 
HETATM   26  H   UNL     1     -10.727  21.193  66.686  1.00  0.00     0.000 HD 
ENDBRANCH  15  16
ENDBRANCH  12  15
ENDBRANCH   8   9
ENDBRANCH   7   8
ENDBRANCH   6   7
ENDBRANCH   5   6
ENDBRANCH   4   5
ENDBRANCH   3   4
ENDBRANCH   2   3
TORSDOF 9
ENDMDL
MODEL      222
REMARK 921   NORMALIZED FREE ENERGY PREDICTED BY IDOCK:   -3.49 KCAL/MOL
REMARK 922        TOTAL FREE ENERGY PREDICTED BY IDOCK:   -6.44 KCAL/MOL
REMARK 923 INTER-LIGAND FREE ENERGY PREDICTED BY IDOCK:   -4.47 KCAL/MOL
REMARK 924 INTRA-LIGAND FREE ENERGY PREDICTED BY IDOCK:   -1.97 KCAL/MOL
REMARK 927      BINDING AFFINITY PREDICTED BY RF-SCORE:    0.00 PKD
ROOT
HETATM    1  C   UNL     1     -11.254   9.249  70.489  1.00  0.00    -0.315 C  
HETATM    2  C   UNL     1     -10.300   9.121  71.663  1.00  0.00    -0.388 C  
ENDROOT
BRANCH   2   3
HETATM    3  C   UNL     1      -9.854   7.674  71.858  1.00  0.00    -0.205 C  
BRANCH   3   4
HETATM    4  C   UNL     1     -11.056   6.757  72.063  1.00  0.00    -0.283 C  
BRANCH   4   5
HETATM    5  C   UNL     1     -10.986   5.555  71.127  1.00  0.00    -0.196 C  
BRANCH   5   6
HETATM    6  C   UNL     1      -9.738   4.719  71.403  1.00  0.00    -0.240 C  
BRANCH   6   7
HETATM    7  C   UNL     1      -8.792   4.769  70.210  1.00  0.00    -0.137 C  
BRANCH   7   8
HETATM    8  C   UNL     1      -9.565   4.820  68.889  1.00  0.00    -0.229 C  
BRANCH   8   9
HETATM    9  C   UNL     1      -9.482   6.187  68.260  1.00  0.00    -0.117 A  
HETATM   10  C   UNL     1      -8.370   6.998  68.506  1.00  0.00    -0.121 A  
HETATM   11  C   UNL     1      -8.304   8.285  67.983  1.00  0.00    -0.129 A  
HETATM   12  C   UNL     1      -9.325   8.781  67.165  1.00  0.00    -0.188 A  
HETATM   13  C   UNL     1     -10.512   6.675  67.453  1.00  0.00    -0.325 A  
HETATM   14  C   UNL     1     -10.432   7.960  66.909  1.00  0.00    -0.388 A  
BRANCH  12  15
HETATM   15  C   UNL     1      -9.305  10.196  66.631  1.00  0.00    -0.195 C  
BRANCH  15  16
HETATM   16  C   UNL     1      -7.959  10.915  66.823  1.00  0.00    -0.143 C  
HETATM   17  C   UNL     1      -7.986  12.409  67.228  1.00  0.00    -0.178 C  
HETATM   18  C   UNL     1      -6.508  12.891  67.309  1.00  0.00    -0.025 C  
HETATM   19  N   UNL     1      -8.683  13.234  66.205  1.00  0.00    -0.232 NA 
HETATM   20  C   UNL     1      -8.654  12.631  68.613  1.00  0.00     0.046 C  
HETATM   21  O   UNL     1      -6.441  14.287  67.597  1.00  0.00    -0.179 OA 
HETATM   22  O   UNL     1     -10.040  12.300  68.599  1.00  0.00    -0.302 OA 
HETATM   23  H1  UNL     1      -8.701  14.219  66.472  1.00  0.00     0.000 HD 
HETATM   24  H2  UNL     1      -9.620  12.881  66.015  1.00  0.00     0.000 HD 
HETATM   25  H   UNL     1     -10.448  12.436  69.447  1.00  0.00     0.000 HD 
HETATM   26  H   UNL     1      -5.539  14.581  67.646  1.00  0.00     0.000 HD 
ENDBRANCH  15  16
ENDBRANCH  12  15
ENDBRANCH   8   9
ENDBRANCH   7   8
ENDBRANCH   6   7
ENDBRANCH   5   6
ENDBRANCH   4   5
ENDBRANCH   3   4
ENDBRANCH   2   3
TORSDOF 9
ENDMDL
MODEL      223
REMARK 921   NORMALIZED FREE ENERGY PREDICTED BY IDOCK:   -3.49 KCAL/MOL
REMARK 922        TOTAL FREE ENERGY PREDICTED BY IDOCK:   -6.43 KCAL/MOL
REMARK 923 INTER-LIGAND FREE ENERGY PREDICTED BY IDOCK:   -5.49 KCAL/MOL
REMARK 924 INTRA-LIGAND FREE ENERGY PREDICTED BY IDOCK:   -0.94 KCAL/MOL
REMARK 927      BINDING AFFINITY PREDICTED BY RF-SCORE:    0.00 PKD
ROOT
HETATM    1  C   UNL     1     -10.339  20.026  66.259  1.00  0.00    -0.570 C  
HETATM    2  C   UNL     1     -10.812  19.095  67.361  1.00  0.00    -0.533 C  
ENDROOT
BRANCH   2   3
HETATM    3  C   UNL     1      -9.640  18.579  68.190  1.00  0.00    -0.353 C  
BRANCH   3   4
HETATM    4  C   UNL     1      -9.733  17.069  68.386  1.00  0.00    -0.279 C  
BRANCH   4   5
HETATM    5  C   UNL     1      -8.997  16.331  67.272  1.00  0.00    -0.209 C  
BRANCH   5   6
HETATM    6  C   UNL     1      -9.975  15.567  66.384  1.00  0.00    -0.300 C  
BRANCH   6   7
HETATM    7  C   UNL     1     -11.194  15.134  67.188  1.00  0.00    -0.320 C  
BRANCH   7   8
HETATM    8  C   UNL     1     -11.786  13.831  66.643  1.00  0.00    -0.421 C  
BRANCH   8   9
HETATM    9  C   UNL     1     -11.301  12.641  67.429  1.00  0.00    -0.367 A  
HETATM   10  C   UNL     1     -10.009  12.151  67.221  1.00  0.00    -0.211 A  
HETATM   11  C   UNL     1      -9.566  11.017  67.893  1.00  0.00    -0.180 A  
HETATM   12  C   UNL     1     -10.384  10.367  68.822  1.00  0.00    -0.213 A  
HETATM   13  C   UNL     1     -12.132  11.994  68.347  1.00  0.00    -0.090 A  
HETATM   14  C   UNL     1     -11.676  10.868  69.039  1.00  0.00    -0.391 A  
BRANCH  12  15
HETATM   15  C   UNL     1      -9.948   9.099  69.524  1.00  0.00    -0.193 C  
BRANCH  15  16
HETATM   16  C   UNL     1      -8.603   9.225  70.258  1.00  0.00    -0.234 C  
HETATM   17  C   UNL     1      -8.161   8.053  71.168  1.00  0.00    -0.095 C  
HETATM   18  C   UNL     1      -6.804   8.458  71.814  1.00  0.00    -0.082 C  
HETATM   19  N   UNL     1      -9.140   7.820  72.264  1.00  0.00    -0.139 NA 
HETATM   20  C   UNL     1      -7.954   6.736  70.371  1.00  0.00    -0.115 C  
HETATM   21  O   UNL     1      -6.361   7.466  72.738  1.00  0.00    -0.057 OA 
HETATM   22  O   UNL     1      -9.173   6.244  69.823  1.00  0.00    -0.144 OA 
HETATM   23  H1  UNL     1      -8.849   7.048  72.864  1.00  0.00     0.000 HD 
HETATM   24  H2  UNL     1     -10.082   7.677  71.900  1.00  0.00     0.000 HD 
HETATM   25  H   UNL     1      -9.046   5.438  69.335  1.00  0.00     0.000 HD 
HETATM   26  H   UNL     1      -5.533   7.713  73.132  1.00  0.00     0.000 HD 
ENDBRANCH  15  16
ENDBRANCH  12  15
ENDBRANCH   8   9
ENDBRANCH   7   8
ENDBRANCH   6   7
ENDBRANCH   5   6
ENDBRANCH   4   5
ENDBRANCH   3   4
ENDBRANCH   2   3
TORSDOF 9
ENDMDL
MODEL      224
REMARK 921   NORMALIZED FREE ENERGY PREDICTED BY IDOCK:   -3.48 KCAL/MOL
REMARK 922        TOTAL FREE ENERGY PREDICTED BY IDOCK:   -6.42 KCAL/MOL
REMARK 923 INTER-LIGAND FREE ENERGY PREDICTED BY IDOCK:   -4.82 KCAL/MOL
REMARK 924 INTRA-LIGAND FREE ENERGY PREDICTED BY IDOCK:   -1.60 KCAL/MOL
REMARK 927      BINDING AFFINITY PREDICTED BY RF-SCORE:    0.00 PKD
ROOT
HETATM    1  C   UNL     1     -11.452  14.374  66.151  1.00  0.00    -0.357 C  
HETATM    2  C   UNL     1     -10.925  15.663  66.757  1.00  0.00    -0.230 C  
ENDROOT
BRANCH   2   3
HETATM    3  C   UNL     1      -9.859  16.297  65.868  1.00  0.00    -0.365 C  
BRANCH   3   4
HETATM    4  C   UNL     1      -9.014  17.294  66.655  1.00  0.00    -0.279 C  
BRANCH   4   5
HETATM    5  C   UNL     1      -8.896  16.871  68.116  1.00  0.00    -0.223 C  
BRANCH   5   6
HETATM    6  C   UNL     1      -7.587  16.125  68.364  1.00  0.00    -0.158 C  
BRANCH   6   7
HETATM    7  C   UNL     1      -7.861  14.654  68.651  1.00  0.00    -0.138 C  
BRANCH   7   8
HETATM    8  C   UNL     1      -7.686  13.800  67.393  1.00  0.00    -0.158 C  
BRANCH   8   9
HETATM    9  C   UNL     1      -8.357  12.460  67.545  1.00  0.00    -0.173 A  
HETATM   10  C   UNL     1      -7.871  11.356  66.838  1.00  0.00    -0.158 A  
HETATM   11  C   UNL     1      -8.515  10.126  66.919  1.00  0.00    -0.126 A  
HETATM   12  C   UNL     1      -9.633   9.953  67.742  1.00  0.00    -0.163 A  
HETATM   13  C   UNL     1      -9.480  12.302  68.362  1.00  0.00    -0.175 A  
HETATM   14  C   UNL     1     -10.110  11.058  68.460  1.00  0.00    -0.198 A  
BRANCH  12  15
HETATM   15  C   UNL     1     -10.385   8.641  67.803  1.00  0.00    -0.303 C  
BRANCH  15  16
HETATM   16  C   UNL     1      -9.478   7.411  67.973  1.00  0.00    -0.146 C  
HETATM   17  C   UNL     1      -9.526   6.655  69.323  1.00  0.00    -0.141 C  
HETATM   18  C   UNL     1      -8.491   5.495  69.239  1.00  0.00    -0.101 C  
HETATM   19  N   UNL     1      -9.133   7.540  70.453  1.00  0.00    -0.153 NA 
HETATM   20  C   UNL     1     -10.927   6.045  69.606  1.00  0.00    -0.400 C  
HETATM   21  O   UNL     1      -8.409   4.793  70.478  1.00  0.00    -0.091 OA 
HETATM   22  O   UNL     1     -11.921   7.050  69.791  1.00  0.00    -0.588 OA 
HETATM   23  H1  UNL     1      -9.165   7.042  71.343  1.00  0.00     0.000 HD 
HETATM   24  H2  UNL     1      -9.700   8.387  70.478  1.00  0.00     0.000 HD 
HETATM   25  H   UNL     1     -12.778   6.677  69.964  1.00  0.00     0.000 HD 
HETATM   26  H   UNL     1      -7.777   4.085  70.427  1.00  0.00     0.000 HD 
ENDBRANCH  15  16
ENDBRANCH  12  15
ENDBRANCH   8   9
ENDBRANCH   7   8
ENDBRANCH   6   7
ENDBRANCH   5   6
ENDBRANCH   4   5
ENDBRANCH   3   4
ENDBRANCH   2   3
TORSDOF 9
ENDMDL
MODEL      225
REMARK 921   NORMALIZED FREE ENERGY PREDICTED BY IDOCK:   -3.48 KCAL/MOL
REMARK 922        TOTAL FREE ENERGY PREDICTED BY IDOCK:   -6.42 KCAL/MOL
REMARK 923 INTER-LIGAND FREE ENERGY PREDICTED BY IDOCK:   -5.99 KCAL/MOL
REMARK 924 INTRA-LIGAND FREE ENERGY PREDICTED BY IDOCK:   -0.43 KCAL/MOL
REMARK 927      BINDING AFFINITY PREDICTED BY RF-SCORE:    0.00 PKD
ROOT
HETATM    1  C   UNL     1     -10.655   5.297  68.706  1.00  0.00    -0.115 C  
HETATM    2  C   UNL     1      -9.815   6.521  69.021  1.00  0.00    -0.153 C  
ENDROOT
BRANCH   2   3
HETATM    3  C   UNL     1      -9.786   7.490  67.843  1.00  0.00    -0.185 C  
BRANCH   3   4
HETATM    4  C   UNL     1     -10.400   8.833  68.227  1.00  0.00    -0.252 C  
BRANCH   4   5
HETATM    5  C   UNL     1     -10.535   8.955  69.741  1.00  0.00    -0.217 C  
BRANCH   5   6
HETATM    6  C   UNL     1     -11.044  10.339  70.134  1.00  0.00    -0.385 C  
BRANCH   6   7
HETATM    7  C   UNL     1     -11.047  11.266  68.925  1.00  0.00    -0.295 C  
BRANCH   7   8
HETATM    8  C   UNL     1      -9.624  11.667  68.528  1.00  0.00    -0.181 C  
BRANCH   8   9
HETATM    9  C   UNL     1      -9.609  12.994  67.815  1.00  0.00    -0.208 A  
HETATM   10  C   UNL     1      -9.113  14.127  68.466  1.00  0.00    -0.176 A  
HETATM   11  C   UNL     1      -9.147  15.371  67.845  1.00  0.00    -0.178 A  
HETATM   12  C   UNL     1      -9.636  15.510  66.542  1.00  0.00    -0.295 A  
HETATM   13  C   UNL     1     -10.110  13.123  66.516  1.00  0.00    -0.280 A  
HETATM   14  C   UNL     1     -10.121  14.370  65.886  1.00  0.00    -0.344 A  
BRANCH  12  15
HETATM   15  C   UNL     1      -9.738  16.860  65.866  1.00  0.00    -0.205 C  
BRANCH  15  16
HETATM   16  C   UNL     1      -8.560  17.800  66.173  1.00  0.00    -0.139 C  
HETATM   17  C   UNL     1      -8.882  19.214  66.715  1.00  0.00    -0.311 C  
HETATM   18  C   UNL     1      -7.527  19.959  66.894  1.00  0.00    -0.251 C  
HETATM   19  N   UNL     1      -9.707  19.988  65.748  1.00  0.00    -0.482 NA 
HETATM   20  C   UNL     1      -9.604  19.167  68.089  1.00  0.00    -0.348 C  
HETATM   21  O   UNL     1      -7.736  21.306  67.313  1.00  0.00    -0.691 OA 
HETATM   22  O   UNL     1     -10.900  18.581  67.994  1.00  0.00    -0.299 OA 
HETATM   23  H1  UNL     1      -9.920  20.920  66.105  1.00  0.00     0.000 HD 
HETATM   24  H2  UNL     1     -10.555  19.483  65.492  1.00  0.00     0.000 HD 
HETATM   25  H   UNL     1     -11.342  18.552  68.835  1.00  0.00     0.000 HD 
HETATM   26  H   UNL     1      -6.909  21.761  67.422  1.00  0.00     0.000 HD 
ENDBRANCH  15  16
ENDBRANCH  12  15
ENDBRANCH   8   9
ENDBRANCH   7   8
ENDBRANCH   6   7
ENDBRANCH   5   6
ENDBRANCH   4   5
ENDBRANCH   3   4
ENDBRANCH   2   3
TORSDOF 9
ENDMDL
MODEL      226
REMARK 921   NORMALIZED FREE ENERGY PREDICTED BY IDOCK:   -3.47 KCAL/MOL
REMARK 922        TOTAL FREE ENERGY PREDICTED BY IDOCK:   -6.41 KCAL/MOL
REMARK 923 INTER-LIGAND FREE ENERGY PREDICTED BY IDOCK:   -5.04 KCAL/MOL
REMARK 924 INTRA-LIGAND FREE ENERGY PREDICTED BY IDOCK:   -1.37 KCAL/MOL
REMARK 927      BINDING AFFINITY PREDICTED BY RF-SCORE:    0.00 PKD
ROOT
HETATM    1  C   UNL     1      -6.939   9.739  62.890  1.00  0.00    -0.116 C  
HETATM    2  C   UNL     1      -7.413   9.339  64.276  1.00  0.00    -0.107 C  
ENDROOT
BRANCH   2   3
HETATM    3  C   UNL     1      -7.936  10.545  65.051  1.00  0.00    -0.079 C  
BRANCH   3   4
HETATM    4  C   UNL     1      -9.412  10.374  65.395  1.00  0.00    -0.285 C  
BRANCH   4   5
HETATM    5  C   UNL     1      -9.602   9.287  66.447  1.00  0.00    -0.301 C  
BRANCH   5   6
HETATM    6  C   UNL     1     -10.867   9.534  67.265  1.00  0.00    -0.188 C  
BRANCH   6   7
HETATM    7  C   UNL     1     -10.530  10.277  68.551  1.00  0.00    -0.217 C  
BRANCH   7   8
HETATM    8  C   UNL     1     -11.208  11.649  68.594  1.00  0.00    -0.308 C  
BRANCH   8   9
HETATM    9  C   UNL     1     -10.266  12.738  68.150  1.00  0.00    -0.241 A  
HETATM   10  C   UNL     1      -8.886  12.564  68.294  1.00  0.00    -0.171 A  
HETATM   11  C   UNL     1      -8.005  13.582  67.946  1.00  0.00    -0.162 A  
HETATM   12  C   UNL     1      -8.474  14.783  67.402  1.00  0.00    -0.218 A  
HETATM   13  C   UNL     1     -10.746  13.937  67.618  1.00  0.00    -0.255 A  
HETATM   14  C   UNL     1      -9.857  14.949  67.246  1.00  0.00    -0.229 A  
BRANCH  12  15
HETATM   15  C   UNL     1      -7.542  15.927  67.069  1.00  0.00    -0.264 C  
BRANCH  15  16
HETATM   16  C   UNL     1      -7.613  17.099  68.063  1.00  0.00    -0.192 C  
HETATM   17  C   UNL     1      -6.948  18.436  67.657  1.00  0.00    -0.208 C  
HETATM   18  C   UNL     1      -7.128  19.421  68.848  1.00  0.00    -0.358 C  
HETATM   19  N   UNL     1      -5.489  18.265  67.419  1.00  0.00    -0.140 NA 
HETATM   20  C   UNL     1      -7.607  19.062  66.396  1.00  0.00    -0.263 C  
HETATM   21  O   UNL     1      -6.469  20.659  68.593  1.00  0.00    -0.296 OA 
HETATM   22  O   UNL     1      -7.405  18.263  65.234  1.00  0.00    -0.447 OA 
HETATM   23  H1  UNL     1      -5.051  19.146  67.151  1.00  0.00     0.000 HD 
HETATM   24  H2  UNL     1      -5.306  17.532  66.734  1.00  0.00     0.000 HD 
HETATM   25  H   UNL     1      -7.808  18.646  64.463  1.00  0.00     0.000 HD 
HETATM   26  H   UNL     1      -6.578  21.260  69.320  1.00  0.00     0.000 HD 
ENDBRANCH  15  16
ENDBRANCH  12  15
ENDBRANCH   8   9
ENDBRANCH   7   8
ENDBRANCH   6   7
ENDBRANCH   5   6
ENDBRANCH   4   5
ENDBRANCH   3   4
ENDBRANCH   2   3
TORSDOF 9
ENDMDL
MODEL      227
REMARK 921   NORMALIZED FREE ENERGY PREDICTED BY IDOCK:   -3.47 KCAL/MOL
REMARK 922        TOTAL FREE ENERGY PREDICTED BY IDOCK:   -6.40 KCAL/MOL
REMARK 923 INTER-LIGAND FREE ENERGY PREDICTED BY IDOCK:   -5.38 KCAL/MOL
REMARK 924 INTRA-LIGAND FREE ENERGY PREDICTED BY IDOCK:   -1.02 KCAL/MOL
REMARK 927      BINDING AFFINITY PREDICTED BY RF-SCORE:    0.00 PKD
ROOT
HETATM    1  C   UNL     1      -6.677  14.428  68.842  1.00  0.00    -0.098 C  
HETATM    2  C   UNL     1      -7.886  14.712  67.968  1.00  0.00    -0.136 C  
ENDROOT
BRANCH   2   3
HETATM    3  C   UNL     1      -8.695  15.888  68.509  1.00  0.00    -0.194 C  
BRANCH   3   4
HETATM    4  C   UNL     1      -9.942  16.127  67.664  1.00  0.00    -0.241 C  
BRANCH   4   5
HETATM    5  C   UNL     1     -11.136  15.367  68.232  1.00  0.00    -0.309 C  
BRANCH   5   6
HETATM    6  C   UNL     1     -11.652  14.334  67.234  1.00  0.00    -0.401 C  
BRANCH   6   7
HETATM    7  C   UNL     1     -11.964  13.022  67.942  1.00  0.00    -0.338 C  
BRANCH   7   8
HETATM    8  C   UNL     1     -10.707  12.420  68.576  1.00  0.00    -0.262 C  
BRANCH   8   9
HETATM    9  C   UNL     1     -10.575  10.957  68.244  1.00  0.00    -0.223 A  
HETATM   10  C   UNL     1     -10.326  10.563  66.926  1.00  0.00    -0.293 A  
HETATM   11  C   UNL     1     -10.261   9.215  66.591  1.00  0.00    -0.328 A  
HETATM   12  C   UNL     1     -10.400   8.224  67.568  1.00  0.00    -0.333 A  
HETATM   13  C   UNL     1     -10.726   9.975  69.227  1.00  0.00    -0.249 A  
HETATM   14  C   UNL     1     -10.636   8.622  68.892  1.00  0.00    -0.166 A  
BRANCH  12  15
HETATM   15  C   UNL     1     -10.391   6.751  67.221  1.00  0.00    -0.311 C  
BRANCH  15  16
HETATM   16  C   UNL     1      -9.166   6.312  66.402  1.00  0.00    -0.173 C  
HETATM   17  C   UNL     1      -9.159   4.879  65.818  1.00  0.00    -0.148 C  
HETATM   18  C   UNL     1      -7.801   4.686  65.083  1.00  0.00    -0.090 C  
HETATM   19  N   UNL     1      -9.247   3.856  66.895  1.00  0.00    -0.160 NA 
HETATM   20  C   UNL     1     -10.308   4.655  64.796  1.00  0.00     0.156 C  
HETATM   21  O   UNL     1      -7.674   3.357  64.583  1.00  0.00    -0.076 OA 
HETATM   22  O   UNL     1     -11.592   4.721  65.411  1.00  0.00    -1.002 OA 
HETATM   23  H1  UNL     1      -9.244   2.911  66.510  1.00  0.00     0.000 HD 
HETATM   24  H2  UNL     1     -10.058   4.012  67.494  1.00  0.00     0.000 HD 
HETATM   25  H   UNL     1     -12.295   4.584  64.786  1.00  0.00     0.000 HD 
HETATM   26  H   UNL     1      -6.845   3.239  64.134  1.00  0.00     0.000 HD 
ENDBRANCH  15  16
ENDBRANCH  12  15
ENDBRANCH   8   9
ENDBRANCH   7   8
ENDBRANCH   6   7
ENDBRANCH   5   6
ENDBRANCH   4   5
ENDBRANCH   3   4
ENDBRANCH   2   3
TORSDOF 9
ENDMDL
MODEL      228
REMARK 921   NORMALIZED FREE ENERGY PREDICTED BY IDOCK:   -3.44 KCAL/MOL
REMARK 922        TOTAL FREE ENERGY PREDICTED BY IDOCK:   -6.36 KCAL/MOL
REMARK 923 INTER-LIGAND FREE ENERGY PREDICTED BY IDOCK:   -4.52 KCAL/MOL
REMARK 924 INTRA-LIGAND FREE ENERGY PREDICTED BY IDOCK:   -1.84 KCAL/MOL
REMARK 927      BINDING AFFINITY PREDICTED BY RF-SCORE:    0.00 PKD
ROOT
HETATM    1  C   UNL     1     -10.719   6.004  67.116  1.00  0.00    -0.409 C  
HETATM    2  C   UNL     1     -10.746   5.012  65.967  1.00  0.00    -0.241 C  
ENDROOT
BRANCH   2   3
HETATM    3  C   UNL     1      -9.335   4.586  65.571  1.00  0.00    -0.162 C  
BRANCH   3   4
HETATM    4  C   UNL     1      -9.371   3.357  64.668  1.00  0.00    -0.146 C  
BRANCH   4   5
HETATM    5  C   UNL     1      -8.863   2.124  65.408  1.00  0.00    -0.123 C  
BRANCH   5   6
HETATM    6  C   UNL     1      -7.338   2.061  65.380  1.00  0.00    -0.058 C  
BRANCH   6   7
HETATM    7  C   UNL     1      -6.755   2.772  66.595  1.00  0.00    -0.040 C  
BRANCH   7   8
HETATM    8  C   UNL     1      -7.279   2.166  67.899  1.00  0.00    -0.047 C  
BRANCH   8   9
HETATM    9  C   UNL     1      -8.045   3.182  68.704  1.00  0.00    -0.071 A  
HETATM   10  C   UNL     1      -7.514   4.462  68.892  1.00  0.00    -0.056 A  
HETATM   11  C   UNL     1      -8.178   5.394  69.683  1.00  0.00    -0.100 A  
HETATM   12  C   UNL     1      -9.410   5.089  70.271  1.00  0.00    -0.212 A  
HETATM   13  C   UNL     1      -9.269   2.863  69.296  1.00  0.00    -0.212 A  
HETATM   14  C   UNL     1      -9.946   3.809  70.071  1.00  0.00     0.076 A  
BRANCH  12  15
HETATM   15  C   UNL     1     -10.124   6.063  71.183  1.00  0.00    -0.241 C  
BRANCH  15  16
HETATM   16  C   UNL     1     -10.363   7.445  70.551  1.00  0.00    -0.220 C  
HETATM   17  C   UNL     1     -11.610   8.243  71.003  1.00  0.00    -0.275 C  
HETATM   18  C   UNL     1     -11.631   9.567  70.184  1.00  0.00    -0.111 C  
HETATM   19  N   UNL     1     -12.864   7.500  70.706  1.00  0.00    -0.572 NA 
HETATM   20  C   UNL     1     -11.565   8.599  72.514  1.00  0.00    -0.240 C  
HETATM   21  O   UNL     1     -12.799  10.330  70.477  1.00  0.00    -0.480 OA 
HETATM   22  O   UNL     1     -11.637   7.440  73.340  1.00  0.00    -0.580 OA 
HETATM   23  H1  UNL     1     -13.686   8.025  71.003  1.00  0.00     0.000 HD 
HETATM   24  H2  UNL     1     -12.850   6.565  71.114  1.00  0.00     0.000 HD 
HETATM   25  H   UNL     1     -11.610   7.658  74.265  1.00  0.00     0.000 HD 
HETATM   26  H   UNL     1     -12.813  11.138  69.978  1.00  0.00     0.000 HD 
ENDBRANCH  15  16
ENDBRANCH  12  15
ENDBRANCH   8   9
ENDBRANCH   7   8
ENDBRANCH   6   7
ENDBRANCH   5   6
ENDBRANCH   4   5
ENDBRANCH   3   4
ENDBRANCH   2   3
TORSDOF 9
ENDMDL
MODEL      229
REMARK 921   NORMALIZED FREE ENERGY PREDICTED BY IDOCK:   -3.35 KCAL/MOL
REMARK 922        TOTAL FREE ENERGY PREDICTED BY IDOCK:   -6.23 KCAL/MOL
REMARK 923 INTER-LIGAND FREE ENERGY PREDICTED BY IDOCK:   -5.51 KCAL/MOL
REMARK 924 INTRA-LIGAND FREE ENERGY PREDICTED BY IDOCK:   -0.72 KCAL/MOL
REMARK 927      BINDING AFFINITY PREDICTED BY RF-SCORE:    0.00 PKD
ROOT
HETATM    1  C   UNL     1      -7.291   4.263  69.263  1.00  0.00    -0.054 C  
HETATM    2  C   UNL     1      -7.481   4.553  67.785  1.00  0.00    -0.073 C  
ENDROOT
BRANCH   2   3
HETATM    3  C   UNL     1      -8.122   5.921  67.568  1.00  0.00    -0.102 C  
BRANCH   3   4
HETATM    4  C   UNL     1      -9.226   6.173  68.590  1.00  0.00    -0.123 C  
BRANCH   4   5
HETATM    5  C   UNL     1     -10.240   7.179  68.056  1.00  0.00    -0.223 C  
BRANCH   5   6
HETATM    6  C   UNL     1      -9.669   8.594  68.076  1.00  0.00    -0.184 C  
BRANCH   6   7
HETATM    7  C   UNL     1     -10.714   9.594  67.598  1.00  0.00    -0.324 C  
BRANCH   7   8
HETATM    8  C   UNL     1     -10.428  10.054  66.166  1.00  0.00    -0.156 C  
BRANCH   8   9
HETATM    9  C   UNL     1     -10.635  11.539  66.017  1.00  0.00    -0.310 A  
HETATM   10  C   UNL     1      -9.543  12.405  66.115  1.00  0.00    -0.238 A  
HETATM   11  C   UNL     1      -9.723  13.782  66.041  1.00  0.00    -0.255 A  
HETATM   12  C   UNL     1     -10.992  14.329  65.823  1.00  0.00    -0.305 A  
HETATM   13  C   UNL     1     -11.909  12.075  65.810  1.00  0.00    -0.236 A  
HETATM   14  C   UNL     1     -12.084  13.458  65.712  1.00  0.00    -0.481 A  
BRANCH  12  15
HETATM   15  C   UNL     1     -11.224  15.825  65.796  1.00  0.00    -0.025 C  
BRANCH  15  16
HETATM   16  C   UNL     1     -10.809  16.543  67.091  1.00  0.00    -0.142 C  
HETATM   17  C   UNL     1      -9.932  17.812  66.968  1.00  0.00    -0.322 C  
HETATM   18  C   UNL     1      -9.627  18.304  68.413  1.00  0.00    -0.335 C  
HETATM   19  N   UNL     1      -8.636  17.512  66.302  1.00  0.00    -0.431 NA 
HETATM   20  C   UNL     1     -10.655  18.954  66.201  1.00  0.00    -0.407 C  
HETATM   21  O   UNL     1      -8.750  19.429  68.395  1.00  0.00    -0.336 OA 
HETATM   22  O   UNL     1     -10.889  18.619  64.836  1.00  0.00    -0.448 OA 
HETATM   23  H1  UNL     1      -8.058  18.349  66.220  1.00  0.00     0.000 HD 
HETATM   24  H2  UNL     1      -8.776  17.064  65.396  1.00  0.00     0.000 HD 
HETATM   25  H   UNL     1     -11.331  19.318  64.367  1.00  0.00     0.000 HD 
HETATM   26  H   UNL     1      -8.564  19.729  69.277  1.00  0.00     0.000 HD 
ENDBRANCH  15  16
ENDBRANCH  12  15
ENDBRANCH   8   9
ENDBRANCH   7   8
ENDBRANCH   6   7
ENDBRANCH   5   6
ENDBRANCH   4   5
ENDBRANCH   3   4
ENDBRANCH   2   3
TORSDOF 9
ENDMDL
MODEL      230
REMARK 921   NORMALIZED FREE ENERGY PREDICTED BY IDOCK:   -3.31 KCAL/MOL
REMARK 922        TOTAL FREE ENERGY PREDICTED BY IDOCK:   -6.16 KCAL/MOL
REMARK 923 INTER-LIGAND FREE ENERGY PREDICTED BY IDOCK:   -5.16 KCAL/MOL
REMARK 924 INTRA-LIGAND FREE ENERGY PREDICTED BY IDOCK:   -1.00 KCAL/MOL
REMARK 927      BINDING AFFINITY PREDICTED BY RF-SCORE:    0.00 PKD
ROOT
HETATM    1  C   UNL     1      -9.532  10.203  63.555  1.00  0.00    -0.310 C  
HETATM    2  C   UNL     1     -10.256  10.598  64.829  1.00  0.00    -0.401 C  
ENDROOT
BRANCH   2   3
HETATM    3  C   UNL     1      -9.961   9.617  65.960  1.00  0.00    -0.344 C  
BRANCH   3   4
HETATM    4  C   UNL     1      -8.564   9.844  66.529  1.00  0.00    -0.131 C  
BRANCH   4   5
HETATM    5  C   UNL     1      -8.403  11.282  67.012  1.00  0.00    -0.153 C  
BRANCH   5   6
HETATM    6  C   UNL     1      -6.995  11.522  67.549  1.00  0.00    -0.102 C  
BRANCH   6   7
HETATM    7  C   UNL     1      -7.018  11.629  69.069  1.00  0.00    -0.111 C  
BRANCH   7   8
HETATM    8  C   UNL     1      -6.557  10.325  69.725  1.00  0.00    -0.090 C  
BRANCH   8   9
HETATM    9  C   UNL     1      -7.697   9.635  70.427  1.00  0.00    -0.178 A  
HETATM   10  C   UNL     1      -9.009   9.846  69.995  1.00  0.00    -0.206 A  
HETATM   11  C   UNL     1     -10.078   9.266  70.669  1.00  0.00    -0.339 A  
HETATM   12  C   UNL     1      -9.864   8.423  71.764  1.00  0.00    -0.313 A  
HETATM   13  C   UNL     1      -7.471   8.803  71.528  1.00  0.00    -0.116 A  
HETATM   14  C   UNL     1      -8.546   8.202  72.188  1.00  0.00    -0.226 A  
BRANCH  12  15
HETATM   15  C   UNL     1     -11.011   7.825  72.550  1.00  0.00    -0.395 C  
BRANCH  15  16
HETATM   16  C   UNL     1     -10.595   6.674  73.481  1.00  0.00    -0.334 C  
HETATM   17  C   UNL     1     -11.027   5.238  73.096  1.00  0.00    -0.305 C  
HETATM   18  C   UNL     1     -10.518   4.287  74.219  1.00  0.00    -0.253 C  
HETATM   19  N   UNL     1     -12.508   5.119  73.030  1.00  0.00    -0.242 NA 
HETATM   20  C   UNL     1     -10.410   4.780  71.746  1.00  0.00    -0.160 C  
HETATM   21  O   UNL     1     -10.946   2.947  73.987  1.00  0.00    -0.191 OA 
HETATM   22  O   UNL     1     -10.899   5.543  70.647  1.00  0.00    -0.258 OA 
HETATM   23  H1  UNL     1     -12.793   4.172  72.776  1.00  0.00     0.000 HD 
HETATM   24  H2  UNL     1     -12.911   5.812  72.400  1.00  0.00     0.000 HD 
HETATM   25  H   UNL     1     -10.522   5.263  69.821  1.00  0.00     0.000 HD 
HETATM   26  H   UNL     1     -10.636   2.367  74.673  1.00  0.00     0.000 HD 
ENDBRANCH  15  16
ENDBRANCH  12  15
ENDBRANCH   8   9
ENDBRANCH   7   8
ENDBRANCH   6   7
ENDBRANCH   5   6
ENDBRANCH   4   5
ENDBRANCH   3   4
ENDBRANCH   2   3
TORSDOF 9
ENDMDL
MODEL      231
REMARK 921   NORMALIZED FREE ENERGY PREDICTED BY IDOCK:   -3.31 KCAL/MOL
REMARK 922        TOTAL FREE ENERGY PREDICTED BY IDOCK:   -6.16 KCAL/MOL
REMARK 923 INTER-LIGAND FREE ENERGY PREDICTED BY IDOCK:   -5.15 KCAL/MOL
REMARK 924 INTRA-LIGAND FREE ENERGY PREDICTED BY IDOCK:   -1.00 KCAL/MOL
REMARK 927      BINDING AFFINITY PREDICTED BY RF-SCORE:    0.00 PKD
ROOT
HETATM    1  C   UNL     1     -11.225  14.681  65.704  1.00  0.00    -0.342 C  
HETATM    2  C   UNL     1     -10.033  14.046  66.398  1.00  0.00    -0.301 C  
ENDROOT
BRANCH   2   3
HETATM    3  C   UNL     1     -10.480  13.030  67.445  1.00  0.00    -0.235 C  
BRANCH   3   4
HETATM    4  C   UNL     1     -10.536  13.664  68.831  1.00  0.00    -0.211 C  
BRANCH   4   5
HETATM    5  C   UNL     1     -11.975  13.758  69.328  1.00  0.00    -0.399 C  
BRANCH   5   6
HETATM    6  C   UNL     1     -12.180  12.901  70.574  1.00  0.00    -0.395 C  
BRANCH   6   7
HETATM    7  C   UNL     1     -12.660  11.508  70.187  1.00  0.00    -0.145 C  
BRANCH   7   8
HETATM    8  C   UNL     1     -12.604  10.550  71.380  1.00  0.00    -0.539 C  
BRANCH   8   9
HETATM    9  C   UNL     1     -11.492   9.545  71.221  1.00  0.00    -0.447 A  
HETATM   10  C   UNL     1     -11.299   8.563  72.196  1.00  0.00    -0.442 A  
HETATM   11  C   UNL     1     -10.241   7.666  72.096  1.00  0.00    -0.256 A  
HETATM   12  C   UNL     1      -9.374   7.697  70.999  1.00  0.00    -0.156 A  
HETATM   13  C   UNL     1     -10.625   9.593  70.125  1.00  0.00    -0.320 A  
HETATM   14  C   UNL     1      -9.578   8.675  70.015  1.00  0.00    -0.175 A  
BRANCH  12  15
HETATM   15  C   UNL     1      -8.182   6.770  70.895  1.00  0.00    -0.123 C  
BRANCH  15  16
HETATM   16  C   UNL     1      -8.190   5.627  71.925  1.00  0.00    -0.119 C  
HETATM   17  C   UNL     1      -8.620   4.220  71.443  1.00  0.00    -0.102 C  
HETATM   18  C   UNL     1      -8.581   3.278  72.681  1.00  0.00    -0.084 C  
HETATM   19  N   UNL     1     -10.012   4.230  70.918  1.00  0.00    -0.186 NA 
HETATM   20  C   UNL     1      -7.663   3.651  70.360  1.00  0.00    -0.047 C  
HETATM   21  O   UNL     1      -9.045   1.972  72.345  1.00  0.00    -0.072 OA 
HETATM   22  O   UNL     1      -7.710   4.407  69.153  1.00  0.00    -0.055 OA 
HETATM   23  H1  UNL     1     -10.295   3.303  70.601  1.00  0.00     0.000 HD 
HETATM   24  H2  UNL     1     -10.130   4.929  70.185  1.00  0.00     0.000 HD 
HETATM   25  H   UNL     1      -7.124   4.059  68.490  1.00  0.00     0.000 HD 
HETATM   26  H   UNL     1      -9.021   1.397  73.100  1.00  0.00     0.000 HD 
ENDBRANCH  15  16
ENDBRANCH  12  15
ENDBRANCH   8   9
ENDBRANCH   7   8
ENDBRANCH   6   7
ENDBRANCH   5   6
ENDBRANCH   4   5
ENDBRANCH   3   4
ENDBRANCH   2   3
TORSDOF 9
ENDMDL
MODEL      232
REMARK 921   NORMALIZED FREE ENERGY PREDICTED BY IDOCK:   -3.30 KCAL/MOL
REMARK 922        TOTAL FREE ENERGY PREDICTED BY IDOCK:   -6.15 KCAL/MOL
REMARK 923 INTER-LIGAND FREE ENERGY PREDICTED BY IDOCK:   -5.44 KCAL/MOL
REMARK 924 INTRA-LIGAND FREE ENERGY PREDICTED BY IDOCK:   -0.71 KCAL/MOL
REMARK 927      BINDING AFFINITY PREDICTED BY RF-SCORE:    0.00 PKD
ROOT
HETATM    1  C   UNL     1     -10.006  11.128  63.884  1.00  0.00    -0.381 C  
HETATM    2  C   UNL     1     -10.356  11.321  65.349  1.00  0.00    -0.328 C  
ENDROOT
BRANCH   2   3
HETATM    3  C   UNL     1     -10.167  10.029  66.138  1.00  0.00    -0.283 C  
BRANCH   3   4
HETATM    4  C   UNL     1     -10.262  10.288  67.638  1.00  0.00    -0.247 C  
BRANCH   4   5
HETATM    5  C   UNL     1     -11.579  10.971  67.989  1.00  0.00    -0.326 C  
BRANCH   5   6
HETATM    6  C   UNL     1     -11.620  11.353  69.466  1.00  0.00    -0.399 C  
BRANCH   6   7
HETATM    7  C   UNL     1     -12.875  10.793  70.124  1.00  0.00    -0.148 C  
BRANCH   7   8
HETATM    8  C   UNL     1     -12.595  10.338  71.558  1.00  0.00    -0.544 C  
BRANCH   8   9
HETATM    9  C   UNL     1     -11.899   9.002  71.581  1.00  0.00    -0.431 A  
HETATM   10  C   UNL     1     -10.536   8.933  71.884  1.00  0.00    -0.419 A  
HETATM   11  C   UNL     1      -9.865   7.716  71.850  1.00  0.00    -0.205 A  
HETATM   12  C   UNL     1     -10.544   6.529  71.558  1.00  0.00    -0.265 A  
HETATM   13  C   UNL     1     -12.586   7.823  71.278  1.00  0.00    -0.286 A  
HETATM   14  C   UNL     1     -11.914   6.598  71.269  1.00  0.00    -0.409 A  
BRANCH  12  15
HETATM   15  C   UNL     1      -9.826   5.200  71.459  1.00  0.00    -0.234 C  
BRANCH  15  16
HETATM   16  C   UNL     1      -8.294   5.315  71.514  1.00  0.00    -0.121 C  
HETATM   17  C   UNL     1      -7.598   5.091  72.878  1.00  0.00    -0.096 C  
HETATM   18  C   UNL     1      -6.072   5.307  72.659  1.00  0.00    -0.027 C  
HETATM   19  N   UNL     1      -8.061   6.078  73.890  1.00  0.00    -0.108 NA 
HETATM   20  C   UNL     1      -7.818   3.652  73.422  1.00  0.00    -0.075 C  
HETATM   21  O   UNL     1      -5.359   5.202  73.889  1.00  0.00    -0.016 OA 
HETATM   22  O   UNL     1      -9.185   3.402  73.739  1.00  0.00    -0.092 OA 
HETATM   23  H1  UNL     1      -7.603   5.931  74.790  1.00  0.00     0.000 HD 
HETATM   24  H2  UNL     1      -9.076   6.071  73.982  1.00  0.00     0.000 HD 
HETATM   25  H   UNL     1      -9.319   2.522  74.072  1.00  0.00     0.000 HD 
HETATM   26  H   UNL     1      -4.427   5.334  73.755  1.00  0.00     0.000 HD 
ENDBRANCH  15  16
ENDBRANCH  12  15
ENDBRANCH   8   9
ENDBRANCH   7   8
ENDBRANCH   6   7
ENDBRANCH   5   6
ENDBRANCH   4   5
ENDBRANCH   3   4
ENDBRANCH   2   3
TORSDOF 9
ENDMDL
MODEL      233
REMARK 921   NORMALIZED FREE ENERGY PREDICTED BY IDOCK:   -3.30 KCAL/MOL
REMARK 922        TOTAL FREE ENERGY PREDICTED BY IDOCK:   -6.15 KCAL/MOL
REMARK 923 INTER-LIGAND FREE ENERGY PREDICTED BY IDOCK:   -4.76 KCAL/MOL
REMARK 924 INTRA-LIGAND FREE ENERGY PREDICTED BY IDOCK:   -1.39 KCAL/MOL
REMARK 927      BINDING AFFINITY PREDICTED BY RF-SCORE:    0.00 PKD
ROOT
HETATM    1  C   UNL     1     -14.170   7.402  71.533  1.00  0.00    -0.571 C  
HETATM    2  C   UNL     1     -14.008   8.908  71.633  1.00  0.00    -0.417 C  
ENDROOT
BRANCH   2   3
HETATM    3  C   UNL     1     -12.632   9.282  72.177  1.00  0.00    -0.443 C  
BRANCH   3   4
HETATM    4  C   UNL     1     -11.529   8.553  71.415  1.00  0.00    -0.344 C  
BRANCH   4   5
HETATM    5  C   UNL     1     -10.384   8.175  72.348  1.00  0.00    -0.382 C  
BRANCH   5   6
HETATM    6  C   UNL     1     -10.846   7.172  73.401  1.00  0.00    -0.360 C  
BRANCH   6   7
HETATM    7  C   UNL     1     -11.071   5.804  72.769  1.00  0.00    -0.327 C  
BRANCH   7   8
HETATM    8  C   UNL     1      -9.757   5.029  72.640  1.00  0.00    -0.183 C  
BRANCH   8   9
HETATM    9  C   UNL     1      -9.260   5.030  71.218  1.00  0.00    -0.186 A  
HETATM   10  C   UNL     1      -8.017   5.595  70.917  1.00  0.00    -0.110 A  
HETATM   11  C   UNL     1      -7.568   5.659  69.603  1.00  0.00    -0.075 A  
HETATM   12  C   UNL     1      -8.328   5.123  68.558  1.00  0.00    -0.089 A  
HETATM   13  C   UNL     1     -10.032   4.501  70.180  1.00  0.00    -0.278 A  
HETATM   14  C   UNL     1      -9.568   4.545  68.863  1.00  0.00    -0.235 A  
BRANCH  12  15
HETATM   15  C   UNL     1      -7.889   5.231  67.113  1.00  0.00    -0.100 C  
BRANCH  15  16
HETATM   16  C   UNL     1      -8.881   4.612  66.114  1.00  0.00    -0.118 C  
HETATM   17  C   UNL     1      -8.448   3.331  65.361  1.00  0.00    -0.101 C  
HETATM   18  C   UNL     1      -9.606   2.950  64.394  1.00  0.00    -0.151 C  
HETATM   19  N   UNL     1      -7.228   3.570  64.544  1.00  0.00    -0.061 NA 
HETATM   20  C   UNL     1      -8.198   2.138  66.326  1.00  0.00    -0.089 C  
HETATM   21  O   UNL     1      -9.256   1.821  63.596  1.00  0.00    -0.092 OA 
HETATM   22  O   UNL     1      -7.087   2.369  67.187  1.00  0.00    -0.047 OA 
HETATM   23  H1  UNL     1      -6.942   2.726  64.048  1.00  0.00     0.000 HD 
HETATM   24  H2  UNL     1      -6.467   3.948  65.109  1.00  0.00     0.000 HD 
HETATM   25  H   UNL     1      -6.934   1.639  67.777  1.00  0.00     0.000 HD 
HETATM   26  H   UNL     1      -9.963   1.589  63.006  1.00  0.00     0.000 HD 
ENDBRANCH  15  16
ENDBRANCH  12  15
ENDBRANCH   8   9
ENDBRANCH   7   8
ENDBRANCH   6   7
ENDBRANCH   5   6
ENDBRANCH   4   5
ENDBRANCH   3   4
ENDBRANCH   2   3
TORSDOF 9
ENDMDL
MODEL      234
REMARK 921   NORMALIZED FREE ENERGY PREDICTED BY IDOCK:   -3.27 KCAL/MOL
REMARK 922        TOTAL FREE ENERGY PREDICTED BY IDOCK:   -6.10 KCAL/MOL
REMARK 923 INTER-LIGAND FREE ENERGY PREDICTED BY IDOCK:   -4.87 KCAL/MOL
REMARK 924 INTRA-LIGAND FREE ENERGY PREDICTED BY IDOCK:   -1.23 KCAL/MOL
REMARK 927      BINDING AFFINITY PREDICTED BY RF-SCORE:    0.00 PKD
ROOT
HETATM    1  C   UNL     1     -11.225  14.662  65.675  1.00  0.00    -0.342 C  
HETATM    2  C   UNL     1     -10.034  14.111  66.437  1.00  0.00    -0.302 C  
ENDROOT
BRANCH   2   3
HETATM    3  C   UNL     1     -10.479  13.174  67.557  1.00  0.00    -0.229 C  
BRANCH   3   4
HETATM    4  C   UNL     1     -10.512  13.904  68.896  1.00  0.00    -0.199 C  
BRANCH   4   5
HETATM    5  C   UNL     1     -11.940  14.013  69.419  1.00  0.00    -0.390 C  
BRANCH   5   6
HETATM    6  C   UNL     1     -12.131  13.158  70.669  1.00  0.00    -0.346 C  
BRANCH   6   7
HETATM    7  C   UNL     1     -12.637  11.771  70.291  1.00  0.00    -0.131 C  
BRANCH   7   8
HETATM    8  C   UNL     1     -12.163  10.715  71.292  1.00  0.00    -0.447 C  
BRANCH   8   9
HETATM    9  C   UNL     1     -11.191   9.756  70.655  1.00  0.00    -0.402 A  
HETATM   10  C   UNL     1     -10.597   8.753  71.427  1.00  0.00    -0.349 A  
HETATM   11  C   UNL     1      -9.653   7.898  70.871  1.00  0.00    -0.172 A  
HETATM   12  C   UNL     1      -9.309   7.991  69.518  1.00  0.00    -0.156 A  
HETATM   13  C   UNL     1     -10.847   9.865  69.305  1.00  0.00    -0.255 A  
HETATM   14  C   UNL     1      -9.916   8.988  68.742  1.00  0.00    -0.194 A  
BRANCH  12  15
HETATM   15  C   UNL     1      -8.243   7.110  68.902  1.00  0.00    -0.125 C  
BRANCH  15  16
HETATM   16  C   UNL     1      -8.589   6.610  67.490  1.00  0.00    -0.120 C  
HETATM   17  C   UNL     1      -8.622   5.081  67.250  1.00  0.00    -0.104 C  
HETATM   18  C   UNL     1      -8.950   4.857  65.744  1.00  0.00    -0.142 C  
HETATM   19  N   UNL     1      -7.298   4.462  67.527  1.00  0.00    -0.069 NA 
HETATM   20  C   UNL     1      -9.712   4.375  68.102  1.00  0.00    -0.119 C  
HETATM   21  O   UNL     1      -8.918   3.471  65.415  1.00  0.00    -0.127 OA 
HETATM   22  O   UNL     1      -9.435   4.452  69.497  1.00  0.00    -0.146 OA 
HETATM   23  H1  UNL     1      -7.319   3.454  67.370  1.00  0.00     0.000 HD 
HETATM   24  H2  UNL     1      -6.970   4.686  68.467  1.00  0.00     0.000 HD 
HETATM   25  H   UNL     1     -10.102   4.020  70.019  1.00  0.00     0.000 HD 
HETATM   26  H   UNL     1      -9.118   3.334  64.496  1.00  0.00     0.000 HD 
ENDBRANCH  15  16
ENDBRANCH  12  15
ENDBRANCH   8   9
ENDBRANCH   7   8
ENDBRANCH   6   7
ENDBRANCH   5   6
ENDBRANCH   4   5
ENDBRANCH   3   4
ENDBRANCH   2   3
TORSDOF 9
ENDMDL
MODEL      235
REMARK 921   NORMALIZED FREE ENERGY PREDICTED BY IDOCK:   -3.26 KCAL/MOL
REMARK 922        TOTAL FREE ENERGY PREDICTED BY IDOCK:   -6.09 KCAL/MOL
REMARK 923 INTER-LIGAND FREE ENERGY PREDICTED BY IDOCK:   -4.76 KCAL/MOL
REMARK 924 INTRA-LIGAND FREE ENERGY PREDICTED BY IDOCK:   -1.33 KCAL/MOL
REMARK 927      BINDING AFFINITY PREDICTED BY RF-SCORE:    0.00 PKD
ROOT
HETATM    1  C   UNL     1     -11.263   6.382  67.144  1.00  0.00    -0.298 C  
HETATM    2  C   UNL     1     -10.077   5.435  67.088  1.00  0.00    -0.231 C  
ENDROOT
BRANCH   2   3
HETATM    3  C   UNL     1      -8.851   6.119  66.491  1.00  0.00    -0.134 C  
BRANCH   3   4
HETATM    4  C   UNL     1      -7.623   5.219  66.588  1.00  0.00    -0.088 C  
BRANCH   4   5
HETATM    5  C   UNL     1      -6.516   5.897  67.388  1.00  0.00    -0.047 C  
BRANCH   5   6
HETATM    6  C   UNL     1      -5.377   6.343  66.474  1.00  0.00    -0.013 C  
BRANCH   6   7
HETATM    7  C   UNL     1      -5.395   7.857  66.304  1.00  0.00    -0.025 C  
BRANCH   7   8
HETATM    8  C   UNL     1      -5.893   8.553  67.572  1.00  0.00    -0.043 C  
BRANCH   8   9
HETATM    9  C   UNL     1      -6.814   9.698  67.241  1.00  0.00    -0.083 A  
HETATM   10  C   UNL     1      -6.758  10.875  67.993  1.00  0.00    -0.063 A  
HETATM   11  C   UNL     1      -7.641  11.919  67.740  1.00  0.00    -0.130 A  
HETATM   12  C   UNL     1      -8.574  11.835  66.701  1.00  0.00    -0.170 A  
HETATM   13  C   UNL     1      -7.749   9.599  66.207  1.00  0.00    -0.101 A  
HETATM   14  C   UNL     1      -8.619  10.659  65.939  1.00  0.00    -0.177 A  
BRANCH  12  15
HETATM   15  C   UNL     1      -9.584  12.932  66.442  1.00  0.00    -0.252 C  
BRANCH  15  16
HETATM   16  C   UNL     1      -9.889  13.801  67.674  1.00  0.00    -0.234 C  
HETATM   17  C   UNL     1     -11.355  13.873  68.164  1.00  0.00    -0.295 C  
HETATM   18  C   UNL     1     -11.387  14.843  69.381  1.00  0.00    -0.290 C  
HETATM   19  N   UNL     1     -12.251  14.427  67.113  1.00  0.00    -0.584 NA 
HETATM   20  C   UNL     1     -11.891  12.489  68.624  1.00  0.00    -0.297 C  
HETATM   21  O   UNL     1     -12.721  15.035  69.848  1.00  0.00    -0.573 OA 
HETATM   22  O   UNL     1     -11.983  11.565  67.543  1.00  0.00    -0.629 OA 
HETATM   23  H1  UNL     1     -13.217  14.474  67.436  1.00  0.00     0.000 HD 
HETATM   24  H2  UNL     1     -12.173  13.902  66.242  1.00  0.00     0.000 HD 
HETATM   25  H   UNL     1     -12.311  10.718  67.824  1.00  0.00     0.000 HD 
HETATM   26  H   UNL     1     -12.740  15.627  70.591  1.00  0.00     0.000 HD 
ENDBRANCH  15  16
ENDBRANCH  12  15
ENDBRANCH   8   9
ENDBRANCH   7   8
ENDBRANCH   6   7
ENDBRANCH   5   6
ENDBRANCH   4   5
ENDBRANCH   3   4
ENDBRANCH   2   3
TORSDOF 9
ENDMDL
MODEL      236
REMARK 921   NORMALIZED FREE ENERGY PREDICTED BY IDOCK:   -3.26 KCAL/MOL
REMARK 922        TOTAL FREE ENERGY PREDICTED BY IDOCK:   -6.09 KCAL/MOL
REMARK 923 INTER-LIGAND FREE ENERGY PREDICTED BY IDOCK:   -4.23 KCAL/MOL
REMARK 924 INTRA-LIGAND FREE ENERGY PREDICTED BY IDOCK:   -1.86 KCAL/MOL
REMARK 927      BINDING AFFINITY PREDICTED BY RF-SCORE:    0.00 PKD
ROOT
HETATM    1  C   UNL     1     -11.532  14.531  65.787  1.00  0.00    -0.342 C  
HETATM    2  C   UNL     1     -11.257  13.320  66.661  1.00  0.00    -0.332 C  
ENDROOT
BRANCH   2   3
HETATM    3  C   UNL     1     -11.128  13.716  68.129  1.00  0.00    -0.281 C  
BRANCH   3   4
HETATM    4  C   UNL     1     -12.027  14.905  68.454  1.00  0.00    -0.255 C  
BRANCH   4   5
HETATM    5  C   UNL     1     -11.238  16.009  69.149  1.00  0.00    -0.342 C  
BRANCH   5   6
HETATM    6  C   UNL     1     -10.854  17.109  68.163  1.00  0.00    -0.316 C  
BRANCH   6   7
HETATM    7  C   UNL     1      -9.767  17.997  68.756  1.00  0.00    -0.336 C  
BRANCH   7   8
HETATM    8  C   UNL     1      -8.442  17.827  68.008  1.00  0.00    -0.253 C  
BRANCH   8   9
HETATM    9  C   UNL     1      -7.889  16.437  68.185  1.00  0.00    -0.158 A  
HETATM   10  C   UNL     1      -8.092  15.477  67.190  1.00  0.00    -0.249 A  
HETATM   11  C   UNL     1      -7.641  14.173  67.364  1.00  0.00    -0.179 A  
HETATM   12  C   UNL     1      -6.937  13.803  68.514  1.00  0.00    -0.103 A  
HETATM   13  C   UNL     1      -7.196  16.077  69.344  1.00  0.00    -0.213 A  
HETATM   14  C   UNL     1      -6.723  14.772  69.505  1.00  0.00    -0.160 A  
BRANCH  12  15
HETATM   15  C   UNL     1      -6.486  12.378  68.753  1.00  0.00    -0.084 C  
BRANCH  15  16
HETATM   16  C   UNL     1      -6.314  11.556  67.466  1.00  0.00    -0.076 C  
HETATM   17  C   UNL     1      -6.962  10.151  67.409  1.00  0.00    -0.082 C  
HETATM   18  C   UNL     1      -6.599   9.530  66.029  1.00  0.00    -0.077 C  
HETATM   19  N   UNL     1      -6.418   9.262  68.470  1.00  0.00    -0.053 NA 
HETATM   20  C   UNL     1      -8.510  10.213  67.530  1.00  0.00    -0.118 C  
HETATM   21  O   UNL     1      -7.089   8.195  65.924  1.00  0.00    -0.063 OA 
HETATM   22  O   UNL     1      -8.930  10.685  68.808  1.00  0.00    -0.157 OA 
HETATM   23  H1  UNL     1      -6.845   8.336  68.434  1.00  0.00     0.000 HD 
HETATM   24  H2  UNL     1      -6.513   9.681  69.395  1.00  0.00     0.000 HD 
HETATM   25  H   UNL     1      -9.877  10.722  68.881  1.00  0.00     0.000 HD 
HETATM   26  H   UNL     1      -6.867   7.816  65.082  1.00  0.00     0.000 HD 
ENDBRANCH  15  16
ENDBRANCH  12  15
ENDBRANCH   8   9
ENDBRANCH   7   8
ENDBRANCH   6   7
ENDBRANCH   5   6
ENDBRANCH   4   5
ENDBRANCH   3   4
ENDBRANCH   2   3
TORSDOF 9
ENDMDL
MODEL      237
REMARK 921   NORMALIZED FREE ENERGY PREDICTED BY IDOCK:   -3.25 KCAL/MOL
REMARK 922        TOTAL FREE ENERGY PREDICTED BY IDOCK:   -6.07 KCAL/MOL
REMARK 923 INTER-LIGAND FREE ENERGY PREDICTED BY IDOCK:   -4.89 KCAL/MOL
REMARK 924 INTRA-LIGAND FREE ENERGY PREDICTED BY IDOCK:   -1.18 KCAL/MOL
REMARK 927      BINDING AFFINITY PREDICTED BY RF-SCORE:    0.00 PKD
ROOT
HETATM    1  C   UNL     1     -11.195  15.185  65.058  1.00  0.00    -0.414 C  
HETATM    2  C   UNL     1     -12.185  14.469  64.157  1.00  0.00    -0.372 C  
ENDROOT
BRANCH   2   3
HETATM    3  C   UNL     1     -11.699  13.065  63.807  1.00  0.00    -0.547 C  
BRANCH   3   4
HETATM    4  C   UNL     1     -10.288  12.829  64.336  1.00  0.00    -0.388 C  
BRANCH   4   5
HETATM    5  C   UNL     1     -10.271  11.685  65.345  1.00  0.00    -0.306 C  
BRANCH   5   6
HETATM    6  C   UNL     1     -11.407  11.830  66.354  1.00  0.00    -0.361 C  
BRANCH   6   7
HETATM    7  C   UNL     1     -10.877  12.375  67.674  1.00  0.00    -0.258 C  
BRANCH   7   8
HETATM    8  C   UNL     1      -9.503  11.789  68.007  1.00  0.00    -0.188 C  
BRANCH   8   9
HETATM    9  C   UNL     1      -9.632  10.496  68.771  1.00  0.00    -0.181 A  
HETATM   10  C   UNL     1      -8.921   9.368  68.352  1.00  0.00    -0.128 A  
HETATM   11  C   UNL     1      -9.074   8.152  69.008  1.00  0.00    -0.148 A  
HETATM   12  C   UNL     1      -9.906   8.039  70.126  1.00  0.00    -0.184 A  
HETATM   13  C   UNL     1     -10.475  10.393  69.880  1.00  0.00    -0.266 A  
HETATM   14  C   UNL     1     -10.608   9.175  70.553  1.00  0.00    -0.287 A  
BRANCH  12  15
HETATM   15  C   UNL     1     -10.134   6.715  70.823  1.00  0.00    -0.205 C  
BRANCH  15  16
HETATM   16  C   UNL     1      -9.395   5.534  70.172  1.00  0.00    -0.185 C  
HETATM   17  C   UNL     1      -8.169   4.948  70.914  1.00  0.00    -0.095 C  
HETATM   18  C   UNL     1      -7.592   3.809  70.024  1.00  0.00    -0.048 C  
HETATM   19  N   UNL     1      -7.105   5.973  71.093  1.00  0.00    -0.071 NA 
HETATM   20  C   UNL     1      -8.548   4.350  72.297  1.00  0.00    -0.113 C  
HETATM   21  O   UNL     1      -6.403   3.266  70.595  1.00  0.00    -0.022 OA 
HETATM   22  O   UNL     1      -9.000   5.349  73.207  1.00  0.00    -0.121 OA 
HETATM   23  H1  UNL     1      -6.297   5.588  71.582  1.00  0.00     0.000 HD 
HETATM   24  H2  UNL     1      -7.464   6.806  71.561  1.00  0.00     0.000 HD 
HETATM   25  H   UNL     1      -9.232   4.982  74.053  1.00  0.00     0.000 HD 
HETATM   26  H   UNL     1      -6.051   2.571  70.052  1.00  0.00     0.000 HD 
ENDBRANCH  15  16
ENDBRANCH  12  15
ENDBRANCH   8   9
ENDBRANCH   7   8
ENDBRANCH   6   7
ENDBRANCH   5   6
ENDBRANCH   4   5
ENDBRANCH   3   4
ENDBRANCH   2   3
TORSDOF 9
ENDMDL
MODEL      238
REMARK 921   NORMALIZED FREE ENERGY PREDICTED BY IDOCK:   -3.25 KCAL/MOL
REMARK 922        TOTAL FREE ENERGY PREDICTED BY IDOCK:   -6.06 KCAL/MOL
REMARK 923 INTER-LIGAND FREE ENERGY PREDICTED BY IDOCK:   -5.34 KCAL/MOL
REMARK 924 INTRA-LIGAND FREE ENERGY PREDICTED BY IDOCK:   -0.72 KCAL/MOL
REMARK 927      BINDING AFFINITY PREDICTED BY RF-SCORE:    0.00 PKD
ROOT
HETATM    1  C   UNL     1      -9.956  19.174  66.307  1.00  0.00    -0.462 C  
HETATM    2  C   UNL     1      -9.941  18.155  67.432  1.00  0.00    -0.329 C  
ENDROOT
BRANCH   2   3
HETATM    3  C   UNL     1      -8.623  17.386  67.464  1.00  0.00    -0.221 C  
BRANCH   3   4
HETATM    4  C   UNL     1      -8.716  16.182  68.396  1.00  0.00    -0.190 C  
BRANCH   4   5
HETATM    5  C   UNL     1      -8.838  14.887  67.599  1.00  0.00    -0.184 C  
BRANCH   5   6
HETATM    6  C   UNL     1     -10.164  14.832  66.846  1.00  0.00    -0.257 C  
BRANCH   6   7
HETATM    7  C   UNL     1     -11.148  13.921  67.572  1.00  0.00    -0.302 C  
BRANCH   7   8
HETATM    8  C   UNL     1     -11.886  13.007  66.591  1.00  0.00    -0.455 C  
BRANCH   8   9
HETATM    9  C   UNL     1     -11.234  11.652  66.511  1.00  0.00    -0.356 A  
HETATM   10  C   UNL     1     -11.280  10.793  67.613  1.00  0.00    -0.370 A  
HETATM   11  C   UNL     1     -10.633   9.563  67.578  1.00  0.00    -0.338 A  
HETATM   12  C   UNL     1      -9.959   9.138  66.429  1.00  0.00    -0.358 A  
HETATM   13  C   UNL     1     -10.555  11.242  65.360  1.00  0.00    -0.312 A  
HETATM   14  C   UNL     1      -9.925   9.995  65.320  1.00  0.00    -0.368 A  
BRANCH  12  15
HETATM   15  C   UNL     1      -9.198   7.830  66.385  1.00  0.00    -0.229 C  
BRANCH  15  16
HETATM   16  C   UNL     1     -10.067   6.616  66.020  1.00  0.00     0.374 C  
HETATM   17  C   UNL     1      -9.351   5.284  65.690  1.00  0.00    -0.114 C  
HETATM   18  C   UNL     1     -10.452   4.249  65.317  1.00  0.00    -0.174 C  
HETATM   19  N   UNL     1      -8.446   5.433  64.519  1.00  0.00    -0.190 NA 
HETATM   20  C   UNL     1      -8.547   4.733  66.899  1.00  0.00    -0.104 C  
HETATM   21  O   UNL     1      -9.873   3.009  64.915  1.00  0.00    -0.320 OA 
HETATM   22  O   UNL     1      -7.455   5.581  67.247  1.00  0.00    -0.082 OA 
HETATM   23  H1  UNL     1      -7.973   4.555  64.301  1.00  0.00     0.000 HD 
HETATM   24  H2  UNL     1      -7.779   6.192  64.656  1.00  0.00     0.000 HD 
HETATM   25  H   UNL     1      -6.963   5.244  67.987  1.00  0.00     0.000 HD 
HETATM   26  H   UNL     1     -10.545   2.377  64.688  1.00  0.00     0.000 HD 
ENDBRANCH  15  16
ENDBRANCH  12  15
ENDBRANCH   8   9
ENDBRANCH   7   8
ENDBRANCH   6   7
ENDBRANCH   5   6
ENDBRANCH   4   5
ENDBRANCH   3   4
ENDBRANCH   2   3
TORSDOF 9
ENDMDL
MODEL      239
REMARK 921   NORMALIZED FREE ENERGY PREDICTED BY IDOCK:   -3.25 KCAL/MOL
REMARK 922        TOTAL FREE ENERGY PREDICTED BY IDOCK:   -6.06 KCAL/MOL
REMARK 923 INTER-LIGAND FREE ENERGY PREDICTED BY IDOCK:   -4.97 KCAL/MOL
REMARK 924 INTRA-LIGAND FREE ENERGY PREDICTED BY IDOCK:   -1.09 KCAL/MOL
REMARK 927      BINDING AFFINITY PREDICTED BY RF-SCORE:    0.00 PKD
ROOT
HETATM    1  C   UNL     1      -8.839   8.595  69.244  1.00  0.00    -0.137 C  
HETATM    2  C   UNL     1      -9.410   7.748  68.120  1.00  0.00    -0.148 C  
ENDROOT
BRANCH   2   3
HETATM    3  C   UNL     1      -9.303   8.466  66.778  1.00  0.00    -0.235 C  
BRANCH   3   4
HETATM    4  C   UNL     1      -8.330   7.746  65.850  1.00  0.00    -0.135 C  
BRANCH   4   5
HETATM    5  C   UNL     1      -7.065   8.572  65.644  1.00  0.00    -0.079 C  
BRANCH   5   6
HETATM    6  C   UNL     1      -7.350  10.061  65.820  1.00  0.00    -0.117 C  
BRANCH   6   7
HETATM    7  C   UNL     1      -6.465  10.645  66.914  1.00  0.00    -0.084 C  
BRANCH   7   8
HETATM    8  C   UNL     1      -6.535  12.174  66.928  1.00  0.00    -0.007 C  
BRANCH   8   9
HETATM    9  C   UNL     1      -7.894  12.654  67.367  1.00  0.00    -0.175 A  
HETATM   10  C   UNL     1      -8.769  11.772  68.007  1.00  0.00    -0.167 A  
HETATM   11  C   UNL     1     -10.049  12.181  68.365  1.00  0.00    -0.210 A  
HETATM   12  C   UNL     1     -10.475  13.493  68.134  1.00  0.00    -0.249 A  
HETATM   13  C   UNL     1      -8.312  13.965  67.121  1.00  0.00    -0.171 A  
HETATM   14  C   UNL     1      -9.591  14.380  67.504  1.00  0.00    -0.215 A  
BRANCH  12  15
HETATM   15  C   UNL     1     -11.881  13.947  68.461  1.00  0.00    -0.401 C  
BRANCH  15  16
HETATM   16  C   UNL     1     -12.507  13.218  69.661  1.00  0.00    -0.019 C  
HETATM   17  C   UNL     1     -12.670  14.006  70.984  1.00  0.00    -0.361 C  
HETATM   18  C   UNL     1     -13.280  13.028  72.031  1.00  0.00    -0.444 C  
HETATM   19  N   UNL     1     -11.355  14.471  71.502  1.00  0.00    -0.371 NA 
HETATM   20  C   UNL     1     -13.625  15.222  70.830  1.00  0.00    -0.340 C  
HETATM   21  O   UNL     1     -13.387  13.651  73.309  1.00  0.00    -0.405 OA 
HETATM   22  O   UNL     1     -13.093  16.213  69.956  1.00  0.00    -0.497 OA 
HETATM   23  H1  UNL     1     -11.462  14.990  72.373  1.00  0.00     0.000 HD 
HETATM   24  H2  UNL     1     -10.849  15.014  70.802  1.00  0.00     0.000 HD 
HETATM   25  H   UNL     1     -13.678  16.957  69.862  1.00  0.00     0.000 HD 
HETATM   26  H   UNL     1     -13.759  13.054  73.948  1.00  0.00     0.000 HD 
ENDBRANCH  15  16
ENDBRANCH  12  15
ENDBRANCH   8   9
ENDBRANCH   7   8
ENDBRANCH   6   7
ENDBRANCH   5   6
ENDBRANCH   4   5
ENDBRANCH   3   4
ENDBRANCH   2   3
TORSDOF 9
ENDMDL
MODEL      240
REMARK 921   NORMALIZED FREE ENERGY PREDICTED BY IDOCK:   -3.24 KCAL/MOL
REMARK 922        TOTAL FREE ENERGY PREDICTED BY IDOCK:   -6.06 KCAL/MOL
REMARK 923 INTER-LIGAND FREE ENERGY PREDICTED BY IDOCK:   -5.34 KCAL/MOL
REMARK 924 INTRA-LIGAND FREE ENERGY PREDICTED BY IDOCK:   -0.71 KCAL/MOL
REMARK 927      BINDING AFFINITY PREDICTED BY RF-SCORE:    0.00 PKD
ROOT
HETATM    1  C   UNL     1     -11.888  16.250  72.264  1.00  0.00    -0.601 C  
HETATM    2  C   UNL     1     -12.571  15.563  71.094  1.00  0.00    -0.509 C  
ENDROOT
BRANCH   2   3
HETATM    3  C   UNL     1     -14.005  15.176  71.442  1.00  0.00    -0.595 C  
BRANCH   3   4
HETATM    4  C   UNL     1     -14.048  13.825  72.149  1.00  0.00    -0.604 C  
BRANCH   4   5
HETATM    5  C   UNL     1     -12.935  12.912  71.644  1.00  0.00    -0.410 C  
BRANCH   5   6
HETATM    6  C   UNL     1     -13.261  11.448  71.923  1.00  0.00    -0.485 C  
BRANCH   6   7
HETATM    7  C   UNL     1     -12.811  10.573  70.759  1.00  0.00    -0.454 C  
BRANCH   7   8
HETATM    8  C   UNL     1     -11.295  10.646  70.563  1.00  0.00    -0.355 C  
BRANCH   8   9
HETATM    9  C   UNL     1     -10.745   9.335  70.065  1.00  0.00    -0.259 A  
HETATM   10  C   UNL     1     -11.107   8.866  68.799  1.00  0.00     0.178 A  
HETATM   11  C   UNL     1     -10.657   7.630  68.348  1.00  0.00    -0.166 A  
HETATM   12  C   UNL     1      -9.800   6.848  69.129  1.00  0.00    -0.156 A  
HETATM   13  C   UNL     1      -9.898   8.557  70.859  1.00  0.00    -0.234 A  
HETATM   14  C   UNL     1      -9.429   7.326  70.393  1.00  0.00    -0.165 A  
BRANCH  12  15
HETATM   15  C   UNL     1      -9.344   5.475  68.686  1.00  0.00    -0.149 C  
BRANCH  15  16
HETATM   16  C   UNL     1      -7.825   5.259  68.792  1.00  0.00    -0.083 C  
HETATM   17  C   UNL     1      -7.316   4.115  69.702  1.00  0.00    -0.050 C  
HETATM   18  C   UNL     1      -5.760   4.150  69.660  1.00  0.00    -0.017 C  
HETATM   19  N   UNL     1      -7.742   4.316  71.113  1.00  0.00    -0.065 NA 
HETATM   20  C   UNL     1      -7.791   2.719  69.212  1.00  0.00    -0.045 C  
HETATM   21  O   UNL     1      -5.204   3.176  70.541  1.00  0.00    -0.004 OA 
HETATM   22  O   UNL     1      -9.205   2.570  69.308  1.00  0.00    -0.114 OA 
HETATM   23  H1  UNL     1      -7.407   3.562  71.713  1.00  0.00     0.000 HD 
HETATM   24  H2  UNL     1      -8.753   4.431  71.186  1.00  0.00     0.000 HD 
HETATM   25  H   UNL     1      -9.495   1.716  69.008  1.00  0.00     0.000 HD 
HETATM   26  H   UNL     1      -4.254   3.197  70.516  1.00  0.00     0.000 HD 
ENDBRANCH  15  16
ENDBRANCH  12  15
ENDBRANCH   8   9
ENDBRANCH   7   8
ENDBRANCH   6   7
ENDBRANCH   5   6
ENDBRANCH   4   5
ENDBRANCH   3   4
ENDBRANCH   2   3
TORSDOF 9
ENDMDL
MODEL      241
REMARK 921   NORMALIZED FREE ENERGY PREDICTED BY IDOCK:   -3.24 KCAL/MOL
REMARK 922        TOTAL FREE ENERGY PREDICTED BY IDOCK:   -6.05 KCAL/MOL
REMARK 923 INTER-LIGAND FREE ENERGY PREDICTED BY IDOCK:   -4.85 KCAL/MOL
REMARK 924 INTRA-LIGAND FREE ENERGY PREDICTED BY IDOCK:   -1.20 KCAL/MOL
REMARK 927      BINDING AFFINITY PREDICTED BY RF-SCORE:    0.00 PKD
ROOT
HETATM    1  C   UNL     1      -8.877   4.549  63.630  1.00  0.00    -0.140 C  
HETATM    2  C   UNL     1      -7.931   3.477  64.142  1.00  0.00    -0.086 C  
ENDROOT
BRANCH   2   3
HETATM    3  C   UNL     1      -7.970   3.385  65.664  1.00  0.00    -0.089 C  
BRANCH   3   4
HETATM    4  C   UNL     1      -7.672   4.740  66.300  1.00  0.00    -0.091 C  
BRANCH   4   5
HETATM    5  C   UNL     1      -8.655   5.039  67.426  1.00  0.00    -0.104 C  
BRANCH   5   6
HETATM    6  C   UNL     1     -10.097   4.883  66.948  1.00  0.00    -0.257 C  
BRANCH   6   7
HETATM    7  C   UNL     1     -10.675   6.238  66.558  1.00  0.00    -0.177 C  
BRANCH   7   8
HETATM    8  C   UNL     1     -10.852   7.140  67.782  1.00  0.00    -0.248 C  
BRANCH   8   9
HETATM    9  C   UNL     1     -10.346   8.533  67.511  1.00  0.00    -0.334 A  
HETATM   10  C   UNL     1     -10.825   9.605  68.268  1.00  0.00    -0.230 A  
HETATM   11  C   UNL     1     -10.415  10.905  67.993  1.00  0.00    -0.222 A  
HETATM   12  C   UNL     1      -9.482  11.165  66.983  1.00  0.00    -0.193 A  
HETATM   13  C   UNL     1      -9.421   8.781  66.493  1.00  0.00    -0.281 A  
HETATM   14  C   UNL     1      -8.992  10.086  66.234  1.00  0.00    -0.170 A  
BRANCH  12  15
HETATM   15  C   UNL     1      -9.062  12.574  66.625  1.00  0.00    -0.203 C  
BRANCH  15  16
HETATM   16  C   UNL     1      -9.526  13.637  67.635  1.00  0.00    -0.221 C  
HETATM   17  C   UNL     1     -10.151  14.940  67.081  1.00  0.00    -0.240 C  
HETATM   18  C   UNL     1     -10.486  15.847  68.302  1.00  0.00    -0.257 C  
HETATM   19  N   UNL     1      -9.191  15.675  66.214  1.00  0.00    -0.303 NA 
HETATM   20  C   UNL     1     -11.463  14.674  66.291  1.00  0.00    -0.351 C  
HETATM   21  O   UNL     1     -10.992  17.110  67.877  1.00  0.00    -0.343 OA 
HETATM   22  O   UNL     1     -11.229  13.926  65.101  1.00  0.00    -0.307 OA 
HETATM   23  H1  UNL     1      -9.603  16.533  65.848  1.00  0.00     0.000 HD 
HETATM   24  H2  UNL     1      -8.836  15.082  65.464  1.00  0.00     0.000 HD 
HETATM   25  H   UNL     1     -12.031  13.763  64.618  1.00  0.00     0.000 HD 
HETATM   26  H   UNL     1     -11.196  17.663  68.622  1.00  0.00     0.000 HD 
ENDBRANCH  15  16
ENDBRANCH  12  15
ENDBRANCH   8   9
ENDBRANCH   7   8
ENDBRANCH   6   7
ENDBRANCH   5   6
ENDBRANCH   4   5
ENDBRANCH   3   4
ENDBRANCH   2   3
TORSDOF 9
ENDMDL
MODEL      242
REMARK 921   NORMALIZED FREE ENERGY PREDICTED BY IDOCK:   -3.22 KCAL/MOL
REMARK 922        TOTAL FREE ENERGY PREDICTED BY IDOCK:   -6.03 KCAL/MOL
REMARK 923 INTER-LIGAND FREE ENERGY PREDICTED BY IDOCK:   -4.66 KCAL/MOL
REMARK 924 INTRA-LIGAND FREE ENERGY PREDICTED BY IDOCK:   -1.37 KCAL/MOL
REMARK 927      BINDING AFFINITY PREDICTED BY RF-SCORE:    0.00 PKD
ROOT
HETATM    1  C   UNL     1     -11.761  14.226  65.708  1.00  0.00    -0.359 C  
HETATM    2  C   UNL     1     -11.138  15.363  66.499  1.00  0.00    -0.227 C  
ENDROOT
BRANCH   2   3
HETATM    3  C   UNL     1     -10.224  16.212  65.620  1.00  0.00    -0.390 C  
BRANCH   3   4
HETATM    4  C   UNL     1      -9.501  17.270  66.448  1.00  0.00    -0.282 C  
BRANCH   4   5
HETATM    5  C   UNL     1      -9.744  17.053  67.937  1.00  0.00    -0.263 C  
BRANCH   5   6
HETATM    6  C   UNL     1      -8.477  16.561  68.632  1.00  0.00    -0.243 C  
BRANCH   6   7
HETATM    7  C   UNL     1      -8.653  15.122  69.099  1.00  0.00    -0.218 C  
BRANCH   7   8
HETATM    8  C   UNL     1      -8.009  14.137  68.121  1.00  0.00    -0.143 C  
BRANCH   8   9
HETATM    9  C   UNL     1      -8.422  12.720  68.421  1.00  0.00    -0.115 A  
HETATM   10  C   UNL     1      -9.756  12.335  68.254  1.00  0.00    -0.219 A  
HETATM   11  C   UNL     1     -10.167  11.049  68.584  1.00  0.00    -0.211 A  
HETATM   12  C   UNL     1      -9.251  10.098  69.046  1.00  0.00    -0.188 A  
HETATM   13  C   UNL     1      -7.500  11.782  68.892  1.00  0.00    -0.080 A  
HETATM   14  C   UNL     1      -7.912  10.482  69.200  1.00  0.00    -0.145 A  
BRANCH  12  15
HETATM   15  C   UNL     1      -9.683   8.709  69.466  1.00  0.00    -0.179 C  
BRANCH  15  16
HETATM   16  C   UNL     1     -10.459   7.944  68.381  1.00  0.00    -0.207 C  
HETATM   17  C   UNL     1      -9.955   6.536  67.985  1.00  0.00    -0.134 C  
HETATM   18  C   UNL     1     -10.886   6.015  66.851  1.00  0.00    -0.318 C  
HETATM   19  N   UNL     1      -8.567   6.588  67.453  1.00  0.00    -0.118 NA 
HETATM   20  C   UNL     1     -10.017   5.534  69.171  1.00  0.00    -0.190 C  
HETATM   21  O   UNL     1     -10.441   4.750  66.365  1.00  0.00    -0.282 OA 
HETATM   22  O   UNL     1      -9.119   5.889  70.219  1.00  0.00    -0.143 OA 
HETATM   23  H1  UNL     1      -8.234   5.660  67.192  1.00  0.00     0.000 HD 
HETATM   24  H2  UNL     1      -7.932   7.042  68.109  1.00  0.00     0.000 HD 
HETATM   25  H   UNL     1      -9.156   5.276  70.945  1.00  0.00     0.000 HD 
HETATM   26  H   UNL     1     -11.008   4.432  65.673  1.00  0.00     0.000 HD 
ENDBRANCH  15  16
ENDBRANCH  12  15
ENDBRANCH   8   9
ENDBRANCH   7   8
ENDBRANCH   6   7
ENDBRANCH   5   6
ENDBRANCH   4   5
ENDBRANCH   3   4
ENDBRANCH   2   3
TORSDOF 9
ENDMDL
MODEL      243
REMARK 921   NORMALIZED FREE ENERGY PREDICTED BY IDOCK:   -3.21 KCAL/MOL
REMARK 922        TOTAL FREE ENERGY PREDICTED BY IDOCK:   -6.00 KCAL/MOL
REMARK 923 INTER-LIGAND FREE ENERGY PREDICTED BY IDOCK:   -4.96 KCAL/MOL
REMARK 924 INTRA-LIGAND FREE ENERGY PREDICTED BY IDOCK:   -1.05 KCAL/MOL
REMARK 927      BINDING AFFINITY PREDICTED BY RF-SCORE:    0.00 PKD
ROOT
HETATM    1  C   UNL     1     -11.191   7.503  70.306  1.00  0.00    -0.253 C  
HETATM    2  C   UNL     1     -11.248   5.986  70.266  1.00  0.00    -0.392 C  
ENDROOT
BRANCH   2   3
HETATM    3  C   UNL     1     -10.409   5.372  71.383  1.00  0.00    -0.294 C  
BRANCH   3   4
HETATM    4  C   UNL     1      -9.500   4.273  70.840  1.00  0.00    -0.239 C  
BRANCH   4   5
HETATM    5  C   UNL     1      -9.342   4.397  69.328  1.00  0.00    -0.223 C  
BRANCH   5   6
HETATM    6  C   UNL     1      -8.047   5.121  68.971  1.00  0.00    -0.085 C  
BRANCH   6   7
HETATM    7  C   UNL     1      -8.207   5.881  67.661  1.00  0.00    -0.105 C  
BRANCH   7   8
HETATM    8  C   UNL     1      -7.223   7.050  67.573  1.00  0.00    -0.090 C  
BRANCH   8   9
HETATM    9  C   UNL     1      -7.924   8.326  67.184  1.00  0.00    -0.105 A  
HETATM   10  C   UNL     1      -8.343   8.513  65.863  1.00  0.00    -0.142 A  
HETATM   11  C   UNL     1      -8.937   9.708  65.472  1.00  0.00    -0.223 A  
HETATM   12  C   UNL     1      -9.169  10.731  66.397  1.00  0.00    -0.191 A  
HETATM   13  C   UNL     1      -8.142   9.345  68.115  1.00  0.00    -0.110 A  
HETATM   14  C   UNL     1      -8.761  10.535  67.724  1.00  0.00    -0.122 A  
BRANCH  12  15
HETATM   15  C   UNL     1      -9.761  12.062  65.987  1.00  0.00    -0.256 C  
BRANCH  15  16
HETATM   16  C   UNL     1      -9.495  13.197  66.989  1.00  0.00    -0.242 C  
HETATM   17  C   UNL     1     -10.199  14.555  66.750  1.00  0.00    -0.266 C  
HETATM   18  C   UNL     1      -9.724  15.524  67.872  1.00  0.00    -0.211 C  
HETATM   19  N   UNL     1      -9.809  15.143  65.440  1.00  0.00    -0.334 NA 
HETATM   20  C   UNL     1     -11.746  14.437  66.824  1.00  0.00    -0.397 C  
HETATM   21  O   UNL     1     -10.261  16.831  67.680  1.00  0.00    -0.271 OA 
HETATM   22  O   UNL     1     -12.273  13.638  65.768  1.00  0.00    -0.405 OA 
HETATM   23  H1  UNL     1     -10.272  16.038  65.282  1.00  0.00     0.000 HD 
HETATM   24  H2  UNL     1      -9.979  14.494  64.673  1.00  0.00     0.000 HD 
HETATM   25  H   UNL     1     -13.220  13.566  65.813  1.00  0.00     0.000 HD 
HETATM   26  H   UNL     1      -9.971  17.422  68.365  1.00  0.00     0.000 HD 
ENDBRANCH  15  16
ENDBRANCH  12  15
ENDBRANCH   8   9
ENDBRANCH   7   8
ENDBRANCH   6   7
ENDBRANCH   5   6
ENDBRANCH   4   5
ENDBRANCH   3   4
ENDBRANCH   2   3
TORSDOF 9
ENDMDL
MODEL      244
REMARK 921   NORMALIZED FREE ENERGY PREDICTED BY IDOCK:   -3.19 KCAL/MOL
REMARK 922        TOTAL FREE ENERGY PREDICTED BY IDOCK:   -5.97 KCAL/MOL
REMARK 923 INTER-LIGAND FREE ENERGY PREDICTED BY IDOCK:   -4.41 KCAL/MOL
REMARK 924 INTRA-LIGAND FREE ENERGY PREDICTED BY IDOCK:   -1.56 KCAL/MOL
REMARK 927      BINDING AFFINITY PREDICTED BY RF-SCORE:    0.00 PKD
ROOT
HETATM    1  C   UNL     1     -10.438   2.812  73.124  1.00  0.00    -0.250 C  
HETATM    2  C   UNL     1     -10.074   4.112  72.429  1.00  0.00    -0.243 C  
ENDROOT
BRANCH   2   3
HETATM    3  C   UNL     1      -8.819   4.731  73.036  1.00  0.00    -0.112 C  
BRANCH   3   4
HETATM    4  C   UNL     1      -9.078   6.169  73.475  1.00  0.00    -0.128 C  
BRANCH   4   5
HETATM    5  C   UNL     1     -10.568   6.490  73.428  1.00  0.00    -0.309 C  
BRANCH   5   6
HETATM    6  C   UNL     1     -10.822   7.788  72.666  1.00  0.00    -0.413 C  
BRANCH   6   7
HETATM    7  C   UNL     1     -11.939   7.596  71.648  1.00  0.00    -0.329 C  
BRANCH   7   8
HETATM    8  C   UNL     1     -11.487   6.702  70.490  1.00  0.00    -0.432 C  
BRANCH   8   9
HETATM    9  C   UNL     1     -10.364   7.340  69.714  1.00  0.00    -0.227 A  
HETATM   10  C   UNL     1     -10.615   8.473  68.934  1.00  0.00    -0.166 A  
HETATM   11  C   UNL     1      -9.605   9.039  68.164  1.00  0.00    -0.164 A  
HETATM   12  C   UNL     1      -8.307   8.516  68.185  1.00  0.00    -0.127 A  
HETATM   13  C   UNL     1      -9.074   6.803  69.734  1.00  0.00    -0.143 A  
HETATM   14  C   UNL     1      -8.055   7.388  68.978  1.00  0.00    -0.127 A  
BRANCH  12  15
HETATM   15  C   UNL     1      -7.205   9.077  67.313  1.00  0.00    -0.083 C  
BRANCH  15  16
HETATM   16  C   UNL     1      -7.442   8.880  65.807  1.00  0.00    -0.089 C  
HETATM   17  C   UNL     1      -7.272  10.108  64.879  1.00  0.00    -0.131 C  
HETATM   18  C   UNL     1      -7.610   9.643  63.432  1.00  0.00    -0.124 C  
HETATM   19  N   UNL     1      -8.219  11.196  65.244  1.00  0.00    -0.367 NA 
HETATM   20  C   UNL     1      -5.820  10.659  64.892  1.00  0.00    -0.053 C  
HETATM   21  O   UNL     1      -7.561  10.736  62.519  1.00  0.00    -0.265 OA 
HETATM   22  O   UNL     1      -5.461  11.194  66.163  1.00  0.00    -0.130 OA 
HETATM   23  H1  UNL     1      -8.107  12.005  64.633  1.00  0.00     0.000 HD 
HETATM   24  H2  UNL     1      -8.130  11.454  66.226  1.00  0.00     0.000 HD 
HETATM   25  H   UNL     1      -4.573  11.531  66.171  1.00  0.00     0.000 HD 
HETATM   26  H   UNL     1      -7.767  10.453  61.636  1.00  0.00     0.000 HD 
ENDBRANCH  15  16
ENDBRANCH  12  15
ENDBRANCH   8   9
ENDBRANCH   7   8
ENDBRANCH   6   7
ENDBRANCH   5   6
ENDBRANCH   4   5
ENDBRANCH   3   4
ENDBRANCH   2   3
TORSDOF 9
ENDMDL
MODEL      245
REMARK 921   NORMALIZED FREE ENERGY PREDICTED BY IDOCK:   -3.18 KCAL/MOL
REMARK 922        TOTAL FREE ENERGY PREDICTED BY IDOCK:   -5.96 KCAL/MOL
REMARK 923 INTER-LIGAND FREE ENERGY PREDICTED BY IDOCK:   -4.86 KCAL/MOL
REMARK 924 INTRA-LIGAND FREE ENERGY PREDICTED BY IDOCK:   -1.10 KCAL/MOL
REMARK 927      BINDING AFFINITY PREDICTED BY RF-SCORE:    0.00 PKD
ROOT
HETATM    1  C   UNL     1     -11.388   6.046  71.852  1.00  0.00    -0.335 C  
HETATM    2  C   UNL     1     -12.046   7.414  71.890  1.00  0.00    -0.341 C  
ENDROOT
BRANCH   2   3
HETATM    3  C   UNL     1     -11.036   8.503  72.244  1.00  0.00    -0.430 C  
BRANCH   3   4
HETATM    4  C   UNL     1     -10.775   9.413  71.047  1.00  0.00    -0.407 C  
BRANCH   4   5
HETATM    5  C   UNL     1      -9.347   9.245  70.540  1.00  0.00    -0.316 C  
BRANCH   5   6
HETATM    6  C   UNL     1      -9.281   8.198  69.431  1.00  0.00    -0.155 C  
BRANCH   6   7
HETATM    7  C   UNL     1      -9.058   8.868  68.081  1.00  0.00    -0.142 C  
BRANCH   7   8
HETATM    8  C   UNL     1      -7.704   9.581  68.031  1.00  0.00    -0.087 C  
BRANCH   8   9
HETATM    9  C   UNL     1      -7.870  11.048  67.730  1.00  0.00    -0.110 A  
HETATM   10  C   UNL     1      -6.923  11.964  68.197  1.00  0.00    -0.078 A  
HETATM   11  C   UNL     1      -7.092  13.327  67.980  1.00  0.00    -0.122 A  
HETATM   12  C   UNL     1      -8.186  13.809  67.254  1.00  0.00    -0.173 A  
HETATM   13  C   UNL     1      -8.973  11.519  67.012  1.00  0.00    -0.174 A  
HETATM   14  C   UNL     1      -9.127  12.887  66.775  1.00  0.00    -0.211 A  
BRANCH  12  15
HETATM   15  C   UNL     1      -8.422  15.291  67.054  1.00  0.00    -0.258 C  
BRANCH  15  16
HETATM   16  C   UNL     1      -7.744  16.178  68.111  1.00  0.00    -0.143 C  
HETATM   17  C   UNL     1      -6.809  17.308  67.617  1.00  0.00    -0.146 C  
HETATM   18  C   UNL     1      -6.230  18.012  68.879  1.00  0.00    -0.215 C  
HETATM   19  N   UNL     1      -5.669  16.762  66.832  1.00  0.00    -0.260 NA 
HETATM   20  C   UNL     1      -7.563  18.366  66.766  1.00  0.00    -0.226 C  
HETATM   21  O   UNL     1      -5.287  19.018  68.516  1.00  0.00    -0.189 OA 
HETATM   22  O   UNL     1      -8.047  17.823  65.541  1.00  0.00    -0.343 OA 
HETATM   23  H1  UNL     1      -5.052  17.507  66.507  1.00  0.00     0.000 HD 
HETATM   24  H2  UNL     1      -5.992  16.179  66.060  1.00  0.00     0.000 HD 
HETATM   25  H   UNL     1      -8.509  18.470  65.020  1.00  0.00     0.000 HD 
HETATM   26  H   UNL     1      -4.933  19.448  69.286  1.00  0.00     0.000 HD 
ENDBRANCH  15  16
ENDBRANCH  12  15
ENDBRANCH   8   9
ENDBRANCH   7   8
ENDBRANCH   6   7
ENDBRANCH   5   6
ENDBRANCH   4   5
ENDBRANCH   3   4
ENDBRANCH   2   3
TORSDOF 9
ENDMDL
MODEL      246
REMARK 921   NORMALIZED FREE ENERGY PREDICTED BY IDOCK:   -3.15 KCAL/MOL
REMARK 922        TOTAL FREE ENERGY PREDICTED BY IDOCK:   -5.92 KCAL/MOL
REMARK 923 INTER-LIGAND FREE ENERGY PREDICTED BY IDOCK:   -5.16 KCAL/MOL
REMARK 924 INTRA-LIGAND FREE ENERGY PREDICTED BY IDOCK:   -0.76 KCAL/MOL
REMARK 927      BINDING AFFINITY PREDICTED BY RF-SCORE:    0.00 PKD
ROOT
HETATM    1  C   UNL     1      -9.582   4.278  74.451  1.00  0.00    -0.137 C  
HETATM    2  C   UNL     1      -8.138   4.748  74.487  1.00  0.00    -0.095 C  
ENDROOT
BRANCH   2   3
HETATM    3  C   UNL     1      -7.676   5.219  73.111  1.00  0.00    -0.097 C  
BRANCH   3   4
HETATM    4  C   UNL     1      -8.823   5.175  72.106  1.00  0.00    -0.136 C  
BRANCH   4   5
HETATM    5  C   UNL     1      -8.570   6.138  70.951  1.00  0.00    -0.132 C  
BRANCH   5   6
HETATM    6  C   UNL     1      -9.452   7.378  71.070  1.00  0.00    -0.157 C  
BRANCH   6   7
HETATM    7  C   UNL     1     -10.669   7.253  70.162  1.00  0.00    -0.260 C  
BRANCH   7   8
HETATM    8  C   UNL     1     -10.379   7.807  68.765  1.00  0.00    -0.219 C  
BRANCH   8   9
HETATM    9  C   UNL     1     -10.706   9.275  68.680  1.00  0.00    -0.180 A  
HETATM   10  C   UNL     1     -11.470   9.875  69.686  1.00  0.00    -0.160 A  
HETATM   11  C   UNL     1     -11.832  11.214  69.594  1.00  0.00    -0.419 A  
HETATM   12  C   UNL     1     -11.406  12.002  68.519  1.00  0.00    -0.323 A  
HETATM   13  C   UNL     1     -10.283  10.049  67.597  1.00  0.00    -0.249 A  
HETATM   14  C   UNL     1     -10.629  11.401  67.519  1.00  0.00    -0.252 A  
BRANCH  12  15
HETATM   15  C   UNL     1     -11.834  13.445  68.366  1.00  0.00    -0.401 C  
BRANCH  15  16
HETATM   16  C   UNL     1     -12.200  14.130  69.694  1.00  0.00    -0.376 C  
HETATM   17  C   UNL     1     -11.379  15.372  70.119  1.00  0.00    -0.303 C  
HETATM   18  C   UNL     1     -11.924  15.832  71.503  1.00  0.00    -0.440 C  
HETATM   19  N   UNL     1      -9.938  15.038  70.281  1.00  0.00    -0.472 NA 
HETATM   20  C   UNL     1     -11.528  16.548  69.115  1.00  0.00    -0.084 C  
HETATM   21  O   UNL     1     -11.165  16.927  72.013  1.00  0.00     0.068 OA 
HETATM   22  O   UNL     1     -10.965  16.240  67.843  1.00  0.00    -0.338 OA 
HETATM   23  H1  UNL     1      -9.397  15.856  70.562  1.00  0.00     0.000 HD 
HETATM   24  H2  UNL     1      -9.557  14.608  69.439  1.00  0.00     0.000 HD 
HETATM   25  H   UNL     1     -11.056  16.960  67.228  1.00  0.00     0.000 HD 
HETATM   26  H   UNL     1     -11.497  17.208  72.857  1.00  0.00     0.000 HD 
ENDBRANCH  15  16
ENDBRANCH  12  15
ENDBRANCH   8   9
ENDBRANCH   7   8
ENDBRANCH   6   7
ENDBRANCH   5   6
ENDBRANCH   4   5
ENDBRANCH   3   4
ENDBRANCH   2   3
TORSDOF 9
ENDMDL
MODEL      247
REMARK 921   NORMALIZED FREE ENERGY PREDICTED BY IDOCK:   -3.13 KCAL/MOL
REMARK 922        TOTAL FREE ENERGY PREDICTED BY IDOCK:   -5.88 KCAL/MOL
REMARK 923 INTER-LIGAND FREE ENERGY PREDICTED BY IDOCK:   -4.99 KCAL/MOL
REMARK 924 INTRA-LIGAND FREE ENERGY PREDICTED BY IDOCK:   -0.89 KCAL/MOL
REMARK 927      BINDING AFFINITY PREDICTED BY RF-SCORE:    0.00 PKD
ROOT
HETATM    1  C   UNL     1     -10.793   3.302  73.494  1.00  0.00    -0.320 C  
HETATM    2  C   UNL     1     -10.690   4.677  72.858  1.00  0.00    -0.295 C  
ENDROOT
BRANCH   2   3
HETATM    3  C   UNL     1      -9.858   4.634  71.580  1.00  0.00    -0.259 C  
BRANCH   3   4
HETATM    4  C   UNL     1      -8.756   5.688  71.610  1.00  0.00    -0.136 C  
BRANCH   4   5
HETATM    5  C   UNL     1      -8.936   6.627  72.799  1.00  0.00    -0.130 C  
BRANCH   5   6
HETATM    6  C   UNL     1      -9.241   8.047  72.331  1.00  0.00    -0.264 C  
BRANCH   6   7
HETATM    7  C   UNL     1     -10.718   8.366  72.530  1.00  0.00    -0.372 C  
BRANCH   7   8
HETATM    8  C   UNL     1     -11.549   7.925  71.323  1.00  0.00    -0.304 C  
BRANCH   8   9
HETATM    9  C   UNL     1     -11.253   8.776  70.116  1.00  0.00    -0.162 A  
HETATM   10  C   UNL     1     -10.687   8.195  68.978  1.00  0.00    -0.099 A  
HETATM   11  C   UNL     1     -10.351   8.975  67.877  1.00  0.00    -0.290 A  
HETATM   12  C   UNL     1     -10.613  10.349  67.865  1.00  0.00    -0.273 A  
HETATM   13  C   UNL     1     -11.510  10.150  70.119  1.00  0.00    -0.368 A  
HETATM   14  C   UNL     1     -11.194  10.928  69.002  1.00  0.00    -0.327 A  
BRANCH  12  15
HETATM   15  C   UNL     1     -10.205  11.231  66.704  1.00  0.00    -0.268 C  
BRANCH  15  16
HETATM   16  C   UNL     1      -9.595  12.577  67.128  1.00  0.00    -0.208 C  
HETATM   17  C   UNL     1      -8.207  12.560  67.813  1.00  0.00    -0.166 C  
HETATM   18  C   UNL     1      -7.852  14.032  68.173  1.00  0.00    -0.144 C  
HETATM   19  N   UNL     1      -8.237  11.774  69.076  1.00  0.00    -0.368 NA 
HETATM   20  C   UNL     1      -7.097  11.999  66.882  1.00  0.00    -0.033 C  
HETATM   21  O   UNL     1      -6.620  14.102  68.887  1.00  0.00    -0.088 OA 
HETATM   22  O   UNL     1      -7.298  10.621  66.579  1.00  0.00    -0.120 OA 
HETATM   23  H1  UNL     1      -7.323  11.762  69.528  1.00  0.00     0.000 HD 
HETATM   24  H2  UNL     1      -8.589  10.829  68.921  1.00  0.00     0.000 HD 
HETATM   25  H   UNL     1      -6.619  10.278  66.009  1.00  0.00     0.000 HD 
HETATM   26  H   UNL     1      -6.403  15.000  69.106  1.00  0.00     0.000 HD 
ENDBRANCH  15  16
ENDBRANCH  12  15
ENDBRANCH   8   9
ENDBRANCH   7   8
ENDBRANCH   6   7
ENDBRANCH   5   6
ENDBRANCH   4   5
ENDBRANCH   3   4
ENDBRANCH   2   3
TORSDOF 9
ENDMDL
MODEL      248
REMARK 921   NORMALIZED FREE ENERGY PREDICTED BY IDOCK:   -3.13 KCAL/MOL
REMARK 922        TOTAL FREE ENERGY PREDICTED BY IDOCK:   -5.88 KCAL/MOL
REMARK 923 INTER-LIGAND FREE ENERGY PREDICTED BY IDOCK:   -4.82 KCAL/MOL
REMARK 924 INTRA-LIGAND FREE ENERGY PREDICTED BY IDOCK:   -1.06 KCAL/MOL
REMARK 927      BINDING AFFINITY PREDICTED BY RF-SCORE:    0.00 PKD
ROOT
HETATM    1  C   UNL     1      -9.030   4.558  62.896  1.00  0.00    -0.123 C  
HETATM    2  C   UNL     1      -8.656   4.743  64.355  1.00  0.00    -0.145 C  
ENDROOT
BRANCH   2   3
HETATM    3  C   UNL     1      -9.331   3.697  65.237  1.00  0.00    -0.158 C  
BRANCH   3   4
HETATM    4  C   UNL     1     -10.101   4.359  66.375  1.00  0.00    -0.235 C  
BRANCH   4   5
HETATM    5  C   UNL     1      -9.518   3.963  67.727  1.00  0.00    -0.230 C  
BRANCH   5   6
HETATM    6  C   UNL     1      -8.090   4.482  67.879  1.00  0.00    -0.092 C  
BRANCH   6   7
HETATM    7  C   UNL     1      -8.096   5.876  68.494  1.00  0.00    -0.106 C  
BRANCH   7   8
HETATM    8  C   UNL     1      -7.179   6.828  67.722  1.00  0.00    -0.091 C  
BRANCH   8   9
HETATM    9  C   UNL     1      -7.711   8.238  67.746  1.00  0.00    -0.103 A  
HETATM   10  C   UNL     1      -8.846   8.565  67.000  1.00  0.00    -0.144 A  
HETATM   11  C   UNL     1      -9.316   9.874  66.963  1.00  0.00    -0.175 A  
HETATM   12  C   UNL     1      -8.691  10.882  67.704  1.00  0.00    -0.127 A  
HETATM   13  C   UNL     1      -7.072   9.239  68.483  1.00  0.00    -0.071 A  
HETATM   14  C   UNL     1      -7.559  10.548  68.463  1.00  0.00    -0.097 A  
BRANCH  12  15
HETATM   15  C   UNL     1      -9.146  12.324  67.636  1.00  0.00    -0.184 C  
BRANCH  15  16
HETATM   16  C   UNL     1      -9.749  12.723  66.279  1.00  0.00    -0.262 C  
HETATM   17  C   UNL     1     -11.219  13.205  66.253  1.00  0.00    -0.301 C  
HETATM   18  C   UNL     1     -11.582  13.498  64.767  1.00  0.00    -0.349 C  
HETATM   19  N   UNL     1     -12.143  12.151  66.752  1.00  0.00    -0.565 NA 
HETATM   20  C   UNL     1     -11.426  14.506  67.076  1.00  0.00    -0.370 C  
HETATM   21  O   UNL     1     -12.952  13.870  64.639  1.00  0.00    -0.654 OA 
HETATM   22  O   UNL     1     -11.205  14.301  68.468  1.00  0.00    -0.243 OA 
HETATM   23  H1  UNL     1     -13.113  12.469  66.734  1.00  0.00     0.000 HD 
HETATM   24  H2  UNL     1     -11.873  11.826  67.679  1.00  0.00     0.000 HD 
HETATM   25  H   UNL     1     -11.332  15.097  68.972  1.00  0.00     0.000 HD 
HETATM   26  H   UNL     1     -13.174  14.048  63.733  1.00  0.00     0.000 HD 
ENDBRANCH  15  16
ENDBRANCH  12  15
ENDBRANCH   8   9
ENDBRANCH   7   8
ENDBRANCH   6   7
ENDBRANCH   5   6
ENDBRANCH   4   5
ENDBRANCH   3   4
ENDBRANCH   2   3
TORSDOF 9
ENDMDL
MODEL      249
REMARK 921   NORMALIZED FREE ENERGY PREDICTED BY IDOCK:   -3.12 KCAL/MOL
REMARK 922        TOTAL FREE ENERGY PREDICTED BY IDOCK:   -5.87 KCAL/MOL
REMARK 923 INTER-LIGAND FREE ENERGY PREDICTED BY IDOCK:   -4.98 KCAL/MOL
REMARK 924 INTRA-LIGAND FREE ENERGY PREDICTED BY IDOCK:   -0.89 KCAL/MOL
REMARK 927      BINDING AFFINITY PREDICTED BY RF-SCORE:    0.00 PKD
ROOT
HETATM    1  C   UNL     1      -6.029  14.052  70.149  1.00  0.00    -0.151 C  
HETATM    2  C   UNL     1      -6.962  14.388  68.999  1.00  0.00    -0.114 C  
ENDROOT
BRANCH   2   3
HETATM    3  C   UNL     1      -7.431  15.838  69.075  1.00  0.00    -0.186 C  
BRANCH   3   4
HETATM    4  C   UNL     1      -8.648  16.064  68.183  1.00  0.00    -0.171 C  
BRANCH   4   5
HETATM    5  C   UNL     1      -9.878  15.368  68.757  1.00  0.00    -0.211 C  
BRANCH   5   6
HETATM    6  C   UNL     1     -11.143  15.797  68.018  1.00  0.00    -0.337 C  
BRANCH   6   7
HETATM    7  C   UNL     1     -12.138  14.645  67.957  1.00  0.00    -0.206 C  
BRANCH   7   8
HETATM    8  C   UNL     1     -11.818  13.577  69.006  1.00  0.00    -0.385 C  
BRANCH   8   9
HETATM    9  C   UNL     1     -11.288  12.322  68.363  1.00  0.00    -0.340 A  
HETATM   10  C   UNL     1     -10.567  11.401  69.128  1.00  0.00    -0.196 A  
HETATM   11  C   UNL     1     -10.019  10.267  68.539  1.00  0.00    -0.177 A  
HETATM   12  C   UNL     1     -10.213   9.999  67.180  1.00  0.00    -0.284 A  
HETATM   13  C   UNL     1     -11.479  12.070  67.002  1.00  0.00    -0.402 A  
HETATM   14  C   UNL     1     -10.948  10.917  66.417  1.00  0.00    -0.156 A  
BRANCH  12  15
HETATM   15  C   UNL     1      -9.579   8.803  66.502  1.00  0.00    -0.302 C  
BRANCH  15  16
HETATM   16  C   UNL     1     -10.150   7.452  66.963  1.00  0.00    -0.328 C  
HETATM   17  C   UNL     1      -9.371   6.168  66.584  1.00  0.00    -0.146 C  
HETATM   18  C   UNL     1     -10.184   4.958  67.131  1.00  0.00    -0.162 C  
HETATM   19  N   UNL     1      -9.261   6.018  65.108  1.00  0.00    -0.343 NA 
HETATM   20  C   UNL     1      -7.952   6.134  67.215  1.00  0.00    -0.102 C  
HETATM   21  O   UNL     1      -9.579   3.724  66.753  1.00  0.00    -0.209 OA 
HETATM   22  O   UNL     1      -7.109   7.159  66.695  1.00  0.00    -0.074 OA 
HETATM   23  H1  UNL     1      -8.748   5.173  64.859  1.00  0.00     0.000 HD 
HETATM   24  H2  UNL     1      -8.850   6.846  64.678  1.00  0.00     0.000 HD 
HETATM   25  H   UNL     1      -6.241   7.137  67.081  1.00  0.00     0.000 HD 
HETATM   26  H   UNL     1     -10.074   2.985  67.086  1.00  0.00     0.000 HD 
ENDBRANCH  15  16
ENDBRANCH  12  15
ENDBRANCH   8   9
ENDBRANCH   7   8
ENDBRANCH   6   7
ENDBRANCH   5   6
ENDBRANCH   4   5
ENDBRANCH   3   4
ENDBRANCH   2   3
TORSDOF 9
ENDMDL
MODEL      250
REMARK 921   NORMALIZED FREE ENERGY PREDICTED BY IDOCK:   -3.12 KCAL/MOL
REMARK 922        TOTAL FREE ENERGY PREDICTED BY IDOCK:   -5.87 KCAL/MOL
REMARK 923 INTER-LIGAND FREE ENERGY PREDICTED BY IDOCK:   -4.88 KCAL/MOL
REMARK 924 INTRA-LIGAND FREE ENERGY PREDICTED BY IDOCK:   -0.99 KCAL/MOL
REMARK 927      BINDING AFFINITY PREDICTED BY RF-SCORE:    0.00 PKD
ROOT
HETATM    1  C   UNL     1     -11.006   2.290  63.054  1.00  0.00    -0.238 C  
HETATM    2  C   UNL     1     -10.045   3.319  63.622  1.00  0.00    -0.183 C  
ENDROOT
BRANCH   2   3
HETATM    3  C   UNL     1      -9.811   3.093  65.113  1.00  0.00     0.053 C  
BRANCH   3   4
HETATM    4  C   UNL     1      -8.599   3.881  65.600  1.00  0.00    -0.111 C  
BRANCH   4   5
HETATM    5  C   UNL     1      -8.226   3.478  67.022  1.00  0.00    -0.091 C  
BRANCH   5   6
HETATM    6  C   UNL     1      -7.648   4.663  67.792  1.00  0.00    -0.078 C  
BRANCH   6   7
HETATM    7  C   UNL     1      -8.525   4.994  68.993  1.00  0.00    -0.084 C  
BRANCH   7   8
HETATM    8  C   UNL     1      -9.895   5.518  68.555  1.00  0.00    -0.193 C  
BRANCH   8   9
HETATM    9  C   UNL     1      -9.811   6.952  68.102  1.00  0.00    -0.145 A  
HETATM   10  C   UNL     1      -9.008   7.856  68.804  1.00  0.00    -0.141 A  
HETATM   11  C   UNL     1      -8.965   9.197  68.437  1.00  0.00    -0.133 A  
HETATM   12  C   UNL     1      -9.689   9.663  67.335  1.00  0.00    -0.198 A  
HETATM   13  C   UNL     1     -10.546   7.409  67.005  1.00  0.00    -0.414 A  
HETATM   14  C   UNL     1     -10.483   8.752  66.625  1.00  0.00    -0.240 A  
BRANCH  12  15
HETATM   15  C   UNL     1      -9.705  11.127  66.950  1.00  0.00    -0.216 C  
BRANCH  15  16
HETATM   16  C   UNL     1     -10.905  11.905  67.515  1.00  0.00    -0.283 C  
HETATM   17  C   UNL     1     -10.760  13.436  67.689  1.00  0.00    -0.247 C  
HETATM   18  C   UNL     1     -12.087  13.958  68.312  1.00  0.00    -0.287 C  
HETATM   19  N   UNL     1      -9.651  13.772  68.623  1.00  0.00    -0.365 NA 
HETATM   20  C   UNL     1     -10.532  14.163  66.334  1.00  0.00    -0.283 C  
HETATM   21  O   UNL     1     -12.009  15.356  68.585  1.00  0.00    -0.506 OA 
HETATM   22  O   UNL     1      -9.286  13.810  65.740  1.00  0.00    -0.500 OA 
HETATM   23  H1  UNL     1      -9.555  14.781  68.737  1.00  0.00     0.000 HD 
HETATM   24  H2  UNL     1      -8.773  13.343  68.331  1.00  0.00     0.000 HD 
HETATM   25  H   UNL     1      -9.147  14.255  64.911  1.00  0.00     0.000 HD 
HETATM   26  H   UNL     1     -12.819  15.674  68.965  1.00  0.00     0.000 HD 
ENDBRANCH  15  16
ENDBRANCH  12  15
ENDBRANCH   8   9
ENDBRANCH   7   8
ENDBRANCH   6   7
ENDBRANCH   5   6
ENDBRANCH   4   5
ENDBRANCH   3   4
ENDBRANCH   2   3
TORSDOF 9
ENDMDL
MODEL      251
REMARK 921   NORMALIZED FREE ENERGY PREDICTED BY IDOCK:   -3.10 KCAL/MOL
REMARK 922        TOTAL FREE ENERGY PREDICTED BY IDOCK:   -5.84 KCAL/MOL
REMARK 923 INTER-LIGAND FREE ENERGY PREDICTED BY IDOCK:   -4.48 KCAL/MOL
REMARK 924 INTRA-LIGAND FREE ENERGY PREDICTED BY IDOCK:   -1.36 KCAL/MOL
REMARK 927      BINDING AFFINITY PREDICTED BY RF-SCORE:    0.00 PKD
ROOT
HETATM    1  C   UNL     1      -9.992   2.203  72.371  1.00  0.00    -0.215 C  
HETATM    2  C   UNL     1      -9.863   3.640  71.899  1.00  0.00    -0.241 C  
ENDROOT
BRANCH   2   3
HETATM    3  C   UNL     1      -8.831   4.402  72.726  1.00  0.00    -0.115 C  
BRANCH   3   4
HETATM    4  C   UNL     1      -9.457   5.629  73.383  1.00  0.00    -0.138 C  
BRANCH   4   5
HETATM    5  C   UNL     1     -10.977   5.589  73.268  1.00  0.00    -0.339 C  
BRANCH   5   6
HETATM    6  C   UNL     1     -11.514   6.895  72.689  1.00  0.00    -0.235 C  
BRANCH   6   7
HETATM    7  C   UNL     1     -12.437   6.613  71.510  1.00  0.00    -0.326 C  
BRANCH   7   8
HETATM    8  C   UNL     1     -11.649   6.501  70.202  1.00  0.00    -0.466 C  
BRANCH   8   9
HETATM    9  C   UNL     1     -10.506   7.481  70.168  1.00  0.00    -0.226 A  
HETATM   10  C   UNL     1     -10.761   8.851  70.277  1.00  0.00    -0.248 A  
HETATM   11  C   UNL     1      -9.725   9.773  70.187  1.00  0.00    -0.299 A  
HETATM   12  C   UNL     1      -8.400   9.352  70.030  1.00  0.00    -0.190 A  
HETATM   13  C   UNL     1      -9.187   7.049  70.001  1.00  0.00    -0.148 A  
HETATM   14  C   UNL     1      -8.145   7.977  69.935  1.00  0.00    -0.117 A  
BRANCH  12  15
HETATM   15  C   UNL     1      -7.262  10.336  69.872  1.00  0.00    -0.162 C  
BRANCH  15  16
HETATM   16  C   UNL     1      -6.455  10.152  68.575  1.00  0.00    -0.049 C  
HETATM   17  C   UNL     1      -7.019  10.777  67.276  1.00  0.00    -0.086 C  
HETATM   18  C   UNL     1      -6.040  10.405  66.124  1.00  0.00    -0.096 C  
HETATM   19  N   UNL     1      -8.355  10.215  66.941  1.00  0.00    -0.122 NA 
HETATM   20  C   UNL     1      -7.115  12.325  67.361  1.00  0.00    -0.151 C  
HETATM   21  O   UNL     1      -6.528  10.872  64.868  1.00  0.00    -0.367 OA 
HETATM   22  O   UNL     1      -8.066  12.750  68.333  1.00  0.00    -0.149 OA 
HETATM   23  H1  UNL     1      -8.727  10.627  66.085  1.00  0.00     0.000 HD 
HETATM   24  H2  UNL     1      -9.008  10.315  67.719  1.00  0.00     0.000 HD 
HETATM   25  H   UNL     1      -8.124  13.698  68.385  1.00  0.00     0.000 HD 
HETATM   26  H   UNL     1      -5.931  10.645  64.165  1.00  0.00     0.000 HD 
ENDBRANCH  15  16
ENDBRANCH  12  15
ENDBRANCH   8   9
ENDBRANCH   7   8
ENDBRANCH   6   7
ENDBRANCH   5   6
ENDBRANCH   4   5
ENDBRANCH   3   4
ENDBRANCH   2   3
TORSDOF 9
ENDMDL
MODEL      252
REMARK 921   NORMALIZED FREE ENERGY PREDICTED BY IDOCK:   -3.10 KCAL/MOL
REMARK 922        TOTAL FREE ENERGY PREDICTED BY IDOCK:   -5.84 KCAL/MOL
REMARK 923 INTER-LIGAND FREE ENERGY PREDICTED BY IDOCK:   -5.04 KCAL/MOL
REMARK 924 INTRA-LIGAND FREE ENERGY PREDICTED BY IDOCK:   -0.80 KCAL/MOL
REMARK 927      BINDING AFFINITY PREDICTED BY RF-SCORE:    0.00 PKD
ROOT
HETATM    1  C   UNL     1     -12.462  13.973  65.248  1.00  0.00    -0.495 C  
HETATM    2  C   UNL     1     -12.340  13.668  66.731  1.00  0.00    -0.354 C  
ENDROOT
BRANCH   2   3
HETATM    3  C   UNL     1     -11.111  14.340  67.334  1.00  0.00    -0.314 C  
BRANCH   3   4
HETATM    4  C   UNL     1     -10.234  14.950  66.245  1.00  0.00    -0.306 C  
BRANCH   4   5
HETATM    5  C   UNL     1      -8.766  14.939  66.661  1.00  0.00    -0.262 C  
BRANCH   5   6
HETATM    6  C   UNL     1      -8.511  13.887  67.736  1.00  0.00    -0.183 C  
BRANCH   6   7
HETATM    7  C   UNL     1      -7.236  13.113  67.429  1.00  0.00    -0.119 C  
BRANCH   7   8
HETATM    8  C   UNL     1      -6.592  12.572  68.708  1.00  0.00    -0.089 C  
BRANCH   8   9
HETATM    9  C   UNL     1      -7.075  11.178  69.015  1.00  0.00    -0.113 A  
HETATM   10  C   UNL     1      -7.871  10.499  68.088  1.00  0.00    -0.109 A  
HETATM   11  C   UNL     1      -8.376   9.237  68.380  1.00  0.00    -0.119 A  
HETATM   12  C   UNL     1      -8.064   8.599  69.586  1.00  0.00    -0.112 A  
HETATM   13  C   UNL     1      -6.765  10.556  70.227  1.00  0.00    -0.127 A  
HETATM   14  C   UNL     1      -7.254   9.277  70.508  1.00  0.00    -0.111 A  
BRANCH  12  15
HETATM   15  C   UNL     1      -8.647   7.252  69.952  1.00  0.00    -0.141 C  
BRANCH  15  16
HETATM   16  C   UNL     1      -9.546   7.280  71.199  1.00  0.00    -0.160 C  
HETATM   17  C   UNL     1     -10.789   6.358  71.218  1.00  0.00    -0.257 C  
HETATM   18  C   UNL     1     -11.534   6.617  72.560  1.00  0.00    -0.231 C  
HETATM   19  N   UNL     1     -11.721   6.684  70.105  1.00  0.00    -0.571 NA 
HETATM   20  C   UNL     1     -10.407   4.854  71.149  1.00  0.00    -0.152 C  
HETATM   21  O   UNL     1     -12.745   5.866  72.626  1.00  0.00    -0.514 OA 
HETATM   22  O   UNL     1      -9.801   4.512  69.906  1.00  0.00    -0.203 OA 
HETATM   23  H1  UNL     1     -12.541   6.077  70.118  1.00  0.00     0.000 HD 
HETATM   24  H2  UNL     1     -11.249   6.657  69.202  1.00  0.00     0.000 HD 
HETATM   25  H   UNL     1      -9.567   3.591  69.864  1.00  0.00     0.000 HD 
HETATM   26  H   UNL     1     -13.200   6.024  73.445  1.00  0.00     0.000 HD 
ENDBRANCH  15  16
ENDBRANCH  12  15
ENDBRANCH   8   9
ENDBRANCH   7   8
ENDBRANCH   6   7
ENDBRANCH   5   6
ENDBRANCH   4   5
ENDBRANCH   3   4
ENDBRANCH   2   3
TORSDOF 9
ENDMDL
MODEL      253
REMARK 921   NORMALIZED FREE ENERGY PREDICTED BY IDOCK:   -3.09 KCAL/MOL
REMARK 922        TOTAL FREE ENERGY PREDICTED BY IDOCK:   -5.83 KCAL/MOL
REMARK 923 INTER-LIGAND FREE ENERGY PREDICTED BY IDOCK:   -5.21 KCAL/MOL
REMARK 924 INTRA-LIGAND FREE ENERGY PREDICTED BY IDOCK:   -0.62 KCAL/MOL
REMARK 927      BINDING AFFINITY PREDICTED BY RF-SCORE:    0.00 PKD
ROOT
HETATM    1  C   UNL     1     -12.630  16.031  72.298  1.00  0.00    -0.505 C  
HETATM    2  C   UNL     1     -12.153  14.624  71.988  1.00  0.00    -0.346 C  
ENDROOT
BRANCH   2   3
HETATM    3  C   UNL     1     -13.328  13.659  71.857  1.00  0.00    -0.510 C  
BRANCH   3   4
HETATM    4  C   UNL     1     -12.897  12.365  71.174  1.00  0.00    -0.299 C  
BRANCH   4   5
HETATM    5  C   UNL     1     -13.392  11.150  71.951  1.00  0.00    -0.409 C  
BRANCH   5   6
HETATM    6  C   UNL     1     -13.149   9.863  71.166  1.00  0.00    -0.453 C  
BRANCH   6   7
HETATM    7  C   UNL     1     -11.878   9.177  71.653  1.00  0.00    -0.443 C  
BRANCH   7   8
HETATM    8  C   UNL     1     -11.417   8.099  70.669  1.00  0.00    -0.237 C  
BRANCH   8   9
HETATM    9  C   UNL     1     -10.622   8.696  69.538  1.00  0.00    -0.218 A  
HETATM   10  C   UNL     1      -9.319   8.252  69.295  1.00  0.00    -0.155 A  
HETATM   11  C   UNL     1      -8.549   8.834  68.294  1.00  0.00    -0.134 A  
HETATM   12  C   UNL     1      -9.073   9.842  67.479  1.00  0.00    -0.145 A  
HETATM   13  C   UNL     1     -11.153   9.710  68.736  1.00  0.00    -0.093 A  
HETATM   14  C   UNL     1     -10.385  10.276  67.715  1.00  0.00    -0.246 A  
BRANCH  12  15
HETATM   15  C   UNL     1      -8.238  10.531  66.421  1.00  0.00    -0.140 C  
BRANCH  15  16
HETATM   16  C   UNL     1      -8.208  12.063  66.552  1.00  0.00     0.013 C  
HETATM   17  C   UNL     1      -7.235  12.684  67.583  1.00  0.00    -0.142 C  
HETATM   18  C   UNL     1      -7.440  14.227  67.539  1.00  0.00    -0.182 C  
HETATM   19  N   UNL     1      -7.541  12.220  68.963  1.00  0.00    -0.325 NA 
HETATM   20  C   UNL     1      -5.749  12.374  67.251  1.00  0.00    -0.114 C  
HETATM   21  O   UNL     1      -6.638  14.877  68.523  1.00  0.00    -0.086 OA 
HETATM   22  O   UNL     1      -5.454  10.985  67.361  1.00  0.00    -0.043 OA 
HETATM   23  H1  UNL     1      -6.900  12.629  69.643  1.00  0.00     0.000 HD 
HETATM   24  H2  UNL     1      -7.549  11.202  69.021  1.00  0.00     0.000 HD 
HETATM   25  H   UNL     1      -4.545  10.796  67.157  1.00  0.00     0.000 HD 
HETATM   26  H   UNL     1      -6.763  15.818  68.496  1.00  0.00     0.000 HD 
ENDBRANCH  15  16
ENDBRANCH  12  15
ENDBRANCH   8   9
ENDBRANCH   7   8
ENDBRANCH   6   7
ENDBRANCH   5   6
ENDBRANCH   4   5
ENDBRANCH   3   4
ENDBRANCH   2   3
TORSDOF 9
ENDMDL
MODEL      254
REMARK 921   NORMALIZED FREE ENERGY PREDICTED BY IDOCK:   -3.09 KCAL/MOL
REMARK 922        TOTAL FREE ENERGY PREDICTED BY IDOCK:   -5.83 KCAL/MOL
REMARK 923 INTER-LIGAND FREE ENERGY PREDICTED BY IDOCK:   -4.78 KCAL/MOL
REMARK 924 INTRA-LIGAND FREE ENERGY PREDICTED BY IDOCK:   -1.05 KCAL/MOL
REMARK 927      BINDING AFFINITY PREDICTED BY RF-SCORE:    0.00 PKD
ROOT
HETATM    1  C   UNL     1      -8.691   4.234  63.106  1.00  0.00    -0.116 C  
HETATM    2  C   UNL     1      -7.488   5.046  62.662  1.00  0.00    -0.044 C  
ENDROOT
BRANCH   2   3
HETATM    3  C   UNL     1      -7.083   6.062  63.726  1.00  0.00    -0.056 C  
BRANCH   3   4
HETATM    4  C   UNL     1      -7.991   7.287  63.683  1.00  0.00    -0.073 C  
BRANCH   4   5
HETATM    5  C   UNL     1      -7.595   8.294  64.757  1.00  0.00    -0.103 C  
BRANCH   5   6
HETATM    6  C   UNL     1      -7.038   7.586  65.990  1.00  0.00    -0.069 C  
BRANCH   6   7
HETATM    7  C   UNL     1      -8.124   7.429  67.047  1.00  0.00    -0.113 C  
BRANCH   7   8
HETATM    8  C   UNL     1      -7.872   8.351  68.243  1.00  0.00    -0.110 C  
BRANCH   8   9
HETATM    9  C   UNL     1      -8.694   9.609  68.146  1.00  0.00    -0.119 A  
HETATM   10  C   UNL     1     -10.014   9.543  67.690  1.00  0.00    -0.226 A  
HETATM   11  C   UNL     1     -10.768  10.701  67.537  1.00  0.00    -0.321 A  
HETATM   12  C   UNL     1     -10.241  11.952  67.875  1.00  0.00    -0.203 A  
HETATM   13  C   UNL     1      -8.154  10.854  68.478  1.00  0.00    -0.137 A  
HETATM   14  C   UNL     1      -8.922  12.014  68.345  1.00  0.00    -0.153 A  
BRANCH  12  15
HETATM   15  C   UNL     1     -11.020  13.232  67.664  1.00  0.00    -0.281 C  
BRANCH  15  16
HETATM   16  C   UNL     1     -11.766  13.721  68.916  1.00  0.00    -0.374 C  
HETATM   17  C   UNL     1     -11.332  15.071  69.538  1.00  0.00    -0.288 C  
HETATM   18  C   UNL     1     -12.210  15.299  70.803  1.00  0.00    -0.360 C  
HETATM   19  N   UNL     1      -9.908  15.035  69.968  1.00  0.00    -0.483 NA 
HETATM   20  C   UNL     1     -11.548  16.263  68.566  1.00  0.00    -0.188 C  
HETATM   21  O   UNL     1     -11.818  16.486  71.489  1.00  0.00    -0.655 OA 
HETATM   22  O   UNL     1     -10.707  16.179  67.419  1.00  0.00    -0.312 OA 
HETATM   23  H1  UNL     1      -9.621  15.924  70.378  1.00  0.00     0.000 HD 
HETATM   24  H2  UNL     1      -9.293  14.760  69.202  1.00  0.00     0.000 HD 
HETATM   25  H   UNL     1     -10.839  16.908  66.824  1.00  0.00     0.000 HD 
HETATM   26  H   UNL     1     -12.354  16.626  72.261  1.00  0.00     0.000 HD 
ENDBRANCH  15  16
ENDBRANCH  12  15
ENDBRANCH   8   9
ENDBRANCH   7   8
ENDBRANCH   6   7
ENDBRANCH   5   6
ENDBRANCH   4   5
ENDBRANCH   3   4
ENDBRANCH   2   3
TORSDOF 9
ENDMDL
MODEL      255
REMARK 921   NORMALIZED FREE ENERGY PREDICTED BY IDOCK:   -3.09 KCAL/MOL
REMARK 922        TOTAL FREE ENERGY PREDICTED BY IDOCK:   -5.82 KCAL/MOL
REMARK 923 INTER-LIGAND FREE ENERGY PREDICTED BY IDOCK:   -3.87 KCAL/MOL
REMARK 924 INTRA-LIGAND FREE ENERGY PREDICTED BY IDOCK:   -1.95 KCAL/MOL
REMARK 927      BINDING AFFINITY PREDICTED BY RF-SCORE:    0.00 PKD
ROOT
HETATM    1  C   UNL     1      -9.003   7.686  72.165  1.00  0.00    -0.170 C  
HETATM    2  C   UNL     1     -10.247   6.816  72.187  1.00  0.00    -0.213 C  
ENDROOT
BRANCH   2   3
HETATM    3  C   UNL     1     -10.201   5.814  73.337  1.00  0.00    -0.224 C  
BRANCH   3   4
HETATM    4  C   UNL     1     -10.012   4.393  72.814  1.00  0.00    -0.209 C  
BRANCH   4   5
HETATM    5  C   UNL     1      -8.553   4.140  72.448  1.00  0.00    -0.109 C  
BRANCH   5   6
HETATM    6  C   UNL     1      -8.442   3.107  71.330  1.00  0.00    -0.091 C  
BRANCH   6   7
HETATM    7  C   UNL     1      -9.702   3.115  70.474  1.00  0.00    -0.118 C  
BRANCH   7   8
HETATM    8  C   UNL     1      -9.375   3.403  69.006  1.00  0.00    -0.239 C  
BRANCH   8   9
HETATM    9  C   UNL     1      -9.275   4.884  68.750  1.00  0.00    -0.162 A  
HETATM   10  C   UNL     1     -10.437   5.635  68.549  1.00  0.00    -0.273 A  
HETATM   11  C   UNL     1     -10.361   6.991  68.252  1.00  0.00    -0.223 A  
HETATM   12  C   UNL     1      -9.126   7.644  68.190  1.00  0.00    -0.132 A  
HETATM   13  C   UNL     1      -8.034   5.525  68.681  1.00  0.00    -0.092 A  
HETATM   14  C   UNL     1      -7.962   6.893  68.405  1.00  0.00    -0.122 A  
BRANCH  12  15
HETATM   15  C   UNL     1      -9.012   9.105  67.812  1.00  0.00    -0.132 C  
BRANCH  15  16
HETATM   16  C   UNL     1      -7.663   9.480  67.175  1.00  0.00    -0.091 C  
HETATM   17  C   UNL     1      -7.278  10.978  67.120  1.00  0.00    -0.112 C  
HETATM   18  C   UNL     1      -5.905  11.075  66.394  1.00  0.00    -0.140 C  
HETATM   19  N   UNL     1      -8.269  11.762  66.333  1.00  0.00    -0.367 NA 
HETATM   20  C   UNL     1      -7.133  11.601  68.535  1.00  0.00    -0.089 C  
HETATM   21  O   UNL     1      -5.511  12.435  66.224  1.00  0.00    -0.201 OA 
HETATM   22  O   UNL     1      -8.374  11.637  69.235  1.00  0.00    -0.355 OA 
HETATM   23  H1  UNL     1      -8.016  12.750  66.297  1.00  0.00     0.000 HD 
HETATM   24  H2  UNL     1      -9.216  11.632  66.688  1.00  0.00     0.000 HD 
HETATM   25  H   UNL     1      -8.285  12.018  70.101  1.00  0.00     0.000 HD 
HETATM   26  H   UNL     1      -4.673  12.495  65.781  1.00  0.00     0.000 HD 
ENDBRANCH  15  16
ENDBRANCH  12  15
ENDBRANCH   8   9
ENDBRANCH   7   8
ENDBRANCH   6   7
ENDBRANCH   5   6
ENDBRANCH   4   5
ENDBRANCH   3   4
ENDBRANCH   2   3
TORSDOF 9
ENDMDL
MODEL      256
REMARK 921   NORMALIZED FREE ENERGY PREDICTED BY IDOCK:   -3.08 KCAL/MOL
REMARK 922        TOTAL FREE ENERGY PREDICTED BY IDOCK:   -5.81 KCAL/MOL
REMARK 923 INTER-LIGAND FREE ENERGY PREDICTED BY IDOCK:   -4.51 KCAL/MOL
REMARK 924 INTRA-LIGAND FREE ENERGY PREDICTED BY IDOCK:   -1.30 KCAL/MOL
REMARK 927      BINDING AFFINITY PREDICTED BY RF-SCORE:    0.00 PKD
ROOT
HETATM    1  C   UNL     1     -11.309  11.607  70.152  1.00  0.00    -0.091 C  
HETATM    2  C   UNL     1     -12.355  12.604  69.685  1.00  0.00    -0.045 C  
ENDROOT
BRANCH   2   3
HETATM    3  C   UNL     1     -11.869  14.039  69.864  1.00  0.00    -0.393 C  
BRANCH   3   4
HETATM    4  C   UNL     1     -10.700  14.339  68.931  1.00  0.00    -0.268 C  
BRANCH   4   5
HETATM    5  C   UNL     1     -11.150  15.198  67.754  1.00  0.00    -0.313 C  
BRANCH   5   6
HETATM    6  C   UNL     1     -10.550  14.690  66.446  1.00  0.00    -0.301 C  
BRANCH   6   7
HETATM    7  C   UNL     1     -11.337  13.492  65.930  1.00  0.00    -0.321 C  
BRANCH   7   8
HETATM    8  C   UNL     1     -10.509  12.666  64.943  1.00  0.00    -0.331 C  
BRANCH   8   9
HETATM    9  C   UNL     1     -10.122  11.336  65.535  1.00  0.00    -0.306 A  
HETATM   10  C   UNL     1      -9.992  11.203  66.921  1.00  0.00    -0.230 A  
HETATM   11  C   UNL     1      -9.577  10.000  67.480  1.00  0.00    -0.178 A  
HETATM   12  C   UNL     1      -9.323   8.884  66.677  1.00  0.00    -0.237 A  
HETATM   13  C   UNL     1      -9.861  10.230  64.721  1.00  0.00    -0.403 A  
HETATM   14  C   UNL     1      -9.467   9.015  65.288  1.00  0.00    -0.093 A  
BRANCH  12  15
HETATM   15  C   UNL     1      -8.815   7.581  67.255  1.00  0.00    -0.124 C  
BRANCH  15  16
HETATM   16  C   UNL     1      -9.584   6.342  66.768  1.00  0.00    -0.183 C  
HETATM   17  C   UNL     1      -8.770   5.072  66.422  1.00  0.00    -0.114 C  
HETATM   18  C   UNL     1      -9.779   3.999  65.920  1.00  0.00    -0.188 C  
HETATM   19  N   UNL     1      -7.797   5.335  65.327  1.00  0.00    -0.092 NA 
HETATM   20  C   UNL     1      -8.018   4.501  67.656  1.00  0.00    -0.096 C  
HETATM   21  O   UNL     1      -9.102   2.817  65.498  1.00  0.00    -0.142 OA 
HETATM   22  O   UNL     1      -7.004   5.387  68.123  1.00  0.00    -0.058 OA 
HETATM   23  H1  UNL     1      -7.260   4.498  65.099  1.00  0.00     0.000 HD 
HETATM   24  H2  UNL     1      -7.187   6.121  65.550  1.00  0.00     0.000 HD 
HETATM   25  H   UNL     1      -6.544   5.038  68.878  1.00  0.00     0.000 HD 
HETATM   26  H   UNL     1      -9.718   2.162  65.191  1.00  0.00     0.000 HD 
ENDBRANCH  15  16
ENDBRANCH  12  15
ENDBRANCH   8   9
ENDBRANCH   7   8
ENDBRANCH   6   7
ENDBRANCH   5   6
ENDBRANCH   4   5
ENDBRANCH   3   4
ENDBRANCH   2   3
TORSDOF 9
ENDMDL
MODEL      257
REMARK 921   NORMALIZED FREE ENERGY PREDICTED BY IDOCK:   -3.04 KCAL/MOL
REMARK 922        TOTAL FREE ENERGY PREDICTED BY IDOCK:   -5.74 KCAL/MOL
REMARK 923 INTER-LIGAND FREE ENERGY PREDICTED BY IDOCK:   -5.27 KCAL/MOL
REMARK 924 INTRA-LIGAND FREE ENERGY PREDICTED BY IDOCK:   -0.47 KCAL/MOL
REMARK 927      BINDING AFFINITY PREDICTED BY RF-SCORE:    0.00 PKD
ROOT
HETATM    1  C   UNL     1      -9.918  18.323  67.136  1.00  0.00    -0.345 C  
HETATM    2  C   UNL     1     -10.102  16.893  67.614  1.00  0.00    -0.278 C  
ENDROOT
BRANCH   2   3
HETATM    3  C   UNL     1      -8.782  16.299  68.098  1.00  0.00    -0.182 C  
BRANCH   3   4
HETATM    4  C   UNL     1      -9.018  15.000  68.863  1.00  0.00    -0.202 C  
BRANCH   4   5
HETATM    5  C   UNL     1      -9.194  13.828  67.904  1.00  0.00    -0.200 C  
BRANCH   5   6
HETATM    6  C   UNL     1     -10.407  14.039  67.001  1.00  0.00    -0.267 C  
BRANCH   6   7
HETATM    7  C   UNL     1     -11.571  13.174  67.467  1.00  0.00    -0.398 C  
BRANCH   7   8
HETATM    8  C   UNL     1     -11.366  11.708  67.077  1.00  0.00    -0.373 C  
BRANCH   8   9
HETATM    9  C   UNL     1     -10.990  10.873  68.273  1.00  0.00    -0.293 A  
HETATM   10  C   UNL     1     -11.666  11.049  69.484  1.00  0.00    -0.400 A  
HETATM   11  C   UNL     1     -11.293  10.330  70.614  1.00  0.00    -0.431 A  
HETATM   12  C   UNL     1     -10.264   9.384  70.556  1.00  0.00    -0.332 A  
HETATM   13  C   UNL     1      -9.954   9.938  68.206  1.00  0.00    -0.172 A  
HETATM   14  C   UNL     1      -9.596   9.199  69.337  1.00  0.00    -0.165 A  
BRANCH  12  15
HETATM   15  C   UNL     1      -9.800   8.630  71.783  1.00  0.00    -0.365 C  
BRANCH  15  16
HETATM   16  C   UNL     1      -8.810   7.494  71.479  1.00  0.00    -0.133 C  
HETATM   17  C   UNL     1      -7.484   7.454  72.277  1.00  0.00    -0.076 C  
HETATM   18  C   UNL     1      -6.662   6.244  71.744  1.00  0.00    -0.063 C  
HETATM   19  N   UNL     1      -6.682   8.687  72.055  1.00  0.00    -0.119 NA 
HETATM   20  C   UNL     1      -7.720   7.256  73.800  1.00  0.00    -0.107 C  
HETATM   21  O   UNL     1      -5.382   6.181  72.369  1.00  0.00    -0.029 OA 
HETATM   22  O   UNL     1      -8.388   8.369  74.387  1.00  0.00    -0.340 OA 
HETATM   23  H1  UNL     1      -5.809   8.661  72.581  1.00  0.00     0.000 HD 
HETATM   24  H2  UNL     1      -7.222   9.526  72.267  1.00  0.00     0.000 HD 
HETATM   25  H   UNL     1      -8.532   8.248  75.319  1.00  0.00     0.000 HD 
HETATM   26  H   UNL     1      -4.879   5.443  72.044  1.00  0.00     0.000 HD 
ENDBRANCH  15  16
ENDBRANCH  12  15
ENDBRANCH   8   9
ENDBRANCH   7   8
ENDBRANCH   6   7
ENDBRANCH   5   6
ENDBRANCH   4   5
ENDBRANCH   3   4
ENDBRANCH   2   3
TORSDOF 9
ENDMDL
MODEL      258
REMARK 921   NORMALIZED FREE ENERGY PREDICTED BY IDOCK:   -2.99 KCAL/MOL
REMARK 922        TOTAL FREE ENERGY PREDICTED BY IDOCK:   -5.67 KCAL/MOL
REMARK 923 INTER-LIGAND FREE ENERGY PREDICTED BY IDOCK:   -4.85 KCAL/MOL
REMARK 924 INTRA-LIGAND FREE ENERGY PREDICTED BY IDOCK:   -0.82 KCAL/MOL
REMARK 927      BINDING AFFINITY PREDICTED BY RF-SCORE:    0.00 PKD
ROOT
HETATM    1  C   UNL     1     -11.641  14.885  66.968  1.00  0.00    -0.314 C  
HETATM    2  C   UNL     1     -12.170  13.985  65.866  1.00  0.00    -0.481 C  
ENDROOT
BRANCH   2   3
HETATM    3  C   UNL     1     -11.078  13.062  65.333  1.00  0.00    -0.300 C  
BRANCH   3   4
HETATM    4  C   UNL     1      -9.839  13.114  66.223  1.00  0.00    -0.284 C  
BRANCH   4   5
HETATM    5  C   UNL     1      -9.539  11.741  66.815  1.00  0.00    -0.212 C  
BRANCH   5   6
HETATM    6  C   UNL     1     -10.741  10.811  66.676  1.00  0.00    -0.268 C  
BRANCH   6   7
HETATM    7  C   UNL     1     -11.522  10.754  67.983  1.00  0.00    -0.333 C  
BRANCH   7   8
HETATM    8  C   UNL     1     -10.595  10.910  69.191  1.00  0.00    -0.253 C  
BRANCH   8   9
HETATM    9  C   UNL     1      -9.898   9.614  69.515  1.00  0.00    -0.219 A  
HETATM   10  C   UNL     1     -10.221   8.455  68.804  1.00  0.00    -0.223 A  
HETATM   11  C   UNL     1      -9.632   7.238  69.130  1.00  0.00    -0.155 A  
HETATM   12  C   UNL     1      -8.673   7.153  70.144  1.00  0.00    -0.141 A  
HETATM   13  C   UNL     1      -8.948   9.539  70.538  1.00  0.00    -0.265 A  
HETATM   14  C   UNL     1      -8.340   8.320  70.847  1.00  0.00    -0.139 A  
BRANCH  12  15
HETATM   15  C   UNL     1      -8.059   5.832  70.556  1.00  0.00    -0.110 C  
BRANCH  15  16
HETATM   16  C   UNL     1      -8.344   5.442  72.016  1.00  0.00    -0.122 C  
HETATM   17  C   UNL     1      -9.626   4.626  72.312  1.00  0.00    -0.152 C  
HETATM   18  C   UNL     1      -9.690   4.410  73.852  1.00  0.00    -0.122 C  
HETATM   19  N   UNL     1     -10.847   5.370  71.902  1.00  0.00    -0.217 NA 
HETATM   20  C   UNL     1      -9.610   3.235  71.620  1.00  0.00    -0.160 C  
HETATM   21  O   UNL     1     -10.889   3.735  74.224  1.00  0.00    -0.194 OA 
HETATM   22  O   UNL     1      -9.646   3.343  70.199  1.00  0.00    -0.181 OA 
HETATM   23  H1  UNL     1     -11.692   4.832  72.096  1.00  0.00     0.000 HD 
HETATM   24  H2  UNL     1     -10.802   5.653  70.923  1.00  0.00     0.000 HD 
HETATM   25  H   UNL     1      -9.637   2.492  69.776  1.00  0.00     0.000 HD 
HETATM   26  H   UNL     1     -10.928   3.603  75.164  1.00  0.00     0.000 HD 
ENDBRANCH  15  16
ENDBRANCH  12  15
ENDBRANCH   8   9
ENDBRANCH   7   8
ENDBRANCH   6   7
ENDBRANCH   5   6
ENDBRANCH   4   5
ENDBRANCH   3   4
ENDBRANCH   2   3
TORSDOF 9
ENDMDL
MODEL      259
REMARK 921   NORMALIZED FREE ENERGY PREDICTED BY IDOCK:   -2.97 KCAL/MOL
REMARK 922        TOTAL FREE ENERGY PREDICTED BY IDOCK:   -5.64 KCAL/MOL
REMARK 923 INTER-LIGAND FREE ENERGY PREDICTED BY IDOCK:   -4.61 KCAL/MOL
REMARK 924 INTRA-LIGAND FREE ENERGY PREDICTED BY IDOCK:   -1.03 KCAL/MOL
REMARK 927      BINDING AFFINITY PREDICTED BY RF-SCORE:    0.00 PKD
ROOT
HETATM    1  C   UNL     1     -11.437  14.929  65.564  1.00  0.00    -0.307 C  
HETATM    2  C   UNL     1     -12.310  13.908  64.857  1.00  0.00    -0.445 C  
ENDROOT
BRANCH   2   3
HETATM    3  C   UNL     1     -11.542  12.617  64.585  1.00  0.00    -0.392 C  
BRANCH   3   4
HETATM    4  C   UNL     1     -10.255  12.568  65.402  1.00  0.00    -0.303 C  
BRANCH   4   5
HETATM    5  C   UNL     1     -10.178  11.280  66.216  1.00  0.00    -0.280 C  
BRANCH   5   6
HETATM    6  C   UNL     1     -11.169  11.308  67.377  1.00  0.00    -0.370 C  
BRANCH   6   7
HETATM    7  C   UNL     1     -10.496  11.841  68.636  1.00  0.00    -0.242 C  
BRANCH   7   8
HETATM    8  C   UNL     1      -9.029  11.410  68.707  1.00  0.00    -0.086 C  
BRANCH   8   9
HETATM    9  C   UNL     1      -8.876  10.117  69.464  1.00  0.00    -0.198 A  
HETATM   10  C   UNL     1      -9.940   9.629  70.228  1.00  0.00    -0.326 A  
HETATM   11  C   UNL     1      -9.797   8.469  70.981  1.00  0.00    -0.245 A  
HETATM   12  C   UNL     1      -8.603   7.741  70.958  1.00  0.00    -0.128 A  
HETATM   13  C   UNL     1      -7.675   9.403  69.441  1.00  0.00    -0.085 A  
HETATM   14  C   UNL     1      -7.542   8.225  70.181  1.00  0.00    -0.075 A  
BRANCH  12  15
HETATM   15  C   UNL     1      -8.402   6.508  71.813  1.00  0.00    -0.116 C  
BRANCH  15  16
HETATM   16  C   UNL     1      -9.713   5.853  72.279  1.00  0.00    -0.178 C  
HETATM   17  C   UNL     1      -9.616   4.566  73.134  1.00  0.00    -0.130 C  
HETATM   18  C   UNL     1     -11.072   4.097  73.426  1.00  0.00    -0.262 C  
HETATM   19  N   UNL     1      -8.922   3.477  72.396  1.00  0.00    -0.094 NA 
HETATM   20  C   UNL     1      -8.897   4.813  74.489  1.00  0.00    -0.111 C  
HETATM   21  O   UNL     1     -11.077   2.864  74.143  1.00  0.00    -0.152 OA 
HETATM   22  O   UNL     1      -7.525   5.157  74.312  1.00  0.00    -0.085 OA 
HETATM   23  H1  UNL     1      -8.858   2.629  72.959  1.00  0.00     0.000 HD 
HETATM   24  H2  UNL     1      -8.005   3.775  72.064  1.00  0.00     0.000 HD 
HETATM   25  H   UNL     1      -7.085   5.308  75.141  1.00  0.00     0.000 HD 
HETATM   26  H   UNL     1     -11.965   2.577  74.321  1.00  0.00     0.000 HD 
ENDBRANCH  15  16
ENDBRANCH  12  15
ENDBRANCH   8   9
ENDBRANCH   7   8
ENDBRANCH   6   7
ENDBRANCH   5   6
ENDBRANCH   4   5
ENDBRANCH   3   4
ENDBRANCH   2   3
TORSDOF 9
ENDMDL
MODEL      260
REMARK 921   NORMALIZED FREE ENERGY PREDICTED BY IDOCK:   -2.97 KCAL/MOL
REMARK 922        TOTAL FREE ENERGY PREDICTED BY IDOCK:   -5.63 KCAL/MOL
REMARK 923 INTER-LIGAND FREE ENERGY PREDICTED BY IDOCK:   -4.74 KCAL/MOL
REMARK 924 INTRA-LIGAND FREE ENERGY PREDICTED BY IDOCK:   -0.89 KCAL/MOL
REMARK 927      BINDING AFFINITY PREDICTED BY RF-SCORE:    0.00 PKD
ROOT
HETATM    1  C   UNL     1     -10.650   5.336  73.662  1.00  0.00    -0.322 C  
HETATM    2  C   UNL     1     -10.605   6.225  72.433  1.00  0.00    -0.241 C  
ENDROOT
BRANCH   2   3
HETATM    3  C   UNL     1      -9.378   5.924  71.577  1.00  0.00    -0.160 C  
BRANCH   3   4
HETATM    4  C   UNL     1      -9.227   4.423  71.351  1.00  0.00    -0.190 C  
BRANCH   4   5
HETATM    5  C   UNL     1      -8.659   4.137  69.965  1.00  0.00    -0.100 C  
BRANCH   5   6
HETATM    6  C   UNL     1      -7.259   4.727  69.816  1.00  0.00    -0.055 C  
BRANCH   6   7
HETATM    7  C   UNL     1      -7.258   5.833  68.768  1.00  0.00    -0.082 C  
BRANCH   7   8
HETATM    8  C   UNL     1      -6.575   7.097  69.295  1.00  0.00    -0.044 C  
BRANCH   8   9
HETATM    9  C   UNL     1      -7.201   8.338  68.714  1.00  0.00    -0.079 A  
HETATM   10  C   UNL     1      -7.122   8.578  67.339  1.00  0.00    -0.080 A  
HETATM   11  C   UNL     1      -7.641   9.747  66.794  1.00  0.00    -0.095 A  
HETATM   12  C   UNL     1      -8.292  10.687  67.599  1.00  0.00    -0.114 A  
HETATM   13  C   UNL     1      -7.841   9.275  69.530  1.00  0.00    -0.086 A  
HETATM   14  C   UNL     1      -8.383  10.438  68.976  1.00  0.00    -0.150 A  
BRANCH  12  15
HETATM   15  C   UNL     1      -8.815  11.993  67.041  1.00  0.00    -0.197 C  
BRANCH  15  16
HETATM   16  C   UNL     1      -9.605  11.838  65.731  1.00  0.00    -0.253 C  
HETATM   17  C   UNL     1     -11.008  12.487  65.649  1.00  0.00    -0.288 C  
HETATM   18  C   UNL     1     -11.595  12.142  64.249  1.00  0.00    -0.370 C  
HETATM   19  N   UNL     1     -11.923  11.927  66.680  1.00  0.00    -0.564 NA 
HETATM   20  C   UNL     1     -10.951  14.033  65.793  1.00  0.00    -0.294 C  
HETATM   21  O   UNL     1     -12.928  12.633  64.118  1.00  0.00    -0.717 OA 
HETATM   22  O   UNL     1     -10.511  14.435  67.087  1.00  0.00    -0.261 OA 
HETATM   23  H1  UNL     1     -12.848  12.354  66.627  1.00  0.00     0.000 HD 
HETATM   24  H2  UNL     1     -11.527  12.009  67.616  1.00  0.00     0.000 HD 
HETATM   25  H   UNL     1     -10.477  15.381  67.175  1.00  0.00     0.000 HD 
HETATM   26  H   UNL     1     -13.286  12.422  63.264  1.00  0.00     0.000 HD 
ENDBRANCH  15  16
ENDBRANCH  12  15
ENDBRANCH   8   9
ENDBRANCH   7   8
ENDBRANCH   6   7
ENDBRANCH   5   6
ENDBRANCH   4   5
ENDBRANCH   3   4
ENDBRANCH   2   3
TORSDOF 9
ENDMDL
MODEL      261
REMARK 921   NORMALIZED FREE ENERGY PREDICTED BY IDOCK:   -2.94 KCAL/MOL
REMARK 922        TOTAL FREE ENERGY PREDICTED BY IDOCK:   -5.60 KCAL/MOL
REMARK 923 INTER-LIGAND FREE ENERGY PREDICTED BY IDOCK:   -5.01 KCAL/MOL
REMARK 924 INTRA-LIGAND FREE ENERGY PREDICTED BY IDOCK:   -0.59 KCAL/MOL
REMARK 927      BINDING AFFINITY PREDICTED BY RF-SCORE:    0.00 PKD
ROOT
HETATM    1  C   UNL     1      -7.886   9.891  64.161  1.00  0.00    -0.142 C  
HETATM    2  C   UNL     1      -9.150   9.298  64.758  1.00  0.00    -0.201 C  
ENDROOT
BRANCH   2   3
HETATM    3  C   UNL     1     -10.127  10.392  65.180  1.00  0.00    -0.379 C  
BRANCH   3   4
HETATM    4  C   UNL     1      -9.953  10.738  66.656  1.00  0.00    -0.251 C  
BRANCH   4   5
HETATM    5  C   UNL     1      -9.200  12.054  66.819  1.00  0.00    -0.201 C  
BRANCH   5   6
HETATM    6  C   UNL     1      -7.750  11.806  67.226  1.00  0.00    -0.158 C  
BRANCH   6   7
HETATM    7  C   UNL     1      -7.657  11.548  68.725  1.00  0.00    -0.129 C  
BRANCH   7   8
HETATM    8  C   UNL     1      -6.254  11.853  69.255  1.00  0.00    -0.094 C  
BRANCH   8   9
HETATM    9  C   UNL     1      -6.075  13.327  69.511  1.00  0.00    -0.112 A  
HETATM   10  C   UNL     1      -6.395  14.250  68.511  1.00  0.00    -0.092 A  
HETATM   11  C   UNL     1      -6.180  15.609  68.708  1.00  0.00    -0.103 A  
HETATM   12  C   UNL     1      -5.682  16.089  69.924  1.00  0.00    -0.161 A  
HETATM   13  C   UNL     1      -5.567  13.794  70.727  1.00  0.00    -0.180 A  
HETATM   14  C   UNL     1      -5.375  15.163  70.931  1.00  0.00    -0.131 A  
BRANCH  12  15
HETATM   15  C   UNL     1      -5.385  17.557  70.144  1.00  0.00    -0.228 C  
BRANCH  15  16
HETATM   16  C   UNL     1      -5.313  18.378  68.846  1.00  0.00    -0.192 C  
HETATM   17  C   UNL     1      -6.208  19.637  68.733  1.00  0.00    -0.257 C  
HETATM   18  C   UNL     1      -5.973  20.245  67.320  1.00  0.00    -0.180 C  
HETATM   19  N   UNL     1      -7.649  19.288  68.849  1.00  0.00    -0.355 NA 
HETATM   20  C   UNL     1      -5.848  20.710  69.797  1.00  0.00    -0.308 C  
HETATM   21  O   UNL     1      -6.824  21.367  67.098  1.00  0.00    -0.661 OA 
HETATM   22  O   UNL     1      -6.125  20.265  71.122  1.00  0.00    -0.501 OA 
HETATM   23  H1  UNL     1      -8.239  20.117  68.776  1.00  0.00     0.000 HD 
HETATM   24  H2  UNL     1      -7.840  18.768  69.706  1.00  0.00     0.000 HD 
HETATM   25  H   UNL     1      -5.905  20.922  71.773  1.00  0.00     0.000 HD 
HETATM   26  H   UNL     1      -6.681  21.738  66.235  1.00  0.00     0.000 HD 
ENDBRANCH  15  16
ENDBRANCH  12  15
ENDBRANCH   8   9
ENDBRANCH   7   8
ENDBRANCH   6   7
ENDBRANCH   5   6
ENDBRANCH   4   5
ENDBRANCH   3   4
ENDBRANCH   2   3
TORSDOF 9
ENDMDL
MODEL      262
REMARK 921   NORMALIZED FREE ENERGY PREDICTED BY IDOCK:   -2.94 KCAL/MOL
REMARK 922        TOTAL FREE ENERGY PREDICTED BY IDOCK:   -5.60 KCAL/MOL
REMARK 923 INTER-LIGAND FREE ENERGY PREDICTED BY IDOCK:   -4.34 KCAL/MOL
REMARK 924 INTRA-LIGAND FREE ENERGY PREDICTED BY IDOCK:   -1.25 KCAL/MOL
REMARK 927      BINDING AFFINITY PREDICTED BY RF-SCORE:    0.00 PKD
ROOT
HETATM    1  C   UNL     1     -12.546  12.160  64.127  1.00  0.00    -0.466 C  
HETATM    2  C   UNL     1     -12.514  13.207  65.227  1.00  0.00    -0.550 C  
ENDROOT
BRANCH   2   3
HETATM    3  C   UNL     1     -11.637  14.393  64.835  1.00  0.00    -0.395 C  
BRANCH   3   4
HETATM    4  C   UNL     1     -11.223  15.194  66.066  1.00  0.00    -0.275 C  
BRANCH   4   5
HETATM    5  C   UNL     1     -11.613  14.463  67.346  1.00  0.00    -0.398 C  
BRANCH   5   6
HETATM    6  C   UNL     1     -10.424  14.356  68.298  1.00  0.00    -0.245 C  
BRANCH   6   7
HETATM    7  C   UNL     1      -9.966  12.908  68.415  1.00  0.00    -0.211 C  
BRANCH   7   8
HETATM    8  C   UNL     1      -8.929  12.565  67.343  1.00  0.00    -0.188 C  
BRANCH   8   9
HETATM    9  C   UNL     1      -8.799  11.074  67.166  1.00  0.00    -0.140 A  
HETATM   10  C   UNL     1      -9.836  10.354  66.565  1.00  0.00    -0.256 A  
HETATM   11  C   UNL     1      -9.760   8.970  66.448  1.00  0.00    -0.337 A  
HETATM   12  C   UNL     1      -8.629   8.273  66.886  1.00  0.00    -0.122 A  
HETATM   13  C   UNL     1      -7.669  10.387  67.616  1.00  0.00    -0.093 A  
HETATM   14  C   UNL     1      -7.585   9.000  67.475  1.00  0.00    -0.089 A  
BRANCH  12  15
HETATM   15  C   UNL     1      -8.546   6.763  66.822  1.00  0.00    -0.119 C  
BRANCH  15  16
HETATM   16  C   UNL     1      -7.368   6.240  65.983  1.00  0.00    -0.080 C  
HETATM   17  C   UNL     1      -6.961   4.756  66.152  1.00  0.00    -0.070 C  
HETATM   18  C   UNL     1      -5.730   4.508  65.232  1.00  0.00    -0.018 C  
HETATM   19  N   UNL     1      -6.553   4.464  67.553  1.00  0.00    -0.045 NA 
HETATM   20  C   UNL     1      -8.095   3.783  65.730  1.00  0.00    -0.093 C  
HETATM   21  O   UNL     1      -5.233   3.181  65.388  1.00  0.00    -0.008 OA 
HETATM   22  O   UNL     1      -9.230   3.880  66.586  1.00  0.00    -0.144 OA 
HETATM   23  H1  UNL     1      -6.284   3.486  67.665  1.00  0.00     0.000 HD 
HETATM   24  H2  UNL     1      -7.279   4.730  68.217  1.00  0.00     0.000 HD 
HETATM   25  H   UNL     1      -9.925   3.284  66.327  1.00  0.00     0.000 HD 
HETATM   26  H   UNL     1      -4.482   3.030  64.827  1.00  0.00     0.000 HD 
ENDBRANCH  15  16
ENDBRANCH  12  15
ENDBRANCH   8   9
ENDBRANCH   7   8
ENDBRANCH   6   7
ENDBRANCH   5   6
ENDBRANCH   4   5
ENDBRANCH   3   4
ENDBRANCH   2   3
TORSDOF 9
ENDMDL
MODEL      263
REMARK 921   NORMALIZED FREE ENERGY PREDICTED BY IDOCK:   -2.92 KCAL/MOL
REMARK 922        TOTAL FREE ENERGY PREDICTED BY IDOCK:   -5.56 KCAL/MOL
REMARK 923 INTER-LIGAND FREE ENERGY PREDICTED BY IDOCK:   -3.67 KCAL/MOL
REMARK 924 INTRA-LIGAND FREE ENERGY PREDICTED BY IDOCK:   -1.90 KCAL/MOL
REMARK 927      BINDING AFFINITY PREDICTED BY RF-SCORE:    0.00 PKD
ROOT
HETATM    1  C   UNL     1     -11.103   9.278  68.358  1.00  0.00     0.068 C  
HETATM    2  C   UNL     1     -11.063  10.784  68.546  1.00  0.00    -0.317 C  
ENDROOT
BRANCH   2   3
HETATM    3  C   UNL     1     -10.654  11.492  67.258  1.00  0.00    -0.266 C  
BRANCH   3   4
HETATM    4  C   UNL     1     -10.605  13.003  67.458  1.00  0.00    -0.237 C  
BRANCH   4   5
HETATM    5  C   UNL     1      -9.425  13.612  66.709  1.00  0.00    -0.275 C  
BRANCH   5   6
HETATM    6  C   UNL     1      -8.306  13.996  67.673  1.00  0.00    -0.191 C  
BRANCH   6   7
HETATM    7  C   UNL     1      -7.108  13.072  67.491  1.00  0.00    -0.158 C  
BRANCH   7   8
HETATM    8  C   UNL     1      -6.982  12.089  68.657  1.00  0.00    -0.096 C  
BRANCH   8   9
HETATM    9  C   UNL     1      -7.199  10.670  68.200  1.00  0.00    -0.086 A  
HETATM   10  C   UNL     1      -7.673   9.714  69.103  1.00  0.00    -0.087 A  
HETATM   11  C   UNL     1      -7.822   8.387  68.716  1.00  0.00    -0.115 A  
HETATM   12  C   UNL     1      -7.544   7.986  67.405  1.00  0.00    -0.097 A  
HETATM   13  C   UNL     1      -6.908  10.279  66.890  1.00  0.00    -0.086 A  
HETATM   14  C   UNL     1      -7.082   8.949  66.497  1.00  0.00    -0.084 A  
BRANCH  12  15
HETATM   15  C   UNL     1      -7.643   6.539  66.973  1.00  0.00    -0.095 C  
BRANCH  15  16
HETATM   16  C   UNL     1      -9.085   6.051  66.754  1.00  0.00    -0.134 C  
HETATM   17  C   UNL     1      -9.325   4.947  65.696  1.00  0.00    -0.161 C  
HETATM   18  C   UNL     1     -10.857   4.679  65.649  1.00  0.00    -0.055 C  
HETATM   19  N   UNL     1      -8.895   5.393  64.343  1.00  0.00    -0.345 NA 
HETATM   20  C   UNL     1      -8.603   3.620  66.057  1.00  0.00    -0.115 C  
HETATM   21  O   UNL     1     -11.179   3.729  64.635  1.00  0.00    -0.670 OA 
HETATM   22  O   UNL     1      -7.185   3.757  66.030  1.00  0.00    -0.068 OA 
HETATM   23  H1  UNL     1      -9.053   4.665  63.645  1.00  0.00     0.000 HD 
HETATM   24  H2  UNL     1      -7.925   5.707  64.343  1.00  0.00     0.000 HD 
HETATM   25  H   UNL     1      -6.743   2.944  66.251  1.00  0.00     0.000 HD 
HETATM   26  H   UNL     1     -12.114   3.565  64.606  1.00  0.00     0.000 HD 
ENDBRANCH  15  16
ENDBRANCH  12  15
ENDBRANCH   8   9
ENDBRANCH   7   8
ENDBRANCH   6   7
ENDBRANCH   5   6
ENDBRANCH   4   5
ENDBRANCH   3   4
ENDBRANCH   2   3
TORSDOF 9
ENDMDL
MODEL      264
REMARK 921   NORMALIZED FREE ENERGY PREDICTED BY IDOCK:   -2.91 KCAL/MOL
REMARK 922        TOTAL FREE ENERGY PREDICTED BY IDOCK:   -5.55 KCAL/MOL
REMARK 923 INTER-LIGAND FREE ENERGY PREDICTED BY IDOCK:   -4.38 KCAL/MOL
REMARK 924 INTRA-LIGAND FREE ENERGY PREDICTED BY IDOCK:   -1.17 KCAL/MOL
REMARK 927      BINDING AFFINITY PREDICTED BY RF-SCORE:    0.00 PKD
ROOT
HETATM    1  C   UNL     1     -12.233  14.274  64.815  1.00  0.00    -0.456 C  
HETATM    2  C   UNL     1     -12.041  14.056  66.305  1.00  0.00    -0.482 C  
ENDROOT
BRANCH   2   3
HETATM    3  C   UNL     1     -10.919  14.934  66.852  1.00  0.00    -0.327 C  
BRANCH   3   4
HETATM    4  C   UNL     1     -10.188  15.651  65.721  1.00  0.00    -0.391 C  
BRANCH   4   5
HETATM    5  C   UNL     1      -8.786  16.064  66.158  1.00  0.00    -0.366 C  
BRANCH   5   6
HETATM    6  C   UNL     1      -8.357  15.302  67.408  1.00  0.00    -0.202 C  
BRANCH   6   7
HETATM    7  C   UNL     1      -6.842  15.139  67.436  1.00  0.00    -0.166 C  
BRANCH   7   8
HETATM    8  C   UNL     1      -6.397  14.279  68.621  1.00  0.00    -0.088 C  
BRANCH   8   9
HETATM    9  C   UNL     1      -6.633  12.815  68.353  1.00  0.00    -0.083 A  
HETATM   10  C   UNL     1      -6.282  12.270  67.115  1.00  0.00    -0.118 A  
HETATM   11  C   UNL     1      -6.548  10.936  66.828  1.00  0.00    -0.116 A  
HETATM   12  C   UNL     1      -7.131  10.098  67.784  1.00  0.00    -0.086 A  
HETATM   13  C   UNL     1      -7.226  11.990  69.313  1.00  0.00     0.067 A  
HETATM   14  C   UNL     1      -7.471  10.644  69.030  1.00  0.00    -0.117 A  
BRANCH  12  15
HETATM   15  C   UNL     1      -7.484   8.659  67.478  1.00  0.00    -0.090 C  
BRANCH  15  16
HETATM   16  C   UNL     1      -7.153   8.229  66.039  1.00  0.00    -0.069 C  
HETATM   17  C   UNL     1      -8.332   7.889  65.095  1.00  0.00    -0.120 C  
HETATM   18  C   UNL     1      -7.719   7.448  63.733  1.00  0.00    -0.125 C  
HETATM   19  N   UNL     1      -9.138   6.756  65.623  1.00  0.00    -0.368 NA 
HETATM   20  C   UNL     1      -9.258   9.111  64.846  1.00  0.00    -0.068 C  
HETATM   21  O   UNL     1      -8.737   7.034  62.825  1.00  0.00    -0.335 OA 
HETATM   22  O   UNL     1      -9.934   9.521  66.031  1.00  0.00    -0.278 OA 
HETATM   23  H1  UNL     1      -9.915   6.532  65.001  1.00  0.00     0.000 HD 
HETATM   24  H2  UNL     1      -9.460   6.938  66.573  1.00  0.00     0.000 HD 
HETATM   25  H   UNL     1     -10.501  10.269  65.878  1.00  0.00     0.000 HD 
HETATM   26  H   UNL     1      -8.363   6.765  61.994  1.00  0.00     0.000 HD 
ENDBRANCH  15  16
ENDBRANCH  12  15
ENDBRANCH   8   9
ENDBRANCH   7   8
ENDBRANCH   6   7
ENDBRANCH   5   6
ENDBRANCH   4   5
ENDBRANCH   3   4
ENDBRANCH   2   3
TORSDOF 9
ENDMDL
MODEL      265
REMARK 921   NORMALIZED FREE ENERGY PREDICTED BY IDOCK:   -2.91 KCAL/MOL
REMARK 922        TOTAL FREE ENERGY PREDICTED BY IDOCK:   -5.55 KCAL/MOL
REMARK 923 INTER-LIGAND FREE ENERGY PREDICTED BY IDOCK:   -4.44 KCAL/MOL
REMARK 924 INTRA-LIGAND FREE ENERGY PREDICTED BY IDOCK:   -1.11 KCAL/MOL
REMARK 927      BINDING AFFINITY PREDICTED BY RF-SCORE:    0.00 PKD
ROOT
HETATM    1  C   UNL     1     -11.151   9.759  70.398  1.00  0.00    -0.367 C  
HETATM    2  C   UNL     1     -10.179   9.054  71.327  1.00  0.00    -0.384 C  
ENDROOT
BRANCH   2   3
HETATM    3  C   UNL     1      -9.530   7.854  70.643  1.00  0.00    -0.162 C  
BRANCH   3   4
HETATM    4  C   UNL     1     -10.583   6.836  70.215  1.00  0.00    -0.251 C  
BRANCH   4   5
HETATM    5  C   UNL     1     -10.888   6.963  68.727  1.00  0.00    -0.238 C  
BRANCH   5   6
HETATM    6  C   UNL     1      -9.725   6.443  67.885  1.00  0.00    -0.124 C  
BRANCH   6   7
HETATM    7  C   UNL     1      -8.940   7.605  67.289  1.00  0.00    -0.134 C  
BRANCH   7   8
HETATM    8  C   UNL     1      -9.871   8.739  66.853  1.00  0.00    -0.295 C  
BRANCH   8   9
HETATM    9  C   UNL     1      -9.269  10.087  67.154  1.00  0.00    -0.161 A  
HETATM   10  C   UNL     1     -10.094  11.145  67.545  1.00  0.00    -0.210 A  
HETATM   11  C   UNL     1      -9.563  12.411  67.768  1.00  0.00    -0.202 A  
HETATM   12  C   UNL     1      -8.189  12.644  67.651  1.00  0.00    -0.174 A  
HETATM   13  C   UNL     1      -7.895  10.311  67.024  1.00  0.00    -0.107 A  
HETATM   14  C   UNL     1      -7.361  11.578  67.272  1.00  0.00    -0.131 A  
BRANCH  12  15
HETATM   15  C   UNL     1      -7.594  14.024  67.832  1.00  0.00    -0.159 C  
BRANCH  15  16
HETATM   16  C   UNL     1      -8.504  15.163  67.344  1.00  0.00    -0.202 C  
HETATM   17  C   UNL     1      -8.515  16.481  68.155  1.00  0.00    -0.191 C  
HETATM   18  C   UNL     1      -9.541  17.433  67.475  1.00  0.00    -0.257 C  
HETATM   19  N   UNL     1      -8.961  16.250  69.555  1.00  0.00    -0.054 NA 
HETATM   20  C   UNL     1      -7.126  17.179  68.164  1.00  0.00    -0.180 C  
HETATM   21  O   UNL     1      -9.678  18.648  68.210  1.00  0.00    -0.320 OA 
HETATM   22  O   UNL     1      -6.145  16.411  68.855  1.00  0.00    -0.132 OA 
HETATM   23  H1  UNL     1      -8.969  17.119  70.091  1.00  0.00     0.000 HD 
HETATM   24  H2  UNL     1      -8.400  15.533  70.014  1.00  0.00     0.000 HD 
HETATM   25  H   UNL     1      -5.296  16.837  68.860  1.00  0.00     0.000 HD 
HETATM   26  H   UNL     1     -10.304  19.229  67.795  1.00  0.00     0.000 HD 
ENDBRANCH  15  16
ENDBRANCH  12  15
ENDBRANCH   8   9
ENDBRANCH   7   8
ENDBRANCH   6   7
ENDBRANCH   5   6
ENDBRANCH   4   5
ENDBRANCH   3   4
ENDBRANCH   2   3
TORSDOF 9
ENDMDL
MODEL      266
REMARK 921   NORMALIZED FREE ENERGY PREDICTED BY IDOCK:   -2.89 KCAL/MOL
REMARK 922        TOTAL FREE ENERGY PREDICTED BY IDOCK:   -5.53 KCAL/MOL
REMARK 923 INTER-LIGAND FREE ENERGY PREDICTED BY IDOCK:   -4.76 KCAL/MOL
REMARK 924 INTRA-LIGAND FREE ENERGY PREDICTED BY IDOCK:   -0.76 KCAL/MOL
REMARK 927      BINDING AFFINITY PREDICTED BY RF-SCORE:    0.00 PKD
ROOT
HETATM    1  C   UNL     1     -10.959   2.527  63.085  1.00  0.00    -0.230 C  
HETATM    2  C   UNL     1     -10.206   3.812  63.377  1.00  0.00    -0.202 C  
ENDROOT
BRANCH   2   3
HETATM    3  C   UNL     1      -9.968   3.986  64.874  1.00  0.00    -0.211 C  
BRANCH   3   4
HETATM    4  C   UNL     1      -9.021   5.151  65.144  1.00  0.00    -0.129 C  
BRANCH   4   5
HETATM    5  C   UNL     1      -8.466   5.082  66.562  1.00  0.00    -0.110 C  
BRANCH   5   6
HETATM    6  C   UNL     1      -8.157   6.478  67.097  1.00  0.00    -0.113 C  
BRANCH   6   7
HETATM    7  C   UNL     1      -8.857   6.702  68.432  1.00  0.00    -0.121 C  
BRANCH   7   8
HETATM    8  C   UNL     1     -10.333   7.054  68.233  1.00  0.00    -0.223 C  
BRANCH   8   9
HETATM    9  C   UNL     1     -10.540   8.546  68.207  1.00  0.00    -0.173 A  
HETATM   10  C   UNL     1     -10.197   9.275  67.065  1.00  0.00    -0.331 A  
HETATM   11  C   UNL     1     -10.325  10.660  67.045  1.00  0.00    -0.280 A  
HETATM   12  C   UNL     1     -10.838  11.350  68.148  1.00  0.00    -0.259 A  
HETATM   13  C   UNL     1     -11.044   9.226  69.319  1.00  0.00    -0.031 A  
HETATM   14  C   UNL     1     -11.194  10.615  69.288  1.00  0.00    -0.332 A  
BRANCH  12  15
HETATM   15  C   UNL     1     -10.933  12.860  68.173  1.00  0.00    -0.273 C  
BRANCH  15  16
HETATM   16  C   UNL     1     -12.059  13.398  69.072  1.00  0.00    -0.299 C  
HETATM   17  C   UNL     1     -11.762  14.645  69.940  1.00  0.00    -0.299 C  
HETATM   18  C   UNL     1     -13.043  14.943  70.772  1.00  0.00    -0.348 C  
HETATM   19  N   UNL     1     -10.646  14.388  70.890  1.00  0.00     0.310 NA 
HETATM   20  C   UNL     1     -11.431  15.895  69.079  1.00  0.00    -0.380 C  
HETATM   21  O   UNL     1     -12.829  16.032  71.667  1.00  0.00    -0.513 OA 
HETATM   22  O   UNL     1     -10.214  15.740  68.354  1.00  0.00    -0.218 OA 
HETATM   23  H1  UNL     1     -10.450  15.209  71.462  1.00  0.00     0.000 HD 
HETATM   24  H2  UNL     1      -9.811  14.061  70.406  1.00  0.00     0.000 HD 
HETATM   25  H   UNL     1     -10.012  16.505  67.827  1.00  0.00     0.000 HD 
HETATM   26  H   UNL     1     -13.610  16.215  72.175  1.00  0.00     0.000 HD 
ENDBRANCH  15  16
ENDBRANCH  12  15
ENDBRANCH   8   9
ENDBRANCH   7   8
ENDBRANCH   6   7
ENDBRANCH   5   6
ENDBRANCH   4   5
ENDBRANCH   3   4
ENDBRANCH   2   3
TORSDOF 9
ENDMDL
MODEL      267
REMARK 921   NORMALIZED FREE ENERGY PREDICTED BY IDOCK:   -2.89 KCAL/MOL
REMARK 922        TOTAL FREE ENERGY PREDICTED BY IDOCK:   -5.52 KCAL/MOL
REMARK 923 INTER-LIGAND FREE ENERGY PREDICTED BY IDOCK:   -3.82 KCAL/MOL
REMARK 924 INTRA-LIGAND FREE ENERGY PREDICTED BY IDOCK:   -1.70 KCAL/MOL
REMARK 927      BINDING AFFINITY PREDICTED BY RF-SCORE:    0.00 PKD
ROOT
HETATM    1  C   UNL     1     -11.995   6.780  71.349  1.00  0.00    -0.403 C  
HETATM    2  C   UNL     1     -12.166   8.161  71.956  1.00  0.00    -0.385 C  
ENDROOT
BRANCH   2   3
HETATM    3  C   UNL     1     -10.816   8.839  72.174  1.00  0.00    -0.400 C  
BRANCH   3   4
HETATM    4  C   UNL     1      -9.680   7.823  72.115  1.00  0.00    -0.240 C  
BRANCH   4   5
HETATM    5  C   UNL     1      -8.596   8.163  73.132  1.00  0.00    -0.299 C  
BRANCH   5   6
HETATM    6  C   UNL     1      -8.733   7.302  74.385  1.00  0.00    -0.242 C  
BRANCH   6   7
HETATM    7  C   UNL     1      -7.817   6.088  74.298  1.00  0.00    -0.096 C  
BRANCH   7   8
HETATM    8  C   UNL     1      -8.612   4.809  74.027  1.00  0.00    -0.105 C  
BRANCH   8   9
HETATM    9  C   UNL     1      -8.643   4.486  72.556  1.00  0.00    -0.115 A  
HETATM   10  C   UNL     1      -7.560   4.836  71.745  1.00  0.00    -0.095 A  
HETATM   11  C   UNL     1      -7.596   4.601  70.375  1.00  0.00    -0.054 A  
HETATM   12  C   UNL     1      -8.695   3.969  69.784  1.00  0.00    -0.120 A  
HETATM   13  C   UNL     1      -9.751   3.863  71.975  1.00  0.00    -0.232 A  
HETATM   14  C   UNL     1      -9.775   3.606  70.601  1.00  0.00    -0.215 A  
BRANCH  12  15
HETATM   15  C   UNL     1      -8.784   3.753  68.289  1.00  0.00    -0.130 C  
BRANCH  15  16
HETATM   16  C   UNL     1      -9.196   5.008  67.502  1.00  0.00    -0.129 C  
HETATM   17  C   UNL     1      -8.132   5.681  66.601  1.00  0.00    -0.105 C  
HETATM   18  C   UNL     1      -8.795   6.938  65.965  1.00  0.00    -0.136 C  
HETATM   19  N   UNL     1      -6.959   6.133  67.396  1.00  0.00    -0.067 NA 
HETATM   20  C   UNL     1      -7.652   4.745  65.458  1.00  0.00    -0.085 C  
HETATM   21  O   UNL     1      -7.855   7.669  65.180  1.00  0.00    -0.108 OA 
HETATM   22  O   UNL     1      -6.948   3.610  65.954  1.00  0.00    -0.059 OA 
HETATM   23  H1  UNL     1      -6.257   6.577  66.803  1.00  0.00     0.000 HD 
HETATM   24  H2  UNL     1      -6.559   5.370  67.941  1.00  0.00     0.000 HD 
HETATM   25  H   UNL     1      -6.655   3.037  65.254  1.00  0.00     0.000 HD 
HETATM   26  H   UNL     1      -8.259   8.437  64.792  1.00  0.00     0.000 HD 
ENDBRANCH  15  16
ENDBRANCH  12  15
ENDBRANCH   8   9
ENDBRANCH   7   8
ENDBRANCH   6   7
ENDBRANCH   5   6
ENDBRANCH   4   5
ENDBRANCH   3   4
ENDBRANCH   2   3
TORSDOF 9
ENDMDL
MODEL      268
REMARK 921   NORMALIZED FREE ENERGY PREDICTED BY IDOCK:   -2.87 KCAL/MOL
REMARK 922        TOTAL FREE ENERGY PREDICTED BY IDOCK:   -5.49 KCAL/MOL
REMARK 923 INTER-LIGAND FREE ENERGY PREDICTED BY IDOCK:   -4.72 KCAL/MOL
REMARK 924 INTRA-LIGAND FREE ENERGY PREDICTED BY IDOCK:   -0.77 KCAL/MOL
REMARK 927      BINDING AFFINITY PREDICTED BY RF-SCORE:    0.00 PKD
ROOT
HETATM    1  C   UNL     1     -10.857   3.571  73.432  1.00  0.00    -0.312 C  
HETATM    2  C   UNL     1     -10.845   5.040  73.048  1.00  0.00    -0.334 C  
ENDROOT
BRANCH   2   3
HETATM    3  C   UNL     1     -10.187   5.251  71.687  1.00  0.00    -0.274 C  
BRANCH   3   4
HETATM    4  C   UNL     1      -9.295   6.488  71.699  1.00  0.00    -0.147 C  
BRANCH   4   5
HETATM    5  C   UNL     1      -9.963   7.632  72.454  1.00  0.00    -0.256 C  
BRANCH   5   6
HETATM    6  C   UNL     1      -9.709   8.967  71.760  1.00  0.00    -0.365 C  
BRANCH   6   7
HETATM    7  C   UNL     1     -11.023   9.700  71.522  1.00  0.00    -0.266 C  
BRANCH   7   8
HETATM    8  C   UNL     1     -11.510   9.516  70.082  1.00  0.00    -0.205 C  
BRANCH   8   9
HETATM    9  C   UNL     1     -11.167  10.712  69.233  1.00  0.00    -0.332 A  
HETATM   10  C   UNL     1      -9.889  10.828  68.681  1.00  0.00    -0.187 A  
HETATM   11  C   UNL     1      -9.536  11.954  67.945  1.00  0.00    -0.194 A  
HETATM   12  C   UNL     1     -10.462  12.973  67.702  1.00  0.00    -0.228 A  
HETATM   13  C   UNL     1     -12.099  11.729  69.006  1.00  0.00    -0.276 A  
HETATM   14  C   UNL     1     -11.749  12.848  68.246  1.00  0.00    -0.390 A  
BRANCH  12  15
HETATM   15  C   UNL     1     -10.087  14.234  66.954  1.00  0.00    -0.264 C  
BRANCH  15  16
HETATM   16  C   UNL     1     -10.710  15.513  67.538  1.00  0.00    -0.300 C  
HETATM   17  C   UNL     1      -9.980  16.202  68.716  1.00  0.00    -0.231 C  
HETATM   18  C   UNL     1     -10.839  17.431  69.135  1.00  0.00     0.117 C  
HETATM   19  N   UNL     1      -9.874  15.295  69.891  1.00  0.00    -0.457 NA 
HETATM   20  C   UNL     1      -8.564  16.703  68.319  1.00  0.00    -0.212 C  
HETATM   21  O   UNL     1     -10.281  18.080  70.275  1.00  0.00     0.512 OA 
HETATM   22  O   UNL     1      -7.682  15.627  68.011  1.00  0.00    -0.120 OA 
HETATM   23  H1  UNL     1      -9.393  15.749  70.668  1.00  0.00     0.000 HD 
HETATM   24  H2  UNL     1      -9.430  14.411  69.642  1.00  0.00     0.000 HD 
HETATM   25  H   UNL     1      -6.816  15.933  67.768  1.00  0.00     0.000 HD 
HETATM   26  H   UNL     1     -10.805  18.830  70.531  1.00  0.00     0.000 HD 
ENDBRANCH  15  16
ENDBRANCH  12  15
ENDBRANCH   8   9
ENDBRANCH   7   8
ENDBRANCH   6   7
ENDBRANCH   5   6
ENDBRANCH   4   5
ENDBRANCH   3   4
ENDBRANCH   2   3
TORSDOF 9
ENDMDL
MODEL      269
REMARK 921   NORMALIZED FREE ENERGY PREDICTED BY IDOCK:   -2.87 KCAL/MOL
REMARK 922        TOTAL FREE ENERGY PREDICTED BY IDOCK:   -5.49 KCAL/MOL
REMARK 923 INTER-LIGAND FREE ENERGY PREDICTED BY IDOCK:   -4.75 KCAL/MOL
REMARK 924 INTRA-LIGAND FREE ENERGY PREDICTED BY IDOCK:   -0.74 KCAL/MOL
REMARK 927      BINDING AFFINITY PREDICTED BY RF-SCORE:    0.00 PKD
ROOT
HETATM    1  C   UNL     1     -10.969  14.230  68.228  1.00  0.00    -0.261 C  
HETATM    2  C   UNL     1     -12.126  13.347  68.662  1.00  0.00    -0.281 C  
ENDROOT
BRANCH   2   3
HETATM    3  C   UNL     1     -11.735  11.872  68.637  1.00  0.00    -0.380 C  
BRANCH   3   4
HETATM    4  C   UNL     1     -10.243  11.699  68.904  1.00  0.00    -0.143 C  
BRANCH   4   5
HETATM    5  C   UNL     1      -9.919  10.252  69.259  1.00  0.00    -0.244 C  
BRANCH   5   6
HETATM    6  C   UNL     1     -11.173   9.506  69.707  1.00  0.00    -0.173 C  
BRANCH   6   7
HETATM    7  C   UNL     1     -11.231   9.431  71.227  1.00  0.00    -0.437 C  
BRANCH   7   8
HETATM    8  C   UNL     1      -9.995   8.729  71.796  1.00  0.00    -0.396 C  
BRANCH   8   9
HETATM    9  C   UNL     1      -9.671   7.480  71.019  1.00  0.00    -0.170 A  
HETATM   10  C   UNL     1      -8.395   7.313  70.473  1.00  0.00    -0.133 A  
HETATM   11  C   UNL     1      -8.096   6.195  69.702  1.00  0.00    -0.112 A  
HETATM   12  C   UNL     1      -9.048   5.192  69.493  1.00  0.00    -0.145 A  
HETATM   13  C   UNL     1     -10.633   6.488  70.808  1.00  0.00    -0.278 A  
HETATM   14  C   UNL     1     -10.322   5.354  70.053  1.00  0.00    -0.366 A  
BRANCH  12  15
HETATM   15  C   UNL     1      -8.766   3.994  68.612  1.00  0.00    -0.130 C  
BRANCH  15  16
HETATM   16  C   UNL     1      -9.595   3.966  67.317  1.00  0.00    -0.222 C  
HETATM   17  C   UNL     1      -8.902   4.398  66.002  1.00  0.00    -0.119 C  
HETATM   18  C   UNL     1      -9.968   4.318  64.871  1.00  0.00    -0.168 C  
HETATM   19  N   UNL     1      -8.422   5.804  66.081  1.00  0.00    -0.125 NA 
HETATM   20  C   UNL     1      -7.716   3.467  65.628  1.00  0.00    -0.078 C  
HETATM   21  O   UNL     1      -9.435   4.782  63.632  1.00  0.00    -0.346 OA 
HETATM   22  O   UNL     1      -6.650   3.552  66.570  1.00  0.00    -0.039 OA 
HETATM   23  H1  UNL     1      -7.964   6.089  65.215  1.00  0.00     0.000 HD 
HETATM   24  H2  UNL     1      -7.815   5.947  66.889  1.00  0.00     0.000 HD 
HETATM   25  H   UNL     1      -5.924   2.982  66.341  1.00  0.00     0.000 HD 
HETATM   26  H   UNL     1     -10.085   4.733  62.941  1.00  0.00     0.000 HD 
ENDBRANCH  15  16
ENDBRANCH  12  15
ENDBRANCH   8   9
ENDBRANCH   7   8
ENDBRANCH   6   7
ENDBRANCH   5   6
ENDBRANCH   4   5
ENDBRANCH   3   4
ENDBRANCH   2   3
TORSDOF 9
ENDMDL
MODEL      270
REMARK 921   NORMALIZED FREE ENERGY PREDICTED BY IDOCK:   -2.86 KCAL/MOL
REMARK 922        TOTAL FREE ENERGY PREDICTED BY IDOCK:   -5.48 KCAL/MOL
REMARK 923 INTER-LIGAND FREE ENERGY PREDICTED BY IDOCK:   -4.55 KCAL/MOL
REMARK 924 INTRA-LIGAND FREE ENERGY PREDICTED BY IDOCK:   -0.93 KCAL/MOL
REMARK 927      BINDING AFFINITY PREDICTED BY RF-SCORE:    0.00 PKD
ROOT
HETATM    1  C   UNL     1     -10.347  20.007  66.266  1.00  0.00    -0.570 C  
HETATM    2  C   UNL     1     -10.763  19.000  67.323  1.00  0.00    -0.556 C  
ENDROOT
BRANCH   2   3
HETATM    3  C   UNL     1      -9.555  18.475  68.093  1.00  0.00    -0.353 C  
BRANCH   3   4
HETATM    4  C   UNL     1      -9.549  16.950  68.126  1.00  0.00    -0.255 C  
BRANCH   4   5
HETATM    5  C   UNL     1     -10.652  16.384  67.238  1.00  0.00    -0.293 C  
BRANCH   5   6
HETATM    6  C   UNL     1     -11.696  15.644  68.068  1.00  0.00    -0.162 C  
BRANCH   6   7
HETATM    7  C   UNL     1     -11.044  14.991  69.281  1.00  0.00    -0.280 C  
BRANCH   7   8
HETATM    8  C   UNL     1     -11.792  13.722  69.698  1.00  0.00    -0.393 C  
BRANCH   8   9
HETATM    9  C   UNL     1     -11.130  12.489  69.140  1.00  0.00    -0.254 A  
HETATM   10  C   UNL     1      -9.743  12.461  68.974  1.00  0.00     0.292 A  
HETATM   11  C   UNL     1      -9.121  11.355  68.404  1.00  0.00    -0.179 A  
HETATM   12  C   UNL     1      -9.862  10.231  68.025  1.00  0.00    -0.171 A  
HETATM   13  C   UNL     1     -11.882  11.376  68.755  1.00  0.00    -0.388 A  
HETATM   14  C   UNL     1     -11.252  10.257  68.205  1.00  0.00    -0.294 A  
BRANCH  12  15
HETATM   15  C   UNL     1      -9.218   9.039  67.350  1.00  0.00    -0.158 C  
BRANCH  15  16
HETATM   16  C   UNL     1      -8.053   8.427  68.146  1.00  0.00    -0.120 C  
HETATM   17  C   UNL     1      -7.469   7.080  67.657  1.00  0.00    -0.098 C  
HETATM   18  C   UNL     1      -6.348   6.673  68.657  1.00  0.00    -0.031 C  
HETATM   19  N   UNL     1      -8.501   6.008  67.665  1.00  0.00    -0.108 NA 
HETATM   20  C   UNL     1      -6.847   7.189  66.238  1.00  0.00    -0.057 C  
HETATM   21  O   UNL     1      -5.808   5.395  68.328  1.00  0.00    -0.015 OA 
HETATM   22  O   UNL     1      -7.828   7.468  65.243  1.00  0.00    -0.104 OA 
HETATM   23  H1  UNL     1      -8.116   5.120  67.342  1.00  0.00     0.000 HD 
HETATM   24  H2  UNL     1      -9.323   6.278  67.125  1.00  0.00     0.000 HD 
HETATM   25  H   UNL     1      -7.448   7.534  64.374  1.00  0.00     0.000 HD 
HETATM   26  H   UNL     1      -5.124   5.147  68.939  1.00  0.00     0.000 HD 
ENDBRANCH  15  16
ENDBRANCH  12  15
ENDBRANCH   8   9
ENDBRANCH   7   8
ENDBRANCH   6   7
ENDBRANCH   5   6
ENDBRANCH   4   5
ENDBRANCH   3   4
ENDBRANCH   2   3
TORSDOF 9
ENDMDL
MODEL      271
REMARK 921   NORMALIZED FREE ENERGY PREDICTED BY IDOCK:   -2.82 KCAL/MOL
REMARK 922        TOTAL FREE ENERGY PREDICTED BY IDOCK:   -5.42 KCAL/MOL
REMARK 923 INTER-LIGAND FREE ENERGY PREDICTED BY IDOCK:   -3.87 KCAL/MOL
REMARK 924 INTRA-LIGAND FREE ENERGY PREDICTED BY IDOCK:   -1.55 KCAL/MOL
REMARK 927      BINDING AFFINITY PREDICTED BY RF-SCORE:    0.00 PKD
ROOT
HETATM    1  C   UNL     1     -11.928   6.935  71.486  1.00  0.00    -0.386 C  
HETATM    2  C   UNL     1     -11.962   8.200  72.324  1.00  0.00    -0.434 C  
ENDROOT
BRANCH   2   3
HETATM    3  C   UNL     1     -10.612   8.912  72.305  1.00  0.00    -0.221 C  
BRANCH   3   4
HETATM    4  C   UNL     1      -9.575   8.093  71.544  1.00  0.00    -0.226 C  
BRANCH   4   5
HETATM    5  C   UNL     1      -8.172   8.361  72.079  1.00  0.00    -0.212 C  
BRANCH   5   6
HETATM    6  C   UNL     1      -7.674   7.187  72.918  1.00  0.00    -0.095 C  
BRANCH   6   7
HETATM    7  C   UNL     1      -6.909   6.199  72.047  1.00  0.00    -0.072 C  
BRANCH   7   8
HETATM    8  C   UNL     1      -7.745   4.950  71.758  1.00  0.00    -0.102 C  
BRANCH   8   9
HETATM    9  C   UNL     1      -8.318   4.987  70.365  1.00  0.00    -0.100 A  
HETATM   10  C   UNL     1      -7.595   5.589  69.332  1.00  0.00    -0.078 A  
HETATM   11  C   UNL     1      -8.135   5.685  68.054  1.00  0.00    -0.097 A  
HETATM   12  C   UNL     1      -9.391   5.145  67.762  1.00  0.00    -0.138 A  
HETATM   13  C   UNL     1      -9.579   4.452  70.088  1.00  0.00    -0.263 A  
HETATM   14  C   UNL     1     -10.109   4.530  68.797  1.00  0.00    -0.033 A  
BRANCH  12  15
HETATM   15  C   UNL     1     -10.025   5.287  66.395  1.00  0.00    -0.227 C  
BRANCH  15  16
HETATM   16  C   UNL     1      -9.011   5.334  65.241  1.00  0.00    -0.130 C  
HETATM   17  C   UNL     1      -8.803   4.048  64.405  1.00  0.00    -0.129 C  
HETATM   18  C   UNL     1      -7.705   4.359  63.346  1.00  0.00    -0.073 C  
HETATM   19  N   UNL     1      -8.319   2.925  65.253  1.00  0.00    -0.091 NA 
HETATM   20  C   UNL     1     -10.096   3.614  63.661  1.00  0.00    -0.199 C  
HETATM   21  O   UNL     1      -7.388   3.197  62.582  1.00  0.00    -0.049 OA 
HETATM   22  O   UNL     1     -11.127   3.221  64.563  1.00  0.00    -0.514 OA 
HETATM   23  H1  UNL     1      -8.182   2.077  64.702  1.00  0.00     0.000 HD 
HETATM   24  H2  UNL     1      -8.939   2.761  66.045  1.00  0.00     0.000 HD 
HETATM   25  H   UNL     1     -11.918   2.955  64.108  1.00  0.00     0.000 HD 
HETATM   26  H   UNL     1      -6.718   3.386  61.936  1.00  0.00     0.000 HD 
ENDBRANCH  15  16
ENDBRANCH  12  15
ENDBRANCH   8   9
ENDBRANCH   7   8
ENDBRANCH   6   7
ENDBRANCH   5   6
ENDBRANCH   4   5
ENDBRANCH   3   4
ENDBRANCH   2   3
TORSDOF 9
ENDMDL
MODEL      272
REMARK 921   NORMALIZED FREE ENERGY PREDICTED BY IDOCK:   -2.81 KCAL/MOL
REMARK 922        TOTAL FREE ENERGY PREDICTED BY IDOCK:   -5.40 KCAL/MOL
REMARK 923 INTER-LIGAND FREE ENERGY PREDICTED BY IDOCK:   -4.33 KCAL/MOL
REMARK 924 INTRA-LIGAND FREE ENERGY PREDICTED BY IDOCK:   -1.07 KCAL/MOL
REMARK 927      BINDING AFFINITY PREDICTED BY RF-SCORE:    0.00 PKD
ROOT
HETATM    1  C   UNL     1     -10.260  11.234  63.685  1.00  0.00    -0.446 C  
HETATM    2  C   UNL     1     -10.711  11.735  65.045  1.00  0.00    -0.344 C  
ENDROOT
BRANCH   2   3
HETATM    3  C   UNL     1     -10.381  10.728  66.143  1.00  0.00    -0.300 C  
BRANCH   3   4
HETATM    4  C   UNL     1      -8.883  10.441  66.186  1.00  0.00    -0.172 C  
BRANCH   4   5
HETATM    5  C   UNL     1      -8.104  11.688  66.590  1.00  0.00    -0.121 C  
BRANCH   5   6
HETATM    6  C   UNL     1      -6.600  11.432  66.540  1.00  0.00    -0.071 C  
BRANCH   6   7
HETATM    7  C   UNL     1      -5.986  11.608  67.923  1.00  0.00    -0.047 C  
BRANCH   7   8
HETATM    8  C   UNL     1      -5.315  10.318  68.402  1.00  0.00    -0.034 C  
BRANCH   8   9
HETATM    9  C   UNL     1      -6.066   9.709  69.557  1.00  0.00    -0.040 A  
HETATM   10  C   UNL     1      -7.460   9.803  69.607  1.00  0.00    -0.113 A  
HETATM   11  C   UNL     1      -8.165   9.300  70.695  1.00  0.00    -0.224 A  
HETATM   12  C   UNL     1      -7.502   8.650  71.741  1.00  0.00    -0.114 A  
HETATM   13  C   UNL     1      -5.393   9.070  70.602  1.00  0.00    -0.027 A  
HETATM   14  C   UNL     1      -6.105   8.544  71.683  1.00  0.00    -0.051 A  
BRANCH  12  15
HETATM   15  C   UNL     1      -8.239   8.145  72.963  1.00  0.00    -0.248 C  
BRANCH  15  16
HETATM   16  C   UNL     1      -8.868   6.754  72.780  1.00  0.00    -0.132 C  
HETATM   17  C   UNL     1     -10.386   6.604  73.042  1.00  0.00    -0.222 C  
HETATM   18  C   UNL     1     -10.745   5.104  72.828  1.00  0.00    -0.241 C  
HETATM   19  N   UNL     1     -10.731   6.963  74.443  1.00  0.00    -0.381 NA 
HETATM   20  C   UNL     1     -11.239   7.458  72.064  1.00  0.00    -0.251 C  
HETATM   21  O   UNL     1     -12.117   4.859  73.132  1.00  0.00    -0.405 OA 
HETATM   22  O   UNL     1     -11.039   8.856  72.259  1.00  0.00    -0.339 OA 
HETATM   23  H1  UNL     1     -11.732   6.865  74.616  1.00  0.00     0.000 HD 
HETATM   24  H2  UNL     1     -10.400   7.898  74.682  1.00  0.00     0.000 HD 
HETATM   25  H   UNL     1     -11.561   9.378  71.661  1.00  0.00     0.000 HD 
HETATM   26  H   UNL     1     -12.336   3.943  73.002  1.00  0.00     0.000 HD 
ENDBRANCH  15  16
ENDBRANCH  12  15
ENDBRANCH   8   9
ENDBRANCH   7   8
ENDBRANCH   6   7
ENDBRANCH   5   6
ENDBRANCH   4   5
ENDBRANCH   3   4
ENDBRANCH   2   3
TORSDOF 9
ENDMDL
MODEL      273
REMARK 921   NORMALIZED FREE ENERGY PREDICTED BY IDOCK:   -2.77 KCAL/MOL
REMARK 922        TOTAL FREE ENERGY PREDICTED BY IDOCK:   -5.34 KCAL/MOL
REMARK 923 INTER-LIGAND FREE ENERGY PREDICTED BY IDOCK:   -5.40 KCAL/MOL
REMARK 924 INTRA-LIGAND FREE ENERGY PREDICTED BY IDOCK:    0.06 KCAL/MOL
REMARK 927      BINDING AFFINITY PREDICTED BY RF-SCORE:    0.00 PKD
ROOT
HETATM    1  C   UNL     1      -8.379   8.364  73.609  1.00  0.00    -0.175 C  
HETATM    2  C   UNL     1      -7.974   7.093  72.884  1.00  0.00    -0.114 C  
ENDROOT
BRANCH   2   3
HETATM    3  C   UNL     1      -7.599   7.380  71.433  1.00  0.00    -0.082 C  
BRANCH   3   4
HETATM    4  C   UNL     1      -8.839   7.699  70.603  1.00  0.00    -0.145 C  
BRANCH   4   5
HETATM    5  C   UNL     1      -8.450   8.296  69.255  1.00  0.00    -0.126 C  
BRANCH   5   6
HETATM    6  C   UNL     1      -8.788   7.338  68.115  1.00  0.00    -0.126 C  
BRANCH   6   7
HETATM    7  C   UNL     1      -7.512   6.813  67.469  1.00  0.00    -0.097 C  
BRANCH   7   8
HETATM    8  C   UNL     1      -6.809   7.905  66.659  1.00  0.00    -0.071 C  
BRANCH   8   9
HETATM    9  C   UNL     1      -7.785   8.955  66.196  1.00  0.00    -0.098 A  
HETATM   10  C   UNL     1      -7.876  10.169  66.883  1.00  0.00    -0.107 A  
HETATM   11  C   UNL     1      -8.813  11.126  66.507  1.00  0.00    -0.174 A  
HETATM   12  C   UNL     1      -9.653  10.915  65.409  1.00  0.00    -0.271 A  
HETATM   13  C   UNL     1      -8.626   8.729  65.103  1.00  0.00    -0.209 A  
HETATM   14  C   UNL     1      -9.550   9.702  64.713  1.00  0.00    -0.197 A  
BRANCH  12  15
HETATM   15  C   UNL     1     -10.719  11.914  65.014  1.00  0.00    -0.341 C  
BRANCH  15  16
HETATM   16  C   UNL     1     -10.206  13.359  64.896  1.00  0.00    -0.339 C  
HETATM   17  C   UNL     1     -11.246  14.504  64.931  1.00  0.00    -0.391 C  
HETATM   18  C   UNL     1     -10.468  15.840  64.750  1.00  0.00    -0.019 C  
HETATM   19  N   UNL     1     -12.220  14.384  63.812  1.00  0.00    -1.040 NA 
HETATM   20  C   UNL     1     -12.014  14.560  66.280  1.00  0.00    -0.322 C  
HETATM   21  O   UNL     1     -11.363  16.948  64.686  1.00  0.00    -0.841 OA 
HETATM   22  O   UNL     1     -12.830  13.409  66.481  1.00  0.00    -0.111 OA 
HETATM   23  H1  UNL     1     -12.906  15.139  63.835  1.00  0.00     0.000 HD 
HETATM   24  H2  UNL     1     -12.670  13.469  63.804  1.00  0.00     0.000 HD 
HETATM   25  H   UNL     1     -13.300  13.444  67.306  1.00  0.00     0.000 HD 
HETATM   26  H   UNL     1     -10.889  17.764  64.575  1.00  0.00     0.000 HD 
ENDBRANCH  15  16
ENDBRANCH  12  15
ENDBRANCH   8   9
ENDBRANCH   7   8
ENDBRANCH   6   7
ENDBRANCH   5   6
ENDBRANCH   4   5
ENDBRANCH   3   4
ENDBRANCH   2   3
TORSDOF 9
ENDMDL
MODEL      274
REMARK 921   NORMALIZED FREE ENERGY PREDICTED BY IDOCK:   -2.76 KCAL/MOL
REMARK 922        TOTAL FREE ENERGY PREDICTED BY IDOCK:   -5.33 KCAL/MOL
REMARK 923 INTER-LIGAND FREE ENERGY PREDICTED BY IDOCK:   -4.29 KCAL/MOL
REMARK 924 INTRA-LIGAND FREE ENERGY PREDICTED BY IDOCK:   -1.04 KCAL/MOL
REMARK 927      BINDING AFFINITY PREDICTED BY RF-SCORE:    0.00 PKD
ROOT
HETATM    1  C   UNL     1      -8.171  10.264  62.854  1.00  0.00    -0.161 C  
HETATM    2  C   UNL     1      -8.207   8.752  62.724  1.00  0.00    -0.195 C  
ENDROOT
BRANCH   2   3
HETATM    3  C   UNL     1      -7.183   8.093  63.643  1.00  0.00    -0.089 C  
BRANCH   3   4
HETATM    4  C   UNL     1      -7.216   8.721  65.033  1.00  0.00    -0.084 C  
BRANCH   4   5
HETATM    5  C   UNL     1      -7.852   7.771  66.043  1.00  0.00    -0.100 C  
BRANCH   5   6
HETATM    6  C   UNL     1      -9.349   8.035  66.173  1.00  0.00    -0.212 C  
BRANCH   6   7
HETATM    7  C   UNL     1      -9.811   7.777  67.602  1.00  0.00    -0.208 C  
BRANCH   7   8
HETATM    8  C   UNL     1      -8.995   8.596  68.606  1.00  0.00    -0.142 C  
BRANCH   8   9
HETATM    9  C   UNL     1      -9.032  10.064  68.271  1.00  0.00    -0.119 A  
HETATM   10  C   UNL     1     -10.256  10.740  68.246  1.00  0.00    -0.187 A  
HETATM   11  C   UNL     1     -10.316  12.080  67.881  1.00  0.00    -0.209 A  
HETATM   12  C   UNL     1      -9.153  12.794  67.574  1.00  0.00    -0.193 A  
HETATM   13  C   UNL     1      -7.865  10.764  67.956  1.00  0.00    -0.106 A  
HETATM   14  C   UNL     1      -7.925  12.117  67.613  1.00  0.00    -0.157 A  
BRANCH  12  15
HETATM   15  C   UNL     1      -9.196  14.236  67.118  1.00  0.00    -0.230 C  
BRANCH  15  16
HETATM   16  C   UNL     1     -10.123  15.128  67.961  1.00  0.00    -0.222 C  
HETATM   17  C   UNL     1      -9.785  16.635  68.061  1.00  0.00    -0.241 C  
HETATM   18  C   UNL     1     -10.845  17.284  68.998  1.00  0.00    -0.044 C  
HETATM   19  N   UNL     1      -8.444  16.850  68.667  1.00  0.00    -0.253 NA 
HETATM   20  C   UNL     1      -9.849  17.345  66.680  1.00  0.00    -0.297 C  
HETATM   21  O   UNL     1     -10.560  18.665  69.215  1.00  0.00    -0.318 OA 
HETATM   22  O   UNL     1      -8.843  16.872  65.788  1.00  0.00    -0.522 OA 
HETATM   23  H1  UNL     1      -8.221  17.843  68.733  1.00  0.00     0.000 HD 
HETATM   24  H2  UNL     1      -7.720  16.337  68.164  1.00  0.00     0.000 HD 
HETATM   25  H   UNL     1      -8.882  17.307  64.944  1.00  0.00     0.000 HD 
HETATM   26  H   UNL     1     -11.207  19.060  69.787  1.00  0.00     0.000 HD 
ENDBRANCH  15  16
ENDBRANCH  12  15
ENDBRANCH   8   9
ENDBRANCH   7   8
ENDBRANCH   6   7
ENDBRANCH   5   6
ENDBRANCH   4   5
ENDBRANCH   3   4
ENDBRANCH   2   3
TORSDOF 9
ENDMDL
MODEL      275
REMARK 921   NORMALIZED FREE ENERGY PREDICTED BY IDOCK:   -2.76 KCAL/MOL
REMARK 922        TOTAL FREE ENERGY PREDICTED BY IDOCK:   -5.32 KCAL/MOL
REMARK 923 INTER-LIGAND FREE ENERGY PREDICTED BY IDOCK:   -3.07 KCAL/MOL
REMARK 924 INTRA-LIGAND FREE ENERGY PREDICTED BY IDOCK:   -2.25 KCAL/MOL
REMARK 927      BINDING AFFINITY PREDICTED BY RF-SCORE:    0.00 PKD
ROOT
HETATM    1  C   UNL     1     -10.747   7.798  67.247  1.00  0.00    -0.326 C  
HETATM    2  C   UNL     1     -10.543   9.256  67.622  1.00  0.00    -0.324 C  
ENDROOT
BRANCH   2   3
HETATM    3  C   UNL     1      -9.601   9.952  66.644  1.00  0.00    -0.235 C  
BRANCH   3   4
HETATM    4  C   UNL     1      -9.428  11.423  67.008  1.00  0.00    -0.186 C  
BRANCH   4   5
HETATM    5  C   UNL     1      -7.976  11.857  66.838  1.00  0.00    -0.132 C  
BRANCH   5   6
HETATM    6  C   UNL     1      -7.402  12.372  68.156  1.00  0.00    -0.111 C  
BRANCH   6   7
HETATM    7  C   UNL     1      -6.424  11.361  68.740  1.00  0.00    -0.056 C  
BRANCH   7   8
HETATM    8  C   UNL     1      -6.948  10.775  70.053  1.00  0.00    -0.091 C  
BRANCH   8   9
HETATM    9  C   UNL     1      -7.485   9.382  69.853  1.00  0.00    -0.100 A  
HETATM   10  C   UNL     1      -8.568   8.939  70.618  1.00  0.00    -0.224 A  
HETATM   11  C   UNL     1      -9.039   7.637  70.489  1.00  0.00    -0.151 A  
HETATM   12  C   UNL     1      -8.470   6.755  69.564  1.00  0.00    -0.133 A  
HETATM   13  C   UNL     1      -6.902   8.507  68.932  1.00  0.00    -0.061 A  
HETATM   14  C   UNL     1      -7.393   7.206  68.788  1.00  0.00    -0.096 A  
BRANCH  12  15
HETATM   15  C   UNL     1      -8.925   5.317  69.445  1.00  0.00    -0.124 C  
BRANCH  15  16
HETATM   16  C   UNL     1      -8.834   4.751  68.018  1.00  0.00    -0.115 C  
HETATM   17  C   UNL     1      -8.368   3.285  67.848  1.00  0.00    -0.084 C  
HETATM   18  C   UNL     1      -8.325   2.989  66.320  1.00  0.00    -0.098 C  
HETATM   19  N   UNL     1      -6.998   3.086  68.393  1.00  0.00    -0.048 NA 
HETATM   20  C   UNL     1      -9.342   2.276  68.517  1.00  0.00    -0.191 C  
HETATM   21  O   UNL     1      -7.822   1.679  66.067  1.00  0.00    -0.065 OA 
HETATM   22  O   UNL     1      -9.369   2.418  69.935  1.00  0.00    -0.121 OA 
HETATM   23  H1  UNL     1      -6.690   2.120  68.281  1.00  0.00     0.000 HD 
HETATM   24  H2  UNL     1      -6.935   3.389  69.365  1.00  0.00     0.000 HD 
HETATM   25  H   UNL     1      -9.965   1.801  70.344  1.00  0.00     0.000 HD 
HETATM   26  H   UNL     1      -7.796   1.499  65.135  1.00  0.00     0.000 HD 
ENDBRANCH  15  16
ENDBRANCH  12  15
ENDBRANCH   8   9
ENDBRANCH   7   8
ENDBRANCH   6   7
ENDBRANCH   5   6
ENDBRANCH   4   5
ENDBRANCH   3   4
ENDBRANCH   2   3
TORSDOF 9
ENDMDL
MODEL      276
REMARK 921   NORMALIZED FREE ENERGY PREDICTED BY IDOCK:   -2.73 KCAL/MOL
REMARK 922        TOTAL FREE ENERGY PREDICTED BY IDOCK:   -5.28 KCAL/MOL
REMARK 923 INTER-LIGAND FREE ENERGY PREDICTED BY IDOCK:   -4.44 KCAL/MOL
REMARK 924 INTRA-LIGAND FREE ENERGY PREDICTED BY IDOCK:   -0.84 KCAL/MOL
REMARK 927      BINDING AFFINITY PREDICTED BY RF-SCORE:    0.00 PKD
ROOT
HETATM    1  C   UNL     1     -10.880   2.560  63.112  1.00  0.00    -0.238 C  
HETATM    2  C   UNL     1     -10.044   3.827  63.071  1.00  0.00    -0.171 C  
ENDROOT
BRANCH   2   3
HETATM    3  C   UNL     1      -9.491   4.170  64.452  1.00  0.00    -0.163 C  
BRANCH   3   4
HETATM    4  C   UNL     1      -8.482   5.310  64.367  1.00  0.00    -0.126 C  
BRANCH   4   5
HETATM    5  C   UNL     1      -7.668   5.411  65.653  1.00  0.00    -0.091 C  
BRANCH   5   6
HETATM    6  C   UNL     1      -7.178   6.839  65.878  1.00  0.00    -0.070 C  
BRANCH   6   7
HETATM    7  C   UNL     1      -7.553   7.313  67.277  1.00  0.00    -0.104 C  
BRANCH   7   8
HETATM    8  C   UNL     1      -9.047   7.635  67.372  1.00  0.00    -0.136 C  
BRANCH   8   9
HETATM    9  C   UNL     1      -9.301   9.108  67.183  1.00  0.00    -0.178 A  
HETATM   10  C   UNL     1     -10.404   9.532  66.437  1.00  0.00    -0.243 A  
HETATM   11  C   UNL     1     -10.621  10.885  66.201  1.00  0.00    -0.270 A  
HETATM   12  C   UNL     1      -9.768  11.854  66.741  1.00  0.00    -0.218 A  
HETATM   13  C   UNL     1      -8.436  10.066  67.719  1.00  0.00    -0.114 A  
HETATM   14  C   UNL     1      -8.670  11.426  67.501  1.00  0.00    -0.140 A  
BRANCH  12  15
HETATM   15  C   UNL     1      -9.949  13.328  66.452  1.00  0.00    -0.288 C  
BRANCH  15  16
HETATM   16  C   UNL     1      -9.522  14.246  67.610  1.00  0.00    -0.211 C  
HETATM   17  C   UNL     1      -8.903  15.620  67.257  1.00  0.00    -0.198 C  
HETATM   18  C   UNL     1      -8.527  16.315  68.598  1.00  0.00    -0.221 C  
HETATM   19  N   UNL     1      -7.659  15.462  66.457  1.00  0.00    -0.224 NA 
HETATM   20  C   UNL     1      -9.898  16.534  66.490  1.00  0.00    -0.278 C  
HETATM   21  O   UNL     1      -7.870  17.558  68.363  1.00  0.00    -0.243 OA 
HETATM   22  O   UNL     1     -10.223  16.013  65.204  1.00  0.00    -0.511 OA 
HETATM   23  H1  UNL     1      -7.250  16.368  66.223  1.00  0.00     0.000 HD 
HETATM   24  H2  UNL     1      -7.819  14.898  65.622  1.00  0.00     0.000 HD 
HETATM   25  H   UNL     1     -10.832  16.573  64.736  1.00  0.00     0.000 HD 
HETATM   26  H   UNL     1      -7.640  17.982  69.181  1.00  0.00     0.000 HD 
ENDBRANCH  15  16
ENDBRANCH  12  15
ENDBRANCH   8   9
ENDBRANCH   7   8
ENDBRANCH   6   7
ENDBRANCH   5   6
ENDBRANCH   4   5
ENDBRANCH   3   4
ENDBRANCH   2   3
TORSDOF 9
ENDMDL
MODEL      277
REMARK 921   NORMALIZED FREE ENERGY PREDICTED BY IDOCK:   -2.73 KCAL/MOL
REMARK 922        TOTAL FREE ENERGY PREDICTED BY IDOCK:   -5.27 KCAL/MOL
REMARK 923 INTER-LIGAND FREE ENERGY PREDICTED BY IDOCK:   -4.16 KCAL/MOL
REMARK 924 INTRA-LIGAND FREE ENERGY PREDICTED BY IDOCK:   -1.11 KCAL/MOL
REMARK 927      BINDING AFFINITY PREDICTED BY RF-SCORE:    0.00 PKD
ROOT
HETATM    1  C   UNL     1      -9.698   3.674  70.105  1.00  0.00    -0.188 C  
HETATM    2  C   UNL     1      -9.650   5.189  70.190  1.00  0.00    -0.247 C  
ENDROOT
BRANCH   2   3
HETATM    3  C   UNL     1     -10.971   5.809  69.745  1.00  0.00    -0.397 C  
BRANCH   3   4
HETATM    4  C   UNL     1     -11.405   6.914  70.703  1.00  0.00    -0.366 C  
BRANCH   4   5
HETATM    5  C   UNL     1     -10.633   6.828  72.016  1.00  0.00    -0.239 C  
BRANCH   5   6
HETATM    6  C   UNL     1     -10.172   8.210  72.470  1.00  0.00    -0.383 C  
BRANCH   6   7
HETATM    7  C   UNL     1      -8.699   8.177  72.856  1.00  0.00    -0.290 C  
BRANCH   7   8
HETATM    8  C   UNL     1      -7.827   7.719  71.685  1.00  0.00    -0.094 C  
BRANCH   8   9
HETATM    9  C   UNL     1      -7.779   8.762  70.599  1.00  0.00    -0.096 A  
HETATM   10  C   UNL     1      -8.613   8.642  69.484  1.00  0.00    -0.131 A  
HETATM   11  C   UNL     1      -8.540   9.562  68.443  1.00  0.00    -0.120 A  
HETATM   12  C   UNL     1      -7.665  10.651  68.508  1.00  0.00    -0.107 A  
HETATM   13  C   UNL     1      -6.893   9.840  70.670  1.00  0.00    -0.108 A  
HETATM   14  C   UNL     1      -6.839  10.777  69.634  1.00  0.00    -0.133 A  
BRANCH  12  15
HETATM   15  C   UNL     1      -7.525  11.633  67.365  1.00  0.00    -0.135 C  
BRANCH  15  16
HETATM   16  C   UNL     1      -8.408  12.883  67.507  1.00  0.00    -0.183 C  
HETATM   17  C   UNL     1      -7.773  14.155  68.120  1.00  0.00    -0.140 C  
HETATM   18  C   UNL     1      -8.886  15.240  68.187  1.00  0.00    -0.171 C  
HETATM   19  N   UNL     1      -7.292  13.905  69.506  1.00  0.00    -0.331 NA 
HETATM   20  C   UNL     1      -6.602  14.702  67.257  1.00  0.00     0.237 C  
HETATM   21  O   UNL     1      -8.408  16.426  68.819  1.00  0.00    -0.218 OA 
HETATM   22  O   UNL     1      -5.497  13.803  67.222  1.00  0.00    -0.321 OA 
HETATM   23  H1  UNL     1      -6.873  14.742  69.910  1.00  0.00     0.000 HD 
HETATM   24  H2  UNL     1      -6.652  13.112  69.542  1.00  0.00     0.000 HD 
HETATM   25  H   UNL     1      -4.781  14.138  66.694  1.00  0.00     0.000 HD 
HETATM   26  H   UNL     1      -9.087  17.088  68.860  1.00  0.00     0.000 HD 
ENDBRANCH  15  16
ENDBRANCH  12  15
ENDBRANCH   8   9
ENDBRANCH   7   8
ENDBRANCH   6   7
ENDBRANCH   5   6
ENDBRANCH   4   5
ENDBRANCH   3   4
ENDBRANCH   2   3
TORSDOF 9
ENDMDL
MODEL      278
REMARK 921   NORMALIZED FREE ENERGY PREDICTED BY IDOCK:   -2.71 KCAL/MOL
REMARK 922        TOTAL FREE ENERGY PREDICTED BY IDOCK:   -5.25 KCAL/MOL
REMARK 923 INTER-LIGAND FREE ENERGY PREDICTED BY IDOCK:   -4.19 KCAL/MOL
REMARK 924 INTRA-LIGAND FREE ENERGY PREDICTED BY IDOCK:   -1.07 KCAL/MOL
REMARK 927      BINDING AFFINITY PREDICTED BY RF-SCORE:    0.00 PKD
ROOT
HETATM    1  C   UNL     1      -8.626  10.383  64.178  1.00  0.00    -0.186 C  
HETATM    2  C   UNL     1     -10.061  10.558  64.644  1.00  0.00    -0.408 C  
ENDROOT
BRANCH   2   3
HETATM    3  C   UNL     1     -10.569  11.967  64.352  1.00  0.00    -0.361 C  
BRANCH   3   4
HETATM    4  C   UNL     1     -11.421  12.490  65.504  1.00  0.00    -0.389 C  
BRANCH   4   5
HETATM    5  C   UNL     1     -10.608  13.416  66.403  1.00  0.00    -0.285 C  
BRANCH   5   6
HETATM    6  C   UNL     1      -9.303  12.752  66.834  1.00  0.00    -0.234 C  
BRANCH   6   7
HETATM    7  C   UNL     1      -9.374  12.345  68.301  1.00  0.00    -0.199 C  
BRANCH   7   8
HETATM    8  C   UNL     1     -10.337  11.173  68.507  1.00  0.00    -0.207 C  
BRANCH   8   9
HETATM    9  C   UNL     1      -9.591   9.876  68.675  1.00  0.00    -0.159 A  
HETATM   10  C   UNL     1      -9.887   8.791  67.844  1.00  0.00    -0.207 A  
HETATM   11  C   UNL     1      -9.251   7.568  68.024  1.00  0.00    -0.137 A  
HETATM   12  C   UNL     1      -8.271   7.406  69.009  1.00  0.00    -0.128 A  
HETATM   13  C   UNL     1      -8.621   9.722  69.669  1.00  0.00    -0.201 A  
HETATM   14  C   UNL     1      -7.966   8.499  69.832  1.00  0.00    -0.106 A  
BRANCH  12  15
HETATM   15  C   UNL     1      -7.606   6.070  69.263  1.00  0.00    -0.094 C  
BRANCH  15  16
HETATM   16  C   UNL     1      -8.575   4.877  69.234  1.00  0.00    -0.099 C  
HETATM   17  C   UNL     1      -8.394   3.822  68.116  1.00  0.00    -0.091 C  
HETATM   18  C   UNL     1      -9.520   2.762  68.295  1.00  0.00    -0.155 C  
HETATM   19  N   UNL     1      -8.548   4.432  66.768  1.00  0.00    -0.108 NA 
HETATM   20  C   UNL     1      -7.021   3.101  68.204  1.00  0.00    -0.049 C  
HETATM   21  O   UNL     1      -9.480   1.792  67.251  1.00  0.00    -0.359 OA 
HETATM   22  O   UNL     1      -5.933   3.988  67.957  1.00  0.00    -0.025 OA 
HETATM   23  H1  UNL     1      -8.428   3.737  66.030  1.00  0.00     0.000 HD 
HETATM   24  H2  UNL     1      -7.917   5.223  66.641  1.00  0.00     0.000 HD 
HETATM   25  H   UNL     1      -5.093   3.546  68.011  1.00  0.00     0.000 HD 
HETATM   26  H   UNL     1     -10.167   1.145  67.360  1.00  0.00     0.000 HD 
ENDBRANCH  15  16
ENDBRANCH  12  15
ENDBRANCH   8   9
ENDBRANCH   7   8
ENDBRANCH   6   7
ENDBRANCH   5   6
ENDBRANCH   4   5
ENDBRANCH   3   4
ENDBRANCH   2   3
TORSDOF 9
ENDMDL
MODEL      279
REMARK 921   NORMALIZED FREE ENERGY PREDICTED BY IDOCK:   -2.71 KCAL/MOL
REMARK 922        TOTAL FREE ENERGY PREDICTED BY IDOCK:   -5.24 KCAL/MOL
REMARK 923 INTER-LIGAND FREE ENERGY PREDICTED BY IDOCK:   -4.33 KCAL/MOL
REMARK 924 INTRA-LIGAND FREE ENERGY PREDICTED BY IDOCK:   -0.91 KCAL/MOL
REMARK 927      BINDING AFFINITY PREDICTED BY RF-SCORE:    0.00 PKD
ROOT
HETATM    1  C   UNL     1      -7.507   8.104  73.554  1.00  0.00    -0.197 C  
HETATM    2  C   UNL     1      -8.841   7.398  73.389  1.00  0.00    -0.212 C  
ENDROOT
BRANCH   2   3
HETATM    3  C   UNL     1      -8.826   6.462  72.183  1.00  0.00    -0.136 C  
BRANCH   3   4
HETATM    4  C   UNL     1      -7.683   6.813  71.236  1.00  0.00    -0.093 C  
BRANCH   4   5
HETATM    5  C   UNL     1      -8.212   7.132  69.842  1.00  0.00    -0.133 C  
BRANCH   5   6
HETATM    6  C   UNL     1      -7.086   7.599  68.924  1.00  0.00    -0.079 C  
BRANCH   6   7
HETATM    7  C   UNL     1      -6.883   9.103  69.056  1.00  0.00    -0.055 C  
BRANCH   7   8
HETATM    8  C   UNL     1      -8.219   9.832  69.217  1.00  0.00    -0.132 C  
BRANCH   8   9
HETATM    9  C   UNL     1      -8.124  11.259  68.741  1.00  0.00    -0.130 A  
HETATM   10  C   UNL     1      -9.078  11.759  67.852  1.00  0.00    -0.181 A  
HETATM   11  C   UNL     1      -8.972  13.054  67.355  1.00  0.00    -0.204 A  
HETATM   12  C   UNL     1      -7.936  13.898  67.767  1.00  0.00    -0.174 A  
HETATM   13  C   UNL     1      -7.078  12.090  69.152  1.00  0.00    -0.032 A  
HETATM   14  C   UNL     1      -6.988  13.398  68.670  1.00  0.00    -0.101 A  
BRANCH  12  15
HETATM   15  C   UNL     1      -7.765  15.291  67.199  1.00  0.00    -0.238 C  
BRANCH  15  16
HETATM   16  C   UNL     1      -8.488  16.384  68.003  1.00  0.00    -0.183 C  
HETATM   17  C   UNL     1      -9.126  17.558  67.221  1.00  0.00    -0.239 C  
HETATM   18  C   UNL     1      -9.743  18.529  68.269  1.00  0.00    -0.356 C  
HETATM   19  N   UNL     1      -8.103  18.310  66.445  1.00  0.00    -0.317 NA 
HETATM   20  C   UNL     1     -10.254  17.083  66.265  1.00  0.00    -0.329 C  
HETATM   21  O   UNL     1     -10.282  19.688  67.637  1.00  0.00    -0.381 OA 
HETATM   22  O   UNL     1      -9.756  16.261  65.214  1.00  0.00    -0.429 OA 
HETATM   23  H1  UNL     1      -8.523  19.083  65.929  1.00  0.00     0.000 HD 
HETATM   24  H2  UNL     1      -7.573  17.693  65.829  1.00  0.00     0.000 HD 
HETATM   25  H   UNL     1     -10.446  15.970  64.629  1.00  0.00     0.000 HD 
HETATM   26  H   UNL     1     -10.658  20.281  68.277  1.00  0.00     0.000 HD 
ENDBRANCH  15  16
ENDBRANCH  12  15
ENDBRANCH   8   9
ENDBRANCH   7   8
ENDBRANCH   6   7
ENDBRANCH   5   6
ENDBRANCH   4   5
ENDBRANCH   3   4
ENDBRANCH   2   3
TORSDOF 9
ENDMDL
MODEL      280
REMARK 921   NORMALIZED FREE ENERGY PREDICTED BY IDOCK:   -2.71 KCAL/MOL
REMARK 922        TOTAL FREE ENERGY PREDICTED BY IDOCK:   -5.24 KCAL/MOL
REMARK 923 INTER-LIGAND FREE ENERGY PREDICTED BY IDOCK:   -4.05 KCAL/MOL
REMARK 924 INTRA-LIGAND FREE ENERGY PREDICTED BY IDOCK:   -1.19 KCAL/MOL
REMARK 927      BINDING AFFINITY PREDICTED BY RF-SCORE:    0.00 PKD
ROOT
HETATM    1  C   UNL     1      -5.990  14.388  68.752  1.00  0.00    -0.084 C  
HETATM    2  C   UNL     1      -6.833  14.340  67.490  1.00  0.00    -0.158 C  
ENDROOT
BRANCH   2   3
HETATM    3  C   UNL     1      -7.439  15.705  67.177  1.00  0.00    -0.253 C  
BRANCH   3   4
HETATM    4  C   UNL     1      -8.536  15.586  66.124  1.00  0.00    -0.078 C  
BRANCH   4   5
HETATM    5  C   UNL     1      -9.804  14.992  66.727  1.00  0.00    -0.252 C  
BRANCH   5   6
HETATM    6  C   UNL     1     -10.760  14.520  65.634  1.00  0.00    -0.335 C  
BRANCH   6   7
HETATM    7  C   UNL     1     -11.433  13.216  66.045  1.00  0.00    -0.370 C  
BRANCH   7   8
HETATM    8  C   UNL     1     -11.270  12.954  67.544  1.00  0.00    -0.329 C  
BRANCH   8   9
HETATM    9  C   UNL     1     -10.560  11.650  67.796  1.00  0.00    -0.227 A  
HETATM   10  C   UNL     1      -9.325  11.647  68.451  1.00  0.00    -0.191 A  
HETATM   11  C   UNL     1      -8.627  10.459  68.639  1.00  0.00    -0.133 A  
HETATM   12  C   UNL     1      -9.162   9.238  68.218  1.00  0.00    -0.134 A  
HETATM   13  C   UNL     1     -11.099  10.436  67.361  1.00  0.00    -0.297 A  
HETATM   14  C   UNL     1     -10.406   9.241  67.573  1.00  0.00    -0.323 A  
BRANCH  12  15
HETATM   15  C   UNL     1      -8.397   7.939  68.358  1.00  0.00    -0.124 C  
BRANCH  15  16
HETATM   16  C   UNL     1      -9.295   6.705  68.542  1.00  0.00    -0.125 C  
HETATM   17  C   UNL     1      -8.667   5.437  69.171  1.00  0.00    -0.101 C  
HETATM   18  C   UNL     1      -9.771   4.340  69.199  1.00  0.00    -0.156 C  
HETATM   19  N   UNL     1      -7.536   4.930  68.348  1.00  0.00    -0.077 NA 
HETATM   20  C   UNL     1      -8.179   5.682  70.626  1.00  0.00    -0.118 C  
HETATM   21  O   UNL     1      -9.253   3.106  69.689  1.00  0.00    -0.123 OA 
HETATM   22  O   UNL     1      -7.098   6.610  70.679  1.00  0.00    -0.065 OA 
HETATM   23  H1  UNL     1      -7.122   4.094  68.763  1.00  0.00     0.000 HD 
HETATM   24  H2  UNL     1      -6.837   5.654  68.187  1.00  0.00     0.000 HD 
HETATM   25  H   UNL     1      -6.800   6.759  71.569  1.00  0.00     0.000 HD 
HETATM   26  H   UNL     1      -9.927   2.436  69.706  1.00  0.00     0.000 HD 
ENDBRANCH  15  16
ENDBRANCH  12  15
ENDBRANCH   8   9
ENDBRANCH   7   8
ENDBRANCH   6   7
ENDBRANCH   5   6
ENDBRANCH   4   5
ENDBRANCH   3   4
ENDBRANCH   2   3
TORSDOF 9
ENDMDL
MODEL      281
REMARK 921   NORMALIZED FREE ENERGY PREDICTED BY IDOCK:   -2.64 KCAL/MOL
REMARK 922        TOTAL FREE ENERGY PREDICTED BY IDOCK:   -5.14 KCAL/MOL
REMARK 923 INTER-LIGAND FREE ENERGY PREDICTED BY IDOCK:   -4.09 KCAL/MOL
REMARK 924 INTRA-LIGAND FREE ENERGY PREDICTED BY IDOCK:   -1.05 KCAL/MOL
REMARK 927      BINDING AFFINITY PREDICTED BY RF-SCORE:    0.00 PKD
ROOT
HETATM    1  C   UNL     1     -12.391  10.642  70.523  1.00  0.00    -0.448 C  
HETATM    2  C   UNL     1     -11.161   9.903  71.021  1.00  0.00    -0.435 C  
ENDROOT
BRANCH   2   3
HETATM    3  C   UNL     1     -11.541   8.794  71.998  1.00  0.00    -0.436 C  
BRANCH   3   4
HETATM    4  C   UNL     1     -12.303   7.679  71.288  1.00  0.00    -0.334 C  
BRANCH   4   5
HETATM    5  C   UNL     1     -11.633   6.330  71.522  1.00  0.00    -0.345 C  
BRANCH   5   6
HETATM    6  C   UNL     1     -10.167   6.507  71.909  1.00  0.00    -0.214 C  
BRANCH   6   7
HETATM    7  C   UNL     1      -9.269   5.730  70.954  1.00  0.00    -0.174 C  
BRANCH   7   8
HETATM    8  C   UNL     1     -10.064   4.684  70.170  1.00  0.00    -0.283 C  
BRANCH   8   9
HETATM    9  C   UNL     1      -9.526   4.524  68.772  1.00  0.00    -0.221 A  
HETATM   10  C   UNL     1      -8.238   4.017  68.578  1.00  0.00    -0.082 A  
HETATM   11  C   UNL     1      -7.701   3.918  67.299  1.00  0.00    -0.080 A  
HETATM   12  C   UNL     1      -8.452   4.282  66.176  1.00  0.00    -0.112 A  
HETATM   13  C   UNL     1     -10.281   4.900  67.658  1.00  0.00    -0.135 A  
HETATM   14  C   UNL     1      -9.748   4.777  66.372  1.00  0.00    -0.206 A  
BRANCH  12  15
HETATM   15  C   UNL     1      -7.872   4.239  64.779  1.00  0.00    -0.088 C  
BRANCH  15  16
HETATM   16  C   UNL     1      -8.278   5.433  63.899  1.00  0.00    -0.127 C  
HETATM   17  C   UNL     1      -7.197   6.491  63.569  1.00  0.00    -0.064 C  
HETATM   18  C   UNL     1      -7.881   7.597  62.713  1.00  0.00    -0.130 C  
HETATM   19  N   UNL     1      -6.669   7.128  64.805  1.00  0.00    -0.046 NA 
HETATM   20  C   UNL     1      -6.020   5.893  62.751  1.00  0.00    -0.025 C  
HETATM   21  O   UNL     1      -6.974   8.660  62.432  1.00  0.00    -0.095 OA 
HETATM   22  O   UNL     1      -5.279   4.934  63.500  1.00  0.00    -0.009 OA 
HETATM   23  H1  UNL     1      -5.956   7.825  64.587  1.00  0.00     0.000 HD 
HETATM   24  H2  UNL     1      -6.322   6.433  65.465  1.00  0.00     0.000 HD 
HETATM   25  H   UNL     1      -4.558   4.568  63.000  1.00  0.00     0.000 HD 
HETATM   26  H   UNL     1      -7.391   9.335  61.910  1.00  0.00     0.000 HD 
ENDBRANCH  15  16
ENDBRANCH  12  15
ENDBRANCH   8   9
ENDBRANCH   7   8
ENDBRANCH   6   7
ENDBRANCH   5   6
ENDBRANCH   4   5
ENDBRANCH   3   4
ENDBRANCH   2   3
TORSDOF 9
ENDMDL
MODEL      282
REMARK 921   NORMALIZED FREE ENERGY PREDICTED BY IDOCK:   -2.58 KCAL/MOL
REMARK 922        TOTAL FREE ENERGY PREDICTED BY IDOCK:   -5.04 KCAL/MOL
REMARK 923 INTER-LIGAND FREE ENERGY PREDICTED BY IDOCK:   -3.93 KCAL/MOL
REMARK 924 INTRA-LIGAND FREE ENERGY PREDICTED BY IDOCK:   -1.11 KCAL/MOL
REMARK 927      BINDING AFFINITY PREDICTED BY RF-SCORE:    0.00 PKD
ROOT
HETATM    1  C   UNL     1     -11.949   6.951  70.678  1.00  0.00    -0.400 C  
HETATM    2  C   UNL     1     -11.653   7.774  71.919  1.00  0.00    -0.330 C  
ENDROOT
BRANCH   2   3
HETATM    3  C   UNL     1     -10.150   7.956  72.117  1.00  0.00    -0.279 C  
BRANCH   3   4
HETATM    4  C   UNL     1      -9.382   6.745  71.597  1.00  0.00    -0.151 C  
BRANCH   4   5
HETATM    5  C   UNL     1      -8.013   6.645  72.261  1.00  0.00    -0.100 C  
BRANCH   5   6
HETATM    6  C   UNL     1      -7.348   5.308  71.944  1.00  0.00    -0.087 C  
BRANCH   6   7
HETATM    7  C   UNL     1      -6.438   5.444  70.729  1.00  0.00    -0.035 C  
BRANCH   7   8
HETATM    8  C   UNL     1      -7.097   4.869  69.474  1.00  0.00    -0.055 C  
BRANCH   8   9
HETATM    9  C   UNL     1      -7.765   5.950  68.664  1.00  0.00    -0.094 A  
HETATM   10  C   UNL     1      -6.992   6.947  68.065  1.00  0.00    -0.083 A  
HETATM   11  C   UNL     1      -7.596   7.986  67.365  1.00  0.00    -0.097 A  
HETATM   12  C   UNL     1      -8.985   8.034  67.207  1.00  0.00    -0.148 A  
HETATM   13  C   UNL     1      -9.155   5.992  68.522  1.00  0.00    -0.112 A  
HETATM   14  C   UNL     1      -9.758   7.024  67.798  1.00  0.00    -0.156 A  
BRANCH  12  15
HETATM   15  C   UNL     1      -9.670   9.183  66.500  1.00  0.00    -0.306 C  
BRANCH  15  16
HETATM   16  C   UNL     1      -9.354   9.268  64.998  1.00  0.00    -0.196 C  
HETATM   17  C   UNL     1      -8.721  10.575  64.463  1.00  0.00    -0.180 C  
HETATM   18  C   UNL     1      -8.550  10.408  62.925  1.00  0.00    -0.192 C  
HETATM   19  N   UNL     1      -9.611  11.743  64.701  1.00  0.00    -0.418 NA 
HETATM   20  C   UNL     1      -7.326  10.852  65.087  1.00  0.00     0.278 C  
HETATM   21  O   UNL     1      -8.047  11.604  62.333  1.00  0.00    -0.646 OA 
HETATM   22  O   UNL     1      -7.406  11.110  66.486  1.00  0.00    -0.142 OA 
HETATM   23  H1  UNL     1      -9.194  12.605  64.348  1.00  0.00     0.000 HD 
HETATM   24  H2  UNL     1      -9.864  11.826  65.685  1.00  0.00     0.000 HD 
HETATM   25  H   UNL     1      -6.552  11.280  66.868  1.00  0.00     0.000 HD 
HETATM   26  H   UNL     1      -7.943  11.502  61.394  1.00  0.00     0.000 HD 
ENDBRANCH  15  16
ENDBRANCH  12  15
ENDBRANCH   8   9
ENDBRANCH   7   8
ENDBRANCH   6   7
ENDBRANCH   5   6
ENDBRANCH   4   5
ENDBRANCH   3   4
ENDBRANCH   2   3
TORSDOF 9
ENDMDL
MODEL      283
REMARK 921   NORMALIZED FREE ENERGY PREDICTED BY IDOCK:   -2.53 KCAL/MOL
REMARK 922        TOTAL FREE ENERGY PREDICTED BY IDOCK:   -4.97 KCAL/MOL
REMARK 923 INTER-LIGAND FREE ENERGY PREDICTED BY IDOCK:   -4.08 KCAL/MOL
REMARK 924 INTRA-LIGAND FREE ENERGY PREDICTED BY IDOCK:   -0.90 KCAL/MOL
REMARK 927      BINDING AFFINITY PREDICTED BY RF-SCORE:    0.00 PKD
ROOT
HETATM    1  C   UNL     1     -12.458  14.184  64.741  1.00  0.00    -0.395 C  
HETATM    2  C   UNL     1     -12.135  13.521  66.068  1.00  0.00    -0.489 C  
ENDROOT
BRANCH   2   3
HETATM    3  C   UNL     1     -10.975  14.223  66.769  1.00  0.00    -0.304 C  
BRANCH   3   4
HETATM    4  C   UNL     1     -10.287  15.209  65.830  1.00  0.00    -0.359 C  
BRANCH   4   5
HETATM    5  C   UNL     1      -8.925  15.620  66.377  1.00  0.00    -0.362 C  
BRANCH   5   6
HETATM    6  C   UNL     1      -8.219  14.435  67.031  1.00  0.00    -0.138 C  
BRANCH   6   7
HETATM    7  C   UNL     1      -6.820  14.834  67.482  1.00  0.00    -0.181 C  
BRANCH   7   8
HETATM    8  C   UNL     1      -6.253  13.830  68.489  1.00  0.00    -0.092 C  
BRANCH   8   9
HETATM    9  C   UNL     1      -6.689  12.425  68.165  1.00  0.00    -0.075 A  
HETATM   10  C   UNL     1      -7.595  11.768  69.002  1.00  0.00     0.004 A  
HETATM   11  C   UNL     1      -7.962  10.451  68.752  1.00  0.00    -0.122 A  
HETATM   12  C   UNL     1      -7.470   9.768  67.634  1.00  0.00    -0.091 A  
HETATM   13  C   UNL     1      -6.183  11.750  67.051  1.00  0.00    -0.152 A  
HETATM   14  C   UNL     1      -6.573  10.434  66.788  1.00  0.00    -0.078 A  
BRANCH  12  15
HETATM   15  C   UNL     1      -7.809   8.317  67.371  1.00  0.00    -0.106 C  
BRANCH  15  16
HETATM   16  C   UNL     1      -9.183   7.889  67.913  1.00  0.00    -0.139 C  
HETATM   17  C   UNL     1      -9.230   6.726  68.933  1.00  0.00    -0.131 C  
HETATM   18  C   UNL     1     -10.727   6.475  69.277  1.00  0.00    -0.280 C  
HETATM   19  N   UNL     1      -8.677   5.473  68.350  1.00  0.00    -0.105 NA 
HETATM   20  C   UNL     1      -8.473   7.064  70.247  1.00  0.00    -0.138 C  
HETATM   21  O   UNL     1     -10.871   5.358  70.152  1.00  0.00    -0.281 OA 
HETATM   22  O   UNL     1      -7.072   7.217  70.033  1.00  0.00    -0.063 OA 
HETATM   23  H1  UNL     1      -8.708   4.706  69.022  1.00  0.00     0.000 HD 
HETATM   24  H2  UNL     1      -7.735   5.614  67.987  1.00  0.00     0.000 HD 
HETATM   25  H   UNL     1      -6.609   7.423  70.837  1.00  0.00     0.000 HD 
HETATM   26  H   UNL     1     -11.785   5.205  70.362  1.00  0.00     0.000 HD 
ENDBRANCH  15  16
ENDBRANCH  12  15
ENDBRANCH   8   9
ENDBRANCH   7   8
ENDBRANCH   6   7
ENDBRANCH   5   6
ENDBRANCH   4   5
ENDBRANCH   3   4
ENDBRANCH   2   3
TORSDOF 9
ENDMDL
MODEL      284
REMARK 921   NORMALIZED FREE ENERGY PREDICTED BY IDOCK:   -2.51 KCAL/MOL
REMARK 922        TOTAL FREE ENERGY PREDICTED BY IDOCK:   -4.94 KCAL/MOL
REMARK 923 INTER-LIGAND FREE ENERGY PREDICTED BY IDOCK:   -3.98 KCAL/MOL
REMARK 924 INTRA-LIGAND FREE ENERGY PREDICTED BY IDOCK:   -0.96 KCAL/MOL
REMARK 927      BINDING AFFINITY PREDICTED BY RF-SCORE:    0.00 PKD
ROOT
HETATM    1  C   UNL     1      -6.082  13.864  70.422  1.00  0.00    -0.143 C  
HETATM    2  C   UNL     1      -6.198  12.898  69.256  1.00  0.00    -0.104 C  
ENDROOT
BRANCH   2   3
HETATM    3  C   UNL     1      -6.742  13.596  68.013  1.00  0.00    -0.141 C  
BRANCH   3   4
HETATM    4  C   UNL     1      -7.831  12.758  67.350  1.00  0.00    -0.172 C  
BRANCH   4   5
HETATM    5  C   UNL     1      -9.081  12.707  68.222  1.00  0.00    -0.181 C  
BRANCH   5   6
HETATM    6  C   UNL     1     -10.235  12.035  67.483  1.00  0.00    -0.211 C  
BRANCH   6   7
HETATM    7  C   UNL     1     -11.100  11.244  68.458  1.00  0.00    -0.288 C  
BRANCH   7   8
HETATM    8  C   UNL     1     -10.246  10.341  69.352  1.00  0.00    -0.255 C  
BRANCH   8   9
HETATM    9  C   UNL     1     -10.154   8.947  68.790  1.00  0.00    -0.215 A  
HETATM   10  C   UNL     1     -10.866   7.906  69.395  1.00  0.00    -0.114 A  
HETATM   11  C   UNL     1     -10.745   6.602  68.927  1.00  0.00    -0.304 A  
HETATM   12  C   UNL     1      -9.947   6.308  67.817  1.00  0.00    -0.143 A  
HETATM   13  C   UNL     1      -9.345   8.663  67.687  1.00  0.00    -0.157 A  
HETATM   14  C   UNL     1      -9.245   7.355  67.204  1.00  0.00    -0.159 A  
BRANCH  12  15
HETATM   15  C   UNL     1      -9.754   4.890  67.324  1.00  0.00    -0.194 C  
BRANCH  15  16
HETATM   16  C   UNL     1     -10.487   4.583  66.008  1.00  0.00    -0.236 C  
HETATM   17  C   UNL     1      -9.637   4.163  64.784  1.00  0.00    -0.176 C  
HETATM   18  C   UNL     1     -10.616   3.959  63.591  1.00  0.00    -0.194 C  
HETATM   19  N   UNL     1      -8.670   5.229  64.407  1.00  0.00    -0.288 NA 
HETATM   20  C   UNL     1      -8.873   2.833  65.028  1.00  0.00    -0.122 C  
HETATM   21  O   UNL     1      -9.905   3.650  62.394  1.00  0.00    -0.103 OA 
HETATM   22  O   UNL     1      -7.886   2.961  66.047  1.00  0.00    -0.080 OA 
HETATM   23  H1  UNL     1      -8.109   4.952  63.601  1.00  0.00     0.000 HD 
HETATM   24  H2  UNL     1      -8.083   5.497  65.196  1.00  0.00     0.000 HD 
HETATM   25  H   UNL     1      -7.418   2.147  66.196  1.00  0.00     0.000 HD 
HETATM   26  H   UNL     1     -10.503   3.526  61.666  1.00  0.00     0.000 HD 
ENDBRANCH  15  16
ENDBRANCH  12  15
ENDBRANCH   8   9
ENDBRANCH   7   8
ENDBRANCH   6   7
ENDBRANCH   5   6
ENDBRANCH   4   5
ENDBRANCH   3   4
ENDBRANCH   2   3
TORSDOF 9
ENDMDL
MODEL      285
REMARK 921   NORMALIZED FREE ENERGY PREDICTED BY IDOCK:   -2.47 KCAL/MOL
REMARK 922        TOTAL FREE ENERGY PREDICTED BY IDOCK:   -4.88 KCAL/MOL
REMARK 923 INTER-LIGAND FREE ENERGY PREDICTED BY IDOCK:   -3.91 KCAL/MOL
REMARK 924 INTRA-LIGAND FREE ENERGY PREDICTED BY IDOCK:   -0.97 KCAL/MOL
REMARK 927      BINDING AFFINITY PREDICTED BY RF-SCORE:    0.00 PKD
ROOT
HETATM    1  C   UNL     1     -12.349  13.949  65.352  1.00  0.00    -0.494 C  
HETATM    2  C   UNL     1     -11.835  13.834  66.776  1.00  0.00    -0.454 C  
ENDROOT
BRANCH   2   3
HETATM    3  C   UNL     1     -10.922  15.004  67.130  1.00  0.00    -0.329 C  
BRANCH   3   4
HETATM    4  C   UNL     1     -10.666  15.884  65.910  1.00  0.00    -0.303 C  
BRANCH   4   5
HETATM    5  C   UNL     1      -9.396  16.709  66.092  1.00  0.00    -0.318 C  
BRANCH   5   6
HETATM    6  C   UNL     1      -8.531  16.138  67.213  1.00  0.00    -0.203 C  
BRANCH   6   7
HETATM    7  C   UNL     1      -7.062  16.157  66.810  1.00  0.00    -0.152 C  
BRANCH   7   8
HETATM    8  C   UNL     1      -6.153  15.863  68.006  1.00  0.00    -0.145 C  
BRANCH   8   9
HETATM    9  C   UNL     1      -6.289  14.432  68.457  1.00  0.00    -0.088 A  
HETATM   10  C   UNL     1      -6.410  13.413  67.507  1.00  0.00    -0.112 A  
HETATM   11  C   UNL     1      -6.596  12.094  67.905  1.00  0.00    -0.085 A  
HETATM   12  C   UNL     1      -6.625  11.750  69.260  1.00  0.00    -0.112 A  
HETATM   13  C   UNL     1      -6.326  14.101  69.814  1.00  0.00    -0.141 A  
HETATM   14  C   UNL     1      -6.490  12.771  70.211  1.00  0.00     0.285 A  
BRANCH  12  15
HETATM   15  C   UNL     1      -6.884  10.331  69.720  1.00  0.00    -0.120 C  
BRANCH  15  16
HETATM   16  C   UNL     1      -7.951   9.594  68.893  1.00  0.00    -0.089 C  
HETATM   17  C   UNL     1      -8.549   8.291  69.477  1.00  0.00    -0.134 C  
HETATM   18  C   UNL     1      -9.557   7.736  68.429  1.00  0.00    -0.152 C  
HETATM   19  N   UNL     1      -7.496   7.262  69.691  1.00  0.00    -0.091 NA 
HETATM   20  C   UNL     1      -9.309   8.538  70.809  1.00  0.00    -0.172 C  
HETATM   21  O   UNL     1     -10.096   6.486  68.851  1.00  0.00    -0.153 OA 
HETATM   22  O   UNL     1      -8.436   8.960  71.854  1.00  0.00    -0.348 OA 
HETATM   23  H1  UNL     1      -7.890   6.403  70.076  1.00  0.00     0.000 HD 
HETATM   24  H2  UNL     1      -6.737   7.618  70.271  1.00  0.00     0.000 HD 
HETATM   25  H   UNL     1      -8.902   9.112  72.669  1.00  0.00     0.000 HD 
HETATM   26  H   UNL     1     -10.712   6.147  68.211  1.00  0.00     0.000 HD 
ENDBRANCH  15  16
ENDBRANCH  12  15
ENDBRANCH   8   9
ENDBRANCH   7   8
ENDBRANCH   6   7
ENDBRANCH   5   6
ENDBRANCH   4   5
ENDBRANCH   3   4
ENDBRANCH   2   3
TORSDOF 9
ENDMDL
MODEL      286
REMARK 921   NORMALIZED FREE ENERGY PREDICTED BY IDOCK:   -2.43 KCAL/MOL
REMARK 922        TOTAL FREE ENERGY PREDICTED BY IDOCK:   -4.81 KCAL/MOL
REMARK 923 INTER-LIGAND FREE ENERGY PREDICTED BY IDOCK:   -4.19 KCAL/MOL
REMARK 924 INTRA-LIGAND FREE ENERGY PREDICTED BY IDOCK:   -0.62 KCAL/MOL
REMARK 927      BINDING AFFINITY PREDICTED BY RF-SCORE:    0.00 PKD
ROOT
HETATM    1  C   UNL     1     -10.856   3.763  62.989  1.00  0.00    -0.120 C  
HETATM    2  C   UNL     1     -10.088   3.833  64.297  1.00  0.00    -0.221 C  
ENDROOT
BRANCH   2   3
HETATM    3  C   UNL     1     -10.939   4.447  65.405  1.00  0.00     0.061 C  
BRANCH   3   4
HETATM    4  C   UNL     1     -10.072   4.865  66.589  1.00  0.00    -0.280 C  
BRANCH   4   5
HETATM    5  C   UNL     1      -9.377   3.656  67.206  1.00  0.00    -0.235 C  
BRANCH   5   6
HETATM    6  C   UNL     1      -7.997   3.445  66.589  1.00  0.00    -0.081 C  
BRANCH   6   7
HETATM    7  C   UNL     1      -6.944   4.226  67.366  1.00  0.00    -0.063 C  
BRANCH   7   8
HETATM    8  C   UNL     1      -6.791   5.648  66.820  1.00  0.00    -0.063 C  
BRANCH   8   9
HETATM    9  C   UNL     1      -7.482   6.650  67.707  1.00  0.00    -0.098 A  
HETATM   10  C   UNL     1      -7.777   6.317  69.032  1.00  0.00    -0.100 A  
HETATM   11  C   UNL     1      -8.469   7.207  69.847  1.00  0.00    -0.140 A  
HETATM   12  C   UNL     1      -8.846   8.469  69.376  1.00  0.00    -0.141 A  
HETATM   13  C   UNL     1      -7.863   7.904  67.222  1.00  0.00    -0.113 A  
HETATM   14  C   UNL     1      -8.537   8.805  68.051  1.00  0.00    -0.134 A  
BRANCH  12  15
HETATM   15  C   UNL     1      -9.649   9.432  70.223  1.00  0.00    -0.294 C  
BRANCH  15  16
HETATM   16  C   UNL     1      -9.773  10.840  69.617  1.00  0.00     0.086 C  
HETATM   17  C   UNL     1     -11.135  11.249  69.007  1.00  0.00    -0.244 C  
HETATM   18  C   UNL     1     -10.970  12.687  68.433  1.00  0.00    -0.257 C  
HETATM   19  N   UNL     1     -11.517  10.349  67.886  1.00  0.00    -0.653 NA 
HETATM   20  C   UNL     1     -12.272  11.269  70.065  1.00  0.00    -0.314 C  
HETATM   21  O   UNL     1     -12.159  13.114  67.773  1.00  0.00    -0.324 OA 
HETATM   22  O   UNL     1     -12.552   9.968  70.575  1.00  0.00    -0.461 OA 
HETATM   23  H1  UNL     1     -12.415  10.618  67.483  1.00  0.00     0.000 HD 
HETATM   24  H2  UNL     1     -11.515   9.371  68.174  1.00  0.00     0.000 HD 
HETATM   25  H   UNL     1     -13.248   9.980  71.222  1.00  0.00     0.000 HD 
HETATM   26  H   UNL     1     -12.059  13.991  67.423  1.00  0.00     0.000 HD 
ENDBRANCH  15  16
ENDBRANCH  12  15
ENDBRANCH   8   9
ENDBRANCH   7   8
ENDBRANCH   6   7
ENDBRANCH   5   6
ENDBRANCH   4   5
ENDBRANCH   3   4
ENDBRANCH   2   3
TORSDOF 9
ENDMDL
MODEL      287
REMARK 921   NORMALIZED FREE ENERGY PREDICTED BY IDOCK:   -2.42 KCAL/MOL
REMARK 922        TOTAL FREE ENERGY PREDICTED BY IDOCK:   -4.81 KCAL/MOL
REMARK 923 INTER-LIGAND FREE ENERGY PREDICTED BY IDOCK:   -3.50 KCAL/MOL
REMARK 924 INTRA-LIGAND FREE ENERGY PREDICTED BY IDOCK:   -1.30 KCAL/MOL
REMARK 927      BINDING AFFINITY PREDICTED BY RF-SCORE:    0.00 PKD
ROOT
HETATM    1  C   UNL     1      -9.375   4.283  63.410  1.00  0.00    -0.133 C  
HETATM    2  C   UNL     1      -8.762   4.164  64.794  1.00  0.00    -0.127 C  
ENDROOT
BRANCH   2   3
HETATM    3  C   UNL     1      -9.624   3.298  65.708  1.00  0.00    -0.033 C  
BRANCH   3   4
HETATM    4  C   UNL     1      -9.508   3.753  67.159  1.00  0.00    -0.234 C  
BRANCH   4   5
HETATM    5  C   UNL     1      -9.062   2.602  68.055  1.00  0.00    -0.229 C  
BRANCH   5   6
HETATM    6  C   UNL     1      -7.583   2.290  67.847  1.00  0.00    -0.055 C  
BRANCH   6   7
HETATM    7  C   UNL     1      -6.722   3.190  68.725  1.00  0.00    -0.040 C  
BRANCH   7   8
HETATM    8  C   UNL     1      -6.318   4.467  67.984  1.00  0.00    -0.037 C  
BRANCH   8   9
HETATM    9  C   UNL     1      -6.841   5.694  68.684  1.00  0.00    -0.059 A  
HETATM   10  C   UNL     1      -7.490   5.567  69.915  1.00  0.00    -0.070 A  
HETATM   11  C   UNL     1      -8.033   6.681  70.546  1.00  0.00    -0.111 A  
HETATM   12  C   UNL     1      -7.903   7.957  69.988  1.00  0.00    -0.105 A  
HETATM   13  C   UNL     1      -6.714   6.962  68.112  1.00  0.00    -0.068 A  
HETATM   14  C   UNL     1      -7.239   8.083  68.760  1.00  0.00    -0.083 A  
BRANCH  12  15
HETATM   15  C   UNL     1      -8.533   9.177  70.626  1.00  0.00    -0.246 C  
BRANCH  15  16
HETATM   16  C   UNL     1      -9.739   8.856  71.524  1.00  0.00    -0.372 C  
HETATM   17  C   UNL     1     -11.147   9.250  71.016  1.00  0.00    -0.326 C  
HETATM   18  C   UNL     1     -12.165   8.857  72.126  1.00  0.00    -0.367 C  
HETATM   19  N   UNL     1     -11.252  10.718  70.797  1.00  0.00    -0.328 NA 
HETATM   20  C   UNL     1     -11.531   8.504  69.709  1.00  0.00     0.252 C  
HETATM   21  O   UNL     1     -13.486   9.262  71.775  1.00  0.00    -0.373 OA 
HETATM   22  O   UNL     1     -10.702   8.881  68.613  1.00  0.00    -0.357 OA 
HETATM   23  H1  UNL     1     -12.179  10.978  70.462  1.00  0.00     0.000 HD 
HETATM   24  H2  UNL     1     -10.520  11.056  70.172  1.00  0.00     0.000 HD 
HETATM   25  H   UNL     1     -10.937   8.425  67.813  1.00  0.00     0.000 HD 
HETATM   26  H   UNL     1     -14.108   9.022  72.453  1.00  0.00     0.000 HD 
ENDBRANCH  15  16
ENDBRANCH  12  15
ENDBRANCH   8   9
ENDBRANCH   7   8
ENDBRANCH   6   7
ENDBRANCH   5   6
ENDBRANCH   4   5
ENDBRANCH   3   4
ENDBRANCH   2   3
TORSDOF 9
ENDMDL
MODEL      288
REMARK 921   NORMALIZED FREE ENERGY PREDICTED BY IDOCK:   -2.41 KCAL/MOL
REMARK 922        TOTAL FREE ENERGY PREDICTED BY IDOCK:   -4.79 KCAL/MOL
REMARK 923 INTER-LIGAND FREE ENERGY PREDICTED BY IDOCK:   -5.17 KCAL/MOL
REMARK 924 INTRA-LIGAND FREE ENERGY PREDICTED BY IDOCK:    0.38 KCAL/MOL
REMARK 927      BINDING AFFINITY PREDICTED BY RF-SCORE:    0.00 PKD
ROOT
HETATM    1  C   UNL     1      -7.943   9.452  70.793  1.00  0.00    -0.154 C  
HETATM    2  C   UNL     1      -7.564  10.374  69.648  1.00  0.00    -0.158 C  
ENDROOT
BRANCH   2   3
HETATM    3  C   UNL     1      -8.587  10.301  68.518  1.00  0.00    -0.126 C  
BRANCH   3   4
HETATM    4  C   UNL     1      -9.947   9.849  69.042  1.00  0.00    -0.193 C  
BRANCH   4   5
HETATM    5  C   UNL     1     -11.066  10.310  68.115  1.00  0.00    -0.324 C  
BRANCH   5   6
HETATM    6  C   UNL     1     -11.891  11.418  68.764  1.00  0.00    -0.388 C  
BRANCH   6   7
HETATM    7  C   UNL     1     -11.080  12.705  68.845  1.00  0.00    -0.307 C  
BRANCH   7   8
HETATM    8  C   UNL     1     -10.018  12.763  67.744  1.00  0.00    -0.219 C  
BRANCH   8   9
HETATM    9  C   UNL     1      -8.977  13.810  68.045  1.00  0.00    -0.187 A  
HETATM   10  C   UNL     1      -9.241  14.799  68.996  1.00  0.00    -0.145 A  
HETATM   11  C   UNL     1      -8.317  15.808  69.243  1.00  0.00    -0.249 A  
HETATM   12  C   UNL     1      -7.086  15.833  68.579  1.00  0.00    -0.118 A  
HETATM   13  C   UNL     1      -7.754  13.830  67.368  1.00  0.00    -0.158 A  
HETATM   14  C   UNL     1      -6.817  14.831  67.635  1.00  0.00    -0.205 A  
BRANCH  12  15
HETATM   15  C   UNL     1      -6.087  16.951  68.786  1.00  0.00    -0.153 C  
BRANCH  15  16
HETATM   16  C   UNL     1      -6.715  18.354  68.790  1.00  0.00    -0.267 C  
HETATM   17  C   UNL     1      -6.748  19.138  67.456  1.00  0.00    -0.199 C  
HETATM   18  C   UNL     1      -7.389  20.525  67.752  1.00  0.00    -0.265 C  
HETATM   19  N   UNL     1      -5.375  19.369  66.931  1.00  0.00    -0.164 NA 
HETATM   20  C   UNL     1      -7.602  18.422  66.373  1.00  0.00    -0.252 C  
HETATM   21  O   UNL     1      -7.383  21.350  66.588  1.00  0.00    -0.720 OA 
HETATM   22  O   UNL     1      -7.030  17.179  65.975  1.00  0.00    -0.215 OA 
HETATM   23  H1  UNL     1      -5.397  19.885  66.051  1.00  0.00     0.000 HD 
HETATM   24  H2  UNL     1      -4.858  18.495  66.839  1.00  0.00     0.000 HD 
HETATM   25  H   UNL     1      -7.553  16.741  65.313  1.00  0.00     0.000 HD 
HETATM   26  H   UNL     1      -7.773  22.197  66.769  1.00  0.00     0.000 HD 
ENDBRANCH  15  16
ENDBRANCH  12  15
ENDBRANCH   8   9
ENDBRANCH   7   8
ENDBRANCH   6   7
ENDBRANCH   5   6
ENDBRANCH   4   5
ENDBRANCH   3   4
ENDBRANCH   2   3
TORSDOF 9
ENDMDL
MODEL      289
REMARK 921   NORMALIZED FREE ENERGY PREDICTED BY IDOCK:   -2.37 KCAL/MOL
REMARK 922        TOTAL FREE ENERGY PREDICTED BY IDOCK:   -4.72 KCAL/MOL
REMARK 923 INTER-LIGAND FREE ENERGY PREDICTED BY IDOCK:   -4.41 KCAL/MOL
REMARK 924 INTRA-LIGAND FREE ENERGY PREDICTED BY IDOCK:   -0.31 KCAL/MOL
REMARK 927      BINDING AFFINITY PREDICTED BY RF-SCORE:    0.00 PKD
ROOT
HETATM    1  C   UNL     1      -7.517   7.985  73.958  1.00  0.00    -0.215 C  
HETATM    2  C   UNL     1      -8.456   6.954  74.557  1.00  0.00    -0.195 C  
ENDROOT
BRANCH   2   3
HETATM    3  C   UNL     1      -8.358   5.622  73.818  1.00  0.00    -0.114 C  
BRANCH   3   4
HETATM    4  C   UNL     1      -7.478   5.750  72.579  1.00  0.00    -0.096 C  
BRANCH   4   5
HETATM    5  C   UNL     1      -8.329   5.893  71.322  1.00  0.00    -0.124 C  
BRANCH   5   6
HETATM    6  C   UNL     1      -7.452   5.991  70.076  1.00  0.00    -0.083 C  
BRANCH   6   7
HETATM    7  C   UNL     1      -6.498   7.173  70.191  1.00  0.00    -0.042 C  
BRANCH   7   8
HETATM    8  C   UNL     1      -7.127   8.321  70.983  1.00  0.00    -0.056 C  
BRANCH   8   9
HETATM    9  C   UNL     1      -7.413   9.504  70.096  1.00  0.00    -0.137 A  
HETATM   10  C   UNL     1      -8.679   9.653  69.522  1.00  0.00    -0.191 A  
HETATM   11  C   UNL     1      -8.942  10.706  68.653  1.00  0.00    -0.170 A  
HETATM   12  C   UNL     1      -7.963  11.663  68.367  1.00  0.00    -0.140 A  
HETATM   13  C   UNL     1      -6.424  10.449  69.809  1.00  0.00    -0.089 A  
HETATM   14  C   UNL     1      -6.698  11.519  68.954  1.00  0.00    -0.086 A  
BRANCH  12  15
HETATM   15  C   UNL     1      -8.206  12.785  67.380  1.00  0.00    -0.186 C  
BRANCH  15  16
HETATM   16  C   UNL     1      -9.633  13.355  67.424  1.00  0.00    -0.223 C  
HETATM   17  C   UNL     1     -10.465  13.329  66.118  1.00  0.00    -0.293 C  
HETATM   18  C   UNL     1     -11.835  13.998  66.431  1.00  0.00    -0.418 C  
HETATM   19  N   UNL     1      -9.805  14.116  65.042  1.00  0.00    -0.566 NA 
HETATM   20  C   UNL     1     -10.726  11.883  65.615  1.00  0.00    -0.280 C  
HETATM   21  O   UNL     1     -12.638  14.094  65.256  1.00  0.00    -0.488 OA 
HETATM   22  O   UNL     1      -9.525  11.229  65.217  1.00  0.00    -0.219 OA 
HETATM   23  H1  UNL     1     -10.352  14.100  64.181  1.00  0.00     0.000 HD 
HETATM   24  H2  UNL     1      -8.848  13.802  64.882  1.00  0.00     0.000 HD 
HETATM   25  H   UNL     1      -9.685  10.344  64.909  1.00  0.00     0.000 HD 
HETATM   26  H   UNL     1     -13.474  14.502  65.447  1.00  0.00     0.000 HD 
ENDBRANCH  15  16
ENDBRANCH  12  15
ENDBRANCH   8   9
ENDBRANCH   7   8
ENDBRANCH   6   7
ENDBRANCH   5   6
ENDBRANCH   4   5
ENDBRANCH   3   4
ENDBRANCH   2   3
TORSDOF 9
ENDMDL
MODEL      290
REMARK 921   NORMALIZED FREE ENERGY PREDICTED BY IDOCK:   -2.34 KCAL/MOL
REMARK 922        TOTAL FREE ENERGY PREDICTED BY IDOCK:   -4.68 KCAL/MOL
REMARK 923 INTER-LIGAND FREE ENERGY PREDICTED BY IDOCK:   -3.26 KCAL/MOL
REMARK 924 INTRA-LIGAND FREE ENERGY PREDICTED BY IDOCK:   -1.43 KCAL/MOL
REMARK 927      BINDING AFFINITY PREDICTED BY RF-SCORE:    0.00 PKD
ROOT
HETATM    1  C   UNL     1      -9.633   6.859  66.495  1.00  0.00    -0.197 C  
HETATM    2  C   UNL     1     -10.855   6.992  67.386  1.00  0.00    -0.371 C  
ENDROOT
BRANCH   2   3
HETATM    3  C   UNL     1     -11.030   5.761  68.271  1.00  0.00    -0.152 C  
BRANCH   3   4
HETATM    4  C   UNL     1      -9.771   4.899  68.261  1.00  0.00    -0.204 C  
BRANCH   4   5
HETATM    5  C   UNL     1      -9.660   4.085  69.546  1.00  0.00    -0.265 C  
BRANCH   5   6
HETATM    6  C   UNL     1      -9.726   4.991  70.773  1.00  0.00    -0.263 C  
BRANCH   6   7
HETATM    7  C   UNL     1      -8.857   4.432  71.892  1.00  0.00    -0.139 C  
BRANCH   7   8
HETATM    8  C   UNL     1      -7.370   4.538  71.546  1.00  0.00    -0.064 C  
BRANCH   8   9
HETATM    9  C   UNL     1      -7.069   5.819  70.813  1.00  0.00    -0.070 A  
HETATM   10  C   UNL     1      -7.577   7.029  71.293  1.00  0.00    -0.086 A  
HETATM   11  C   UNL     1      -7.361   8.213  70.596  1.00  0.00    -0.053 A  
HETATM   12  C   UNL     1      -6.595   8.228  69.426  1.00  0.00    -0.042 A  
HETATM   13  C   UNL     1      -6.311   5.820  69.639  1.00  0.00    -0.037 A  
HETATM   14  C   UNL     1      -6.075   7.015  68.954  1.00  0.00    -0.027 A  
BRANCH  12  15
HETATM   15  C   UNL     1      -6.392   9.492  68.619  1.00  0.00    -0.048 C  
BRANCH  15  16
HETATM   16  C   UNL     1      -7.632   9.924  67.817  1.00  0.00    -0.090 C  
HETATM   17  C   UNL     1      -7.435  10.321  66.334  1.00  0.00    -0.114 C  
HETATM   18  C   UNL     1      -8.825  10.752  65.783  1.00  0.00    -0.188 C  
HETATM   19  N   UNL     1      -6.510  11.479  66.203  1.00  0.00    -0.360 NA 
HETATM   20  C   UNL     1      -6.908   9.140  65.474  1.00  0.00    -0.073 C  
HETATM   21  O   UNL     1      -8.721  11.216  64.439  1.00  0.00    -0.375 OA 
HETATM   22  O   UNL     1      -5.593   8.744  65.854  1.00  0.00    -0.044 OA 
HETATM   23  H1  UNL     1      -6.380  11.742  65.226  1.00  0.00     0.000 HD 
HETATM   24  H2  UNL     1      -5.618  11.300  66.665  1.00  0.00     0.000 HD 
HETATM   25  H   UNL     1      -5.272   8.021  65.327  1.00  0.00     0.000 HD 
HETATM   26  H   UNL     1      -9.570  11.479  64.103  1.00  0.00     0.000 HD 
ENDBRANCH  15  16
ENDBRANCH  12  15
ENDBRANCH   8   9
ENDBRANCH   7   8
ENDBRANCH   6   7
ENDBRANCH   5   6
ENDBRANCH   4   5
ENDBRANCH   3   4
ENDBRANCH   2   3
TORSDOF 9
ENDMDL
MODEL      291
REMARK 921   NORMALIZED FREE ENERGY PREDICTED BY IDOCK:   -2.24 KCAL/MOL
REMARK 922        TOTAL FREE ENERGY PREDICTED BY IDOCK:   -4.52 KCAL/MOL
REMARK 923 INTER-LIGAND FREE ENERGY PREDICTED BY IDOCK:   -3.87 KCAL/MOL
REMARK 924 INTRA-LIGAND FREE ENERGY PREDICTED BY IDOCK:   -0.65 KCAL/MOL
REMARK 927      BINDING AFFINITY PREDICTED BY RF-SCORE:    0.00 PKD
ROOT
HETATM    1  C   UNL     1     -12.400  15.077  64.119  1.00  0.00    -0.167 C  
HETATM    2  C   UNL     1     -12.306  14.073  65.254  1.00  0.00    -0.480 C  
ENDROOT
BRANCH   2   3
HETATM    3  C   UNL     1     -12.411  12.641  64.736  1.00  0.00    -0.555 C  
BRANCH   3   4
HETATM    4  C   UNL     1     -11.301  12.342  63.733  1.00  0.00    -0.534 C  
BRANCH   4   5
HETATM    5  C   UNL     1      -9.987  12.047  64.450  1.00  0.00    -0.254 C  
BRANCH   5   6
HETATM    6  C   UNL     1     -10.241  11.546  65.870  1.00  0.00    -0.286 C  
BRANCH   6   7
HETATM    7  C   UNL     1      -9.244  10.452  66.232  1.00  0.00    -0.195 C  
BRANCH   7   8
HETATM    8  C   UNL     1      -8.888  10.494  67.720  1.00  0.00    -0.125 C  
BRANCH   8   9
HETATM    9  C   UNL     1      -8.413   9.150  68.206  1.00  0.00    -0.125 A  
HETATM   10  C   UNL     1      -7.297   9.069  69.044  1.00  0.00    -0.073 A  
HETATM   11  C   UNL     1      -6.809   7.834  69.454  1.00  0.00    -0.044 A  
HETATM   12  C   UNL     1      -7.445   6.648  69.075  1.00  0.00    -0.095 A  
HETATM   13  C   UNL     1      -9.051   7.971  67.812  1.00  0.00    -0.136 A  
HETATM   14  C   UNL     1      -8.572   6.732  68.245  1.00  0.00    -0.124 A  
BRANCH  12  15
HETATM   15  C   UNL     1      -6.901   5.289  69.459  1.00  0.00    -0.053 C  
BRANCH  15  16
HETATM   16  C   UNL     1      -7.925   4.149  69.332  1.00  0.00    -0.056 C  
HETATM   17  C   UNL     1      -8.349   3.407  70.623  1.00  0.00    -0.056 C  
HETATM   18  C   UNL     1      -9.346   2.287  70.205  1.00  0.00    -0.109 C  
HETATM   19  N   UNL     1      -7.182   2.760  71.282  1.00  0.00    -0.032 NA 
HETATM   20  C   UNL     1      -9.059   4.347  71.635  1.00  0.00    -0.130 C  
HETATM   21  O   UNL     1      -9.726   1.496  71.328  1.00  0.00    -0.125 OA 
HETATM   22  O   UNL     1      -8.182   5.350  72.142  1.00  0.00    -0.112 OA 
HETATM   23  H1  UNL     1      -7.461   2.271  72.133  1.00  0.00     0.000 HD 
HETATM   24  H2  UNL     1      -6.436   3.430  71.463  1.00  0.00     0.000 HD 
HETATM   25  H   UNL     1      -8.617   5.925  72.761  1.00  0.00     0.000 HD 
HETATM   26  H   UNL     1     -10.335   0.812  71.073  1.00  0.00     0.000 HD 
ENDBRANCH  15  16
ENDBRANCH  12  15
ENDBRANCH   8   9
ENDBRANCH   7   8
ENDBRANCH   6   7
ENDBRANCH   5   6
ENDBRANCH   4   5
ENDBRANCH   3   4
ENDBRANCH   2   3
TORSDOF 9
ENDMDL
MODEL      292
REMARK 921   NORMALIZED FREE ENERGY PREDICTED BY IDOCK:   -2.23 KCAL/MOL
REMARK 922        TOTAL FREE ENERGY PREDICTED BY IDOCK:   -4.51 KCAL/MOL
REMARK 923 INTER-LIGAND FREE ENERGY PREDICTED BY IDOCK:   -3.60 KCAL/MOL
REMARK 924 INTRA-LIGAND FREE ENERGY PREDICTED BY IDOCK:   -0.92 KCAL/MOL
REMARK 927      BINDING AFFINITY PREDICTED BY RF-SCORE:    0.00 PKD
ROOT
HETATM    1  C   UNL     1      -5.706  10.019  63.261  1.00  0.00    -0.116 C  
HETATM    2  C   UNL     1      -5.338   9.659  64.689  1.00  0.00    -0.061 C  
ENDROOT
BRANCH   2   3
HETATM    3  C   UNL     1      -6.239  10.378  65.690  1.00  0.00    -0.126 C  
BRANCH   3   4
HETATM    4  C   UNL     1      -7.584   9.669  65.819  1.00  0.00    -0.103 C  
BRANCH   4   5
HETATM    5  C   UNL     1      -7.440   8.178  65.535  1.00  0.00    -0.081 C  
BRANCH   5   6
HETATM    6  C   UNL     1      -7.567   7.362  66.819  1.00  0.00    -0.101 C  
BRANCH   6   7
HETATM    7  C   UNL     1      -8.064   8.242  67.959  1.00  0.00    -0.127 C  
BRANCH   7   8
HETATM    8  C   UNL     1      -9.416   7.756  68.488  1.00  0.00    -0.148 C  
BRANCH   8   9
HETATM    9  C   UNL     1     -10.294   8.913  68.887  1.00  0.00    -0.229 A  
HETATM   10  C   UNL     1      -9.782  10.213  68.867  1.00  0.00    -0.189 A  
HETATM   11  C   UNL     1     -10.558  11.286  69.290  1.00  0.00    -0.187 A  
HETATM   12  C   UNL     1     -11.881  11.096  69.703  1.00  0.00    -0.419 A  
HETATM   13  C   UNL     1     -11.611   8.710  69.308  1.00  0.00     0.763 A  
HETATM   14  C   UNL     1     -12.397   9.793  69.710  1.00  0.00     0.434 A  
BRANCH  12  15
HETATM   15  C   UNL     1     -12.728  12.238  70.223  1.00  0.00     0.108 C  
BRANCH  15  16
HETATM   16  C   UNL     1     -11.923  13.500  70.577  1.00  0.00    -0.344 C  
HETATM   17  C   UNL     1     -12.668  14.663  71.275  1.00  0.00    -0.332 C  
HETATM   18  C   UNL     1     -11.640  15.815  71.475  1.00  0.00    -0.459 C  
HETATM   19  N   UNL     1     -13.778  15.180  70.429  1.00  0.00    -0.465 NA 
HETATM   20  C   UNL     1     -13.226  14.254  72.666  1.00  0.00    -0.510 C  
HETATM   21  O   UNL     1     -12.265  16.965  72.039  1.00  0.00    -0.205 OA 
HETATM   22  O   UNL     1     -14.246  13.264  72.564  1.00  0.00    -0.697 OA 
HETATM   23  H1  UNL     1     -14.269  15.946  70.889  1.00  0.00     0.000 HD 
HETATM   24  H2  UNL     1     -14.419  14.434  70.157  1.00  0.00     0.000 HD 
HETATM   25  H   UNL     1     -14.588  13.014  73.415  1.00  0.00     0.000 HD 
HETATM   26  H   UNL     1     -11.638  17.669  72.161  1.00  0.00     0.000 HD 
ENDBRANCH  15  16
ENDBRANCH  12  15
ENDBRANCH   8   9
ENDBRANCH   7   8
ENDBRANCH   6   7
ENDBRANCH   5   6
ENDBRANCH   4   5
ENDBRANCH   3   4
ENDBRANCH   2   3
TORSDOF 9
ENDMDL
MODEL      293
REMARK 921   NORMALIZED FREE ENERGY PREDICTED BY IDOCK:   -2.22 KCAL/MOL
REMARK 922        TOTAL FREE ENERGY PREDICTED BY IDOCK:   -4.50 KCAL/MOL
REMARK 923 INTER-LIGAND FREE ENERGY PREDICTED BY IDOCK:   -3.99 KCAL/MOL
REMARK 924 INTRA-LIGAND FREE ENERGY PREDICTED BY IDOCK:   -0.52 KCAL/MOL
REMARK 927      BINDING AFFINITY PREDICTED BY RF-SCORE:    0.00 PKD
ROOT
HETATM    1  C   UNL     1     -11.102  15.877  71.592  1.00  0.00    -0.042 C  
HETATM    2  C   UNL     1     -11.173  14.992  70.360  1.00  0.00    -0.290 C  
ENDROOT
BRANCH   2   3
HETATM    3  C   UNL     1     -12.614  14.810  69.893  1.00  0.00    -0.215 C  
BRANCH   3   4
HETATM    4  C   UNL     1     -13.370  13.859  70.816  1.00  0.00    -0.038 C  
BRANCH   4   5
HETATM    5  C   UNL     1     -12.422  12.844  71.444  1.00  0.00    -0.234 C  
BRANCH   5   6
HETATM    6  C   UNL     1     -13.182  11.611  71.925  1.00  0.00    -0.475 C  
BRANCH   6   7
HETATM    7  C   UNL     1     -12.606  10.351  71.291  1.00  0.00    -0.525 C  
BRANCH   7   8
HETATM    8  C   UNL     1     -11.215  10.610  70.705  1.00  0.00    -0.182 C  
BRANCH   8   9
HETATM    9  C   UNL     1     -10.480   9.319  70.454  1.00  0.00    -0.296 A  
HETATM   10  C   UNL     1      -9.082   9.300  70.481  1.00  0.00    -0.307 A  
HETATM   11  C   UNL     1      -8.386   8.132  70.192  1.00  0.00    -0.125 A  
HETATM   12  C   UNL     1      -9.064   6.941  69.912  1.00  0.00    -0.144 A  
HETATM   13  C   UNL     1     -11.168   8.138  70.165  1.00  0.00    -0.134 A  
HETATM   14  C   UNL     1     -10.466   6.960  69.899  1.00  0.00    -0.239 A  
BRANCH  12  15
HETATM   15  C   UNL     1      -8.331   5.671  69.538  1.00  0.00    -0.103 C  
BRANCH  15  16
HETATM   16  C   UNL     1      -7.903   4.821  70.746  1.00  0.00    -0.074 C  
HETATM   17  C   UNL     1      -8.857   3.697  71.217  1.00  0.00    -0.088 C  
HETATM   18  C   UNL     1      -8.207   3.034  72.466  1.00  0.00    -0.067 C  
HETATM   19  N   UNL     1     -10.179   4.246  71.624  1.00  0.00    -0.138 NA 
HETATM   20  C   UNL     1      -9.063   2.606  70.130  1.00  0.00    -0.116 C  
HETATM   21  O   UNL     1      -9.064   2.037  73.019  1.00  0.00    -0.069 OA 
HETATM   22  O   UNL     1      -9.740   3.113  68.984  1.00  0.00    -0.085 OA 
HETATM   23  H1  UNL     1     -10.808   3.506  71.934  1.00  0.00     0.000 HD 
HETATM   24  H2  UNL     1     -10.597   4.805  70.880  1.00  0.00     0.000 HD 
HETATM   25  H   UNL     1      -9.866   2.445  68.319  1.00  0.00     0.000 HD 
HETATM   26  H   UNL     1      -8.668   1.632  73.782  1.00  0.00     0.000 HD 
ENDBRANCH  15  16
ENDBRANCH  12  15
ENDBRANCH   8   9
ENDBRANCH   7   8
ENDBRANCH   6   7
ENDBRANCH   5   6
ENDBRANCH   4   5
ENDBRANCH   3   4
ENDBRANCH   2   3
TORSDOF 9
ENDMDL
MODEL      294
REMARK 921   NORMALIZED FREE ENERGY PREDICTED BY IDOCK:   -2.18 KCAL/MOL
REMARK 922        TOTAL FREE ENERGY PREDICTED BY IDOCK:   -4.44 KCAL/MOL
REMARK 923 INTER-LIGAND FREE ENERGY PREDICTED BY IDOCK:   -3.00 KCAL/MOL
REMARK 924 INTRA-LIGAND FREE ENERGY PREDICTED BY IDOCK:   -1.44 KCAL/MOL
REMARK 927      BINDING AFFINITY PREDICTED BY RF-SCORE:    0.00 PKD
ROOT
HETATM    1  C   UNL     1      -8.671   4.290  62.560  1.00  0.00    -0.100 C  
HETATM    2  C   UNL     1      -8.248   4.197  64.015  1.00  0.00    -0.093 C  
ENDROOT
BRANCH   2   3
HETATM    3  C   UNL     1      -9.239   3.368  64.827  1.00  0.00    -0.142 C  
BRANCH   3   4
HETATM    4  C   UNL     1      -9.344   3.890  66.256  1.00  0.00    -0.186 C  
BRANCH   4   5
HETATM    5  C   UNL     1      -9.037   2.785  67.261  1.00  0.00    -0.203 C  
BRANCH   5   6
HETATM    6  C   UNL     1      -7.549   2.447  67.264  1.00  0.00    -0.061 C  
BRANCH   6   7
HETATM    7  C   UNL     1      -6.798   3.369  68.216  1.00  0.00    -0.049 C  
BRANCH   7   8
HETATM    8  C   UNL     1      -5.863   4.312  67.453  1.00  0.00    -0.023 C  
BRANCH   8   9
HETATM    9  C   UNL     1      -6.214   5.754  67.711  1.00  0.00    -0.030 A  
HETATM   10  C   UNL     1      -7.175   6.074  68.674  1.00  0.00    -0.084 A  
HETATM   11  C   UNL     1      -7.555   7.396  68.883  1.00  0.00    -0.103 A  
HETATM   12  C   UNL     1      -6.955   8.437  68.168  1.00  0.00    -0.081 A  
HETATM   13  C   UNL     1      -5.615   6.786  66.983  1.00  0.00    -0.014 A  
HETATM   14  C   UNL     1      -5.981   8.115  67.212  1.00  0.00    -0.050 A  
BRANCH  12  15
HETATM   15  C   UNL     1      -7.390   9.877  68.334  1.00  0.00    -0.078 C  
BRANCH  15  16
HETATM   16  C   UNL     1      -8.809  10.036  68.905  1.00  0.00    -0.148 C  
HETATM   17  C   UNL     1      -9.922  10.537  67.953  1.00  0.00    -0.169 C  
HETATM   18  C   UNL     1     -11.230  10.647  68.790  1.00  0.00    -0.279 C  
HETATM   19  N   UNL     1      -9.606  11.888  67.416  1.00  0.00    -0.173 NA 
HETATM   20  C   UNL     1     -10.173   9.557  66.774  1.00  0.00    -0.243 C  
HETATM   21  O   UNL     1     -12.294  11.185  68.008  1.00  0.00    -0.534 OA 
HETATM   22  O   UNL     1      -9.050   9.470  65.901  1.00  0.00    -0.159 OA 
HETATM   23  H1  UNL     1     -10.339  12.218  66.788  1.00  0.00     0.000 HD 
HETATM   24  H2  UNL     1      -8.691  11.906  66.965  1.00  0.00     0.000 HD 
HETATM   25  H   UNL     1      -9.204   8.871  65.180  1.00  0.00     0.000 HD 
HETATM   26  H   UNL     1     -13.092  11.252  68.519  1.00  0.00     0.000 HD 
ENDBRANCH  15  16
ENDBRANCH  12  15
ENDBRANCH   8   9
ENDBRANCH   7   8
ENDBRANCH   6   7
ENDBRANCH   5   6
ENDBRANCH   4   5
ENDBRANCH   3   4
ENDBRANCH   2   3
TORSDOF 9
ENDMDL
MODEL      295
REMARK 921   NORMALIZED FREE ENERGY PREDICTED BY IDOCK:   -2.04 KCAL/MOL
REMARK 922        TOTAL FREE ENERGY PREDICTED BY IDOCK:   -4.23 KCAL/MOL
REMARK 923 INTER-LIGAND FREE ENERGY PREDICTED BY IDOCK:   -3.26 KCAL/MOL
REMARK 924 INTRA-LIGAND FREE ENERGY PREDICTED BY IDOCK:   -0.96 KCAL/MOL
REMARK 927      BINDING AFFINITY PREDICTED BY RF-SCORE:    0.00 PKD
ROOT
HETATM    1  C   UNL     1      -7.324   9.951  62.785  1.00  0.00    -0.126 C  
HETATM    2  C   UNL     1      -7.786   8.506  62.854  1.00  0.00    -0.124 C  
ENDROOT
BRANCH   2   3
HETATM    3  C   UNL     1      -7.343   7.845  64.157  1.00  0.00    -0.097 C  
BRANCH   3   4
HETATM    4  C   UNL     1      -7.527   8.793  65.338  1.00  0.00    -0.086 C  
BRANCH   4   5
HETATM    5  C   UNL     1      -8.882   8.574  66.003  1.00  0.00    -0.208 C  
BRANCH   5   6
HETATM    6  C   UNL     1      -9.883   9.640  65.568  1.00  0.00    -0.352 C  
BRANCH   6   7
HETATM    7  C   UNL     1     -10.848   9.957  66.704  1.00  0.00    -0.031 C  
BRANCH   7   8
HETATM    8  C   UNL     1     -10.097  10.268  68.001  1.00  0.00    -0.189 C  
BRANCH   8   9
HETATM    9  C   UNL     1      -9.228  11.489  67.849  1.00  0.00    -0.168 A  
HETATM   10  C   UNL     1      -9.817  12.740  67.646  1.00  0.00    -0.214 A  
HETATM   11  C   UNL     1      -9.030  13.869  67.444  1.00  0.00    -0.211 A  
HETATM   12  C   UNL     1      -7.634  13.787  67.482  1.00  0.00    -0.185 A  
HETATM   13  C   UNL     1      -7.834  11.394  67.879  1.00  0.00    -0.117 A  
HETATM   14  C   UNL     1      -7.046  12.533  67.699  1.00  0.00    -0.139 A  
BRANCH  12  15
HETATM   15  C   UNL     1      -6.755  14.988  67.208  1.00  0.00     0.015 C  
BRANCH  15  16
HETATM   16  C   UNL     1      -6.162  15.627  68.475  1.00  0.00    -0.101 C  
HETATM   17  C   UNL     1      -6.569  17.082  68.812  1.00  0.00    -0.187 C  
HETATM   18  C   UNL     1      -5.799  17.489  70.102  1.00  0.00    -0.189 C  
HETATM   19  N   UNL     1      -6.173  18.019  67.726  1.00  0.00    -0.172 NA 
HETATM   20  C   UNL     1      -8.093  17.219  69.083  1.00  0.00    -0.006 C  
HETATM   21  O   UNL     1      -6.052  18.851  70.440  1.00  0.00    -0.163 OA 
HETATM   22  O   UNL     1      -8.870  16.953  67.919  1.00  0.00    -0.211 OA 
HETATM   23  H1  UNL     1      -6.441  18.978  67.948  1.00  0.00     0.000 HD 
HETATM   24  H2  UNL     1      -6.546  17.726  66.824  1.00  0.00     0.000 HD 
HETATM   25  H   UNL     1      -9.802  17.037  68.085  1.00  0.00     0.000 HD 
HETATM   26  H   UNL     1      -5.583  19.100  71.228  1.00  0.00     0.000 HD 
ENDBRANCH  15  16
ENDBRANCH  12  15
ENDBRANCH   8   9
ENDBRANCH   7   8
ENDBRANCH   6   7
ENDBRANCH   5   6
ENDBRANCH   4   5
ENDBRANCH   3   4
ENDBRANCH   2   3
TORSDOF 9
ENDMDL
MODEL      296
REMARK 921   NORMALIZED FREE ENERGY PREDICTED BY IDOCK:   -2.03 KCAL/MOL
REMARK 922        TOTAL FREE ENERGY PREDICTED BY IDOCK:   -4.20 KCAL/MOL
REMARK 923 INTER-LIGAND FREE ENERGY PREDICTED BY IDOCK:   -3.21 KCAL/MOL
REMARK 924 INTRA-LIGAND FREE ENERGY PREDICTED BY IDOCK:   -0.99 KCAL/MOL
REMARK 927      BINDING AFFINITY PREDICTED BY RF-SCORE:    0.00 PKD
ROOT
HETATM    1  C   UNL     1     -10.618  11.635  63.641  1.00  0.00    -0.493 C  
HETATM    2  C   UNL     1     -10.693  11.945  65.126  1.00  0.00    -0.339 C  
ENDROOT
BRANCH   2   3
HETATM    3  C   UNL     1     -10.224  10.758  65.963  1.00  0.00    -0.310 C  
BRANCH   3   4
HETATM    4  C   UNL     1      -8.760  10.917  66.361  1.00  0.00    -0.174 C  
BRANCH   4   5
HETATM    5  C   UNL     1      -8.508  12.298  66.958  1.00  0.00    -0.181 C  
BRANCH   5   6
HETATM    6  C   UNL     1      -7.077  12.414  67.478  1.00  0.00    -0.145 C  
BRANCH   6   7
HETATM    7  C   UNL     1      -7.057  12.328  68.999  1.00  0.00    -0.051 C  
BRANCH   7   8
HETATM    8  C   UNL     1      -5.949  11.392  69.488  1.00  0.00    -0.086 C  
BRANCH   8   9
HETATM    9  C   UNL     1      -6.522  10.175  70.167  1.00  0.00    -0.118 A  
HETATM   10  C   UNL     1      -7.607   9.507  69.593  1.00  0.00    -0.103 A  
HETATM   11  C   UNL     1      -8.187   8.418  70.235  1.00  0.00    -0.121 A  
HETATM   12  C   UNL     1      -7.673   7.941  71.445  1.00  0.00    -0.085 A  
HETATM   13  C   UNL     1      -6.006   9.713  71.380  1.00  0.00    -0.025 A  
HETATM   14  C   UNL     1      -6.576   8.604  72.012  1.00  0.00    -0.079 A  
BRANCH  12  15
HETATM   15  C   UNL     1      -8.321   6.795  72.193  1.00  0.00    -0.107 C  
BRANCH  15  16
HETATM   16  C   UNL     1      -7.774   5.411  71.805  1.00  0.00    -0.110 C  
HETATM   17  C   UNL     1      -8.679   4.179  72.051  1.00  0.00    -0.106 C  
HETATM   18  C   UNL     1      -7.872   2.921  71.616  1.00  0.00    -0.056 C  
HETATM   19  N   UNL     1      -9.015   4.034  73.493  1.00  0.00    -0.099 NA 
HETATM   20  C   UNL     1      -9.989   4.236  71.218  1.00  0.00    -0.160 C  
HETATM   21  O   UNL     1      -8.603   1.726  71.887  1.00  0.00    -0.057 OA 
HETATM   22  O   UNL     1     -10.833   5.312  71.620  1.00  0.00    -0.203 OA 
HETATM   23  H1  UNL     1      -9.611   3.222  73.655  1.00  0.00     0.000 HD 
HETATM   24  H2  UNL     1      -9.432   4.885  73.867  1.00  0.00     0.000 HD 
HETATM   25  H   UNL     1     -11.635   5.346  71.110  1.00  0.00     0.000 HD 
HETATM   26  H   UNL     1      -8.110   0.958  71.623  1.00  0.00     0.000 HD 
ENDBRANCH  15  16
ENDBRANCH  12  15
ENDBRANCH   8   9
ENDBRANCH   7   8
ENDBRANCH   6   7
ENDBRANCH   5   6
ENDBRANCH   4   5
ENDBRANCH   3   4
ENDBRANCH   2   3
TORSDOF 9
ENDMDL
MODEL      297
REMARK 921   NORMALIZED FREE ENERGY PREDICTED BY IDOCK:   -1.93 KCAL/MOL
REMARK 922        TOTAL FREE ENERGY PREDICTED BY IDOCK:   -4.05 KCAL/MOL
REMARK 923 INTER-LIGAND FREE ENERGY PREDICTED BY IDOCK:   -3.48 KCAL/MOL
REMARK 924 INTRA-LIGAND FREE ENERGY PREDICTED BY IDOCK:   -0.57 KCAL/MOL
REMARK 927      BINDING AFFINITY PREDICTED BY RF-SCORE:    0.00 PKD
ROOT
HETATM    1  C   UNL     1     -12.115  14.747  64.433  1.00  0.00    -0.457 C  
HETATM    2  C   UNL     1     -12.680  13.936  65.586  1.00  0.00    -0.534 C  
ENDROOT
BRANCH   2   3
HETATM    3  C   UNL     1     -12.989  12.505  65.157  1.00  0.00     0.240 C  
BRANCH   3   4
HETATM    4  C   UNL     1     -11.783  11.869  64.473  1.00  0.00    -0.326 C  
BRANCH   4   5
HETATM    5  C   UNL     1     -10.773  11.375  65.503  1.00  0.00    -0.313 C  
BRANCH   5   6
HETATM    6  C   UNL     1     -11.469  10.969  66.799  1.00  0.00     0.097 C  
BRANCH   6   7
HETATM    7  C   UNL     1     -10.623   9.956  67.560  1.00  0.00    -0.333 C  
BRANCH   7   8
HETATM    8  C   UNL     1     -10.430  10.377  69.019  1.00  0.00    -0.240 C  
BRANCH   8   9
HETATM    9  C   UNL     1      -9.839   9.258  69.837  1.00  0.00    -0.219 A  
HETATM   10  C   UNL     1     -10.406   8.925  71.070  1.00  0.00    -0.321 A  
HETATM   11  C   UNL     1      -9.838   7.936  71.865  1.00  0.00    -0.233 A  
HETATM   12  C   UNL     1      -8.715   7.223  71.432  1.00  0.00    -0.126 A  
HETATM   13  C   UNL     1      -8.710   8.560  69.398  1.00  0.00    -0.136 A  
HETATM   14  C   UNL     1      -8.156   7.550  70.189  1.00  0.00    -0.119 A  
BRANCH  12  15
HETATM   15  C   UNL     1      -8.043   6.183  72.303  1.00  0.00    -0.109 C  
BRANCH  15  16
HETATM   16  C   UNL     1      -6.839   5.498  71.637  1.00  0.00    -0.066 C  
HETATM   17  C   UNL     1      -7.020   4.048  71.126  1.00  0.00    -0.032 C  
HETATM   18  C   UNL     1      -5.650   3.589  70.545  1.00  0.00    -0.013 C  
HETATM   19  N   UNL     1      -7.380   3.125  72.235  1.00  0.00    -0.050 NA 
HETATM   20  C   UNL     1      -8.089   3.949  70.003  1.00  0.00    -0.053 C  
HETATM   21  O   UNL     1      -5.704   2.227  70.125  1.00  0.00    -0.016 OA 
HETATM   22  O   UNL     1      -9.395   4.264  70.478  1.00  0.00    -0.117 OA 
HETATM   23  H1  UNL     1      -7.500   2.169  71.899  1.00  0.00     0.000 HD 
HETATM   24  H2  UNL     1      -8.205   3.450  72.739  1.00  0.00     0.000 HD 
HETATM   25  H   UNL     1     -10.049   4.204  69.790  1.00  0.00     0.000 HD 
HETATM   26  H   UNL     1      -4.868   1.947  69.771  1.00  0.00     0.000 HD 
ENDBRANCH  15  16
ENDBRANCH  12  15
ENDBRANCH   8   9
ENDBRANCH   7   8
ENDBRANCH   6   7
ENDBRANCH   5   6
ENDBRANCH   4   5
ENDBRANCH   3   4
ENDBRANCH   2   3
TORSDOF 9
ENDMDL
MODEL      298
REMARK 921   NORMALIZED FREE ENERGY PREDICTED BY IDOCK:   -1.83 KCAL/MOL
REMARK 922        TOTAL FREE ENERGY PREDICTED BY IDOCK:   -3.91 KCAL/MOL
REMARK 923 INTER-LIGAND FREE ENERGY PREDICTED BY IDOCK:   -2.93 KCAL/MOL
REMARK 924 INTRA-LIGAND FREE ENERGY PREDICTED BY IDOCK:   -0.98 KCAL/MOL
REMARK 927      BINDING AFFINITY PREDICTED BY RF-SCORE:    0.00 PKD
ROOT
HETATM    1  C   UNL     1     -12.216   2.243  62.435  1.00  0.00     1.484 C  
HETATM    2  C   UNL     1     -10.846   2.867  62.635  1.00  0.00    -0.173 C  
ENDROOT
BRANCH   2   3
HETATM    3  C   UNL     1     -10.737   3.534  64.003  1.00  0.00    -0.220 C  
BRANCH   3   4
HETATM    4  C   UNL     1      -9.283   3.615  64.456  1.00  0.00    -0.141 C  
BRANCH   4   5
HETATM    5  C   UNL     1      -9.141   3.170  65.908  1.00  0.00    -0.150 C  
BRANCH   5   6
HETATM    6  C   UNL     1      -8.052   3.968  66.620  1.00  0.00    -0.097 C  
BRANCH   6   7
HETATM    7  C   UNL     1      -8.139   3.757  68.126  1.00  0.00    -0.085 C  
BRANCH   7   8
HETATM    8  C   UNL     1      -9.498   4.201  68.673  1.00  0.00    -0.221 C  
BRANCH   8   9
HETATM    9  C   UNL     1      -9.749   5.660  68.393  1.00  0.00    -0.161 A  
HETATM   10  C   UNL     1      -8.958   6.631  69.014  1.00  0.00    -0.130 A  
HETATM   11  C   UNL     1      -9.214   7.984  68.815  1.00  0.00    -0.143 A  
HETATM   12  C   UNL     1     -10.237   8.403  67.958  1.00  0.00    -0.263 A  
HETATM   13  C   UNL     1     -10.780   6.067  67.543  1.00  0.00    -0.383 A  
HETATM   14  C   UNL     1     -11.019   7.426  67.326  1.00  0.00    -0.234 A  
BRANCH  12  15
HETATM   15  C   UNL     1     -10.572   9.866  67.769  1.00  0.00    -0.313 C  
BRANCH  15  16
HETATM   16  C   UNL     1      -9.349  10.797  67.815  1.00  0.00    -0.158 C  
HETATM   17  C   UNL     1      -9.484  12.205  67.187  1.00  0.00    -0.190 C  
HETATM   18  C   UNL     1      -8.103  12.909  67.331  1.00  0.00    -0.181 C  
HETATM   19  N   UNL     1      -9.808  12.121  65.737  1.00  0.00    -0.246 NA 
HETATM   20  C   UNL     1     -10.556  13.070  67.906  1.00  0.00    -0.229 C  
HETATM   21  O   UNL     1      -8.113  14.188  66.700  1.00  0.00    -0.341 OA 
HETATM   22  O   UNL     1     -11.869  12.542  67.742  1.00  0.00    -0.351 OA 
HETATM   23  H1  UNL     1      -9.897  13.049  65.322  1.00  0.00     0.000 HD 
HETATM   24  H2  UNL     1     -10.640  11.556  65.572  1.00  0.00     0.000 HD 
HETATM   25  H   UNL     1     -12.524  13.071  68.183  1.00  0.00     0.000 HD 
HETATM   26  H   UNL     1      -7.271  14.617  66.788  1.00  0.00     0.000 HD 
ENDBRANCH  15  16
ENDBRANCH  12  15
ENDBRANCH   8   9
ENDBRANCH   7   8
ENDBRANCH   6   7
ENDBRANCH   5   6
ENDBRANCH   4   5
ENDBRANCH   3   4
ENDBRANCH   2   3
TORSDOF 9
ENDMDL
MODEL      299
REMARK 921   NORMALIZED FREE ENERGY PREDICTED BY IDOCK:   -1.74 KCAL/MOL
REMARK 922        TOTAL FREE ENERGY PREDICTED BY IDOCK:   -3.76 KCAL/MOL
REMARK 923 INTER-LIGAND FREE ENERGY PREDICTED BY IDOCK:   -3.10 KCAL/MOL
REMARK 924 INTRA-LIGAND FREE ENERGY PREDICTED BY IDOCK:   -0.67 KCAL/MOL
REMARK 927      BINDING AFFINITY PREDICTED BY RF-SCORE:    0.00 PKD
ROOT
HETATM    1  C   UNL     1      -5.724   9.636  62.340  1.00  0.00    -0.089 C  
HETATM    2  C   UNL     1      -5.733   9.409  63.841  1.00  0.00    -0.079 C  
ENDROOT
BRANCH   2   3
HETATM    3  C   UNL     1      -6.814  10.245  64.520  1.00  0.00    -0.069 C  
BRANCH   3   4
HETATM    4  C   UNL     1      -8.180   9.576  64.393  1.00  0.00    -0.148 C  
BRANCH   4   5
HETATM    5  C   UNL     1      -8.046   8.058  64.432  1.00  0.00    -0.123 C  
BRANCH   5   6
HETATM    6  C   UNL     1      -8.451   7.509  65.798  1.00  0.00    -0.151 C  
BRANCH   6   7
HETATM    7  C   UNL     1      -9.051   8.615  66.658  1.00  0.00    -0.203 C  
BRANCH   7   8
HETATM    8  C   UNL     1     -10.432   8.220  67.186  1.00  0.00    -0.386 C  
BRANCH   8   9
HETATM    9  C   UNL     1     -10.320   7.355  68.415  1.00  0.00    -0.224 A  
HETATM   10  C   UNL     1      -9.061   7.074  68.954  1.00  0.00    -0.134 A  
HETATM   11  C   UNL     1      -8.934   6.229  70.051  1.00  0.00    -0.149 A  
HETATM   12  C   UNL     1     -10.062   5.678  70.667  1.00  0.00    -0.274 A  
HETATM   13  C   UNL     1     -11.453   6.802  69.016  1.00  0.00    -0.072 A  
HETATM   14  C   UNL     1     -11.324   5.972  70.133  1.00  0.00    -0.351 A  
BRANCH  12  15
HETATM   15  C   UNL     1      -9.948   4.710  71.825  1.00  0.00    -0.260 C  
BRANCH  15  16
HETATM   16  C   UNL     1      -8.621   4.815  72.595  1.00  0.00    -0.115 C  
HETATM   17  C   UNL     1      -7.834   3.509  72.865  1.00  0.00    -0.065 C  
HETATM   18  C   UNL     1      -6.571   3.894  73.689  1.00  0.00    -0.046 C  
HETATM   19  N   UNL     1      -8.636   2.553  73.675  1.00  0.00    -0.070 NA 
HETATM   20  C   UNL     1      -7.374   2.817  71.553  1.00  0.00    -0.040 C  
HETATM   21  O   UNL     1      -5.827   2.734  74.056  1.00  0.00     0.000 OA 
HETATM   22  O   UNL     1      -8.476   2.347  70.780  1.00  0.00    -0.049 OA 
HETATM   23  H1  UNL     1      -8.118   1.692  73.853  1.00  0.00     0.000 HD 
HETATM   24  H2  UNL     1      -9.540   2.363  73.242  1.00  0.00     0.000 HD 
HETATM   25  H   UNL     1      -8.194   1.924  69.977  1.00  0.00     0.000 HD 
HETATM   26  H   UNL     1      -5.056   2.969  74.559  1.00  0.00     0.000 HD 
ENDBRANCH  15  16
ENDBRANCH  12  15
ENDBRANCH   8   9
ENDBRANCH   7   8
ENDBRANCH   6   7
ENDBRANCH   5   6
ENDBRANCH   4   5
ENDBRANCH   3   4
ENDBRANCH   2   3
TORSDOF 9
ENDMDL
MODEL      300
REMARK 921   NORMALIZED FREE ENERGY PREDICTED BY IDOCK:   -1.72 KCAL/MOL
REMARK 922        TOTAL FREE ENERGY PREDICTED BY IDOCK:   -3.73 KCAL/MOL
REMARK 923 INTER-LIGAND FREE ENERGY PREDICTED BY IDOCK:   -2.76 KCAL/MOL
REMARK 924 INTRA-LIGAND FREE ENERGY PREDICTED BY IDOCK:   -0.97 KCAL/MOL
REMARK 927      BINDING AFFINITY PREDICTED BY RF-SCORE:    0.00 PKD
ROOT
HETATM    1  C   UNL     1      -8.396   8.931  73.340  1.00  0.00     0.624 C  
HETATM    2  C   UNL     1      -8.097   7.442  73.360  1.00  0.00    -0.140 C  
ENDROOT
BRANCH   2   3
HETATM    3  C   UNL     1      -7.514   6.977  72.029  1.00  0.00    -0.090 C  
BRANCH   3   4
HETATM    4  C   UNL     1      -8.544   7.099  70.911  1.00  0.00    -0.138 C  
BRANCH   4   5
HETATM    5  C   UNL     1      -9.806   6.313  71.248  1.00  0.00    -0.197 C  
BRANCH   5   6
HETATM    6  C   UNL     1      -9.460   4.910  71.741  1.00  0.00    -0.199 C  
BRANCH   6   7
HETATM    7  C   UNL     1      -8.616   4.177  70.706  1.00  0.00    -0.107 C  
BRANCH   7   8
HETATM    8  C   UNL     1      -9.469   3.707  69.525  1.00  0.00    -0.246 C  
BRANCH   8   9
HETATM    9  C   UNL     1      -9.086   4.422  68.256  1.00  0.00    -0.165 A  
HETATM   10  C   UNL     1      -7.797   4.943  68.114  1.00  0.00    -0.083 A  
HETATM   11  C   UNL     1      -7.445   5.659  66.975  1.00  0.00    -0.084 A  
HETATM   12  C   UNL     1      -8.355   5.835  65.928  1.00  0.00    -0.130 A  
HETATM   13  C   UNL     1     -10.007   4.601  67.220  1.00  0.00    -0.203 A  
HETATM   14  C   UNL     1      -9.643   5.300  66.066  1.00  0.00    -0.166 A  
BRANCH  12  15
HETATM   15  C   UNL     1      -8.015   6.658  64.703  1.00  0.00    -0.113 C  
BRANCH  15  16
HETATM   16  C   UNL     1      -6.843   7.630  64.912  1.00  0.00    -0.051 C  
HETATM   17  C   UNL     1      -6.982   9.066  64.351  1.00  0.00    -0.089 C  
HETATM   18  C   UNL     1      -5.651   9.813  64.659  1.00  0.00    -0.079 C  
HETATM   19  N   UNL     1      -7.170   9.053  62.875  1.00  0.00    -0.095 NA 
HETATM   20  C   UNL     1      -8.150   9.846  65.015  1.00  0.00    -0.140 C  
HETATM   21  O   UNL     1      -5.660  11.124  64.100  1.00  0.00    -0.428 OA 
HETATM   22  O   UNL     1      -9.419   9.279  64.702  1.00  0.00    -0.439 OA 
HETATM   23  H1  UNL     1      -7.262  10.000  62.505  1.00  0.00     0.000 HD 
HETATM   24  H2  UNL     1      -7.959   8.467  62.604  1.00  0.00     0.000 HD 
HETATM   25  H   UNL     1     -10.134   9.756  65.108  1.00  0.00     0.000 HD 
HETATM   26  H   UNL     1      -4.848  11.580  64.288  1.00  0.00     0.000 HD 
ENDBRANCH  15  16
ENDBRANCH  12  15
ENDBRANCH   8   9
ENDBRANCH   7   8
ENDBRANCH   6   7
ENDBRANCH   5   6
ENDBRANCH   4   5
ENDBRANCH   3   4
ENDBRANCH   2   3
TORSDOF 9
ENDMDL
MODEL      301
REMARK 921   NORMALIZED FREE ENERGY PREDICTED BY IDOCK:   -1.67 KCAL/MOL
REMARK 922        TOTAL FREE ENERGY PREDICTED BY IDOCK:   -3.66 KCAL/MOL
REMARK 923 INTER-LIGAND FREE ENERGY PREDICTED BY IDOCK:   -2.73 KCAL/MOL
REMARK 924 INTRA-LIGAND FREE ENERGY PREDICTED BY IDOCK:   -0.93 KCAL/MOL
REMARK 927      BINDING AFFINITY PREDICTED BY RF-SCORE:    0.00 PKD
ROOT
HETATM    1  C   UNL     1     -10.911  15.864  71.611  1.00  0.00     0.162 C  
HETATM    2  C   UNL     1     -10.823  15.032  70.344  1.00  0.00    -0.182 C  
ENDROOT
BRANCH   2   3
HETATM    3  C   UNL     1     -12.167  14.981  69.623  1.00  0.00    -0.293 C  
BRANCH   3   4
HETATM    4  C   UNL     1     -12.996  13.793  70.100  1.00  0.00     0.151 C  
BRANCH   4   5
HETATM    5  C   UNL     1     -12.096  12.640  70.531  1.00  0.00    -0.360 C  
BRANCH   5   6
HETATM    6  C   UNL     1     -12.644  11.304  70.036  1.00  0.00    -0.169 C  
BRANCH   6   7
HETATM    7  C   UNL     1     -11.600  10.583  69.192  1.00  0.00    -0.295 C  
BRANCH   7   8
HETATM    8  C   UNL     1     -11.122  11.459  68.031  1.00  0.00    -0.317 C  
BRANCH   8   9
HETATM    9  C   UNL     1      -9.919  10.857  67.352  1.00  0.00    -0.215 A  
HETATM   10  C   UNL     1      -8.634  11.212  67.772  1.00  0.00    -0.131 A  
HETATM   11  C   UNL     1      -7.513  10.713  67.118  1.00  0.00    -0.099 A  
HETATM   12  C   UNL     1      -7.643   9.812  66.056  1.00  0.00    -0.102 A  
HETATM   13  C   UNL     1     -10.062   9.965  66.285  1.00  0.00    -0.311 A  
HETATM   14  C   UNL     1      -8.933   9.447  65.645  1.00  0.00    -0.236 A  
BRANCH  12  15
HETATM   15  C   UNL     1      -6.442   9.299  65.290  1.00  0.00    -0.069 C  
BRANCH  15  16
HETATM   16  C   UNL     1      -5.833   8.014  65.876  1.00  0.00    -0.037 C  
HETATM   17  C   UNL     1      -6.067   6.688  65.113  1.00  0.00    -0.038 C  
HETATM   18  C   UNL     1      -5.388   5.556  65.938  1.00  0.00    -0.013 C  
HETATM   19  N   UNL     1      -7.517   6.373  65.008  1.00  0.00    -0.078 NA 
HETATM   20  C   UNL     1      -5.438   6.707  63.693  1.00  0.00    -0.027 C  
HETATM   21  O   UNL     1      -5.627   4.280  65.349  1.00  0.00    -0.013 OA 
HETATM   22  O   UNL     1      -6.070   7.657  62.840  1.00  0.00    -0.060 OA 
HETATM   23  H1  UNL     1      -7.672   5.499  64.505  1.00  0.00     0.000 HD 
HETATM   24  H2  UNL     1      -8.037   7.143  64.588  1.00  0.00     0.000 HD 
HETATM   25  H   UNL     1      -5.684   7.669  61.971  1.00  0.00     0.000 HD 
HETATM   26  H   UNL     1      -5.213   3.589  65.852  1.00  0.00     0.000 HD 
ENDBRANCH  15  16
ENDBRANCH  12  15
ENDBRANCH   8   9
ENDBRANCH   7   8
ENDBRANCH   6   7
ENDBRANCH   5   6
ENDBRANCH   4   5
ENDBRANCH   3   4
ENDBRANCH   2   3
TORSDOF 9
ENDMDL
MODEL      302
REMARK 921   NORMALIZED FREE ENERGY PREDICTED BY IDOCK:   -1.55 KCAL/MOL
REMARK 922        TOTAL FREE ENERGY PREDICTED BY IDOCK:   -3.47 KCAL/MOL
REMARK 923 INTER-LIGAND FREE ENERGY PREDICTED BY IDOCK:   -3.04 KCAL/MOL
REMARK 924 INTRA-LIGAND FREE ENERGY PREDICTED BY IDOCK:   -0.43 KCAL/MOL
REMARK 927      BINDING AFFINITY PREDICTED BY RF-SCORE:    0.00 PKD
ROOT
HETATM    1  C   UNL     1     -10.929  15.866  71.614  1.00  0.00     0.162 C  
HETATM    2  C   UNL     1     -10.834  15.018  70.358  1.00  0.00    -0.182 C  
ENDROOT
BRANCH   2   3
HETATM    3  C   UNL     1     -12.185  14.918  69.655  1.00  0.00    -0.299 C  
BRANCH   3   4
HETATM    4  C   UNL     1     -13.126  13.986  70.414  1.00  0.00    -0.002 C  
BRANCH   4   5
HETATM    5  C   UNL     1     -12.341  12.919  71.168  1.00  0.00    -0.262 C  
BRANCH   5   6
HETATM    6  C   UNL     1     -12.999  11.549  71.019  1.00  0.00    -0.252 C  
BRANCH   6   7
HETATM    7  C   UNL     1     -12.008  10.544  70.445  1.00  0.00    -0.425 C  
BRANCH   7   8
HETATM    8  C   UNL     1     -11.778  10.780  68.951  1.00  0.00    -0.338 C  
BRANCH   8   9
HETATM    9  C   UNL     1     -10.629   9.952  68.437  1.00  0.00    -0.258 A  
HETATM   10  C   UNL     1      -9.337  10.485  68.434  1.00  0.00    -0.158 A  
HETATM   11  C   UNL     1      -8.274   9.759  67.908  1.00  0.00    -0.113 A  
HETATM   12  C   UNL     1      -8.464   8.464  67.413  1.00  0.00    -0.124 A  
HETATM   13  C   UNL     1     -10.833   8.664  67.935  1.00  0.00    -0.061 A  
HETATM   14  C   UNL     1      -9.759   7.927  67.429  1.00  0.00    -0.210 A  
BRANCH  12  15
HETATM   15  C   UNL     1      -7.336   7.676  66.783  1.00  0.00    -0.089 C  
BRANCH  15  16
HETATM   16  C   UNL     1      -6.532   6.831  67.785  1.00  0.00    -0.050 C  
HETATM   17  C   UNL     1      -7.008   5.384  68.060  1.00  0.00    -0.065 C  
HETATM   18  C   UNL     1      -6.054   4.780  69.132  1.00  0.00    -0.029 C  
HETATM   19  N   UNL     1      -8.390   5.365  68.613  1.00  0.00    -0.094 NA 
HETATM   20  C   UNL     1      -6.947   4.493  66.789  1.00  0.00    -0.063 C  
HETATM   21  O   UNL     1      -6.472   3.470  69.508  1.00  0.00    -0.032 OA 
HETATM   22  O   UNL     1      -7.865   4.924  65.788  1.00  0.00    -0.093 OA 
HETATM   23  H1  UNL     1      -8.704   4.411  68.794  1.00  0.00     0.000 HD 
HETATM   24  H2  UNL     1      -9.041   5.864  68.008  1.00  0.00     0.000 HD 
HETATM   25  H   UNL     1      -7.828   4.379  65.010  1.00  0.00     0.000 HD 
HETATM   26  H   UNL     1      -5.890   3.101  70.163  1.00  0.00     0.000 HD 
ENDBRANCH  15  16
ENDBRANCH  12  15
ENDBRANCH   8   9
ENDBRANCH   7   8
ENDBRANCH   6   7
ENDBRANCH   5   6
ENDBRANCH   4   5
ENDBRANCH   3   4
ENDBRANCH   2   3
TORSDOF 9
ENDMDL
MODEL      303
REMARK 921   NORMALIZED FREE ENERGY PREDICTED BY IDOCK:   -1.54 KCAL/MOL
REMARK 922        TOTAL FREE ENERGY PREDICTED BY IDOCK:   -3.45 KCAL/MOL
REMARK 923 INTER-LIGAND FREE ENERGY PREDICTED BY IDOCK:   -3.14 KCAL/MOL
REMARK 924 INTRA-LIGAND FREE ENERGY PREDICTED BY IDOCK:   -0.31 KCAL/MOL
REMARK 927      BINDING AFFINITY PREDICTED BY RF-SCORE:    0.00 PKD
ROOT
HETATM    1  C   UNL     1      -8.253   9.541  62.513  1.00  0.00    -0.148 C  
HETATM    2  C   UNL     1      -7.458   8.252  62.402  1.00  0.00    -0.101 C  
ENDROOT
BRANCH   2   3
HETATM    3  C   UNL     1      -6.200   8.302  63.263  1.00  0.00    -0.077 C  
BRANCH   3   4
HETATM    4  C   UNL     1      -6.492   8.940  64.618  1.00  0.00    -0.066 C  
BRANCH   4   5
HETATM    5  C   UNL     1      -6.201   7.962  65.752  1.00  0.00    -0.042 C  
BRANCH   5   6
HETATM    6  C   UNL     1      -7.435   7.127  66.082  1.00  0.00    -0.080 C  
BRANCH   6   7
HETATM    7  C   UNL     1      -7.386   6.658  67.531  1.00  0.00    -0.095 C  
BRANCH   7   8
HETATM    8  C   UNL     1      -6.442   7.527  68.365  1.00  0.00    -0.045 C  
BRANCH   8   9
HETATM    9  C   UNL     1      -6.872   8.971  68.349  1.00  0.00    -0.064 A  
HETATM   10  C   UNL     1      -8.229   9.292  68.453  1.00  0.00    -0.115 A  
HETATM   11  C   UNL     1      -8.650  10.615  68.380  1.00  0.00    -0.134 A  
HETATM   12  C   UNL     1      -7.726  11.657  68.246  1.00  0.00    -0.128 A  
HETATM   13  C   UNL     1      -5.941  10.002  68.205  1.00  0.00    -0.042 A  
HETATM   14  C   UNL     1      -6.365  11.333  68.156  1.00  0.00    -0.052 A  
BRANCH  12  15
HETATM   15  C   UNL     1      -8.161  13.099  68.107  1.00  0.00    -0.160 C  
BRANCH  15  16
HETATM   16  C   UNL     1      -8.741  13.444  66.725  1.00  0.00    -0.093 C  
HETATM   17  C   UNL     1      -9.829  14.541  66.648  1.00  0.00    -0.273 C  
HETATM   18  C   UNL     1     -10.265  14.655  65.158  1.00  0.00    -0.382 C  
HETATM   19  N   UNL     1     -11.027  14.172  67.449  1.00  0.00    -0.293 NA 
HETATM   20  C   UNL     1      -9.302  15.927  67.114  1.00  0.00    -0.212 C  
HETATM   21  O   UNL     1     -11.331  15.590  65.006  1.00  0.00    -0.354 OA 
HETATM   22  O   UNL     1      -8.968  15.934  68.499  1.00  0.00    -0.185 OA 
HETATM   23  H1  UNL     1     -11.745  14.895  67.399  1.00  0.00     0.000 HD 
HETATM   24  H2  UNL     1     -10.779  13.957  68.415  1.00  0.00     0.000 HD 
HETATM   25  H   UNL     1      -8.646  16.782  68.785  1.00  0.00     0.000 HD 
HETATM   26  H   UNL     1     -11.597  15.660  64.097  1.00  0.00     0.000 HD 
ENDBRANCH  15  16
ENDBRANCH  12  15
ENDBRANCH   8   9
ENDBRANCH   7   8
ENDBRANCH   6   7
ENDBRANCH   5   6
ENDBRANCH   4   5
ENDBRANCH   3   4
ENDBRANCH   2   3
TORSDOF 9
ENDMDL
MODEL      304
REMARK 921   NORMALIZED FREE ENERGY PREDICTED BY IDOCK:   -1.20 KCAL/MOL
REMARK 922        TOTAL FREE ENERGY PREDICTED BY IDOCK:   -2.94 KCAL/MOL
REMARK 923 INTER-LIGAND FREE ENERGY PREDICTED BY IDOCK:   -2.40 KCAL/MOL
REMARK 924 INTRA-LIGAND FREE ENERGY PREDICTED BY IDOCK:   -0.54 KCAL/MOL
REMARK 927      BINDING AFFINITY PREDICTED BY RF-SCORE:    0.00 PKD
ROOT
HETATM    1  C   UNL     1      -8.177   9.640  62.903  1.00  0.00    -0.153 C  
HETATM    2  C   UNL     1      -7.357   8.432  63.318  1.00  0.00    -0.104 C  
ENDROOT
BRANCH   2   3
HETATM    3  C   UNL     1      -6.174   8.839  64.190  1.00  0.00    -0.071 C  
BRANCH   3   4
HETATM    4  C   UNL     1      -6.554   9.983  65.125  1.00  0.00    -0.115 C  
BRANCH   4   5
HETATM    5  C   UNL     1      -6.575   9.515  66.576  1.00  0.00    -0.071 C  
BRANCH   5   6
HETATM    6  C   UNL     1      -7.900   8.835  66.911  1.00  0.00    -0.101 C  
BRANCH   6   7
HETATM    7  C   UNL     1      -8.074   8.729  68.421  1.00  0.00    -0.117 C  
BRANCH   7   8
HETATM    8  C   UNL     1      -7.163   9.715  69.157  1.00  0.00    -0.068 C  
BRANCH   8   9
HETATM    9  C   UNL     1      -7.680  11.125  69.044  1.00  0.00    -0.114 A  
HETATM   10  C   UNL     1      -6.869  12.195  69.430  1.00  0.00    -0.010 A  
HETATM   11  C   UNL     1      -7.351  13.499  69.390  1.00  0.00     0.255 A  
HETATM   12  C   UNL     1      -8.640  13.774  68.922  1.00  0.00     0.138 A  
HETATM   13  C   UNL     1      -8.974  11.386  68.585  1.00  0.00    -0.133 A  
HETATM   14  C   UNL     1      -9.448  12.700  68.523  1.00  0.00    -0.094 A  
BRANCH  12  15
HETATM   15  C   UNL     1      -9.209  15.176  68.922  1.00  0.00    -0.209 C  
BRANCH  15  16
HETATM   16  C   UNL     1      -9.129  15.881  67.558  1.00  0.00    -0.204 C  
HETATM   17  C   UNL     1     -10.109  17.047  67.285  1.00  0.00    -0.295 C  
HETATM   18  C   UNL     1      -9.844  17.542  65.833  1.00  0.00    -0.094 C  
HETATM   19  N   UNL     1     -11.524  16.594  67.364  1.00  0.00     0.267 NA 
HETATM   20  C   UNL     1      -9.892  18.238  68.259  1.00  0.00    -0.350 C  
HETATM   21  O   UNL     1     -10.766  18.567  65.466  1.00  0.00    -0.586 OA 
HETATM   22  O   UNL     1     -10.206  17.893  69.605  1.00  0.00    -0.175 OA 
HETATM   23  H1  UNL     1     -12.171  17.363  67.185  1.00  0.00     0.000 HD 
HETATM   24  H2  UNL     1     -11.722  16.140  68.256  1.00  0.00     0.000 HD 
HETATM   25  H   UNL     1     -10.072  18.622  70.201  1.00  0.00     0.000 HD 
HETATM   26  H   UNL     1     -10.604  18.869  64.580  1.00  0.00     0.000 HD 
ENDBRANCH  15  16
ENDBRANCH  12  15
ENDBRANCH   8   9
ENDBRANCH   7   8
ENDBRANCH   6   7
ENDBRANCH   5   6
ENDBRANCH   4   5
ENDBRANCH   3   4
ENDBRANCH   2   3
TORSDOF 9
ENDMDL
MODEL      305
REMARK 921   NORMALIZED FREE ENERGY PREDICTED BY IDOCK:   -1.03 KCAL/MOL
REMARK 922        TOTAL FREE ENERGY PREDICTED BY IDOCK:   -2.69 KCAL/MOL
REMARK 923 INTER-LIGAND FREE ENERGY PREDICTED BY IDOCK:   -3.50 KCAL/MOL
REMARK 924 INTRA-LIGAND FREE ENERGY PREDICTED BY IDOCK:    0.81 KCAL/MOL
REMARK 927      BINDING AFFINITY PREDICTED BY RF-SCORE:    0.00 PKD
ROOT
HETATM    1  C   UNL     1     -10.549  16.029  71.824  1.00  0.00     1.341 C  
HETATM    2  C   UNL     1     -11.151  15.220  70.689  1.00  0.00    -0.341 C  
ENDROOT
BRANCH   2   3
HETATM    3  C   UNL     1     -12.641  15.509  70.534  1.00  0.00    -0.462 C  
BRANCH   3   4
HETATM    4  C   UNL     1     -13.451  14.792  71.610  1.00  0.00    -0.468 C  
BRANCH   4   5
HETATM    5  C   UNL     1     -12.591  13.767  72.343  1.00  0.00    -0.142 C  
BRANCH   5   6
HETATM    6  C   UNL     1     -13.250  12.390  72.326  1.00  0.00    -0.392 C  
BRANCH   6   7
HETATM    7  C   UNL     1     -12.546  11.478  71.330  1.00  0.00    -0.452 C  
BRANCH   7   8
HETATM    8  C   UNL     1     -12.385  12.160  69.969  1.00  0.00    -0.167 C  
BRANCH   8   9
HETATM    9  C   UNL     1     -11.510  11.347  69.051  1.00  0.00    -0.366 A  
HETATM   10  C   UNL     1     -10.959  11.939  67.911  1.00  0.00    -0.270 A  
HETATM   11  C   UNL     1     -10.199  11.189  67.021  1.00  0.00    -0.251 A  
HETATM   12  C   UNL     1      -9.930   9.838  67.267  1.00  0.00    -0.242 A  
HETATM   13  C   UNL     1     -11.257   9.995  69.302  1.00  0.00    -0.213 A  
HETATM   14  C   UNL     1     -10.472   9.249  68.418  1.00  0.00    -0.246 A  
BRANCH  12  15
HETATM   15  C   UNL     1      -9.155   8.986  66.286  1.00  0.00    -0.224 C  
BRANCH  15  16
HETATM   16  C   UNL     1      -7.714   8.681  66.729  1.00  0.00    -0.093 C  
HETATM   17  C   UNL     1      -7.505   7.619  67.835  1.00  0.00    -0.108 C  
HETATM   18  C   UNL     1      -5.976   7.542  68.118  1.00  0.00    -0.035 C  
HETATM   19  N   UNL     1      -8.186   8.011  69.098  1.00  0.00    -0.128 NA 
HETATM   20  C   UNL     1      -7.996   6.211  67.399  1.00  0.00    -0.105 C  
HETATM   21  O   UNL     1      -5.698   6.642  69.188  1.00  0.00    -0.016 OA 
HETATM   22  O   UNL     1      -9.408   6.171  67.210  1.00  0.00    -0.114 OA 
HETATM   23  H1  UNL     1      -8.048   7.311  69.827  1.00  0.00     0.000 HD 
HETATM   24  H2  UNL     1      -9.176   8.203  68.946  1.00  0.00     0.000 HD 
HETATM   25  H   UNL     1      -9.709   5.310  66.943  1.00  0.00     0.000 HD 
HETATM   26  H   UNL     1      -4.765   6.596  69.361  1.00  0.00     0.000 HD 
ENDBRANCH  15  16
ENDBRANCH  12  15
ENDBRANCH   8   9
ENDBRANCH   7   8
ENDBRANCH   6   7
ENDBRANCH   5   6
ENDBRANCH   4   5
ENDBRANCH   3   4
ENDBRANCH   2   3
TORSDOF 9
ENDMDL
MODEL      306
REMARK 921   NORMALIZED FREE ENERGY PREDICTED BY IDOCK:   -0.35 KCAL/MOL
REMARK 922        TOTAL FREE ENERGY PREDICTED BY IDOCK:   -1.64 KCAL/MOL
REMARK 923 INTER-LIGAND FREE ENERGY PREDICTED BY IDOCK:   -0.67 KCAL/MOL
REMARK 924 INTRA-LIGAND FREE ENERGY PREDICTED BY IDOCK:   -0.97 KCAL/MOL
REMARK 927      BINDING AFFINITY PREDICTED BY RF-SCORE:    0.00 PKD
ROOT
HETATM    1  C   UNL     1     -12.502   1.724  62.337  1.00  0.00     1.791 C  
HETATM    2  C   UNL     1     -11.129   2.333  62.557  1.00  0.00    -0.196 C  
ENDROOT
BRANCH   2   3
HETATM    3  C   UNL     1     -11.018   2.960  63.944  1.00  0.00     0.104 C  
BRANCH   3   4
HETATM    4  C   UNL     1      -9.567   2.994  64.412  1.00  0.00    -0.150 C  
BRANCH   4   5
HETATM    5  C   UNL     1      -9.447   2.490  65.846  1.00  0.00     0.120 C  
BRANCH   5   6
HETATM    6  C   UNL     1      -8.340   3.229  66.594  1.00  0.00    -0.102 C  
BRANCH   6   7
HETATM    7  C   UNL     1      -8.436   2.955  68.090  1.00  0.00    -0.103 C  
BRANCH   7   8
HETATM    8  C   UNL     1      -9.778   3.425  68.657  1.00  0.00    -0.004 C  
BRANCH   8   9
HETATM    9  C   UNL     1      -9.968   4.905  68.452  1.00  0.00    -0.183 A  
HETATM   10  C   UNL     1      -9.135   5.811  69.115  1.00  0.00    -0.126 A  
HETATM   11  C   UNL     1      -9.334   7.181  68.985  1.00  0.00    -0.140 A  
HETATM   12  C   UNL     1     -10.342   7.685  68.157  1.00  0.00    -0.250 A  
HETATM   13  C   UNL     1     -10.985   5.397  67.630  1.00  0.00     0.242 A  
HETATM   14  C   UNL     1     -11.168   6.774  67.482  1.00  0.00    -0.246 A  
BRANCH  12  15
HETATM   15  C   UNL     1     -10.617   9.169  68.043  1.00  0.00    -0.253 C  
BRANCH  15  16
HETATM   16  C   UNL     1     -11.399   9.750  69.233  1.00  0.00    -0.059 C  
HETATM   17  C   UNL     1     -11.335  11.279  69.466  1.00  0.00    -0.294 C  
HETATM   18  C   UNL     1     -12.168  11.586  70.745  1.00  0.00    -0.363 C  
HETATM   19  N   UNL     1      -9.938  11.731  69.707  1.00  0.00     0.389 NA 
HETATM   20  C   UNL     1     -11.940  12.080  68.280  1.00  0.00    -0.179 C  
HETATM   21  O   UNL     1     -12.094  12.969  71.082  1.00  0.00    -0.385 OA 
HETATM   22  O   UNL     1     -11.178  11.927  67.086  1.00  0.00    -0.280 OA 
HETATM   23  H1  UNL     1      -9.896  12.739  69.860  1.00  0.00     0.000 HD 
HETATM   24  H2  UNL     1      -9.316  11.441  68.954  1.00  0.00     0.000 HD 
HETATM   25  H   UNL     1     -11.548  12.417  66.360  1.00  0.00     0.000 HD 
HETATM   26  H   UNL     1     -12.602  13.157  71.863  1.00  0.00     0.000 HD 
ENDBRANCH  15  16
ENDBRANCH  12  15
ENDBRANCH   8   9
ENDBRANCH   7   8
ENDBRANCH   6   7
ENDBRANCH   5   6
ENDBRANCH   4   5
ENDBRANCH   3   4
ENDBRANCH   2   3
TORSDOF 9
ENDMDL
MODEL      307
REMARK 921   NORMALIZED FREE ENERGY PREDICTED BY IDOCK:   -0.14 KCAL/MOL
REMARK 922        TOTAL FREE ENERGY PREDICTED BY IDOCK:   -1.33 KCAL/MOL
REMARK 923 INTER-LIGAND FREE ENERGY PREDICTED BY IDOCK:   -0.71 KCAL/MOL
REMARK 924 INTRA-LIGAND FREE ENERGY PREDICTED BY IDOCK:   -0.62 KCAL/MOL
REMARK 927      BINDING AFFINITY PREDICTED BY RF-SCORE:    0.00 PKD
ROOT
HETATM    1  C   UNL     1     -11.933  15.824  63.622  1.00  0.00     0.917 C  
HETATM    2  C   UNL     1     -11.927  14.926  64.846  1.00  0.00    -0.306 C  
ENDROOT
BRANCH   2   3
HETATM    3  C   UNL     1     -11.577  13.488  64.475  1.00  0.00    -0.410 C  
BRANCH   3   4
HETATM    4  C   UNL     1     -10.122  13.378  64.030  1.00  0.00     0.463 C  
BRANCH   4   5
HETATM    5  C   UNL     1      -9.185  13.389  65.233  1.00  0.00     0.763 C  
BRANCH   5   6
HETATM    6  C   UNL     1      -9.908  12.923  66.494  1.00  0.00    -0.254 C  
BRANCH   6   7
HETATM    7  C   UNL     1      -9.117  11.818  67.181  1.00  0.00    -0.175 C  
BRANCH   7   8
HETATM    8  C   UNL     1      -9.797  11.371  68.478  1.00  0.00    -0.200 C  
BRANCH   8   9
HETATM    9  C   UNL     1      -9.407   9.963  68.842  1.00  0.00    -0.170 A  
HETATM   10  C   UNL     1      -9.078   9.653  70.165  1.00  0.00    -0.280 A  
HETATM   11  C   UNL     1      -8.657   8.373  70.509  1.00  0.00    -0.137 A  
HETATM   12  C   UNL     1      -8.595   7.356  69.550  1.00  0.00    -0.134 A  
HETATM   13  C   UNL     1      -9.339   8.957  67.874  1.00  0.00    -0.155 A  
HETATM   14  C   UNL     1      -8.938   7.665  68.227  1.00  0.00    -0.127 A  
BRANCH  12  15
HETATM   15  C   UNL     1      -8.086   5.971  69.886  1.00  0.00    -0.117 C  
BRANCH  15  16
HETATM   16  C   UNL     1      -8.580   4.877  68.925  1.00  0.00    -0.092 C  
HETATM   17  C   UNL     1      -7.532   3.904  68.332  1.00  0.00    -0.058 C  
HETATM   18  C   UNL     1      -8.288   2.940  67.372  1.00  0.00    -0.085 C  
HETATM   19  N   UNL     1      -6.507   4.633  67.537  1.00  0.00    -0.044 NA 
HETATM   20  C   UNL     1      -6.830   3.057  69.428  1.00  0.00    -0.037 C  
HETATM   21  O   UNL     1      -7.381   2.059  66.714  1.00  0.00    -0.055 OA 
HETATM   22  O   UNL     1      -6.035   3.858  70.298  1.00  0.00    -0.017 OA 
HETATM   23  H1  UNL     1      -5.815   3.993  67.147  1.00  0.00     0.000 HD 
HETATM   24  H2  UNL     1      -6.065   5.372  68.085  1.00  0.00     0.000 HD 
HETATM   25  H   UNL     1      -5.606   3.339  70.969  1.00  0.00     0.000 HD 
HETATM   26  H   UNL     1      -7.842   1.471  66.127  1.00  0.00     0.000 HD 
ENDBRANCH  15  16
ENDBRANCH  12  15
ENDBRANCH   8   9
ENDBRANCH   7   8
ENDBRANCH   6   7
ENDBRANCH   5   6
ENDBRANCH   4   5
ENDBRANCH   3   4
ENDBRANCH   2   3
TORSDOF 9
ENDMDL
MODEL      308
REMARK 921   NORMALIZED FREE ENERGY PREDICTED BY IDOCK:    1.52 KCAL/MOL
REMARK 922        TOTAL FREE ENERGY PREDICTED BY IDOCK:    1.21 KCAL/MOL
REMARK 923 INTER-LIGAND FREE ENERGY PREDICTED BY IDOCK:    0.84 KCAL/MOL
REMARK 924 INTRA-LIGAND FREE ENERGY PREDICTED BY IDOCK:    0.37 KCAL/MOL
REMARK 927      BINDING AFFINITY PREDICTED BY RF-SCORE:    0.00 PKD
ROOT
HETATM    1  C   UNL     1     -10.331  16.900  71.507  1.00  0.00     3.144 C  
HETATM    2  C   UNL     1     -11.111  15.598  71.460  1.00  0.00    -0.252 C  
ENDROOT
BRANCH   2   3
HETATM    3  C   UNL     1     -11.488  15.129  72.863  1.00  0.00    -0.206 C  
BRANCH   3   4
HETATM    4  C   UNL     1     -12.982  15.308  73.114  1.00  0.00    -0.625 C  
BRANCH   4   5
HETATM    5  C   UNL     1     -13.752  14.049  72.730  1.00  0.00    -0.435 C  
BRANCH   5   6
HETATM    6  C   UNL     1     -13.980  13.987  71.222  1.00  0.00    -0.122 C  
BRANCH   6   7
HETATM    7  C   UNL     1     -12.852  13.217  70.546  1.00  0.00    -0.059 C  
BRANCH   7   8
HETATM    8  C   UNL     1     -12.813  13.496  69.042  1.00  0.00     1.115 C  
BRANCH   8   9
HETATM    9  C   UNL     1     -11.395  13.625  68.548  1.00  0.00    -0.325 A  
HETATM   10  C   UNL     1     -10.678  12.480  68.187  1.00  0.00    -0.246 A  
HETATM   11  C   UNL     1      -9.350  12.575  67.787  1.00  0.00    -0.198 A  
HETATM   12  C   UNL     1      -8.715  13.817  67.692  1.00  0.00    -0.185 A  
HETATM   13  C   UNL     1     -10.768  14.871  68.467  1.00  0.00    -0.245 A  
HETATM   14  C   UNL     1      -9.440  14.965  68.041  1.00  0.00    -0.198 A  
BRANCH  12  15
HETATM   15  C   UNL     1      -7.255  13.943  67.315  1.00  0.00     0.019 C  
BRANCH  15  16
HETATM   16  C   UNL     1      -6.441  14.839  68.263  1.00  0.00    -0.121 C  
HETATM   17  C   UNL     1      -6.280  14.383  69.733  1.00  0.00    -0.139 C  
HETATM   18  C   UNL     1      -5.461  15.482  70.470  1.00  0.00    -0.138 C  
HETATM   19  N   UNL     1      -7.600  14.262  70.409  1.00  0.00     0.291 NA 
HETATM   20  C   UNL     1      -5.514  13.036  69.850  1.00  0.00    -0.104 C  
HETATM   21  O   UNL     1      -5.336  15.182  71.859  1.00  0.00    -0.053 OA 
HETATM   22  O   UNL     1      -6.243  11.953  69.279  1.00  0.00    -0.076 OA 
HETATM   23  H1  UNL     1      -7.494  13.960  71.378  1.00  0.00     0.000 HD 
HETATM   24  H2  UNL     1      -8.229  13.647  69.893  1.00  0.00     0.000 HD 
HETATM   25  H   UNL     1      -5.774  11.129  69.351  1.00  0.00     0.000 HD 
HETATM   26  H   UNL     1      -4.837  15.853  72.309  1.00  0.00     0.000 HD 
ENDBRANCH  15  16
ENDBRANCH  12  15
ENDBRANCH   8   9
ENDBRANCH   7   8
ENDBRANCH   6   7
ENDBRANCH   5   6
ENDBRANCH   4   5
ENDBRANCH   3   4
ENDBRANCH   2   3
TORSDOF 9
ENDMDL
MODEL      309
REMARK 921   NORMALIZED FREE ENERGY PREDICTED BY IDOCK:    1.61 KCAL/MOL
REMARK 922        TOTAL FREE ENERGY PREDICTED BY IDOCK:    1.35 KCAL/MOL
REMARK 923 INTER-LIGAND FREE ENERGY PREDICTED BY IDOCK:    1.92 KCAL/MOL
REMARK 924 INTRA-LIGAND FREE ENERGY PREDICTED BY IDOCK:   -0.57 KCAL/MOL
REMARK 927      BINDING AFFINITY PREDICTED BY RF-SCORE:    0.00 PKD
ROOT
HETATM    1  C   UNL     1      -7.433  14.591  72.460  1.00  0.00     4.820 C  
HETATM    2  C   UNL     1      -6.055  14.453  73.082  1.00  0.00     0.519 C  
ENDROOT
BRANCH   2   3
HETATM    3  C   UNL     1      -5.127  13.629  72.194  1.00  0.00    -0.176 C  
BRANCH   3   4
HETATM    4  C   UNL     1      -5.860  13.138  70.949  1.00  0.00    -0.070 C  
BRANCH   4   5
HETATM    5  C   UNL     1      -5.444  13.942  69.722  1.00  0.00    -0.098 C  
BRANCH   5   6
HETATM    6  C   UNL     1      -6.666  14.414  68.939  1.00  0.00    -0.098 C  
BRANCH   6   7
HETATM    7  C   UNL     1      -6.584  13.944  67.492  1.00  0.00    -0.104 C  
BRANCH   7   8
HETATM    8  C   UNL     1      -6.261  12.450  67.411  1.00  0.00    -0.158 C  
BRANCH   8   9
HETATM    9  C   UNL     1      -7.334  11.623  68.070  1.00  0.00    -0.089 A  
HETATM   10  C   UNL     1      -7.079  10.289  68.399  1.00  0.00    -0.078 A  
HETATM   11  C   UNL     1      -8.076   9.493  68.953  1.00  0.00    -0.096 A  
HETATM   12  C   UNL     1      -9.341  10.020  69.233  1.00  0.00    -0.224 A  
HETATM   13  C   UNL     1      -8.598  12.157  68.337  1.00  0.00    -0.141 A  
HETATM   14  C   UNL     1      -9.591  11.362  68.915  1.00  0.00    -0.087 A  
BRANCH  12  15
HETATM   15  C   UNL     1     -10.461   9.161  69.782  1.00  0.00    -0.234 C  
BRANCH  15  16
HETATM   16  C   UNL     1      -9.977   7.887  70.493  1.00  0.00    -0.191 C  
HETATM   17  C   UNL     1     -10.906   7.251  71.555  1.00  0.00    -0.224 C  
HETATM   18  C   UNL     1     -10.161   6.016  72.140  1.00  0.00    -0.192 C  
HETATM   19  N   UNL     1     -11.176   8.196  72.672  1.00  0.00    -0.385 NA 
HETATM   20  C   UNL     1     -12.253   6.772  70.946  1.00  0.00    -0.331 C  
HETATM   21  O   UNL     1     -10.915   5.415  73.191  1.00  0.00    -0.257 OA 
HETATM   22  O   UNL     1     -13.043   7.858  70.470  1.00  0.00    -0.188 OA 
HETATM   23  H1  UNL     1     -11.789   7.778  73.372  1.00  0.00     0.000 HD 
HETATM   24  H2  UNL     1     -11.548   9.082  72.331  1.00  0.00     0.000 HD 
HETATM   25  H   UNL     1     -13.867   7.564  70.098  1.00  0.00     0.000 HD 
HETATM   26  H   UNL     1     -10.460   4.662  73.548  1.00  0.00     0.000 HD 
ENDBRANCH  15  16
ENDBRANCH  12  15
ENDBRANCH   8   9
ENDBRANCH   7   8
ENDBRANCH   6   7
ENDBRANCH   5   6
ENDBRANCH   4   5
ENDBRANCH   3   4
ENDBRANCH   2   3
TORSDOF 9
ENDMDL
MODEL      310
REMARK 921   NORMALIZED FREE ENERGY PREDICTED BY IDOCK:    2.80 KCAL/MOL
REMARK 922        TOTAL FREE ENERGY PREDICTED BY IDOCK:    3.16 KCAL/MOL
REMARK 923 INTER-LIGAND FREE ENERGY PREDICTED BY IDOCK:    2.93 KCAL/MOL
REMARK 924 INTRA-LIGAND FREE ENERGY PREDICTED BY IDOCK:    0.23 KCAL/MOL
REMARK 927      BINDING AFFINITY PREDICTED BY RF-SCORE:    0.00 PKD
ROOT
HETATM    1  C   UNL     1      -7.520  14.682  72.971  1.00  0.00     5.529 C  
HETATM    2  C   UNL     1      -6.123  14.515  73.541  1.00  0.00     0.515 C  
ENDROOT
BRANCH   2   3
HETATM    3  C   UNL     1      -5.179  13.894  72.515  1.00  0.00    -0.209 C  
BRANCH   3   4
HETATM    4  C   UNL     1      -5.883  13.694  71.177  1.00  0.00    -0.140 C  
BRANCH   4   5
HETATM    5  C   UNL     1      -5.743  14.933  70.300  1.00  0.00    -0.138 C  
BRANCH   5   6
HETATM    6  C   UNL     1      -7.070  15.281  69.631  1.00  0.00    -0.187 C  
BRANCH   6   7
HETATM    7  C   UNL     1      -6.850  15.626  68.163  1.00  0.00    -0.130 C  
BRANCH   7   8
HETATM    8  C   UNL     1      -5.902  14.627  67.494  1.00  0.00     0.102 C  
BRANCH   8   9
HETATM    9  C   UNL     1      -6.382  13.211  67.679  1.00  0.00    -0.163 A  
HETATM   10  C   UNL     1      -7.681  12.972  68.136  1.00  0.00    -0.143 A  
HETATM   11  C   UNL     1      -8.121  11.674  68.370  1.00  0.00    -0.153 A  
HETATM   12  C   UNL     1      -7.292  10.577  68.112  1.00  0.00    -0.088 A  
HETATM   13  C   UNL     1      -5.541  12.123  67.427  1.00  0.00    -0.128 A  
HETATM   14  C   UNL     1      -5.994  10.819  67.641  1.00  0.00    -0.044 A  
BRANCH  12  15
HETATM   15  C   UNL     1      -7.726   9.159  68.413  1.00  0.00    -0.094 C  
BRANCH  15  16
HETATM   16  C   UNL     1      -8.026   8.901  69.899  1.00  0.00    -0.108 C  
HETATM   17  C   UNL     1      -9.508   8.779  70.329  1.00  0.00    -0.174 C  
HETATM   18  C   UNL     1      -9.525   8.567  71.871  1.00  0.00    -0.280 C  
HETATM   19  N   UNL     1     -10.262  10.025  70.029  1.00  0.00    -0.287 NA 
HETATM   20  C   UNL     1     -10.217   7.570  69.658  1.00  0.00    -0.205 C  
HETATM   21  O   UNL     1     -10.861   8.527  72.367  1.00  0.00    -0.346 OA 
HETATM   22  O   UNL     1     -10.328   7.730  68.246  1.00  0.00    -0.197 OA 
HETATM   23  H1  UNL     1     -11.239   9.945  70.312  1.00  0.00     0.000 HD 
HETATM   24  H2  UNL     1     -10.178  10.286  69.046  1.00  0.00     0.000 HD 
HETATM   25  H   UNL     1     -10.762   6.991  67.836  1.00  0.00     0.000 HD 
HETATM   26  H   UNL     1     -10.871   8.398  73.308  1.00  0.00     0.000 HD 
ENDBRANCH  15  16
ENDBRANCH  12  15
ENDBRANCH   8   9
ENDBRANCH   7   8
ENDBRANCH   6   7
ENDBRANCH   5   6
ENDBRANCH   4   5
ENDBRANCH   3   4
ENDBRANCH   2   3
TORSDOF 9
ENDMDL
MODEL      311
REMARK 921   NORMALIZED FREE ENERGY PREDICTED BY IDOCK:    2.97 KCAL/MOL
REMARK 922        TOTAL FREE ENERGY PREDICTED BY IDOCK:    3.43 KCAL/MOL
REMARK 923 INTER-LIGAND FREE ENERGY PREDICTED BY IDOCK:    2.16 KCAL/MOL
REMARK 924 INTRA-LIGAND FREE ENERGY PREDICTED BY IDOCK:    1.27 KCAL/MOL
REMARK 927      BINDING AFFINITY PREDICTED BY RF-SCORE:    0.00 PKD
ROOT
HETATM    1  C   UNL     1      -7.360  14.654  72.766  1.00  0.00     4.682 C  
HETATM    2  C   UNL     1      -6.076  14.330  73.509  1.00  0.00     0.452 C  
ENDROOT
BRANCH   2   3
HETATM    3  C   UNL     1      -5.126  13.512  72.639  1.00  0.00    -0.119 C  
BRANCH   3   4
HETATM    4  C   UNL     1      -5.755  13.205  71.284  1.00  0.00    -0.008 C  
BRANCH   4   5
HETATM    5  C   UNL     1      -5.786  14.452  70.405  1.00  0.00    -0.146 C  
BRANCH   5   6
HETATM    6  C   UNL     1      -7.196  14.720  69.886  1.00  0.00    -0.044 C  
BRANCH   6   7
HETATM    7  C   UNL     1      -7.153  15.121  68.417  1.00  0.00    -0.107 C  
BRANCH   7   8
HETATM    8  C   UNL     1      -6.214  14.213  67.620  1.00  0.00    -0.102 C  
BRANCH   8   9
HETATM    9  C   UNL     1      -6.501  12.759  67.890  1.00  0.00    -0.120 A  
HETATM   10  C   UNL     1      -5.533  11.793  67.598  1.00  0.00    -0.066 A  
HETATM   11  C   UNL     1      -5.803  10.442  67.784  1.00  0.00    -0.044 A  
HETATM   12  C   UNL     1      -7.029  10.020  68.307  1.00  0.00    -0.068 A  
HETATM   13  C   UNL     1      -7.734  12.348  68.404  1.00  0.00    -0.144 A  
HETATM   14  C   UNL     1      -7.994  10.991  68.612  1.00  0.00    -0.143 A  
BRANCH  12  15
HETATM   15  C   UNL     1      -7.369   8.554  68.465  1.00  0.00    -0.092 C  
BRANCH  15  16
HETATM   16  C   UNL     1      -8.873   8.248  68.358  1.00  0.00    -0.137 C  
HETATM   17  C   UNL     1      -9.317   7.126  67.389  1.00  0.00    -0.127 C  
HETATM   18  C   UNL     1     -10.872   7.059  67.443  1.00  0.00    -0.300 C  
HETATM   19  N   UNL     1      -8.919   7.431  65.988  1.00  0.00    -0.277 NA 
HETATM   20  C   UNL     1      -8.750   5.738  67.797  1.00  0.00    -0.107 C  
HETATM   21  O   UNL     1     -11.375   6.102  66.513  1.00  0.00    -0.745 OA 
HETATM   22  O   UNL     1      -7.331   5.685  67.684  1.00  0.00    -0.074 OA 
HETATM   23  H1  UNL     1      -9.212   6.692  65.350  1.00  0.00     0.000 HD 
HETATM   24  H2  UNL     1      -7.919   7.614  65.915  1.00  0.00     0.000 HD 
HETATM   25  H   UNL     1      -6.984   4.836  67.933  1.00  0.00     0.000 HD 
HETATM   26  H   UNL     1     -12.323   6.062  66.546  1.00  0.00     0.000 HD 
ENDBRANCH  15  16
ENDBRANCH  12  15
ENDBRANCH   8   9
ENDBRANCH   7   8
ENDBRANCH   6   7
ENDBRANCH   5   6
ENDBRANCH   4   5
ENDBRANCH   3   4
ENDBRANCH   2   3
TORSDOF 9
ENDMDL
MODEL      312
REMARK 921   NORMALIZED FREE ENERGY PREDICTED BY IDOCK:    4.75 KCAL/MOL
REMARK 922        TOTAL FREE ENERGY PREDICTED BY IDOCK:    6.14 KCAL/MOL
REMARK 923 INTER-LIGAND FREE ENERGY PREDICTED BY IDOCK:    0.74 KCAL/MOL
REMARK 924 INTRA-LIGAND FREE ENERGY PREDICTED BY IDOCK:    5.39 KCAL/MOL
REMARK 927      BINDING AFFINITY PREDICTED BY RF-SCORE:    0.00 PKD
ROOT
HETATM    1  C   UNL     1     -11.989  15.971  63.281  1.00  0.00     3.038 C  
HETATM    2  C   UNL     1     -12.374  15.632  64.710  1.00  0.00     0.338 C  
ENDROOT
BRANCH   2   3
HETATM    3  C   UNL     1     -12.976  14.233  64.804  1.00  0.00     0.144 C  
BRANCH   3   4
HETATM    4  C   UNL     1     -12.309  13.285  63.812  1.00  0.00    -0.440 C  
BRANCH   4   5
HETATM    5  C   UNL     1     -10.803  13.229  64.045  1.00  0.00    -0.287 C  
BRANCH   5   6
HETATM    6  C   UNL     1     -10.470  13.436  65.520  1.00  0.00    -0.297 C  
BRANCH   6   7
HETATM    7  C   UNL     1      -9.468  12.389  65.990  1.00  0.00    -0.168 C  
BRANCH   7   8
HETATM    8  C   UNL     1      -9.309  12.415  67.512  1.00  0.00    -0.181 C  
BRANCH   8   9
HETATM    9  C   UNL     1      -9.045  11.036  68.057  1.00  0.00    -0.152 A  
HETATM   10  C   UNL     1      -9.513  10.690  69.328  1.00  0.00    -0.152 A  
HETATM   11  C   UNL     1      -9.227   9.442  69.871  1.00  0.00    -0.226 A  
HETATM   12  C   UNL     1      -8.504   8.490  69.144  1.00  0.00    -0.125 A  
HETATM   13  C   UNL     1      -8.313  10.097  67.325  1.00  0.00    -0.121 A  
HETATM   14  C   UNL     1      -8.047   8.835  67.865  1.00  0.00    -0.107 A  
BRANCH  12  15
HETATM   15  C   UNL     1      -8.130   7.148  69.735  1.00  0.00    -0.129 C  
BRANCH  15  16
HETATM   16  C   UNL     1      -7.895   6.050  68.684  1.00  0.00    -0.100 C  
HETATM   17  C   UNL     1      -6.901   6.346  67.535  1.00  0.00    -0.076 C  
HETATM   18  C   UNL     1      -6.887   5.099  66.604  1.00  0.00    -0.063 C  
HETATM   19  N   UNL     1      -7.341   7.516  66.728  1.00  0.00    -0.090 NA 
HETATM   20  C   UNL     1      -5.457   6.589  68.054  1.00  0.00    -0.008 C  
HETATM   21  O   UNL     1      -6.056   5.319  65.466  1.00  0.00    -0.031 OA 
HETATM   22  O   UNL     1      -5.363   7.773  68.843  1.00  0.00    -0.024 OA 
HETATM   23  H1  UNL     1      -6.686   7.712  65.971  1.00  0.00     0.000 HD 
HETATM   24  H2  UNL     1      -7.493   8.338  67.313  1.00  0.00     0.000 HD 
HETATM   25  H   UNL     1      -4.480   7.921  69.160  1.00  0.00     0.000 HD 
HETATM   26  H   UNL     1      -6.048   4.558  64.898  1.00  0.00     0.000 HD 
ENDBRANCH  15  16
ENDBRANCH  12  15
ENDBRANCH   8   9
ENDBRANCH   7   8
ENDBRANCH   6   7
ENDBRANCH   5   6
ENDBRANCH   4   5
ENDBRANCH   3   4
ENDBRANCH   2   3
TORSDOF 9
ENDMDL
MODEL      313
REMARK 921   NORMALIZED FREE ENERGY PREDICTED BY IDOCK:    7.07 KCAL/MOL
REMARK 922        TOTAL FREE ENERGY PREDICTED BY IDOCK:    9.68 KCAL/MOL
REMARK 923 INTER-LIGAND FREE ENERGY PREDICTED BY IDOCK:    2.34 KCAL/MOL
REMARK 924 INTRA-LIGAND FREE ENERGY PREDICTED BY IDOCK:    7.34 KCAL/MOL
REMARK 927      BINDING AFFINITY PREDICTED BY RF-SCORE:    0.00 PKD
ROOT
HETATM    1  C   UNL     1     -12.120  10.054  67.280  1.00  0.00     3.544 C  
HETATM    2  C   UNL     1     -10.857  10.880  67.452  1.00  0.00    -0.333 C  
ENDROOT
BRANCH   2   3
HETATM    3  C   UNL     1     -11.047  12.298  66.923  1.00  0.00    -0.341 C  
BRANCH   3   4
HETATM    4  C   UNL     1      -9.971  12.646  65.899  1.00  0.00    -0.274 C  
BRANCH   4   5
HETATM    5  C   UNL     1      -8.686  13.087  66.591  1.00  0.00    -0.030 C  
BRANCH   5   6
HETATM    6  C   UNL     1      -8.754  12.817  68.092  1.00  0.00    -0.193 C  
BRANCH   6   7
HETATM    7  C   UNL     1     -10.205  12.744  68.552  1.00  0.00    -0.206 C  
BRANCH   7   8
HETATM    8  C   UNL     1     -10.308  12.201  69.980  1.00  0.00     1.652 C  
BRANCH   8   9
HETATM    9  C   UNL     1      -9.854  10.767  70.052  1.00  0.00     0.497 A  
HETATM   10  C   UNL     1     -10.602   9.838  70.781  1.00  0.00    -0.371 A  
HETATM   11  C   UNL     1     -10.166   8.523  70.909  1.00  0.00    -0.246 A  
HETATM   12  C   UNL     1      -8.996   8.090  70.277  1.00  0.00    -0.147 A  
HETATM   13  C   UNL     1      -8.678  10.347  69.424  1.00  0.00    -0.138 A  
HETATM   14  C   UNL     1      -8.255   9.020  69.535  1.00  0.00    -0.114 A  
BRANCH  12  15
HETATM   15  C   UNL     1      -8.470   6.681  70.447  1.00  0.00    -0.135 C  
BRANCH  15  16
HETATM   16  C   UNL     1      -7.715   6.146  69.219  1.00  0.00    -0.099 C  
HETATM   17  C   UNL     1      -8.491   5.248  68.225  1.00  0.00    -0.096 C  
HETATM   18  C   UNL     1      -7.489   4.816  67.114  1.00  0.00    -0.086 C  
HETATM   19  N   UNL     1      -8.998   4.018  68.889  1.00  0.00    -0.106 NA 
HETATM   20  C   UNL     1      -9.675   5.999  67.555  1.00  0.00    -0.116 C  
HETATM   21  O   UNL     1      -8.102   3.914  66.196  1.00  0.00    -0.099 OA 
HETATM   22  O   UNL     1     -10.688   6.349  68.494  1.00  0.00    -0.228 OA 
HETATM   23  H1  UNL     1      -9.510   3.426  68.235  1.00  0.00     0.000 HD 
HETATM   24  H2  UNL     1      -9.561   4.241  69.710  1.00  0.00     0.000 HD 
HETATM   25  H   UNL     1     -11.412   6.809  68.084  1.00  0.00     0.000 HD 
HETATM   26  H   UNL     1      -7.490   3.650  65.518  1.00  0.00     0.000 HD 
ENDBRANCH  15  16
ENDBRANCH  12  15
ENDBRANCH   8   9
ENDBRANCH   7   8
ENDBRANCH   6   7
ENDBRANCH   5   6
ENDBRANCH   4   5
ENDBRANCH   3   4
ENDBRANCH   2   3
TORSDOF 9
ENDMDL
MODEL      314
REMARK 921   NORMALIZED FREE ENERGY PREDICTED BY IDOCK:   11.18 KCAL/MOL
REMARK 922        TOTAL FREE ENERGY PREDICTED BY IDOCK:   15.95 KCAL/MOL
REMARK 923 INTER-LIGAND FREE ENERGY PREDICTED BY IDOCK:   -1.29 KCAL/MOL
REMARK 924 INTRA-LIGAND FREE ENERGY PREDICTED BY IDOCK:   17.24 KCAL/MOL
REMARK 927      BINDING AFFINITY PREDICTED BY RF-SCORE:    0.00 PKD
ROOT
HETATM    1  C   UNL     1      -8.323  12.619  65.651  1.00  0.00     1.560 C  
HETATM    2  C   UNL     1      -9.593  11.962  66.162  1.00  0.00    -0.250 C  
ENDROOT
BRANCH   2   3
HETATM    3  C   UNL     1     -10.602  13.004  66.635  1.00  0.00    -0.275 C  
BRANCH   3   4
HETATM    4  C   UNL     1      -9.963  13.968  67.631  1.00  0.00    -0.237 C  
BRANCH   4   5
HETATM    5  C   UNL     1      -9.698  15.322  66.982  1.00  0.00    -0.232 C  
BRANCH   5   6
HETATM    6  C   UNL     1     -10.576  15.518  65.749  1.00  0.00    -0.370 C  
BRANCH   6   7
HETATM    7  C   UNL     1     -11.729  16.464  66.064  1.00  0.00     1.199 C  
BRANCH   7   8
HETATM    8  C   UNL     1     -11.531  17.149  67.419  1.00  0.00     0.633 C  
BRANCH   8   9
HETATM    9  C   UNL     1     -10.124  17.666  67.569  1.00  0.00    -0.337 A  
HETATM   10  C   UNL     1      -9.295  17.760  66.447  1.00  0.00    -0.264 A  
HETATM   11  C   UNL     1      -7.975  18.178  66.576  1.00  0.00    -0.290 A  
HETATM   12  C   UNL     1      -7.460  18.556  67.820  1.00  0.00    -0.240 A  
HETATM   13  C   UNL     1      -9.617  18.031  68.819  1.00  0.00    -0.309 A  
HETATM   14  C   UNL     1      -8.297  18.474  68.942  1.00  0.00    -0.195 A  
BRANCH  12  15
HETATM   15  C   UNL     1      -6.012  18.959  67.997  1.00  0.00    -0.208 C  
BRANCH  15  16
HETATM   16  C   UNL     1      -5.411  19.673  66.775  1.00  0.00    -0.163 C  
HETATM   17  C   UNL     1      -6.230  19.677  65.462  1.00  0.00    -0.220 C  
HETATM   18  C   UNL     1      -5.379  20.418  64.390  1.00  0.00    -0.180 C  
HETATM   19  N   UNL     1      -6.477  18.293  64.974  1.00  0.00    -0.340 NA 
HETATM   20  C   UNL     1      -7.585  20.421  65.616  1.00  0.00    -0.012 C  
HETATM   21  O   UNL     1      -6.025  20.396  63.119  1.00  0.00    -0.243 OA 
HETATM   22  O   UNL     1      -8.465  19.751  66.515  1.00  0.00    -0.315 OA 
HETATM   23  H1  UNL     1      -7.018  18.296  64.109  1.00  0.00     0.000 HD 
HETATM   24  H2  UNL     1      -6.921  17.719  65.690  1.00  0.00     0.000 HD 
HETATM   25  H   UNL     1      -9.294  20.207  66.609  1.00  0.00     0.000 HD 
HETATM   26  H   UNL     1      -5.506  20.849  62.464  1.00  0.00     0.000 HD 
ENDBRANCH  15  16
ENDBRANCH  12  15
ENDBRANCH   8   9
ENDBRANCH   7   8
ENDBRANCH   6   7
ENDBRANCH   5   6
ENDBRANCH   4   5
ENDBRANCH   3   4
ENDBRANCH   2   3
TORSDOF 9
ENDMDL
MODEL      315
REMARK 921   NORMALIZED FREE ENERGY PREDICTED BY IDOCK:   22.59 KCAL/MOL
REMARK 922        TOTAL FREE ENERGY PREDICTED BY IDOCK:   33.37 KCAL/MOL
REMARK 923 INTER-LIGAND FREE ENERGY PREDICTED BY IDOCK:   17.03 KCAL/MOL
REMARK 924 INTRA-LIGAND FREE ENERGY PREDICTED BY IDOCK:   16.34 KCAL/MOL
REMARK 927      BINDING AFFINITY PREDICTED BY RF-SCORE:    0.00 PKD
ROOT
HETATM    1  C   UNL     1     -12.105  16.335  62.585  1.00  0.00     8.280 C  
HETATM    2  C   UNL     1     -12.839  16.378  63.913  1.00  0.00     3.147 C  
ENDROOT
BRANCH   2   3
HETATM    3  C   UNL     1     -13.439  15.018  64.258  1.00  0.00     2.324 C  
BRANCH   3   4
HETATM    4  C   UNL     1     -12.547  13.887  63.756  1.00  0.00     0.012 C  
BRANCH   4   5
HETATM    5  C   UNL     1     -11.192  13.912  64.455  1.00  0.00    -0.372 C  
BRANCH   5   6
HETATM    6  C   UNL     1     -11.360  14.078  65.964  1.00  0.00    -0.328 C  
BRANCH   6   7
HETATM    7  C   UNL     1     -10.525  13.042  66.707  1.00  0.00    -0.264 C  
BRANCH   7   8
HETATM    8  C   UNL     1     -10.814  13.070  68.210  1.00  0.00    -0.267 C  
BRANCH   8   9
HETATM    9  C   UNL     1     -10.804  11.681  68.793  1.00  0.00    -0.262 A  
HETATM   10  C   UNL     1     -11.375  11.450  70.048  1.00  0.00    -0.260 A  
HETATM   11  C   UNL     1     -11.321  10.188  70.628  1.00  0.00    -0.433 A  
HETATM   12  C   UNL     1     -10.736   9.111  69.953  1.00  0.00    -0.246 A  
HETATM   13  C   UNL     1     -10.208  10.615  68.114  1.00  0.00    -0.192 A  
HETATM   14  C   UNL     1     -10.177   9.342  68.689  1.00  0.00    -0.220 A  
BRANCH  12  15
HETATM   15  C   UNL     1     -10.614   7.742  70.586  1.00  0.00    -0.222 C  
BRANCH  15  16
HETATM   16  C   UNL     1     -10.909   6.582  69.621  1.00  0.00    -0.359 C  
HETATM   17  C   UNL     1     -11.287   6.931  68.161  1.00  0.00     0.156 C  
HETATM   18  C   UNL     1     -11.574   5.589  67.426  1.00  0.00     2.138 C  
HETATM   19  N   UNL     1     -12.523   7.758  68.106  1.00  0.00     4.242 NA 
HETATM   20  C   UNL     1     -10.139   7.665  67.416  1.00  0.00    -0.222 C  
HETATM   21  O   UNL     1     -12.013   5.822  66.090  1.00  0.00     0.530 OA 
HETATM   22  O   UNL     1      -9.876   8.951  67.972  1.00  0.00    -0.156 OA 
HETATM   23  H1  UNL     1     -12.772   7.988  67.144  1.00  0.00     0.000 HD 
HETATM   24  H2  UNL     1     -12.438   8.595  68.681  1.00  0.00     0.000 HD 
HETATM   25  H   UNL     1      -9.174   9.400  67.515  1.00  0.00     0.000 HD 
HETATM   26  H   UNL     1     -12.188   5.003  65.641  1.00  0.00     0.000 HD 
ENDBRANCH  15  16
ENDBRANCH  12  15
ENDBRANCH   8   9
ENDBRANCH   7   8
ENDBRANCH   6   7
ENDBRANCH   5   6
ENDBRANCH   4   5
ENDBRANCH   3   4
ENDBRANCH   2   3
TORSDOF 9
ENDMDL
