MODEL        1
REMARK 921   NORMALIZED FREE ENERGY PREDICTED BY IDOCK:   -8.32 KCAL/MOL
REMARK 922        TOTAL FREE ENERGY PREDICTED BY IDOCK:  -11.92 KCAL/MOL
REMARK 923 INTER-LIGAND FREE ENERGY PREDICTED BY IDOCK:  -11.23 KCAL/MOL
REMARK 924 INTRA-LIGAND FREE ENERGY PREDICTED BY IDOCK:   -0.69 KCAL/MOL
REMARK 927      BINDING AFFINITY PREDICTED BY RF-SCORE:    0.00 PKD
ROOT
HETATM    1  C   UNL     1     -12.283  11.710  70.387  1.00  0.00    -0.434 C  
HETATM    2  C   UNL     1     -12.008  12.776  69.369  1.00  0.00    -0.321 C  
HETATM    3  C   UNL     1     -11.978  14.105  69.577  1.00  0.00    -0.340 C  
HETATM    4  O   UNL     1     -11.601  15.039  68.631  1.00  0.00    -0.297 OA 
HETATM    5  C   UNL     1     -10.904  15.585  66.407  1.00  0.00    -0.277 A  
HETATM    6  C   UNL     1     -10.740  15.184  65.062  1.00  0.00    -0.451 A  
HETATM    7  C   UNL     1     -11.304  14.636  67.356  1.00  0.00    -0.356 A  
HETATM    8  C   UNL     1     -11.433  13.304  66.970  1.00  0.00    -0.378 A  
HETATM    9  C   UNL     1     -10.937  13.860  64.675  1.00  0.00    -0.406 A  
HETATM   10  O   UNL     1     -11.797  11.106  67.699  1.00  0.00    -0.612 OA 
HETATM   11  C   UNL     1     -11.260  12.913  65.636  1.00  0.00    -0.325 A  
HETATM   12  C   UNL     1     -11.745  12.294  67.992  1.00  0.00    -0.356 C  
ENDROOT
BRANCH   3  13
HETATM   13  C   UNL     1     -12.392  14.729  70.842  1.00  0.00    -0.388 A  
HETATM   14  C   UNL     1     -11.821  15.568  73.053  1.00  0.00    -0.555 A  
HETATM   15  C   UNL     1     -14.124  15.555  72.328  1.00  0.00    -0.637 A  
HETATM   16  C   UNL     1     -13.740  15.000  71.104  1.00  0.00    -0.484 A  
HETATM   17  C   UNL     1     -11.435  15.017  71.828  1.00  0.00    -0.376 A  
HETATM   18  C   UNL     1     -13.166  15.835  73.304  1.00  0.00    -0.687 A  
ENDBRANCH   3  13
BRANCH   5  19
HETATM   19  C   UNL     1     -10.713  17.014  66.797  1.00  0.00    -0.102 C  
HETATM   20  O   UNL     1     -10.910  17.506  67.896  1.00  0.00    -0.374 OA 
BRANCH  19  21
HETATM   21  O   UNL     1     -10.327  17.723  65.702  1.00  0.00    -0.612 OA 
BRANCH  21  22
HETATM   22  C   UNL     1     -10.161  19.119  65.965  1.00  0.00    -0.424 C  
BRANCH  22  23
HETATM   23  C   UNL     1      -8.662  19.401  66.187  1.00  0.00    -0.279 C  
BRANCH  23  24
HETATM   24  N   UNL     1      -8.341  20.209  67.390  1.00  0.00    -0.330 NA 
HETATM   25  C   UNL     1      -8.463  19.466  68.653  1.00  0.00    -0.359 C  
HETATM   26  C   UNL     1      -7.494  18.291  68.732  1.00  0.00    -0.297 C  
HETATM   27  C   UNL     1      -6.050  18.729  68.489  1.00  0.00    -0.225 C  
HETATM   28  C   UNL     1      -5.887  19.728  67.340  1.00  0.00    -0.193 C  
HETATM   29  C   UNL     1      -6.991  20.788  67.313  1.00  0.00    -0.358 C  
ENDBRANCH  23  24
ENDBRANCH  22  23
ENDBRANCH  21  22
ENDBRANCH  19  21
ENDBRANCH   5  19
TORSDOF 6
ENDMDL
MODEL        2
REMARK 921   NORMALIZED FREE ENERGY PREDICTED BY IDOCK:   -8.14 KCAL/MOL
REMARK 922        TOTAL FREE ENERGY PREDICTED BY IDOCK:  -11.68 KCAL/MOL
REMARK 923 INTER-LIGAND FREE ENERGY PREDICTED BY IDOCK:  -11.01 KCAL/MOL
REMARK 924 INTRA-LIGAND FREE ENERGY PREDICTED BY IDOCK:   -0.67 KCAL/MOL
REMARK 927      BINDING AFFINITY PREDICTED BY RF-SCORE:    0.00 PKD
ROOT
HETATM    1  C   UNL     1      -9.842   9.927  69.751  1.00  0.00    -0.268 C  
HETATM    2  C   UNL     1     -10.324  10.644  68.526  1.00  0.00    -0.202 C  
HETATM    3  C   UNL     1     -11.166  11.693  68.480  1.00  0.00    -0.256 C  
HETATM    4  O   UNL     1     -11.485  12.395  67.334  1.00  0.00    -0.307 OA 
HETATM    5  C   UNL     1     -11.306  12.708  64.967  1.00  0.00    -0.345 A  
HETATM    6  C   UNL     1     -10.916  12.196  63.710  1.00  0.00    -0.494 A  
HETATM    7  C   UNL     1     -10.994  11.982  66.123  1.00  0.00    -0.302 A  
HETATM    8  C   UNL     1     -10.224  10.826  66.012  1.00  0.00    -0.310 A  
HETATM    9  C   UNL     1     -10.203  11.003  63.605  1.00  0.00    -0.431 A  
HETATM   10  O   UNL     1      -9.073   9.149  67.176  1.00  0.00    -0.125 OA 
HETATM   11  C   UNL     1      -9.834  10.330  64.761  1.00  0.00    -0.403 A  
HETATM   12  C   UNL     1      -9.807  10.127  67.237  1.00  0.00    -0.183 C  
ENDROOT
BRANCH   3  13
HETATM   13  C   UNL     1     -11.890  12.191  69.659  1.00  0.00    -0.391 A  
HETATM   14  C   UNL     1     -12.640  14.060  71.025  1.00  0.00    -0.437 A  
HETATM   15  C   UNL     1     -13.094  11.795  71.729  1.00  0.00    -0.480 A  
HETATM   16  C   UNL     1     -12.444  11.307  70.591  1.00  0.00    -0.439 A  
HETATM   17  C   UNL     1     -11.994  13.573  69.885  1.00  0.00    -0.416 A  
HETATM   18  C   UNL     1     -13.188  13.170  71.948  1.00  0.00    -0.526 A  
ENDBRANCH   3  13
BRANCH   5  19
HETATM   19  C   UNL     1     -12.091  13.975  65.056  1.00  0.00    -0.415 C  
HETATM   20  O   UNL     1     -13.259  14.091  65.391  1.00  0.00    -0.761 OA 
BRANCH  19  21
HETATM   21  O   UNL     1     -11.309  15.009  64.645  1.00  0.00    -0.384 OA 
BRANCH  21  22
HETATM   22  C   UNL     1     -10.283  15.347  65.583  1.00  0.00    -0.376 C  
BRANCH  22  23
HETATM   23  C   UNL     1     -10.627  16.710  66.215  1.00  0.00    -0.205 C  
BRANCH  23  24
HETATM   24  N   UNL     1      -9.636  17.788  65.977  1.00  0.00    -0.529 NA 
HETATM   25  C   UNL     1     -10.176  19.143  66.166  1.00  0.00    -0.463 C  
HETATM   26  C   UNL     1     -10.644  19.386  67.598  1.00  0.00    -0.575 C  
HETATM   27  C   UNL     1      -9.542  19.086  68.614  1.00  0.00    -0.458 C  
HETATM   28  C   UNL     1      -8.752  17.808  68.316  1.00  0.00    -0.277 C  
HETATM   29  C   UNL     1      -8.446  17.632  66.827  1.00  0.00    -0.251 C  
ENDBRANCH  23  24
ENDBRANCH  22  23
ENDBRANCH  21  22
ENDBRANCH  19  21
ENDBRANCH   5  19
TORSDOF 6
ENDMDL
MODEL        3
REMARK 921   NORMALIZED FREE ENERGY PREDICTED BY IDOCK:   -7.99 KCAL/MOL
REMARK 922        TOTAL FREE ENERGY PREDICTED BY IDOCK:  -11.48 KCAL/MOL
REMARK 923 INTER-LIGAND FREE ENERGY PREDICTED BY IDOCK:  -11.02 KCAL/MOL
REMARK 924 INTRA-LIGAND FREE ENERGY PREDICTED BY IDOCK:   -0.46 KCAL/MOL
REMARK 927      BINDING AFFINITY PREDICTED BY RF-SCORE:    0.00 PKD
ROOT
HETATM    1  C   UNL     1     -12.403  11.440  70.600  1.00  0.00    -0.466 C  
HETATM    2  C   UNL     1     -12.032  12.408  69.518  1.00  0.00    -0.324 C  
HETATM    3  C   UNL     1     -11.938  13.747  69.627  1.00  0.00    -0.342 C  
HETATM    4  O   UNL     1     -11.474  14.585  68.632  1.00  0.00    -0.264 OA 
HETATM    5  C   UNL     1     -10.663  14.923  66.405  1.00  0.00    -0.316 A  
HETATM    6  C   UNL     1     -10.468  14.412  65.102  1.00  0.00    -0.437 A  
HETATM    7  C   UNL     1     -11.150  14.071  67.404  1.00  0.00    -0.303 A  
HETATM    8  C   UNL     1     -11.335  12.721  67.113  1.00  0.00    -0.365 A  
HETATM    9  C   UNL     1     -10.720  13.074  64.806  1.00  0.00    -0.370 A  
HETATM   10  O   UNL     1     -11.845  10.607  67.987  1.00  0.00    -0.494 OA 
HETATM   11  C   UNL     1     -11.131  12.221  65.821  1.00  0.00    -0.362 A  
HETATM   12  C   UNL     1     -11.742  11.809  68.193  1.00  0.00    -0.307 C  
ENDROOT
BRANCH   3  13
HETATM   13  C   UNL     1     -12.368  14.485  70.823  1.00  0.00    -0.410 A  
HETATM   14  C   UNL     1     -14.161  15.346  72.225  1.00  0.00    -0.660 A  
HETATM   15  C   UNL     1     -11.862  15.846  72.768  1.00  0.00    -0.583 A  
HETATM   16  C   UNL     1     -11.435  15.112  71.657  1.00  0.00    -0.445 A  
HETATM   17  C   UNL     1     -13.736  14.608  71.117  1.00  0.00    -0.374 A  
HETATM   18  C   UNL     1     -13.223  15.966  73.050  1.00  0.00    -0.648 A  
ENDBRANCH   3  13
BRANCH   5  19
HETATM   19  C   UNL     1     -10.410  16.366  66.695  1.00  0.00    -0.292 C  
HETATM   20  O   UNL     1     -11.011  17.069  67.493  1.00  0.00    -0.258 OA 
BRANCH  19  21
HETATM   21  O   UNL     1      -9.419  16.814  65.880  1.00  0.00    -0.466 OA 
BRANCH  21  22
HETATM   22  C   UNL     1      -8.110  16.462  66.337  1.00  0.00    -0.322 C  
BRANCH  22  23
HETATM   23  C   UNL     1      -7.394  17.745  66.805  1.00  0.00    -0.206 C  
BRANCH  23  24
HETATM   24  N   UNL     1      -8.288  18.861  67.200  1.00  0.00    -0.270 NA 
HETATM   25  C   UNL     1      -8.149  19.262  68.609  1.00  0.00    -0.370 C  
HETATM   26  C   UNL     1      -6.751  19.781  68.930  1.00  0.00    -0.362 C  
HETATM   27  C   UNL     1      -6.337  20.915  67.992  1.00  0.00    -0.381 C  
HETATM   28  C   UNL     1      -6.703  20.674  66.525  1.00  0.00    -0.317 C  
HETATM   29  C   UNL     1      -8.088  20.046  66.353  1.00  0.00    -0.307 C  
ENDBRANCH  23  24
ENDBRANCH  22  23
ENDBRANCH  21  22
ENDBRANCH  19  21
ENDBRANCH   5  19
TORSDOF 6
ENDMDL
MODEL        4
REMARK 921   NORMALIZED FREE ENERGY PREDICTED BY IDOCK:   -7.69 KCAL/MOL
REMARK 922        TOTAL FREE ENERGY PREDICTED BY IDOCK:  -11.08 KCAL/MOL
REMARK 923 INTER-LIGAND FREE ENERGY PREDICTED BY IDOCK:   -9.51 KCAL/MOL
REMARK 924 INTRA-LIGAND FREE ENERGY PREDICTED BY IDOCK:   -1.56 KCAL/MOL
REMARK 927      BINDING AFFINITY PREDICTED BY RF-SCORE:    0.00 PKD
ROOT
HETATM    1  C   UNL     1     -12.107   8.020  70.985  1.00  0.00    -0.232 C  
HETATM    2  C   UNL     1     -12.008   9.502  70.781  1.00  0.00    -0.326 C  
HETATM    3  C   UNL     1     -11.189  10.149  69.931  1.00  0.00    -0.287 C  
HETATM    4  O   UNL     1     -11.221  11.510  69.694  1.00  0.00    -0.251 OA 
HETATM    5  C   UNL     1     -12.117  13.682  70.150  1.00  0.00    -0.431 A  
HETATM    6  C   UNL     1     -12.894  14.515  70.986  1.00  0.00    -0.418 A  
HETATM    7  C   UNL     1     -12.076  12.307  70.408  1.00  0.00    -0.300 A  
HETATM    8  C   UNL     1     -12.878  11.782  71.419  1.00  0.00    -0.440 A  
HETATM    9  C   UNL     1     -13.641  13.987  72.037  1.00  0.00    -0.552 A  
HETATM   10  O   UNL     1     -13.662   9.828  72.448  1.00  0.00    -0.376 OA 
HETATM   11  C   UNL     1     -13.653  12.614  72.238  1.00  0.00    -0.508 A  
HETATM   12  C   UNL     1     -12.916  10.325  71.615  1.00  0.00    -0.465 C  
ENDROOT
BRANCH   3  13
HETATM   13  C   UNL     1     -10.119   9.476  69.180  1.00  0.00    -0.200 A  
HETATM   14  C   UNL     1      -9.423   8.111  67.290  1.00  0.00    -0.196 A  
HETATM   15  C   UNL     1      -7.804   8.785  68.950  1.00  0.00    -0.104 A  
HETATM   16  C   UNL     1      -8.803   9.464  69.655  1.00  0.00    -0.178 A  
HETATM   17  C   UNL     1     -10.421   8.793  67.991  1.00  0.00    -0.260 A  
HETATM   18  C   UNL     1      -8.114   8.106  67.771  1.00  0.00    -0.127 A  
ENDBRANCH   3  13
BRANCH   5  19
HETATM   19  C   UNL     1     -11.304  14.271  69.044  1.00  0.00    -0.272 C  
HETATM   20  O   UNL     1     -10.149  14.659  69.111  1.00  0.00    -0.225 OA 
BRANCH  19  21
HETATM   21  O   UNL     1     -12.077  14.365  67.929  1.00  0.00    -0.334 OA 
BRANCH  21  22
HETATM   22  C   UNL     1     -11.449  15.091  66.868  1.00  0.00    -0.263 C  
BRANCH  22  23
HETATM   23  C   UNL     1     -11.081  14.098  65.746  1.00  0.00    -0.309 C  
BRANCH  23  24
HETATM   24  N   UNL     1     -11.809  12.805  65.781  1.00  0.00    -0.411 NA 
HETATM   25  C   UNL     1     -12.510  12.486  64.527  1.00  0.00    -0.459 C  
HETATM   26  C   UNL     1     -11.552  12.336  63.349  1.00  0.00    -0.530 C  
HETATM   27  C   UNL     1     -10.450  11.317  63.639  1.00  0.00    -0.464 C  
HETATM   28  C   UNL     1      -9.858  11.425  65.047  1.00  0.00    -0.304 C  
HETATM   29  C   UNL     1     -10.917  11.686  66.119  1.00  0.00    -0.288 C  
ENDBRANCH  23  24
ENDBRANCH  22  23
ENDBRANCH  21  22
ENDBRANCH  19  21
ENDBRANCH   5  19
TORSDOF 6
ENDMDL
MODEL        5
REMARK 921   NORMALIZED FREE ENERGY PREDICTED BY IDOCK:   -7.68 KCAL/MOL
REMARK 922        TOTAL FREE ENERGY PREDICTED BY IDOCK:  -11.07 KCAL/MOL
REMARK 923 INTER-LIGAND FREE ENERGY PREDICTED BY IDOCK:   -9.02 KCAL/MOL
REMARK 924 INTRA-LIGAND FREE ENERGY PREDICTED BY IDOCK:   -2.05 KCAL/MOL
REMARK 927      BINDING AFFINITY PREDICTED BY RF-SCORE:    0.00 PKD
ROOT
HETATM    1  C   UNL     1     -13.107  15.262  70.985  1.00  0.00    -0.544 C  
HETATM    2  C   UNL     1     -12.659  13.854  70.734  1.00  0.00    -0.424 C  
HETATM    3  C   UNL     1     -11.792  13.436  69.792  1.00  0.00    -0.326 C  
HETATM    4  O   UNL     1     -11.319  12.143  69.679  1.00  0.00    -0.232 OA 
HETATM    5  C   UNL     1     -11.300   9.862  70.406  1.00  0.00    -0.376 A  
HETATM    6  C   UNL     1     -11.899   8.834  71.169  1.00  0.00    -0.345 A  
HETATM    7  C   UNL     1     -11.797  11.166  70.513  1.00  0.00    -0.351 A  
HETATM    8  C   UNL     1     -12.802  11.436  71.440  1.00  0.00    -0.502 A  
HETATM    9  C   UNL     1     -12.949   9.104  72.045  1.00  0.00    -0.496 A  
HETATM   10  O   UNL     1     -14.075  13.105  72.482  1.00  0.00    -0.672 OA 
HETATM   11  C   UNL     1     -13.384  10.412  72.199  1.00  0.00    -0.374 A  
HETATM   12  C   UNL     1     -13.244  12.826  71.627  1.00  0.00    -0.317 C  
ENDROOT
BRANCH   3  13
HETATM   13  C   UNL     1     -11.277  14.313  68.732  1.00  0.00    -0.286 A  
HETATM   14  C   UNL     1     -11.491  15.251  66.497  1.00  0.00    -0.095 A  
HETATM   15  C   UNL     1      -9.557  15.777  67.843  1.00  0.00    -0.214 A  
HETATM   16  C   UNL     1     -10.054  14.978  68.877  1.00  0.00    -0.234 A  
HETATM   17  C   UNL     1     -11.991  14.457  67.531  1.00  0.00    -0.389 A  
HETATM   18  C   UNL     1     -10.272  15.910  66.652  1.00  0.00    -0.293 A  
ENDBRANCH   3  13
BRANCH   5  19
HETATM   19  C   UNL     1     -10.192   9.548  69.455  1.00  0.00    -0.213 C  
HETATM   20  O   UNL     1      -9.036   9.934  69.524  1.00  0.00    -0.194 OA 
BRANCH  19  21
HETATM   21  O   UNL     1     -10.683   8.788  68.440  1.00  0.00    -0.169 OA 
BRANCH  21  22
HETATM   22  C   UNL     1      -9.678   8.368  67.514  1.00  0.00    -0.162 C  
BRANCH  22  23
HETATM   23  C   UNL     1     -10.020   8.944  66.125  1.00  0.00    -0.220 C  
BRANCH  23  24
HETATM   24  N   UNL     1      -8.924   9.696  65.464  1.00  0.00    -0.170 NA 
HETATM   25  C   UNL     1      -9.229  10.094  64.081  1.00  0.00    -0.270 C  
HETATM   26  C   UNL     1     -10.424  11.039  63.999  1.00  0.00    -0.433 C  
HETATM   27  C   UNL     1     -10.242  12.263  64.896  1.00  0.00    -0.307 C  
HETATM   28  C   UNL     1      -9.664  11.941  66.277  1.00  0.00    -0.247 C  
HETATM   29  C   UNL     1      -8.549  10.895  66.226  1.00  0.00    -0.164 C  
ENDBRANCH  23  24
ENDBRANCH  22  23
ENDBRANCH  21  22
ENDBRANCH  19  21
ENDBRANCH   5  19
TORSDOF 6
ENDMDL
MODEL        6
REMARK 921   NORMALIZED FREE ENERGY PREDICTED BY IDOCK:   -7.68 KCAL/MOL
REMARK 922        TOTAL FREE ENERGY PREDICTED BY IDOCK:  -11.06 KCAL/MOL
REMARK 923 INTER-LIGAND FREE ENERGY PREDICTED BY IDOCK:  -10.33 KCAL/MOL
REMARK 924 INTRA-LIGAND FREE ENERGY PREDICTED BY IDOCK:   -0.73 KCAL/MOL
REMARK 927      BINDING AFFINITY PREDICTED BY RF-SCORE:    0.00 PKD
ROOT
HETATM    1  C   UNL     1     -10.441  15.811  65.939  1.00  0.00    -0.366 C  
HETATM    2  C   UNL     1     -11.017  15.017  67.072  1.00  0.00    -0.318 C  
HETATM    3  C   UNL     1     -11.326  13.707  67.068  1.00  0.00    -0.324 C  
HETATM    4  O   UNL     1     -11.742  12.994  68.176  1.00  0.00    -0.313 OA 
HETATM    5  C   UNL     1     -12.347  12.911  70.491  1.00  0.00    -0.362 A  
HETATM    6  C   UNL     1     -12.691  13.605  71.673  1.00  0.00    -0.396 A  
HETATM    7  C   UNL     1     -11.944  13.642  69.366  1.00  0.00    -0.342 A  
HETATM    8  C   UNL     1     -11.796  15.023  69.472  1.00  0.00    -0.360 A  
HETATM    9  C   UNL     1     -12.603  14.994  71.747  1.00  0.00    -0.409 A  
HETATM   10  O   UNL     1     -11.061  16.977  68.406  1.00  0.00    -0.320 OA 
HETATM   11  C   UNL     1     -12.131  15.702  70.651  1.00  0.00    -0.443 A  
HETATM   12  C   UNL     1     -11.268  15.773  68.323  1.00  0.00    -0.356 C  
ENDROOT
BRANCH   3  13
HETATM   13  C   UNL     1     -11.299  12.881  65.852  1.00  0.00    -0.348 A  
HETATM   14  C   UNL     1     -10.136  11.294  64.421  1.00  0.00    -0.357 A  
HETATM   15  C   UNL     1     -12.276  12.182  63.744  1.00  0.00    -0.630 A  
HETATM   16  C   UNL     1     -12.336  12.942  64.916  1.00  0.00    -0.532 A  
HETATM   17  C   UNL     1     -10.197  12.049  65.594  1.00  0.00    -0.284 A  
HETATM   18  C   UNL     1     -11.176  11.361  63.495  1.00  0.00    -0.322 A  
ENDBRANCH   3  13
BRANCH   5  19
HETATM   19  C   UNL     1     -12.472  11.425  70.425  1.00  0.00    -0.261 C  
HETATM   20  O   UNL     1     -12.697  10.752  69.432  1.00  0.00    -0.261 OA 
BRANCH  19  21
HETATM   21  O   UNL     1     -12.347  10.915  71.679  1.00  0.00    -0.284 OA 
BRANCH  21  22
HETATM   22  C   UNL     1     -13.331   9.923  71.985  1.00  0.00    -0.432 C  
BRANCH  22  23
HETATM   23  C   UNL     1     -12.608   8.600  72.311  1.00  0.00    -0.395 C  
BRANCH  23  24
HETATM   24  N   UNL     1     -11.188   8.533  71.887  1.00  0.00    -0.303 NA 
HETATM   25  C   UNL     1     -10.301   7.909  72.882  1.00  0.00    -0.347 C  
HETATM   26  C   UNL     1     -10.671   6.455  73.156  1.00  0.00    -0.294 C  
HETATM   27  C   UNL     1     -10.722   5.630  71.871  1.00  0.00    -0.299 C  
HETATM   28  C   UNL     1     -11.405   6.343  70.700  1.00  0.00    -0.419 C  
HETATM   29  C   UNL     1     -11.033   7.824  70.608  1.00  0.00    -0.249 C  
ENDBRANCH  23  24
ENDBRANCH  22  23
ENDBRANCH  21  22
ENDBRANCH  19  21
ENDBRANCH   5  19
TORSDOF 6
ENDMDL
MODEL        7
REMARK 921   NORMALIZED FREE ENERGY PREDICTED BY IDOCK:   -7.67 KCAL/MOL
REMARK 922        TOTAL FREE ENERGY PREDICTED BY IDOCK:  -11.05 KCAL/MOL
REMARK 923 INTER-LIGAND FREE ENERGY PREDICTED BY IDOCK:  -10.03 KCAL/MOL
REMARK 924 INTRA-LIGAND FREE ENERGY PREDICTED BY IDOCK:   -1.02 KCAL/MOL
REMARK 927      BINDING AFFINITY PREDICTED BY RF-SCORE:    0.00 PKD
ROOT
HETATM    1  C   UNL     1      -8.104  11.073  67.117  1.00  0.00    -0.134 C  
HETATM    2  C   UNL     1      -9.004  10.721  68.262  1.00  0.00    -0.143 C  
HETATM    3  C   UNL     1     -10.265  11.150  68.463  1.00  0.00    -0.198 C  
HETATM    4  O   UNL     1     -11.095  10.700  69.471  1.00  0.00    -0.235 OA 
HETATM    5  C   UNL     1     -11.472   9.348  71.411  1.00  0.00    -0.449 A  
HETATM    6  C   UNL     1     -10.937   8.550  72.447  1.00  0.00    -0.390 A  
HETATM    7  C   UNL     1     -10.620   9.815  70.402  1.00  0.00    -0.304 A  
HETATM    8  C   UNL     1      -9.290   9.399  70.392  1.00  0.00    -0.317 A  
HETATM    9  C   UNL     1      -9.590   8.196  72.463  1.00  0.00    -0.347 A  
HETATM   10  O   UNL     1      -7.274   9.397  69.197  1.00  0.00    -0.064 OA 
HETATM   11  C   UNL     1      -8.770   8.600  71.418  1.00  0.00    -0.262 A  
HETATM   12  C   UNL     1      -8.427   9.802  69.271  1.00  0.00    -0.152 C  
ENDROOT
BRANCH   3  13
HETATM   13  C   UNL     1     -10.895  12.196  67.645  1.00  0.00    -0.272 A  
HETATM   14  C   UNL     1     -11.502  14.531  67.330  1.00  0.00    -0.381 A  
HETATM   15  C   UNL     1     -12.199  12.877  65.715  1.00  0.00    -0.498 A  
HETATM   16  C   UNL     1     -11.568  11.876  66.461  1.00  0.00    -0.328 A  
HETATM   17  C   UNL     1     -10.867  13.533  68.074  1.00  0.00    -0.266 A  
HETATM   18  C   UNL     1     -12.169  14.202  66.150  1.00  0.00    -0.465 A  
ENDBRANCH   3  13
BRANCH   5  19
HETATM   19  C   UNL     1     -12.914   9.738  71.426  1.00  0.00    -0.395 C  
HETATM   20  O   UNL     1     -13.827   9.188  70.832  1.00  0.00    -0.105 OA 
BRANCH  19  21
HETATM   21  O   UNL     1     -13.060  10.861  72.178  1.00  0.00    -0.463 OA 
BRANCH  21  22
HETATM   22  C   UNL     1     -13.035  12.064  71.405  1.00  0.00    -0.262 C  
BRANCH  22  23
HETATM   23  C   UNL     1     -13.538  13.224  72.287  1.00  0.00    -0.605 C  
BRANCH  23  24
HETATM   24  N   UNL     1     -13.878  14.472  71.560  1.00  0.00    -0.395 NA 
HETATM   25  C   UNL     1     -14.271  15.583  72.441  1.00  0.00    -0.481 C  
HETATM   26  C   UNL     1     -13.146  16.002  73.383  1.00  0.00    -0.677 C  
HETATM   27  C   UNL     1     -11.861  16.330  72.622  1.00  0.00    -0.596 C  
HETATM   28  C   UNL     1     -11.536  15.345  71.496  1.00  0.00    -0.478 C  
HETATM   29  C   UNL     1     -12.772  14.921  70.701  1.00  0.00    -0.367 C  
ENDBRANCH  23  24
ENDBRANCH  22  23
ENDBRANCH  21  22
ENDBRANCH  19  21
ENDBRANCH   5  19
TORSDOF 6
ENDMDL
MODEL        8
REMARK 921   NORMALIZED FREE ENERGY PREDICTED BY IDOCK:   -7.60 KCAL/MOL
REMARK 922        TOTAL FREE ENERGY PREDICTED BY IDOCK:  -10.96 KCAL/MOL
REMARK 923 INTER-LIGAND FREE ENERGY PREDICTED BY IDOCK:  -10.00 KCAL/MOL
REMARK 924 INTRA-LIGAND FREE ENERGY PREDICTED BY IDOCK:   -0.96 KCAL/MOL
REMARK 927      BINDING AFFINITY PREDICTED BY RF-SCORE:    0.00 PKD
ROOT
HETATM    1  C   UNL     1     -10.771  15.731  66.471  1.00  0.00    -0.283 C  
HETATM    2  C   UNL     1     -11.303  14.841  67.553  1.00  0.00    -0.355 C  
HETATM    3  C   UNL     1     -11.530  13.517  67.473  1.00  0.00    -0.329 C  
HETATM    4  O   UNL     1     -11.907  12.719  68.536  1.00  0.00    -0.307 OA 
HETATM    5  C   UNL     1     -12.519  12.469  70.837  1.00  0.00    -0.361 A  
HETATM    6  C   UNL     1     -12.912  13.073  72.052  1.00  0.00    -0.395 A  
HETATM    7  C   UNL     1     -12.156  13.285  69.758  1.00  0.00    -0.290 A  
HETATM    8  C   UNL     1     -12.095  14.665  69.942  1.00  0.00    -0.385 A  
HETATM    9  C   UNL     1     -12.912  14.458  72.204  1.00  0.00    -0.435 A  
HETATM   10  O   UNL     1     -11.477  16.717  68.993  1.00  0.00    -0.183 OA 
HETATM   11  C   UNL     1     -12.478  15.255  71.153  1.00  0.00    -0.438 A  
HETATM   12  C   UNL     1     -11.607  15.509  68.841  1.00  0.00    -0.373 C  
ENDROOT
BRANCH   3  13
HETATM   13  C   UNL     1     -11.444  12.764  66.213  1.00  0.00    -0.405 A  
HETATM   14  C   UNL     1     -10.222  11.245  64.757  1.00  0.00    -0.347 A  
HETATM   15  C   UNL     1     -12.310  12.205  64.016  1.00  0.00    -0.550 A  
HETATM   16  C   UNL     1     -12.426  12.896  65.226  1.00  0.00    -0.552 A  
HETATM   17  C   UNL     1     -10.340  11.931  65.968  1.00  0.00    -0.268 A  
HETATM   18  C   UNL     1     -11.207  11.383  63.780  1.00  0.00    -0.375 A  
ENDBRANCH   3  13
BRANCH   5  19
HETATM   19  C   UNL     1     -12.550  10.984  70.687  1.00  0.00    -0.338 C  
HETATM   20  O   UNL     1     -13.530  10.260  70.770  1.00  0.00    -0.278 OA 
BRANCH  19  21
HETATM   21  O   UNL     1     -11.283  10.532  70.493  1.00  0.00    -0.314 OA 
BRANCH  21  22
HETATM   22  C   UNL     1     -10.926   9.459  71.369  1.00  0.00    -0.373 C  
BRANCH  22  23
HETATM   23  C   UNL     1     -10.466   8.261  70.513  1.00  0.00    -0.210 C  
BRANCH  23  24
HETATM   24  N   UNL     1     -11.508   7.239  70.244  1.00  0.00    -0.247 NA 
HETATM   25  C   UNL     1     -10.996   6.035  69.573  1.00  0.00    -0.397 C  
HETATM   26  C   UNL     1      -9.965   5.293  70.418  1.00  0.00    -0.303 C  
HETATM   27  C   UNL     1     -10.504   4.961  71.809  1.00  0.00    -0.214 C  
HETATM   28  C   UNL     1     -11.291   6.102  72.460  1.00  0.00    -0.328 C  
HETATM   29  C   UNL     1     -12.204   6.833  71.474  1.00  0.00    -0.366 C  
ENDBRANCH  23  24
ENDBRANCH  22  23
ENDBRANCH  21  22
ENDBRANCH  19  21
ENDBRANCH   5  19
TORSDOF 6
ENDMDL
MODEL        9
REMARK 921   NORMALIZED FREE ENERGY PREDICTED BY IDOCK:   -7.60 KCAL/MOL
REMARK 922        TOTAL FREE ENERGY PREDICTED BY IDOCK:  -10.95 KCAL/MOL
REMARK 923 INTER-LIGAND FREE ENERGY PREDICTED BY IDOCK:   -9.83 KCAL/MOL
REMARK 924 INTRA-LIGAND FREE ENERGY PREDICTED BY IDOCK:   -1.12 KCAL/MOL
REMARK 927      BINDING AFFINITY PREDICTED BY RF-SCORE:    0.00 PKD
ROOT
HETATM    1  C   UNL     1     -12.008   9.060  70.556  1.00  0.00    -0.044 C  
HETATM    2  C   UNL     1     -11.993  10.556  70.465  1.00  0.00    -0.436 C  
HETATM    3  C   UNL     1     -11.302  11.306  69.586  1.00  0.00    -0.287 C  
HETATM    4  O   UNL     1     -11.416  12.677  69.465  1.00  0.00    -0.266 OA 
HETATM    5  C   UNL     1     -12.344  14.762  70.191  1.00  0.00    -0.381 A  
HETATM    6  C   UNL     1     -13.055  15.488  71.171  1.00  0.00    -0.573 A  
HETATM    7  C   UNL     1     -12.217  13.374  70.330  1.00  0.00    -0.345 A  
HETATM    8  C   UNL     1     -12.879  12.735  71.377  1.00  0.00    -0.371 A  
HETATM    9  C   UNL     1     -13.656  14.846  72.251  1.00  0.00    -0.538 A  
HETATM   10  O   UNL     1     -13.461  10.671  72.323  1.00  0.00    -0.333 OA 
HETATM   11  C   UNL     1     -13.589  13.462  72.340  1.00  0.00    -0.708 A  
HETATM   12  C   UNL     1     -12.834  11.267  71.457  1.00  0.00    -0.414 C  
ENDROOT
BRANCH   3  13
HETATM   13  C   UNL     1     -10.298  10.746  68.670  1.00  0.00    -0.208 A  
HETATM   14  C   UNL     1      -9.737   9.777  66.510  1.00  0.00    -0.267 A  
HETATM   15  C   UNL     1      -8.039   9.982  68.214  1.00  0.00    -0.104 A  
HETATM   16  C   UNL     1      -8.975  10.554  69.083  1.00  0.00    -0.171 A  
HETATM   17  C   UNL     1     -10.671  10.352  67.375  1.00  0.00    -0.338 A  
HETATM   18  C   UNL     1      -8.421   9.591  66.930  1.00  0.00    -0.128 A  
ENDBRANCH   3  13
BRANCH   5  19
HETATM   19  C   UNL     1     -11.685  15.472  69.054  1.00  0.00    -0.377 C  
HETATM   20  O   UNL     1     -11.910  15.318  67.865  1.00  0.00    -0.303 OA 
BRANCH  19  21
HETATM   21  O   UNL     1     -10.729  16.304  69.547  1.00  0.00    -0.278 OA 
BRANCH  21  22
HETATM   22  C   UNL     1      -9.434  16.068  68.989  1.00  0.00    -0.243 C  
BRANCH  22  23
HETATM   23  C   UNL     1      -8.840  17.419  68.542  1.00  0.00    -0.277 C  
BRANCH  23  24
HETATM   24  N   UNL     1      -8.981  17.726  67.097  1.00  0.00    -0.242 NA 
HETATM   25  C   UNL     1     -10.337  18.146  66.710  1.00  0.00    -0.365 C  
HETATM   26  C   UNL     1     -10.763  19.437  67.402  1.00  0.00    -0.594 C  
HETATM   27  C   UNL     1      -9.753  20.562  67.178  1.00  0.00    -0.581 C  
HETATM   28  C   UNL     1      -8.292  20.121  67.303  1.00  0.00    -0.394 C  
HETATM   29  C   UNL     1      -8.027  18.757  66.663  1.00  0.00    -0.266 C  
ENDBRANCH  23  24
ENDBRANCH  22  23
ENDBRANCH  21  22
ENDBRANCH  19  21
ENDBRANCH   5  19
TORSDOF 6
ENDMDL
MODEL       10
REMARK 921   NORMALIZED FREE ENERGY PREDICTED BY IDOCK:   -7.57 KCAL/MOL
REMARK 922        TOTAL FREE ENERGY PREDICTED BY IDOCK:  -10.91 KCAL/MOL
REMARK 923 INTER-LIGAND FREE ENERGY PREDICTED BY IDOCK:  -10.35 KCAL/MOL
REMARK 924 INTRA-LIGAND FREE ENERGY PREDICTED BY IDOCK:   -0.56 KCAL/MOL
REMARK 927      BINDING AFFINITY PREDICTED BY RF-SCORE:    0.00 PKD
ROOT
HETATM    1  C   UNL     1     -11.507  10.159  70.994  1.00  0.00    -0.436 C  
HETATM    2  C   UNL     1     -11.355  10.905  69.703  1.00  0.00    -0.362 C  
HETATM    3  C   UNL     1     -11.621  12.206  69.483  1.00  0.00    -0.315 C  
HETATM    4  O   UNL     1     -11.349  12.875  68.305  1.00  0.00    -0.251 OA 
HETATM    5  C   UNL     1     -10.553  12.876  66.047  1.00  0.00    -0.287 A  
HETATM    6  C   UNL     1     -10.171  12.140  64.903  1.00  0.00    -0.309 A  
HETATM    7  C   UNL     1     -10.845  12.189  67.232  1.00  0.00    -0.244 A  
HETATM    8  C   UNL     1     -10.655  10.809  67.280  1.00  0.00    -0.304 A  
HETATM    9  C   UNL     1     -10.049  10.752  64.945  1.00  0.00    -0.387 A  
HETATM   10  O   UNL     1     -10.631   8.907  68.650  1.00  0.00    -0.209 OA 
HETATM   11  C   UNL     1     -10.267  10.088  66.144  1.00  0.00    -0.283 A  
HETATM   12  C   UNL     1     -10.856  10.107  68.557  1.00  0.00    -0.237 C  
ENDROOT
BRANCH   3  13
HETATM   13  C   UNL     1     -12.285  13.066  70.473  1.00  0.00    -0.392 A  
HETATM   14  C   UNL     1     -12.679  15.282  71.397  1.00  0.00    -0.462 A  
HETATM   15  C   UNL     1     -13.666  13.346  72.448  1.00  0.00    -0.698 A  
HETATM   16  C   UNL     1     -13.075  12.518  71.489  1.00  0.00    -0.373 A  
HETATM   17  C   UNL     1     -12.091  14.457  70.435  1.00  0.00    -0.399 A  
HETATM   18  C   UNL     1     -13.466  14.727  72.404  1.00  0.00    -0.529 A  
ENDBRANCH   3  13
BRANCH   5  19
HETATM   19  C   UNL     1     -10.702  14.360  65.975  1.00  0.00    -0.302 C  
HETATM   20  O   UNL     1     -11.681  14.979  65.590  1.00  0.00    -0.263 OA 
BRANCH  19  21
HETATM   21  O   UNL     1      -9.535  14.941  66.361  1.00  0.00    -0.266 OA 
BRANCH  21  22
HETATM   22  C   UNL     1      -9.655  15.700  67.567  1.00  0.00    -0.224 C  
BRANCH  22  23
HETATM   23  C   UNL     1      -8.781  16.964  67.438  1.00  0.00    -0.203 C  
BRANCH  23  24
HETATM   24  N   UNL     1      -9.019  17.778  66.220  1.00  0.00    -0.447 NA 
HETATM   25  C   UNL     1     -10.388  18.306  66.118  1.00  0.00    -0.398 C  
HETATM   26  C   UNL     1     -10.732  19.253  67.264  1.00  0.00    -0.594 C  
HETATM   27  C   UNL     1      -9.713  20.385  67.390  1.00  0.00    -0.597 C  
HETATM   28  C   UNL     1      -8.258  19.934  67.233  1.00  0.00    -0.350 C  
HETATM   29  C   UNL     1      -8.073  18.899  66.121  1.00  0.00    -0.222 C  
ENDBRANCH  23  24
ENDBRANCH  22  23
ENDBRANCH  21  22
ENDBRANCH  19  21
ENDBRANCH   5  19
TORSDOF 6
ENDMDL
MODEL       11
REMARK 921   NORMALIZED FREE ENERGY PREDICTED BY IDOCK:   -7.53 KCAL/MOL
REMARK 922        TOTAL FREE ENERGY PREDICTED BY IDOCK:  -10.85 KCAL/MOL
REMARK 923 INTER-LIGAND FREE ENERGY PREDICTED BY IDOCK:   -9.55 KCAL/MOL
REMARK 924 INTRA-LIGAND FREE ENERGY PREDICTED BY IDOCK:   -1.30 KCAL/MOL
REMARK 927      BINDING AFFINITY PREDICTED BY RF-SCORE:    0.00 PKD
ROOT
HETATM    1  C   UNL     1     -12.372   9.546  71.050  1.00  0.00    -0.363 C  
HETATM    2  C   UNL     1     -12.006  10.882  70.478  1.00  0.00    -0.466 C  
HETATM    3  C   UNL     1     -11.232  11.116  69.401  1.00  0.00    -0.270 C  
HETATM    4  O   UNL     1     -11.022  12.362  68.842  1.00  0.00    -0.229 OA 
HETATM    5  C   UNL     1     -11.356  14.733  68.854  1.00  0.00    -0.302 A  
HETATM    6  C   UNL     1     -11.786  15.886  69.547  1.00  0.00    -0.331 A  
HETATM    7  C   UNL     1     -11.556  13.475  69.436  1.00  0.00    -0.312 A  
HETATM    8  C   UNL     1     -12.261  13.387  70.635  1.00  0.00    -0.427 A  
HETATM    9  C   UNL     1     -12.430  15.790  70.779  1.00  0.00    -0.420 A  
HETATM   10  O   UNL     1     -13.240  11.944  72.201  1.00  0.00    -0.494 OA 
HETATM   11  C   UNL     1     -12.691  14.535  71.312  1.00  0.00    -0.413 A  
HETATM   12  C   UNL     1     -12.564  12.058  71.187  1.00  0.00    -0.271 C  
ENDROOT
BRANCH   3  13
HETATM   13  C   UNL     1     -10.473  10.061  68.715  1.00  0.00    -0.229 A  
HETATM   14  C   UNL     1      -8.573   8.542  68.659  1.00  0.00    -0.135 A  
HETATM   15  C   UNL     1     -10.087   8.647  66.781  1.00  0.00    -0.366 A  
HETATM   16  C   UNL     1     -10.843   9.622  67.439  1.00  0.00    -0.242 A  
HETATM   17  C   UNL     1      -9.331   9.512  69.320  1.00  0.00    -0.171 A  
HETATM   18  C   UNL     1      -8.951   8.110  67.389  1.00  0.00    -0.145 A  
ENDBRANCH   3  13
BRANCH   5  19
HETATM   19  C   UNL     1     -10.645  14.859  67.547  1.00  0.00    -0.266 C  
HETATM   20  O   UNL     1     -11.146  14.827  66.434  1.00  0.00    -0.330 OA 
BRANCH  19  21
HETATM   21  O   UNL     1      -9.309  14.964  67.779  1.00  0.00    -0.191 OA 
BRANCH  21  22
HETATM   22  C   UNL     1      -8.599  15.593  66.708  1.00  0.00    -0.274 C  
BRANCH  22  23
HETATM   23  C   UNL     1      -8.373  17.074  67.073  1.00  0.00    -0.203 C  
BRANCH  23  24
HETATM   24  N   UNL     1      -8.853  18.054  66.069  1.00  0.00    -0.510 NA 
HETATM   25  C   UNL     1     -10.306  18.277  66.105  1.00  0.00    -0.398 C  
HETATM   26  C   UNL     1     -10.771  18.859  67.437  1.00  0.00    -0.519 C  
HETATM   27  C   UNL     1     -10.009  20.136  67.795  1.00  0.00    -0.549 C  
HETATM   28  C   UNL     1      -8.505  20.059  67.522  1.00  0.00    -0.393 C  
HETATM   29  C   UNL     1      -8.174  19.352  66.206  1.00  0.00    -0.330 C  
ENDBRANCH  23  24
ENDBRANCH  22  23
ENDBRANCH  21  22
ENDBRANCH  19  21
ENDBRANCH   5  19
TORSDOF 6
ENDMDL
MODEL       12
REMARK 921   NORMALIZED FREE ENERGY PREDICTED BY IDOCK:   -7.50 KCAL/MOL
REMARK 922        TOTAL FREE ENERGY PREDICTED BY IDOCK:  -10.82 KCAL/MOL
REMARK 923 INTER-LIGAND FREE ENERGY PREDICTED BY IDOCK:   -9.78 KCAL/MOL
REMARK 924 INTRA-LIGAND FREE ENERGY PREDICTED BY IDOCK:   -1.04 KCAL/MOL
REMARK 927      BINDING AFFINITY PREDICTED BY RF-SCORE:    0.00 PKD
ROOT
HETATM    1  C   UNL     1     -12.274  11.520  70.620  1.00  0.00    -0.473 C  
HETATM    2  C   UNL     1     -11.936  12.525  69.560  1.00  0.00    -0.329 C  
HETATM    3  C   UNL     1     -11.914  13.864  69.691  1.00  0.00    -0.342 C  
HETATM    4  O   UNL     1     -11.478  14.741  68.717  1.00  0.00    -0.272 OA 
HETATM    5  C   UNL     1     -10.649  15.157  66.510  1.00  0.00    -0.304 A  
HETATM    6  C   UNL     1     -10.406  14.679  65.204  1.00  0.00    -0.431 A  
HETATM    7  C   UNL     1     -11.107  14.265  67.488  1.00  0.00    -0.298 A  
HETATM    8  C   UNL     1     -11.217  12.912  67.173  1.00  0.00    -0.329 A  
HETATM    9  C   UNL     1     -10.583  13.334  64.883  1.00  0.00    -0.381 A  
HETATM   10  O   UNL     1     -11.631  10.761  68.005  1.00  0.00    -0.470 OA 
HETATM   11  C   UNL     1     -10.965  12.444  65.877  1.00  0.00    -0.323 A  
HETATM   12  C   UNL     1     -11.593  11.963  68.232  1.00  0.00    -0.327 C  
ENDROOT
BRANCH   3  13
HETATM   13  C   UNL     1     -12.402  14.560  70.891  1.00  0.00    -0.415 A  
HETATM   14  C   UNL     1     -14.261  15.393  72.222  1.00  0.00    -0.639 A  
HETATM   15  C   UNL     1     -11.990  15.829  72.918  1.00  0.00    -0.599 A  
HETATM   16  C   UNL     1     -11.510  15.134  71.803  1.00  0.00    -0.452 A  
HETATM   17  C   UNL     1     -13.783  14.695  71.110  1.00  0.00    -0.374 A  
HETATM   18  C   UNL     1     -13.364  15.961  73.126  1.00  0.00    -0.681 A  
ENDBRANCH   3  13
BRANCH   5  19
HETATM   19  C   UNL     1     -10.477  16.607  66.827  1.00  0.00    -0.261 C  
HETATM   20  O   UNL     1     -11.136  17.268  67.613  1.00  0.00    -0.219 OA 
BRANCH  19  21
HETATM   21  O   UNL     1      -9.482  17.114  66.051  1.00  0.00    -0.450 OA 
BRANCH  21  22
HETATM   22  C   UNL     1      -8.728  18.141  66.701  1.00  0.00    -0.264 C  
BRANCH  22  23
HETATM   23  C   UNL     1      -7.903  17.500  67.835  1.00  0.00    -0.218 C  
BRANCH  23  24
HETATM   24  N   UNL     1      -6.767  16.654  67.391  1.00  0.00    -0.152 NA 
HETATM   25  C   UNL     1      -5.526  16.884  68.148  1.00  0.00    -0.120 C  
HETATM   26  C   UNL     1      -5.678  16.548  69.628  1.00  0.00    -0.182 C  
HETATM   27  C   UNL     1      -6.193  15.124  69.836  1.00  0.00    -0.154 C  
HETATM   28  C   UNL     1      -7.322  14.725  68.882  1.00  0.00    -0.130 C  
HETATM   29  C   UNL     1      -7.097  15.223  67.453  1.00  0.00    -0.191 C  
ENDBRANCH  23  24
ENDBRANCH  22  23
ENDBRANCH  21  22
ENDBRANCH  19  21
ENDBRANCH   5  19
TORSDOF 6
ENDMDL
MODEL       13
REMARK 921   NORMALIZED FREE ENERGY PREDICTED BY IDOCK:   -7.33 KCAL/MOL
REMARK 922        TOTAL FREE ENERGY PREDICTED BY IDOCK:  -10.59 KCAL/MOL
REMARK 923 INTER-LIGAND FREE ENERGY PREDICTED BY IDOCK:   -9.06 KCAL/MOL
REMARK 924 INTRA-LIGAND FREE ENERGY PREDICTED BY IDOCK:   -1.53 KCAL/MOL
REMARK 927      BINDING AFFINITY PREDICTED BY RF-SCORE:    0.00 PKD
ROOT
HETATM    1  C   UNL     1     -10.873  15.577  66.910  1.00  0.00    -0.301 C  
HETATM    2  C   UNL     1     -11.441  14.658  67.949  1.00  0.00    -0.350 C  
HETATM    3  C   UNL     1     -11.612  13.326  67.846  1.00  0.00    -0.334 C  
HETATM    4  O   UNL     1     -12.028  12.506  68.877  1.00  0.00    -0.299 OA 
HETATM    5  C   UNL     1     -12.781  12.215  71.131  1.00  0.00    -0.351 A  
HETATM    6  C   UNL     1     -13.277  12.793  72.320  1.00  0.00    -0.491 A  
HETATM    7  C   UNL     1     -12.378  13.052  70.083  1.00  0.00    -0.200 A  
HETATM    8  C   UNL     1     -12.383  14.432  70.279  1.00  0.00    -0.410 A  
HETATM    9  C   UNL     1     -13.339  14.176  72.480  1.00  0.00    -0.616 A  
HETATM   10  O   UNL     1     -11.781  16.514  69.385  1.00  0.00    -0.067 OA 
HETATM   11  C   UNL     1     -12.867  14.997  71.465  1.00  0.00    -0.422 A  
HETATM   12  C   UNL     1     -11.855  15.303  69.217  1.00  0.00    -0.329 C  
ENDROOT
BRANCH   3  13
HETATM   13  C   UNL     1     -11.414  12.588  66.591  1.00  0.00    -0.417 A  
HETATM   14  C   UNL     1     -10.027  11.155  65.197  1.00  0.00    -0.323 A  
HETATM   15  C   UNL     1     -12.127  11.992  64.348  1.00  0.00    -0.375 A  
HETATM   16  C   UNL     1     -12.349  12.667  65.553  1.00  0.00    -0.455 A  
HETATM   17  C   UNL     1     -10.250  11.825  66.402  1.00  0.00    -0.248 A  
HETATM   18  C   UNL     1     -10.965  11.239  64.169  1.00  0.00    -0.376 A  
ENDBRANCH   3  13
BRANCH   5  19
HETATM   19  C   UNL     1     -12.746  10.730  70.971  1.00  0.00    -0.415 C  
HETATM   20  O   UNL     1     -13.704   9.985  70.840  1.00  0.00    -0.217 OA 
BRANCH  19  21
HETATM   21  O   UNL     1     -11.456  10.308  71.047  1.00  0.00    -0.350 OA 
BRANCH  21  22
HETATM   22  C   UNL     1     -11.274   8.967  70.586  1.00  0.00    -0.266 C  
BRANCH  22  23
HETATM   23  C   UNL     1     -10.095   8.947  69.591  1.00  0.00    -0.200 C  
BRANCH  23  24
HETATM   24  N   UNL     1      -9.567   7.601  69.262  1.00  0.00    -0.159 NA 
HETATM   25  C   UNL     1     -10.424   6.835  68.343  1.00  0.00    -0.205 C  
HETATM   26  C   UNL     1     -10.570   7.514  66.985  1.00  0.00    -0.409 C  
HETATM   27  C   UNL     1      -9.212   7.812  66.350  1.00  0.00    -0.229 C  
HETATM   28  C   UNL     1      -8.175   8.367  67.331  1.00  0.00    -0.120 C  
HETATM   29  C   UNL     1      -8.212   7.671  68.693  1.00  0.00    -0.128 C  
ENDBRANCH  23  24
ENDBRANCH  22  23
ENDBRANCH  21  22
ENDBRANCH  19  21
ENDBRANCH   5  19
TORSDOF 6
ENDMDL
MODEL       14
REMARK 921   NORMALIZED FREE ENERGY PREDICTED BY IDOCK:   -7.32 KCAL/MOL
REMARK 922        TOTAL FREE ENERGY PREDICTED BY IDOCK:  -10.58 KCAL/MOL
REMARK 923 INTER-LIGAND FREE ENERGY PREDICTED BY IDOCK:   -9.26 KCAL/MOL
REMARK 924 INTRA-LIGAND FREE ENERGY PREDICTED BY IDOCK:   -1.32 KCAL/MOL
REMARK 927      BINDING AFFINITY PREDICTED BY RF-SCORE:    0.00 PKD
ROOT
HETATM    1  C   UNL     1     -11.769  15.799  68.328  1.00  0.00    -0.229 C  
HETATM    2  C   UNL     1     -11.587  14.364  68.718  1.00  0.00    -0.348 C  
HETATM    3  C   UNL     1     -11.937  13.792  69.885  1.00  0.00    -0.347 C  
HETATM    4  O   UNL     1     -11.860  12.438  70.150  1.00  0.00    -0.324 OA 
HETATM    5  C   UNL     1     -11.262  10.217  69.485  1.00  0.00    -0.314 A  
HETATM    6  C   UNL     1     -10.578   9.372  68.584  1.00  0.00    -0.230 A  
HETATM    7  C   UNL     1     -11.321  11.591  69.218  1.00  0.00    -0.288 A  
HETATM    8  C   UNL     1     -10.791  12.073  68.023  1.00  0.00    -0.254 A  
HETATM    9  C   UNL     1      -9.993   9.875  67.424  1.00  0.00    -0.235 A  
HETATM   10  O   UNL     1     -10.559  13.938  66.624  1.00  0.00    -0.272 OA 
HETATM   11  C   UNL     1     -10.122  11.226  67.131  1.00  0.00    -0.223 A  
HETATM   12  C   UNL     1     -10.952  13.497  67.696  1.00  0.00    -0.263 C  
ENDROOT
BRANCH   3  13
HETATM   13  C   UNL     1     -12.408  14.561  71.045  1.00  0.00    -0.417 A  
HETATM   14  C   UNL     1     -11.912  15.878  73.031  1.00  0.00    -0.596 A  
HETATM   15  C   UNL     1     -14.202  15.353  72.476  1.00  0.00    -0.500 A  
HETATM   16  C   UNL     1     -13.772  14.652  71.345  1.00  0.00    -0.474 A  
HETATM   17  C   UNL     1     -11.481  15.181  71.899  1.00  0.00    -0.457 A  
HETATM   18  C   UNL     1     -13.273  15.963  73.320  1.00  0.00    -0.698 A  
ENDBRANCH   3  13
BRANCH   5  19
HETATM   19  C   UNL     1     -11.861   9.661  70.735  1.00  0.00    -0.300 C  
HETATM   20  O   UNL     1     -13.045   9.466  70.956  1.00  0.00    -0.265 OA 
BRANCH  19  21
HETATM   21  O   UNL     1     -10.871   9.447  71.642  1.00  0.00    -0.368 OA 
BRANCH  21  22
HETATM   22  C   UNL     1     -11.131   8.339  72.509  1.00  0.00    -0.368 C  
BRANCH  22  23
HETATM   23  C   UNL     1     -10.289   7.138  72.034  1.00  0.00    -0.191 C  
BRANCH  23  24
HETATM   24  N   UNL     1     -11.067   5.982  71.522  1.00  0.00    -0.278 NA 
HETATM   25  C   UNL     1     -11.268   6.002  70.065  1.00  0.00    -0.355 C  
HETATM   26  C   UNL     1      -9.952   5.928  69.296  1.00  0.00    -0.224 C  
HETATM   27  C   UNL     1      -9.115   4.721  69.719  1.00  0.00    -0.159 C  
HETATM   28  C   UNL     1      -9.086   4.484  71.232  1.00  0.00    -0.178 C  
HETATM   29  C   UNL     1     -10.448   4.701  71.894  1.00  0.00    -0.102 C  
ENDBRANCH  23  24
ENDBRANCH  22  23
ENDBRANCH  21  22
ENDBRANCH  19  21
ENDBRANCH   5  19
TORSDOF 6
ENDMDL
MODEL       15
REMARK 921   NORMALIZED FREE ENERGY PREDICTED BY IDOCK:   -7.32 KCAL/MOL
REMARK 922        TOTAL FREE ENERGY PREDICTED BY IDOCK:  -10.57 KCAL/MOL
REMARK 923 INTER-LIGAND FREE ENERGY PREDICTED BY IDOCK:   -9.57 KCAL/MOL
REMARK 924 INTRA-LIGAND FREE ENERGY PREDICTED BY IDOCK:   -1.00 KCAL/MOL
REMARK 927      BINDING AFFINITY PREDICTED BY RF-SCORE:    0.00 PKD
ROOT
HETATM    1  C   UNL     1      -9.521   8.132  67.551  1.00  0.00    -0.184 C  
HETATM    2  C   UNL     1     -10.155   9.479  67.730  1.00  0.00    -0.244 C  
HETATM    3  C   UNL     1     -10.463  10.081  68.894  1.00  0.00    -0.210 C  
HETATM    4  O   UNL     1     -10.935  11.374  69.008  1.00  0.00    -0.212 OA 
HETATM    5  C   UNL     1     -11.658  13.422  68.002  1.00  0.00    -0.369 A  
HETATM    6  C   UNL     1     -12.062  14.119  66.841  1.00  0.00    -0.466 A  
HETATM    7  C   UNL     1     -11.198  12.106  67.880  1.00  0.00    -0.272 A  
HETATM    8  C   UNL     1     -11.056  11.552  66.609  1.00  0.00    -0.355 A  
HETATM    9  C   UNL     1     -11.979  13.530  65.581  1.00  0.00    -0.429 A  
HETATM   10  O   UNL     1     -10.267   9.723  65.374  1.00  0.00    -0.246 OA 
HETATM   11  C   UNL     1     -11.451  12.252  65.462  1.00  0.00    -0.408 A  
HETATM   12  C   UNL     1     -10.469  10.210  66.479  1.00  0.00    -0.166 C  
ENDROOT
BRANCH   3  13
HETATM   13  C   UNL     1     -10.372   9.403  70.195  1.00  0.00    -0.273 A  
HETATM   14  C   UNL     1     -11.471   8.482  72.161  1.00  0.00    -0.446 A  
HETATM   15  C   UNL     1      -9.060   8.499  72.026  1.00  0.00    -0.317 A  
HETATM   16  C   UNL     1      -9.131   9.107  70.768  1.00  0.00    -0.313 A  
HETATM   17  C   UNL     1     -11.543   9.085  70.903  1.00  0.00    -0.344 A  
HETATM   18  C   UNL     1     -10.229   8.190  72.723  1.00  0.00    -0.372 A  
ENDBRANCH   3  13
BRANCH   5  19
HETATM   19  C   UNL     1     -11.779  14.062  69.346  1.00  0.00    -0.315 C  
HETATM   20  O   UNL     1     -12.711  13.956  70.127  1.00  0.00    -0.275 OA 
BRANCH  19  21
HETATM   21  O   UNL     1     -10.691  14.849  69.560  1.00  0.00    -0.245 OA 
BRANCH  21  22
HETATM   22  C   UNL     1     -11.028  16.193  69.916  1.00  0.00    -0.362 C  
BRANCH  22  23
HETATM   23  C   UNL     1     -11.007  17.057  68.639  1.00  0.00    -0.217 C  
BRANCH  23  24
HETATM   24  N   UNL     1      -9.664  17.517  68.208  1.00  0.00    -0.296 NA 
HETATM   25  C   UNL     1      -9.464  17.480  66.751  1.00  0.00    -0.275 C  
HETATM   26  C   UNL     1     -10.424  18.406  66.010  1.00  0.00    -0.400 C  
HETATM   27  C   UNL     1     -10.353  19.838  66.539  1.00  0.00    -0.621 C  
HETATM   28  C   UNL     1     -10.285  19.935  68.066  1.00  0.00    -0.572 C  
HETATM   29  C   UNL     1      -9.373  18.876  68.688  1.00  0.00    -0.369 C  
ENDBRANCH  23  24
ENDBRANCH  22  23
ENDBRANCH  21  22
ENDBRANCH  19  21
ENDBRANCH   5  19
TORSDOF 6
ENDMDL
MODEL       16
REMARK 921   NORMALIZED FREE ENERGY PREDICTED BY IDOCK:   -7.31 KCAL/MOL
REMARK 922        TOTAL FREE ENERGY PREDICTED BY IDOCK:  -10.56 KCAL/MOL
REMARK 923 INTER-LIGAND FREE ENERGY PREDICTED BY IDOCK:   -9.11 KCAL/MOL
REMARK 924 INTRA-LIGAND FREE ENERGY PREDICTED BY IDOCK:   -1.45 KCAL/MOL
REMARK 927      BINDING AFFINITY PREDICTED BY RF-SCORE:    0.00 PKD
ROOT
HETATM    1  C   UNL     1     -10.206   9.199  66.412  1.00  0.00    -0.300 C  
HETATM    2  C   UNL     1     -10.286  10.669  66.692  1.00  0.00    -0.297 C  
HETATM    3  C   UNL     1     -10.210  11.270  67.894  1.00  0.00    -0.181 C  
HETATM    4  O   UNL     1     -10.168  12.637  68.087  1.00  0.00    -0.226 OA 
HETATM    5  C   UNL     1     -10.227  14.866  67.214  1.00  0.00    -0.241 A  
HETATM    6  C   UNL     1     -10.495  15.728  66.128  1.00  0.00    -0.326 A  
HETATM    7  C   UNL     1     -10.289  13.481  67.015  1.00  0.00    -0.252 A  
HETATM    8  C   UNL     1     -10.515  12.990  65.730  1.00  0.00    -0.292 A  
HETATM    9  C   UNL     1     -10.787  15.226  64.862  1.00  0.00    -0.444 A  
HETATM   10  O   UNL     1     -10.596  11.078  64.377  1.00  0.00    -0.352 OA 
HETATM   11  C   UNL     1     -10.772  13.853  64.657  1.00  0.00    -0.422 A  
HETATM   12  C   UNL     1     -10.471  11.538  65.505  1.00  0.00    -0.275 C  
ENDROOT
BRANCH   3  13
HETATM   13  C   UNL     1     -10.208  10.527  69.162  1.00  0.00    -0.241 A  
HETATM   14  C   UNL     1      -9.009   9.205  70.817  1.00  0.00    -0.296 A  
HETATM   15  C   UNL     1     -11.378   9.596  71.074  1.00  0.00    -0.444 A  
HETATM   16  C   UNL     1     -11.388  10.340  69.890  1.00  0.00    -0.354 A  
HETATM   17  C   UNL     1      -9.017   9.953  69.636  1.00  0.00    -0.232 A  
HETATM   18  C   UNL     1     -10.190   9.026  71.535  1.00  0.00    -0.414 A  
ENDBRANCH   3  13
BRANCH   5  19
HETATM   19  C   UNL     1      -9.941  15.425  68.569  1.00  0.00    -0.213 C  
HETATM   20  O   UNL     1     -10.758  15.826  69.383  1.00  0.00    -0.226 OA 
BRANCH  19  21
HETATM   21  O   UNL     1      -8.595  15.474  68.752  1.00  0.00    -0.161 OA 
BRANCH  21  22
HETATM   22  C   UNL     1      -8.147  16.711  69.314  1.00  0.00    -0.044 C  
BRANCH  22  23
HETATM   23  C   UNL     1      -8.040  17.753  68.182  1.00  0.00    -0.265 C  
BRANCH  23  24
HETATM   24  N   UNL     1      -8.429  19.135  68.555  1.00  0.00    -0.354 NA 
HETATM   25  C   UNL     1      -7.999  20.154  67.584  1.00  0.00    -0.292 C  
HETATM   26  C   UNL     1      -8.634  19.952  66.212  1.00  0.00    -0.377 C  
HETATM   27  C   UNL     1     -10.159  19.881  66.296  1.00  0.00    -0.613 C  
HETATM   28  C   UNL     1     -10.679  19.042  67.466  1.00  0.00    -0.532 C  
HETATM   29  C   UNL     1      -9.881  19.258  68.754  1.00  0.00    -0.447 C  
ENDBRANCH  23  24
ENDBRANCH  22  23
ENDBRANCH  21  22
ENDBRANCH  19  21
ENDBRANCH   5  19
TORSDOF 6
ENDMDL
MODEL       17
REMARK 921   NORMALIZED FREE ENERGY PREDICTED BY IDOCK:   -7.25 KCAL/MOL
REMARK 922        TOTAL FREE ENERGY PREDICTED BY IDOCK:  -10.49 KCAL/MOL
REMARK 923 INTER-LIGAND FREE ENERGY PREDICTED BY IDOCK:   -9.17 KCAL/MOL
REMARK 924 INTRA-LIGAND FREE ENERGY PREDICTED BY IDOCK:   -1.32 KCAL/MOL
REMARK 927      BINDING AFFINITY PREDICTED BY RF-SCORE:    0.00 PKD
ROOT
HETATM    1  C   UNL     1     -11.534  15.226  71.573  1.00  0.00    -0.457 C  
HETATM    2  C   UNL     1     -11.458  14.951  70.102  1.00  0.00    -0.320 C  
HETATM    3  C   UNL     1     -11.761  13.797  69.477  1.00  0.00    -0.323 C  
HETATM    4  O   UNL     1     -11.790  13.631  68.106  1.00  0.00    -0.342 OA 
HETATM    5  C   UNL     1     -11.465  14.495  65.897  1.00  0.00    -0.345 A  
HETATM    6  C   UNL     1     -10.943  15.509  65.064  1.00  0.00    -0.454 A  
HETATM    7  C   UNL     1     -11.416  14.663  67.286  1.00  0.00    -0.372 A  
HETATM    8  C   UNL     1     -10.945  15.866  67.807  1.00  0.00    -0.315 A  
HETATM    9  C   UNL     1     -10.413  16.681  65.599  1.00  0.00    -0.313 A  
HETATM   10  O   UNL     1     -10.656  17.153  69.745  1.00  0.00    -0.200 OA 
HETATM   11  C   UNL     1     -10.437  16.871  66.974  1.00  0.00    -0.281 A  
HETATM   12  C   UNL     1     -10.997  16.081  69.261  1.00  0.00    -0.306 C  
ENDROOT
BRANCH   3  13
HETATM   13  C   UNL     1     -12.057  12.550  70.197  1.00  0.00    -0.368 A  
HETATM   14  C   UNL     1     -13.279  11.375  71.942  1.00  0.00    -0.485 A  
HETATM   15  C   UNL     1     -11.623  10.202  70.633  1.00  0.00    -0.429 A  
HETATM   16  C   UNL     1     -11.359  11.371  69.912  1.00  0.00    -0.300 A  
HETATM   17  C   UNL     1     -13.020  12.542  71.219  1.00  0.00    -0.301 A  
HETATM   18  C   UNL     1     -12.579  10.205  71.650  1.00  0.00    -0.533 A  
ENDBRANCH   3  13
BRANCH   5  19
HETATM   19  C   UNL     1     -12.006  13.235  65.304  1.00  0.00    -0.388 C  
HETATM   20  O   UNL     1     -13.181  12.952  65.134  1.00  0.00    -0.702 OA 
BRANCH  19  21
HETATM   21  O   UNL     1     -10.972  12.400  65.021  1.00  0.00    -0.282 OA 
BRANCH  21  22
HETATM   22  C   UNL     1     -11.002  11.188  65.780  1.00  0.00    -0.091 C  
BRANCH  22  23
HETATM   23  C   UNL     1      -9.673  11.059  66.550  1.00  0.00    -0.198 C  
BRANCH  23  24
HETATM   24  N   UNL     1      -8.861   9.863  66.216  1.00  0.00    -0.141 NA 
HETATM   25  C   UNL     1      -7.768   9.604  67.166  1.00  0.00    -0.091 C  
HETATM   26  C   UNL     1      -8.279   9.318  68.575  1.00  0.00    -0.114 C  
HETATM   27  C   UNL     1      -9.301   8.181  68.588  1.00  0.00    -0.143 C  
HETATM   28  C   UNL     1     -10.318   8.245  67.446  1.00  0.00    -0.350 C  
HETATM   29  C   UNL     1      -9.690   8.653  66.112  1.00  0.00    -0.222 C  
ENDBRANCH  23  24
ENDBRANCH  22  23
ENDBRANCH  21  22
ENDBRANCH  19  21
ENDBRANCH   5  19
TORSDOF 6
ENDMDL
MODEL       18
REMARK 921   NORMALIZED FREE ENERGY PREDICTED BY IDOCK:   -7.24 KCAL/MOL
REMARK 922        TOTAL FREE ENERGY PREDICTED BY IDOCK:  -10.47 KCAL/MOL
REMARK 923 INTER-LIGAND FREE ENERGY PREDICTED BY IDOCK:   -9.52 KCAL/MOL
REMARK 924 INTRA-LIGAND FREE ENERGY PREDICTED BY IDOCK:   -0.95 KCAL/MOL
REMARK 927      BINDING AFFINITY PREDICTED BY RF-SCORE:    0.00 PKD
ROOT
HETATM    1  C   UNL     1     -11.737  15.492  68.286  1.00  0.00    -0.287 C  
HETATM    2  C   UNL     1     -11.600  14.085  68.784  1.00  0.00    -0.366 C  
HETATM    3  C   UNL     1     -11.995  13.607  69.978  1.00  0.00    -0.343 C  
HETATM    4  O   UNL     1     -11.957  12.275  70.343  1.00  0.00    -0.343 OA 
HETATM    5  C   UNL     1     -11.395   9.999  69.857  1.00  0.00    -0.306 A  
HETATM    6  C   UNL     1     -10.707   9.075  69.040  1.00  0.00    -0.163 A  
HETATM    7  C   UNL     1     -11.414  11.350  69.490  1.00  0.00    -0.312 A  
HETATM    8  C   UNL     1     -10.841  11.732  68.279  1.00  0.00    -0.259 A  
HETATM    9  C   UNL     1     -10.079   9.480  67.863  1.00  0.00    -0.234 A  
HETATM   10  O   UNL     1     -10.527  13.486  66.756  1.00  0.00    -0.269 OA 
HETATM   11  C   UNL     1     -10.168  10.808  67.470  1.00  0.00    -0.231 A  
HETATM   12  C   UNL     1     -10.959  13.133  67.846  1.00  0.00    -0.249 C  
ENDROOT
BRANCH   3  13
HETATM   13  C   UNL     1     -12.479  14.470  71.066  1.00  0.00    -0.412 A  
HETATM   14  C   UNL     1     -12.004  15.980  72.914  1.00  0.00    -0.611 A  
HETATM   15  C   UNL     1     -14.283  15.343  72.434  1.00  0.00    -0.584 A  
HETATM   16  C   UNL     1     -13.842  14.550  71.370  1.00  0.00    -0.441 A  
HETATM   17  C   UNL     1     -11.563  15.192  71.848  1.00  0.00    -0.490 A  
HETATM   18  C   UNL     1     -13.365  16.054  73.208  1.00  0.00    -0.625 A  
ENDBRANCH   3  13
BRANCH   5  19
HETATM   19  C   UNL     1     -12.041   9.549  71.127  1.00  0.00    -0.347 C  
HETATM   20  O   UNL     1     -13.219   9.656  71.427  1.00  0.00    -0.365 OA 
BRANCH  19  21
HETATM   21  O   UNL     1     -11.088   9.035  71.949  1.00  0.00    -0.355 OA 
BRANCH  21  22
HETATM   22  C   UNL     1     -11.539   7.901  72.695  1.00  0.00    -0.377 C  
BRANCH  22  23
HETATM   23  C   UNL     1     -10.942   6.628  72.060  1.00  0.00    -0.242 C  
BRANCH  23  24
HETATM   24  N   UNL     1      -9.751   6.075  72.751  1.00  0.00    -0.156 NA 
HETATM   25  C   UNL     1     -10.068   5.351  73.992  1.00  0.00    -0.224 C  
HETATM   26  C   UNL     1     -10.948   4.130  73.742  1.00  0.00    -0.331 C  
HETATM   27  C   UNL     1     -10.337   3.193  72.700  1.00  0.00    -0.212 C  
HETATM   28  C   UNL     1      -9.738   3.916  71.490  1.00  0.00    -0.247 C  
HETATM   29  C   UNL     1      -8.976   5.186  71.873  1.00  0.00    -0.134 C  
ENDBRANCH  23  24
ENDBRANCH  22  23
ENDBRANCH  21  22
ENDBRANCH  19  21
ENDBRANCH   5  19
TORSDOF 6
ENDMDL
MODEL       19
REMARK 921   NORMALIZED FREE ENERGY PREDICTED BY IDOCK:   -7.21 KCAL/MOL
REMARK 922        TOTAL FREE ENERGY PREDICTED BY IDOCK:  -10.42 KCAL/MOL
REMARK 923 INTER-LIGAND FREE ENERGY PREDICTED BY IDOCK:   -9.56 KCAL/MOL
REMARK 924 INTRA-LIGAND FREE ENERGY PREDICTED BY IDOCK:   -0.87 KCAL/MOL
REMARK 927      BINDING AFFINITY PREDICTED BY RF-SCORE:    0.00 PKD
ROOT
HETATM    1  C   UNL     1      -9.063   8.444  72.218  1.00  0.00    -0.313 C  
HETATM    2  C   UNL     1      -9.359   9.208  70.962  1.00  0.00    -0.333 C  
HETATM    3  C   UNL     1     -10.573   9.486  70.451  1.00  0.00    -0.276 C  
HETATM    4  O   UNL     1     -10.796  10.298  69.356  1.00  0.00    -0.214 OA 
HETATM    5  C   UNL     1      -9.965  11.650  67.563  1.00  0.00    -0.202 A  
HETATM    6  C   UNL     1      -8.871  12.059  66.768  1.00  0.00    -0.198 A  
HETATM    7  C   UNL     1      -9.733  10.813  68.661  1.00  0.00    -0.186 A  
HETATM    8  C   UNL     1      -8.421  10.487  69.000  1.00  0.00    -0.159 A  
HETATM    9  C   UNL     1      -7.569  11.672  67.078  1.00  0.00    -0.154 A  
HETATM   10  O   UNL     1      -7.032   9.455  70.581  1.00  0.00    -0.090 OA 
HETATM   11  C   UNL     1      -7.341  10.905  68.212  1.00  0.00    -0.087 A  
HETATM   12  C   UNL     1      -8.175   9.699  70.217  1.00  0.00    -0.191 C  
ENDROOT
BRANCH   3  13
HETATM   13  C   UNL     1     -11.817   8.913  70.983  1.00  0.00    -0.324 A  
HETATM   14  C   UNL     1     -13.276   6.991  71.294  1.00  0.00    -0.304 A  
HETATM   15  C   UNL     1     -13.974   9.169  72.066  1.00  0.00    -0.434 A  
HETATM   16  C   UNL     1     -12.776   9.722  71.601  1.00  0.00    -0.517 A  
HETATM   17  C   UNL     1     -12.077   7.541  70.834  1.00  0.00    -0.254 A  
HETATM   18  C   UNL     1     -14.225   7.806  71.909  1.00  0.00    -0.502 A  
ENDBRANCH   3  13
BRANCH   5  19
HETATM   19  C   UNL     1     -11.356  12.056  67.199  1.00  0.00    -0.333 C  
HETATM   20  O   UNL     1     -11.846  12.068  66.082  1.00  0.00    -0.546 OA 
BRANCH  19  21
HETATM   21  O   UNL     1     -12.002  12.473  68.320  1.00  0.00    -0.328 OA 
BRANCH  21  22
HETATM   22  C   UNL     1     -11.834  13.870  68.581  1.00  0.00    -0.372 C  
BRANCH  22  23
HETATM   23  C   UNL     1     -11.908  14.096  70.104  1.00  0.00    -0.313 C  
BRANCH  23  24
HETATM   24  N   UNL     1     -12.640  15.315  70.529  1.00  0.00    -0.389 NA 
HETATM   25  C   UNL     1     -13.960  15.038  71.116  1.00  0.00    -0.374 C  
HETATM   26  C   UNL     1     -13.865  14.205  72.391  1.00  0.00    -0.638 C  
HETATM   27  C   UNL     1     -12.928  14.842  73.417  1.00  0.00    -0.597 C  
HETATM   28  C   UNL     1     -11.635  15.400  72.817  1.00  0.00    -0.464 C  
HETATM   29  C   UNL     1     -11.858  16.115  71.483  1.00  0.00    -0.463 C  
ENDBRANCH  23  24
ENDBRANCH  22  23
ENDBRANCH  21  22
ENDBRANCH  19  21
ENDBRANCH   5  19
TORSDOF 6
ENDMDL
MODEL       20
REMARK 921   NORMALIZED FREE ENERGY PREDICTED BY IDOCK:   -7.21 KCAL/MOL
REMARK 922        TOTAL FREE ENERGY PREDICTED BY IDOCK:  -10.42 KCAL/MOL
REMARK 923 INTER-LIGAND FREE ENERGY PREDICTED BY IDOCK:   -9.56 KCAL/MOL
REMARK 924 INTRA-LIGAND FREE ENERGY PREDICTED BY IDOCK:   -0.87 KCAL/MOL
REMARK 927      BINDING AFFINITY PREDICTED BY RF-SCORE:    0.00 PKD
ROOT
HETATM    1  C   UNL     1     -11.991   8.694  70.799  1.00  0.00    -0.143 C  
HETATM    2  C   UNL     1     -12.047  10.183  70.644  1.00  0.00    -0.411 C  
HETATM    3  C   UNL     1     -11.417  10.925  69.714  1.00  0.00    -0.313 C  
HETATM    4  O   UNL     1     -11.597  12.283  69.538  1.00  0.00    -0.288 OA 
HETATM    5  C   UNL     1     -12.597  14.354  70.204  1.00  0.00    -0.340 A  
HETATM    6  C   UNL     1     -13.312  15.090  71.175  1.00  0.00    -0.510 A  
HETATM    7  C   UNL     1     -12.404  12.980  70.398  1.00  0.00    -0.277 A  
HETATM    8  C   UNL     1     -13.004  12.359  71.490  1.00  0.00    -0.385 A  
HETATM    9  C   UNL     1     -13.852  14.469  72.299  1.00  0.00    -0.587 A  
HETATM   10  O   UNL     1     -13.464  10.314  72.540  1.00  0.00    -0.195 OA 
HETATM   11  C   UNL     1     -13.719  13.095  72.444  1.00  0.00    -0.640 A  
HETATM   12  C   UNL     1     -12.891  10.899  71.631  1.00  0.00    -0.449 C  
ENDROOT
BRANCH   3  13
HETATM   13  C   UNL     1     -10.415  10.371  68.792  1.00  0.00    -0.219 A  
HETATM   14  C   UNL     1      -8.091   9.866  68.277  1.00  0.00    -0.104 A  
HETATM   15  C   UNL     1      -9.811   9.419  66.643  1.00  0.00    -0.309 A  
HETATM   16  C   UNL     1     -10.781   9.904  67.525  1.00  0.00    -0.333 A  
HETATM   17  C   UNL     1      -9.060  10.347  69.161  1.00  0.00    -0.197 A  
HETATM   18  C   UNL     1      -8.467   9.403  67.017  1.00  0.00    -0.127 A  
ENDBRANCH   3  13
BRANCH   5  19
HETATM   19  C   UNL     1     -12.005  15.043  69.019  1.00  0.00    -0.264 C  
HETATM   20  O   UNL     1     -11.912  14.600  67.885  1.00  0.00    -0.337 OA 
BRANCH  19  21
HETATM   21  O   UNL     1     -11.519  16.252  69.407  1.00  0.00    -0.308 OA 
BRANCH  21  22
HETATM   22  C   UNL     1     -10.092  16.326  69.364  1.00  0.00    -0.253 C  
BRANCH  22  23
HETATM   23  C   UNL     1      -9.691  17.645  68.673  1.00  0.00    -0.332 C  
BRANCH  23  24
HETATM   24  N   UNL     1     -10.174  17.802  67.279  1.00  0.00    -0.337 NA 
HETATM   25  C   UNL     1     -10.719  19.137  66.988  1.00  0.00    -0.448 C  
HETATM   26  C   UNL     1      -9.672  20.237  67.139  1.00  0.00    -0.592 C  
HETATM   27  C   UNL     1      -8.427  19.956  66.298  1.00  0.00    -0.373 C  
HETATM   28  C   UNL     1      -7.960  18.498  66.347  1.00  0.00    -0.291 C  
HETATM   29  C   UNL     1      -9.119  17.501  66.299  1.00  0.00    -0.193 C  
ENDBRANCH  23  24
ENDBRANCH  22  23
ENDBRANCH  21  22
ENDBRANCH  19  21
ENDBRANCH   5  19
TORSDOF 6
ENDMDL
MODEL       21
REMARK 921   NORMALIZED FREE ENERGY PREDICTED BY IDOCK:   -7.20 KCAL/MOL
REMARK 922        TOTAL FREE ENERGY PREDICTED BY IDOCK:  -10.41 KCAL/MOL
REMARK 923 INTER-LIGAND FREE ENERGY PREDICTED BY IDOCK:   -9.38 KCAL/MOL
REMARK 924 INTRA-LIGAND FREE ENERGY PREDICTED BY IDOCK:   -1.03 KCAL/MOL
REMARK 927      BINDING AFFINITY PREDICTED BY RF-SCORE:    0.00 PKD
ROOT
HETATM    1  C   UNL     1     -12.516  12.001  63.830  1.00  0.00    -0.594 C  
HETATM    2  C   UNL     1     -11.651  12.917  64.642  1.00  0.00    -0.392 C  
HETATM    3  C   UNL     1     -10.717  12.562  65.543  1.00  0.00    -0.271 C  
HETATM    4  O   UNL     1      -9.862  13.442  66.177  1.00  0.00    -0.284 OA 
HETATM    5  C   UNL     1      -9.108  15.676  66.594  1.00  0.00    -0.313 A  
HETATM    6  C   UNL     1      -9.336  17.066  66.483  1.00  0.00    -0.291 A  
HETATM    7  C   UNL     1      -9.990  14.789  65.963  1.00  0.00    -0.313 A  
HETATM    8  C   UNL     1     -11.008  15.301  65.162  1.00  0.00    -0.428 A  
HETATM    9  C   UNL     1     -10.399  17.566  65.732  1.00  0.00    -0.217 A  
HETATM   10  O   UNL     1     -12.721  14.785  63.648  1.00  0.00    -0.713 OA 
HETATM   11  C   UNL     1     -11.222  16.681  65.049  1.00  0.00    -0.030 A  
HETATM   12  C   UNL     1     -11.863  14.367  64.414  1.00  0.00    -0.415 C  
ENDROOT
BRANCH   3  13
HETATM   13  C   UNL     1     -10.528  11.176  65.997  1.00  0.00    -0.312 A  
HETATM   14  C   UNL     1     -10.889   9.450  67.673  1.00  0.00    -0.222 A  
HETATM   15  C   UNL     1      -9.540   8.976  65.728  1.00  0.00    -0.287 A  
HETATM   16  C   UNL     1      -9.745  10.279  65.263  1.00  0.00    -0.354 A  
HETATM   17  C   UNL     1     -11.099  10.750  67.207  1.00  0.00    -0.339 A  
HETATM   18  C   UNL     1     -10.109   8.563  66.933  1.00  0.00    -0.364 A  
ENDBRANCH   3  13
BRANCH   5  19
HETATM   19  C   UNL     1      -7.979  15.161  67.424  1.00  0.00    -0.190 C  
HETATM   20  O   UNL     1      -6.838  14.939  67.051  1.00  0.00    -0.185 OA 
BRANCH  19  21
HETATM   21  O   UNL     1      -8.431  14.914  68.682  1.00  0.00    -0.152 OA 
BRANCH  21  22
HETATM   22  C   UNL     1      -9.218  15.982  69.217  1.00  0.00    -0.243 C  
BRANCH  22  23
HETATM   23  C   UNL     1     -10.251  15.386  70.196  1.00  0.00    -0.196 C  
BRANCH  23  24
HETATM   24  N   UNL     1     -11.643  15.321  69.686  1.00  0.00    -0.298 NA 
HETATM   25  C   UNL     1     -12.012  14.007  69.137  1.00  0.00    -0.360 C  
HETATM   26  C   UNL     1     -11.955  12.902  70.187  1.00  0.00    -0.373 C  
HETATM   27  C   UNL     1     -12.798  13.242  71.415  1.00  0.00    -0.411 C  
HETATM   28  C   UNL     1     -12.661  14.694  71.882  1.00  0.00    -0.402 C  
HETATM   29  C   UNL     1     -12.620  15.690  70.721  1.00  0.00    -0.431 C  
ENDBRANCH  23  24
ENDBRANCH  22  23
ENDBRANCH  21  22
ENDBRANCH  19  21
ENDBRANCH   5  19
TORSDOF 6
ENDMDL
MODEL       22
REMARK 921   NORMALIZED FREE ENERGY PREDICTED BY IDOCK:   -7.18 KCAL/MOL
REMARK 922        TOTAL FREE ENERGY PREDICTED BY IDOCK:  -10.38 KCAL/MOL
REMARK 923 INTER-LIGAND FREE ENERGY PREDICTED BY IDOCK:   -9.37 KCAL/MOL
REMARK 924 INTRA-LIGAND FREE ENERGY PREDICTED BY IDOCK:   -1.01 KCAL/MOL
REMARK 927      BINDING AFFINITY PREDICTED BY RF-SCORE:    0.00 PKD
ROOT
HETATM    1  C   UNL     1      -8.428   8.748  64.155  1.00  0.00    -0.123 C  
HETATM    2  C   UNL     1      -9.347   9.721  64.829  1.00  0.00    -0.327 C  
HETATM    3  C   UNL     1      -9.685   9.746  66.132  1.00  0.00    -0.246 C  
HETATM    4  O   UNL     1     -10.441  10.737  66.727  1.00  0.00    -0.234 OA 
HETATM    5  C   UNL     1     -11.722  12.754  66.575  1.00  0.00    -0.463 A  
HETATM    6  C   UNL     1     -12.383  13.704  65.765  1.00  0.00    -0.524 A  
HETATM    7  C   UNL     1     -10.972  11.742  65.963  1.00  0.00    -0.306 A  
HETATM    8  C   UNL     1     -10.816  11.757  64.578  1.00  0.00    -0.377 A  
HETATM    9  C   UNL     1     -12.275  13.669  64.376  1.00  0.00    -0.436 A  
HETATM   10  O   UNL     1      -9.725  10.786  62.745  1.00  0.00    -0.301 OA 
HETATM   11  C   UNL     1     -11.468  12.708  63.783  1.00  0.00    -0.539 A  
HETATM   12  C   UNL     1      -9.938  10.758  63.950  1.00  0.00    -0.343 C  
ENDROOT
BRANCH   3  13
HETATM   13  C   UNL     1      -9.319   8.681  67.075  1.00  0.00    -0.202 A  
HETATM   14  C   UNL     1      -9.678   6.438  67.950  1.00  0.00    -0.124 A  
HETATM   15  C   UNL     1      -8.036   7.882  68.974  1.00  0.00    -0.122 A  
HETATM   16  C   UNL     1      -8.344   8.891  68.057  1.00  0.00    -0.121 A  
HETATM   17  C   UNL     1      -9.984   7.444  67.029  1.00  0.00    -0.301 A  
HETATM   18  C   UNL     1      -8.704   6.658  68.923  1.00  0.00    -0.128 A  
ENDBRANCH   3  13
BRANCH   5  19
HETATM   19  C   UNL     1     -11.872  12.795  68.060  1.00  0.00    -0.336 C  
HETATM   20  O   UNL     1     -11.660  13.748  68.792  1.00  0.00    -0.280 OA 
BRANCH  19  21
HETATM   21  O   UNL     1     -12.237  11.561  68.501  1.00  0.00    -0.524 OA 
BRANCH  21  22
HETATM   22  C   UNL     1     -11.853  11.311  69.856  1.00  0.00    -0.360 C  
BRANCH  22  23
HETATM   23  C   UNL     1     -12.908  10.390  70.502  1.00  0.00    -0.254 C  
BRANCH  23  24
HETATM   24  N   UNL     1     -12.567   9.888  71.856  1.00  0.00    -0.392 NA 
HETATM   25  C   UNL     1     -13.650   9.125  72.495  1.00  0.00    -0.436 C  
HETATM   26  C   UNL     1     -14.008   7.863  71.715  1.00  0.00    -0.483 C  
HETATM   27  C   UNL     1     -12.784   6.981  71.469  1.00  0.00    -0.425 C  
HETATM   28  C   UNL     1     -11.531   7.758  71.056  1.00  0.00    -0.298 C  
HETATM   29  C   UNL     1     -11.353   9.059  71.840  1.00  0.00    -0.368 C  
ENDBRANCH  23  24
ENDBRANCH  22  23
ENDBRANCH  21  22
ENDBRANCH  19  21
ENDBRANCH   5  19
TORSDOF 6
ENDMDL
MODEL       23
REMARK 921   NORMALIZED FREE ENERGY PREDICTED BY IDOCK:   -7.12 KCAL/MOL
REMARK 922        TOTAL FREE ENERGY PREDICTED BY IDOCK:  -10.31 KCAL/MOL
REMARK 923 INTER-LIGAND FREE ENERGY PREDICTED BY IDOCK:   -9.19 KCAL/MOL
REMARK 924 INTRA-LIGAND FREE ENERGY PREDICTED BY IDOCK:   -1.12 KCAL/MOL
REMARK 927      BINDING AFFINITY PREDICTED BY RF-SCORE:    0.00 PKD
ROOT
HETATM    1  C   UNL     1     -12.771  13.737  65.566  1.00  0.00    -0.530 C  
HETATM    2  C   UNL     1     -11.802  12.603  65.720  1.00  0.00    -0.497 C  
HETATM    3  C   UNL     1     -11.419  12.016  66.869  1.00  0.00    -0.337 C  
HETATM    4  O   UNL     1     -10.617  10.895  66.948  1.00  0.00    -0.238 OA 
HETATM    5  C   UNL     1      -9.288   9.207  65.891  1.00  0.00    -0.306 A  
HETATM    6  C   UNL     1      -8.629   8.742  64.731  1.00  0.00    -0.161 A  
HETATM    7  C   UNL     1     -10.086  10.355  65.807  1.00  0.00    -0.262 A  
HETATM    8  C   UNL     1     -10.289  10.949  64.563  1.00  0.00    -0.417 A  
HETATM    9  C   UNL     1      -8.787   9.385  63.505  1.00  0.00    -0.198 A  
HETATM   10  O   UNL     1     -11.468  12.589  63.373  1.00  0.00    -0.472 OA 
HETATM   11  C   UNL     1      -9.639  10.476  63.416  1.00  0.00    -0.376 A  
HETATM   12  C   UNL     1     -11.214  12.088  64.461  1.00  0.00    -0.332 C  
ENDROOT
BRANCH   3  13
HETATM   13  C   UNL     1     -11.782  12.538  68.195  1.00  0.00    -0.400 A  
HETATM   14  C   UNL     1     -12.060  14.428  69.701  1.00  0.00    -0.381 A  
HETATM   15  C   UNL     1     -12.406  12.181  70.513  1.00  0.00    -0.358 A  
HETATM   16  C   UNL     1     -12.104  11.672  69.246  1.00  0.00    -0.323 A  
HETATM   17  C   UNL     1     -11.763  13.921  68.433  1.00  0.00    -0.391 A  
HETATM   18  C   UNL     1     -12.381  13.557  70.741  1.00  0.00    -0.440 A  
ENDBRANCH   3  13
BRANCH   5  19
HETATM   19  C   UNL     1      -9.086   8.518  67.201  1.00  0.00    -0.140 C  
HETATM   20  O   UNL     1      -8.257   8.794  68.053  1.00  0.00    -0.116 OA 
BRANCH  19  21
HETATM   21  O   UNL     1      -9.951   7.473  67.288  1.00  0.00    -0.172 OA 
BRANCH  21  22
HETATM   22  C   UNL     1      -9.731   6.654  68.440  1.00  0.00    -0.126 C  
BRANCH  22  23
HETATM   23  C   UNL     1     -10.987   6.717  69.333  1.00  0.00    -0.309 C  
BRANCH  23  24
HETATM   24  N   UNL     1     -10.750   6.479  70.778  1.00  0.00    -0.230 NA 
HETATM   25  C   UNL     1      -9.810   7.432  71.389  1.00  0.00    -0.185 C  
HETATM   26  C   UNL     1     -10.322   8.868  71.332  1.00  0.00    -0.377 C  
HETATM   27  C   UNL     1     -11.716   8.999  71.947  1.00  0.00    -0.445 C  
HETATM   28  C   UNL     1     -12.675   7.871  71.558  1.00  0.00    -0.342 C  
HETATM   29  C   UNL     1     -12.004   6.496  71.546  1.00  0.00    -0.329 C  
ENDBRANCH  23  24
ENDBRANCH  22  23
ENDBRANCH  21  22
ENDBRANCH  19  21
ENDBRANCH   5  19
TORSDOF 6
ENDMDL
MODEL       24
REMARK 921   NORMALIZED FREE ENERGY PREDICTED BY IDOCK:   -7.10 KCAL/MOL
REMARK 922        TOTAL FREE ENERGY PREDICTED BY IDOCK:  -10.28 KCAL/MOL
REMARK 923 INTER-LIGAND FREE ENERGY PREDICTED BY IDOCK:   -9.45 KCAL/MOL
REMARK 924 INTRA-LIGAND FREE ENERGY PREDICTED BY IDOCK:   -0.83 KCAL/MOL
REMARK 927      BINDING AFFINITY PREDICTED BY RF-SCORE:    0.00 PKD
ROOT
HETATM    1  C   UNL     1      -6.272  16.809  67.190  1.00  0.00    -0.216 C  
HETATM    2  C   UNL     1      -7.355  15.777  67.279  1.00  0.00    -0.257 C  
HETATM    3  C   UNL     1      -8.683  15.997  67.301  1.00  0.00    -0.185 C  
HETATM    4  O   UNL     1      -9.644  15.006  67.262  1.00  0.00    -0.204 OA 
HETATM    5  C   UNL     1     -10.243  12.688  67.221  1.00  0.00    -0.227 A  
HETATM    6  C   UNL     1      -9.856  11.340  67.385  1.00  0.00    -0.201 A  
HETATM    7  C   UNL     1      -9.266  13.689  67.280  1.00  0.00    -0.232 A  
HETATM    8  C   UNL     1      -7.926  13.323  67.399  1.00  0.00    -0.175 A  
HETATM    9  C   UNL     1      -8.520  10.990  67.571  1.00  0.00    -0.127 A  
HETATM   10  O   UNL     1      -5.707  14.076  67.383  1.00  0.00    -0.353 OA 
HETATM   11  C   UNL     1      -7.550  11.982  67.553  1.00  0.00    -0.147 A  
HETATM   12  C   UNL     1      -6.895  14.370  67.350  1.00  0.00    -0.024 C  
ENDROOT
BRANCH   3  13
HETATM   13  C   UNL     1      -9.271  17.340  67.417  1.00  0.00    -0.231 A  
HETATM   14  C   UNL     1     -10.345  19.256  66.371  1.00  0.00    -0.558 A  
HETATM   15  C   UNL     1      -9.775  19.327  68.716  1.00  0.00    -0.510 A  
HETATM   16  C   UNL     1      -9.249  18.034  68.631  1.00  0.00    -0.276 A  
HETATM   17  C   UNL     1      -9.824  17.962  66.286  1.00  0.00    -0.307 A  
HETATM   18  C   UNL     1     -10.319  19.939  67.586  1.00  0.00    -0.557 A  
ENDBRANCH   3  13
BRANCH   5  19
HETATM   19  C   UNL     1     -11.683  13.044  67.048  1.00  0.00    -0.383 C  
HETATM   20  O   UNL     1     -12.343  12.950  66.025  1.00  0.00    -0.504 OA 
BRANCH  19  21
HETATM   21  O   UNL     1     -12.156  13.554  68.216  1.00  0.00    -0.354 OA 
BRANCH  21  22
HETATM   22  C   UNL     1     -11.893  12.716  69.345  1.00  0.00    -0.296 C  
BRANCH  22  23
HETATM   23  C   UNL     1     -12.171  13.522  70.629  1.00  0.00    -0.358 C  
BRANCH  23  24
HETATM   24  N   UNL     1     -12.507  14.952  70.419  1.00  0.00    -0.340 NA 
HETATM   25  C   UNL     1     -13.908  15.283  70.723  1.00  0.00    -0.103 C  
HETATM   26  C   UNL     1     -14.258  15.036  72.187  1.00  0.00    -0.636 C  
HETATM   27  C   UNL     1     -13.303  15.766  73.131  1.00  0.00    -0.685 C  
HETATM   28  C   UNL     1     -11.832  15.685  72.713  1.00  0.00    -0.580 C  
HETATM   29  C   UNL     1     -11.633  15.838  71.203  1.00  0.00    -0.419 C  
ENDBRANCH  23  24
ENDBRANCH  22  23
ENDBRANCH  21  22
ENDBRANCH  19  21
ENDBRANCH   5  19
TORSDOF 6
ENDMDL
MODEL       25
REMARK 921   NORMALIZED FREE ENERGY PREDICTED BY IDOCK:   -7.07 KCAL/MOL
REMARK 922        TOTAL FREE ENERGY PREDICTED BY IDOCK:  -10.24 KCAL/MOL
REMARK 923 INTER-LIGAND FREE ENERGY PREDICTED BY IDOCK:   -8.99 KCAL/MOL
REMARK 924 INTRA-LIGAND FREE ENERGY PREDICTED BY IDOCK:   -1.25 KCAL/MOL
REMARK 927      BINDING AFFINITY PREDICTED BY RF-SCORE:    0.00 PKD
ROOT
HETATM    1  C   UNL     1     -13.195  13.116  72.434  1.00  0.00    -0.519 C  
HETATM    2  C   UNL     1     -12.630  13.066  71.046  1.00  0.00    -0.386 C  
HETATM    3  C   UNL     1     -12.340  11.965  70.329  1.00  0.00    -0.207 C  
HETATM    4  O   UNL     1     -11.935  11.972  69.008  1.00  0.00    -0.307 OA 
HETATM    5  C   UNL     1     -11.331  13.166  67.022  1.00  0.00    -0.349 A  
HETATM    6  C   UNL     1     -10.978  14.390  66.412  1.00  0.00    -0.319 A  
HETATM    7  C   UNL     1     -11.724  13.164  68.367  1.00  0.00    -0.351 A  
HETATM    8  C   UNL     1     -11.852  14.379  69.037  1.00  0.00    -0.358 A  
HETATM    9  C   UNL     1     -11.046  15.592  67.113  1.00  0.00    -0.218 A  
HETATM   10  O   UNL     1     -12.559  15.436  71.006  1.00  0.00    -0.363 OA 
HETATM   11  C   UNL     1     -11.508  15.589  68.421  1.00  0.00    -0.370 A  
HETATM   12  C   UNL     1     -12.370  14.381  70.414  1.00  0.00    -0.342 C  
ENDROOT
BRANCH   3  13
HETATM   13  C   UNL     1     -12.379  10.608  70.893  1.00  0.00    -0.502 A  
HETATM   14  C   UNL     1     -13.660   8.757  71.818  1.00  0.00    -0.453 A  
HETATM   15  C   UNL     1     -11.251   8.621  71.712  1.00  0.00    -0.396 A  
HETATM   16  C   UNL     1     -11.200   9.895  71.137  1.00  0.00    -0.404 A  
HETATM   17  C   UNL     1     -13.610  10.028  71.239  1.00  0.00    -0.236 A  
HETATM   18  C   UNL     1     -12.479   8.054  72.056  1.00  0.00    -0.357 A  
ENDBRANCH   3  13
BRANCH   5  19
HETATM   19  C   UNL     1     -11.228  11.885  66.261  1.00  0.00    -0.337 C  
HETATM   20  O   UNL     1     -11.914  11.540  65.312  1.00  0.00    -0.079 OA 
BRANCH  19  21
HETATM   21  O   UNL     1     -10.265  11.110  66.828  1.00  0.00    -0.216 OA 
BRANCH  21  22
HETATM   22  C   UNL     1     -10.079   9.861  66.157  1.00  0.00    -0.245 C  
BRANCH  22  23
HETATM   23  C   UNL     1     -10.510   8.726  67.108  1.00  0.00    -0.283 C  
BRANCH  23  24
HETATM   24  N   UNL     1      -9.952   7.388  66.791  1.00  0.00    -0.231 NA 
HETATM   25  C   UNL     1      -8.571   7.196  67.261  1.00  0.00    -0.121 C  
HETATM   26  C   UNL     1      -8.457   7.291  68.779  1.00  0.00    -0.129 C  
HETATM   27  C   UNL     1      -9.416   6.331  69.483  1.00  0.00    -0.151 C  
HETATM   28  C   UNL     1     -10.815   6.284  68.862  1.00  0.00    -0.396 C  
HETATM   29  C   UNL     1     -10.788   6.306  67.332  1.00  0.00    -0.363 C  
ENDBRANCH  23  24
ENDBRANCH  22  23
ENDBRANCH  21  22
ENDBRANCH  19  21
ENDBRANCH   5  19
TORSDOF 6
ENDMDL
MODEL       26
REMARK 921   NORMALIZED FREE ENERGY PREDICTED BY IDOCK:   -7.03 KCAL/MOL
REMARK 922        TOTAL FREE ENERGY PREDICTED BY IDOCK:  -10.19 KCAL/MOL
REMARK 923 INTER-LIGAND FREE ENERGY PREDICTED BY IDOCK:   -9.52 KCAL/MOL
REMARK 924 INTRA-LIGAND FREE ENERGY PREDICTED BY IDOCK:   -0.67 KCAL/MOL
REMARK 927      BINDING AFFINITY PREDICTED BY RF-SCORE:    0.00 PKD
ROOT
HETATM    1  C   UNL     1      -9.102   8.611  66.954  1.00  0.00    -0.175 C  
HETATM    2  C   UNL     1      -9.863   9.893  67.104  1.00  0.00    -0.235 C  
HETATM    3  C   UNL     1     -10.178  10.518  68.254  1.00  0.00    -0.163 C  
HETATM    4  O   UNL     1     -10.777  11.761  68.334  1.00  0.00    -0.200 OA 
HETATM    5  C   UNL     1     -11.756  13.672  67.275  1.00  0.00    -0.416 A  
HETATM    6  C   UNL     1     -12.284  14.264  66.106  1.00  0.00    -0.430 A  
HETATM    7  C   UNL     1     -11.167  12.405  67.189  1.00  0.00    -0.298 A  
HETATM    8  C   UNL     1     -11.027  11.805  65.939  1.00  0.00    -0.354 A  
HETATM    9  C   UNL     1     -12.199  13.625  64.871  1.00  0.00    -0.447 A  
HETATM   10  O   UNL     1     -10.110  10.007  64.748  1.00  0.00    -0.296 OA 
HETATM   11  C   UNL     1     -11.546  12.403  64.783  1.00  0.00    -0.395 A  
HETATM   12  C   UNL     1     -10.310  10.525  65.839  1.00  0.00    -0.206 C  
ENDROOT
BRANCH   3  13
HETATM   13  C   UNL     1      -9.957   9.919  69.578  1.00  0.00    -0.240 A  
HETATM   14  C   UNL     1      -8.439   8.956  71.217  1.00  0.00    -0.239 A  
HETATM   15  C   UNL     1     -10.808   9.039  71.673  1.00  0.00    -0.437 A  
HETATM   16  C   UNL     1     -11.030   9.648  70.434  1.00  0.00    -0.356 A  
HETATM   17  C   UNL     1      -8.658   9.568  69.980  1.00  0.00    -0.234 A  
HETATM   18  C   UNL     1      -9.514   8.691  72.063  1.00  0.00    -0.370 A  
ENDBRANCH   3  13
BRANCH   5  19
HETATM   19  C   UNL     1     -11.880  14.363  68.593  1.00  0.00    -0.331 C  
HETATM   20  O   UNL     1     -12.240  13.867  69.649  1.00  0.00    -0.333 OA 
BRANCH  19  21
HETATM   21  O   UNL     1     -11.576  15.678  68.433  1.00  0.00    -0.365 OA 
BRANCH  21  22
HETATM   22  C   UNL     1     -10.390  16.072  69.128  1.00  0.00    -0.247 C  
BRANCH  22  23
HETATM   23  C   UNL     1     -10.184  17.587  68.928  1.00  0.00    -0.353 C  
BRANCH  23  24
HETATM   24  N   UNL     1      -9.040  17.962  68.061  1.00  0.00    -0.261 NA 
HETATM   25  C   UNL     1      -9.170  17.495  66.672  1.00  0.00    -0.262 C  
HETATM   26  C   UNL     1     -10.379  18.103  65.967  1.00  0.00    -0.360 C  
HETATM   27  C   UNL     1     -10.367  19.630  66.035  1.00  0.00    -0.620 C  
HETATM   28  C   UNL     1      -9.970  20.188  67.405  1.00  0.00    -0.570 C  
HETATM   29  C   UNL     1      -8.818  19.416  68.050  1.00  0.00    -0.323 C  
ENDBRANCH  23  24
ENDBRANCH  22  23
ENDBRANCH  21  22
ENDBRANCH  19  21
ENDBRANCH   5  19
TORSDOF 6
ENDMDL
MODEL       27
REMARK 921   NORMALIZED FREE ENERGY PREDICTED BY IDOCK:   -6.97 KCAL/MOL
REMARK 922        TOTAL FREE ENERGY PREDICTED BY IDOCK:  -10.10 KCAL/MOL
REMARK 923 INTER-LIGAND FREE ENERGY PREDICTED BY IDOCK:   -8.47 KCAL/MOL
REMARK 924 INTRA-LIGAND FREE ENERGY PREDICTED BY IDOCK:   -1.63 KCAL/MOL
REMARK 927      BINDING AFFINITY PREDICTED BY RF-SCORE:    0.00 PKD
ROOT
HETATM    1  C   UNL     1     -12.689   9.743  70.944  1.00  0.00    -0.329 C  
HETATM    2  C   UNL     1     -12.132  11.077  70.549  1.00  0.00    -0.470 C  
HETATM    3  C   UNL     1     -11.188  11.318  69.620  1.00  0.00    -0.251 C  
HETATM    4  O   UNL     1     -10.795  12.576  69.207  1.00  0.00    -0.137 OA 
HETATM    5  C   UNL     1     -10.930  14.960  69.380  1.00  0.00    -0.284 A  
HETATM    6  C   UNL     1     -11.363  16.094  70.103  1.00  0.00    -0.347 A  
HETATM    7  C   UNL     1     -11.319  13.687  69.814  1.00  0.00    -0.112 A  
HETATM    8  C   UNL     1     -12.200  13.576  70.888  1.00  0.00    -0.387 A  
HETATM    9  C   UNL     1     -12.191  15.967  71.216  1.00  0.00    -0.399 A  
HETATM   10  O   UNL     1     -13.520  12.119  72.164  1.00  0.00    -0.494 OA 
HETATM   11  C   UNL     1     -12.632  14.707  71.594  1.00  0.00    -0.403 A  
HETATM   12  C   UNL     1     -12.692  12.244  71.272  1.00  0.00    -0.251 C  
ENDROOT
BRANCH   3  13
HETATM   13  C   UNL     1     -10.424  10.250  68.959  1.00  0.00    -0.238 A  
HETATM   14  C   UNL     1      -8.437   8.848  68.855  1.00  0.00    -0.131 A  
HETATM   15  C   UNL     1     -10.118   8.685  67.129  1.00  0.00    -0.329 A  
HETATM   16  C   UNL     1     -10.877   9.670  67.769  1.00  0.00    -0.278 A  
HETATM   17  C   UNL     1      -9.197   9.830  69.497  1.00  0.00    -0.226 A  
HETATM   18  C   UNL     1      -8.898   8.276  67.670  1.00  0.00    -0.137 A  
ENDBRANCH   3  13
BRANCH   5  19
HETATM   19  C   UNL     1     -10.023  15.116  68.204  1.00  0.00    -0.221 C  
HETATM   20  O   UNL     1      -8.837  14.831  68.152  1.00  0.00    -0.160 OA 
BRANCH  19  21
HETATM   21  O   UNL     1     -10.715  15.689  67.184  1.00  0.00    -0.309 OA 
BRANCH  21  22
HETATM   22  C   UNL     1      -9.964  15.771  65.969  1.00  0.00    -0.332 C  
BRANCH  22  23
HETATM   23  C   UNL     1     -10.694  14.954  64.885  1.00  0.00    -0.405 C  
BRANCH  23  24
HETATM   24  N   UNL     1     -10.229  13.554  64.726  1.00  0.00    -0.367 NA 
HETATM   25  C   UNL     1     -10.624  12.669  65.832  1.00  0.00    -0.273 C  
HETATM   26  C   UNL     1     -12.139  12.540  65.959  1.00  0.00    -0.390 C  
HETATM   27  C   UNL     1     -12.784  12.099  64.645  1.00  0.00    -0.156 C  
HETATM   28  C   UNL     1     -12.217  12.801  63.408  1.00  0.00    -0.594 C  
HETATM   29  C   UNL     1     -10.697  12.965  63.462  1.00  0.00    -0.062 C  
ENDBRANCH  23  24
ENDBRANCH  22  23
ENDBRANCH  21  22
ENDBRANCH  19  21
ENDBRANCH   5  19
TORSDOF 6
ENDMDL
MODEL       28
REMARK 921   NORMALIZED FREE ENERGY PREDICTED BY IDOCK:   -6.96 KCAL/MOL
REMARK 922        TOTAL FREE ENERGY PREDICTED BY IDOCK:  -10.09 KCAL/MOL
REMARK 923 INTER-LIGAND FREE ENERGY PREDICTED BY IDOCK:   -9.47 KCAL/MOL
REMARK 924 INTRA-LIGAND FREE ENERGY PREDICTED BY IDOCK:   -0.62 KCAL/MOL
REMARK 927      BINDING AFFINITY PREDICTED BY RF-SCORE:    0.00 PKD
ROOT
HETATM    1  C   UNL     1     -13.959   9.238  72.576  1.00  0.00    -0.398 C  
HETATM    2  C   UNL     1     -12.849   9.036  71.589  1.00  0.00    -0.419 C  
HETATM    3  C   UNL     1     -12.138   9.993  70.964  1.00  0.00    -0.373 C  
HETATM    4  O   UNL     1     -11.045   9.755  70.154  1.00  0.00    -0.251 OA 
HETATM    5  C   UNL     1      -9.549   8.232  69.069  1.00  0.00    -0.156 A  
HETATM    6  C   UNL     1      -9.255   6.909  68.671  1.00  0.00    -0.130 A  
HETATM    7  C   UNL     1     -10.669   8.467  69.875  1.00  0.00    -0.224 A  
HETATM    8  C   UNL     1     -11.406   7.382  70.345  1.00  0.00    -0.273 A  
HETATM    9  C   UNL     1     -10.039   5.837  69.092  1.00  0.00    -0.257 A  
HETATM   10  O   UNL     1     -13.138   6.689  71.765  1.00  0.00    -0.294 OA 
HETATM   11  C   UNL     1     -11.103   6.072  69.952  1.00  0.00    -0.469 A  
HETATM   12  C   UNL     1     -12.515   7.625  71.280  1.00  0.00    -0.298 C  
ENDROOT
BRANCH   3  13
HETATM   13  C   UNL     1     -12.478  11.421  71.038  1.00  0.00    -0.486 A  
HETATM   14  C   UNL     1     -12.231  13.683  70.176  1.00  0.00    -0.413 A  
HETATM   15  C   UNL     1     -13.564  13.285  72.149  1.00  0.00    -0.655 A  
HETATM   16  C   UNL     1     -13.283  11.917  72.068  1.00  0.00    -0.461 A  
HETATM   17  C   UNL     1     -11.954  12.316  70.091  1.00  0.00    -0.377 A  
HETATM   18  C   UNL     1     -13.035  14.167  71.206  1.00  0.00    -0.426 A  
ENDBRANCH   3  13
BRANCH   5  19
HETATM   19  C   UNL     1      -8.711   9.370  68.586  1.00  0.00    -0.131 C  
HETATM   20  O   UNL     1      -7.895  10.005  69.234  1.00  0.00    -0.101 OA 
BRANCH  19  21
HETATM   21  O   UNL     1      -9.035   9.641  67.294  1.00  0.00    -0.134 OA 
BRANCH  21  22
HETATM   22  C   UNL     1      -8.797  11.003  66.926  1.00  0.00    -0.149 C  
BRANCH  22  23
HETATM   23  C   UNL     1     -10.135  11.633  66.489  1.00  0.00    -0.207 C  
BRANCH  23  24
HETATM   24  N   UNL     1     -10.027  12.706  65.471  1.00  0.00    -0.253 NA 
HETATM   25  C   UNL     1     -10.988  12.573  64.365  1.00  0.00    -0.340 C  
HETATM   26  C   UNL     1     -12.435  12.662  64.839  1.00  0.00    -0.564 C  
HETATM   27  C   UNL     1     -12.692  13.938  65.640  1.00  0.00    -0.534 C  
HETATM   28  C   UNL     1     -11.580  14.283  66.635  1.00  0.00    -0.397 C  
HETATM   29  C   UNL     1     -10.180  14.042  66.068  1.00  0.00    -0.304 C  
ENDBRANCH  23  24
ENDBRANCH  22  23
ENDBRANCH  21  22
ENDBRANCH  19  21
ENDBRANCH   5  19
TORSDOF 6
ENDMDL
MODEL       29
REMARK 921   NORMALIZED FREE ENERGY PREDICTED BY IDOCK:   -6.93 KCAL/MOL
REMARK 922        TOTAL FREE ENERGY PREDICTED BY IDOCK:  -10.05 KCAL/MOL
REMARK 923 INTER-LIGAND FREE ENERGY PREDICTED BY IDOCK:   -8.02 KCAL/MOL
REMARK 924 INTRA-LIGAND FREE ENERGY PREDICTED BY IDOCK:   -2.03 KCAL/MOL
REMARK 927      BINDING AFFINITY PREDICTED BY RF-SCORE:    0.00 PKD
ROOT
HETATM    1  C   UNL     1     -10.903   5.880  70.049  1.00  0.00    -0.421 C  
HETATM    2  C   UNL     1     -11.077   7.369  70.022  1.00  0.00    -0.238 C  
HETATM    3  C   UNL     1     -10.519   8.234  69.155  1.00  0.00    -0.206 C  
HETATM    4  O   UNL     1     -10.806   9.584  69.097  1.00  0.00    -0.222 OA 
HETATM    5  C   UNL     1     -11.957  11.505  69.943  1.00  0.00    -0.426 A  
HETATM    6  C   UNL     1     -12.715  12.098  70.977  1.00  0.00    -0.322 A  
HETATM    7  C   UNL     1     -11.654  10.140  70.018  1.00  0.00    -0.253 A  
HETATM    8  C   UNL     1     -12.191   9.382  71.057  1.00  0.00    -0.354 A  
HETATM    9  C   UNL     1     -13.191  11.343  72.047  1.00  0.00    -0.432 A  
HETATM   10  O   UNL     1     -12.477   7.226  71.930  1.00  0.00    -0.314 OA 
HETATM   11  C   UNL     1     -12.950   9.976  72.074  1.00  0.00    -0.514 A  
HETATM   12  C   UNL     1     -11.962   7.930  71.071  1.00  0.00    -0.252 C  
ENDROOT
BRANCH   3  13
HETATM   13  C   UNL     1      -9.488   7.841  68.183  1.00  0.00    -0.152 A  
HETATM   14  C   UNL     1      -7.143   7.722  67.546  1.00  0.00    -0.083 A  
HETATM   15  C   UNL     1      -8.847   6.971  66.010  1.00  0.00    -0.155 A  
HETATM   16  C   UNL     1      -9.837   7.302  66.940  1.00  0.00    -0.279 A  
HETATM   17  C   UNL     1      -8.131   8.048  68.478  1.00  0.00    -0.125 A  
HETATM   18  C   UNL     1      -7.501   7.184  66.311  1.00  0.00    -0.087 A  
ENDBRANCH   3  13
BRANCH   5  19
HETATM   19  C   UNL     1     -11.435  12.337  68.818  1.00  0.00    -0.311 C  
HETATM   20  O   UNL     1     -10.541  13.166  68.873  1.00  0.00    -0.216 OA 
BRANCH  19  21
HETATM   21  O   UNL     1     -12.158  12.069  67.698  1.00  0.00    -0.547 OA 
BRANCH  21  22
HETATM   22  C   UNL     1     -12.007  13.061  66.679  1.00  0.00    -0.387 C  
BRANCH  22  23
HETATM   23  C   UNL     1     -11.657  12.353  65.354  1.00  0.00    -0.381 C  
BRANCH  23  24
HETATM   24  N   UNL     1     -10.353  12.735  64.757  1.00  0.00    -0.321 NA 
HETATM   25  C   UNL     1      -9.199  12.462  65.627  1.00  0.00     0.153 C  
HETATM   26  C   UNL     1      -9.041  10.975  65.931  1.00  0.00    -0.214 C  
HETATM   27  C   UNL     1      -8.978  10.138  64.654  1.00  0.00    -0.241 C  
HETATM   28  C   UNL     1      -9.991  10.556  63.585  1.00  0.00    -0.299 C  
HETATM   29  C   UNL     1     -10.133  12.075  63.462  1.00  0.00    -0.424 C  
ENDBRANCH  23  24
ENDBRANCH  22  23
ENDBRANCH  21  22
ENDBRANCH  19  21
ENDBRANCH   5  19
TORSDOF 6
ENDMDL
MODEL       30
REMARK 921   NORMALIZED FREE ENERGY PREDICTED BY IDOCK:   -6.93 KCAL/MOL
REMARK 922        TOTAL FREE ENERGY PREDICTED BY IDOCK:  -10.05 KCAL/MOL
REMARK 923 INTER-LIGAND FREE ENERGY PREDICTED BY IDOCK:   -8.86 KCAL/MOL
REMARK 924 INTRA-LIGAND FREE ENERGY PREDICTED BY IDOCK:   -1.19 KCAL/MOL
REMARK 927      BINDING AFFINITY PREDICTED BY RF-SCORE:    0.00 PKD
ROOT
HETATM    1  C   UNL     1      -5.157  17.732  70.300  1.00  0.00    -0.237 C  
HETATM    2  C   UNL     1      -6.399  17.653  69.465  1.00  0.00    -0.223 C  
HETATM    3  C   UNL     1      -7.002  16.537  69.014  1.00  0.00    -0.208 C  
HETATM    4  O   UNL     1      -8.213  16.513  68.349  1.00  0.00    -0.178 OA 
HETATM    5  C   UNL     1     -10.078  17.658  67.378  1.00  0.00    -0.331 A  
HETATM    6  C   UNL     1     -10.649  18.871  66.933  1.00  0.00    -0.495 A  
HETATM    7  C   UNL     1      -8.842  17.689  68.036  1.00  0.00    -0.257 A  
HETATM    8  C   UNL     1      -8.257  18.921  68.321  1.00  0.00    -0.362 A  
HETATM    9  C   UNL     1     -10.022  20.093  67.164  1.00  0.00    -0.595 A  
HETATM   10  O   UNL     1      -6.512  20.021  69.433  1.00  0.00    -0.322 OA 
HETATM   11  C   UNL     1      -8.834  20.120  67.883  1.00  0.00    -0.294 A  
HETATM   12  C   UNL     1      -7.014  18.954  69.107  1.00  0.00    -0.281 C  
ENDROOT
BRANCH   3  13
HETATM   13  C   UNL     1      -6.408  15.199  69.140  1.00  0.00    -0.109 A  
HETATM   14  C   UNL     1      -5.314  13.284  68.112  1.00  0.00    -0.102 A  
HETATM   15  C   UNL     1      -5.906  13.219  70.452  1.00  0.00    -0.161 A  
HETATM   16  C   UNL     1      -6.438  14.509  70.357  1.00  0.00    -0.111 A  
HETATM   17  C   UNL     1      -5.841  14.574  68.017  1.00  0.00    -0.149 A  
HETATM   18  C   UNL     1      -5.348  12.606  69.330  1.00  0.00    -0.071 A  
ENDBRANCH   3  13
BRANCH   5  19
HETATM   19  C   UNL     1     -10.755  16.357  67.098  1.00  0.00    -0.233 C  
HETATM   20  O   UNL     1     -10.729  15.728  66.052  1.00  0.00    -0.323 OA 
BRANCH  19  21
HETATM   21  O   UNL     1     -11.473  15.987  68.192  1.00  0.00    -0.338 OA 
BRANCH  21  22
HETATM   22  C   UNL     1     -11.316  14.605  68.528  1.00  0.00    -0.284 C  
BRANCH  22  23
HETATM   23  C   UNL     1     -11.829  14.390  69.967  1.00  0.00    -0.315 C  
BRANCH  23  24
HETATM   24  N   UNL     1     -12.640  15.501  70.523  1.00  0.00    -0.435 NA 
HETATM   25  C   UNL     1     -13.919  15.067  71.104  1.00  0.00    -0.374 C  
HETATM   26  C   UNL     1     -13.729  14.124  72.288  1.00  0.00    -0.623 C  
HETATM   27  C   UNL     1     -12.817  14.729  73.355  1.00  0.00    -0.597 C  
HETATM   28  C   UNL     1     -11.585  15.441  72.789  1.00  0.00    -0.464 C  
HETATM   29  C   UNL     1     -11.896  16.263  71.537  1.00  0.00    -0.380 C  
ENDBRANCH  23  24
ENDBRANCH  22  23
ENDBRANCH  21  22
ENDBRANCH  19  21
ENDBRANCH   5  19
TORSDOF 6
ENDMDL
MODEL       31
REMARK 921   NORMALIZED FREE ENERGY PREDICTED BY IDOCK:   -6.92 KCAL/MOL
REMARK 922        TOTAL FREE ENERGY PREDICTED BY IDOCK:  -10.03 KCAL/MOL
REMARK 923 INTER-LIGAND FREE ENERGY PREDICTED BY IDOCK:   -8.85 KCAL/MOL
REMARK 924 INTRA-LIGAND FREE ENERGY PREDICTED BY IDOCK:   -1.18 KCAL/MOL
REMARK 927      BINDING AFFINITY PREDICTED BY RF-SCORE:    0.00 PKD
ROOT
HETATM    1  C   UNL     1     -13.015  14.039  65.483  1.00  0.00    -0.353 C  
HETATM    2  C   UNL     1     -11.915  13.062  65.770  1.00  0.00    -0.482 C  
HETATM    3  C   UNL     1     -11.310  12.850  66.954  1.00  0.00    -0.312 C  
HETATM    4  O   UNL     1     -10.385  11.853  67.195  1.00  0.00    -0.206 OA 
HETATM    5  C   UNL     1      -9.042  10.028  66.422  1.00  0.00    -0.176 A  
HETATM    6  C   UNL     1      -8.508   9.300  65.336  1.00  0.00    -0.157 A  
HETATM    7  C   UNL     1      -9.966  11.049  66.168  1.00  0.00    -0.231 A  
HETATM    8  C   UNL     1     -10.408  11.254  64.863  1.00  0.00    -0.362 A  
HETATM    9  C   UNL     1      -8.908   9.558  64.026  1.00  0.00    -0.243 A  
HETATM   10  O   UNL     1     -11.918  12.408  63.491  1.00  0.00    -0.475 OA 
HETATM   11  C   UNL     1      -9.879  10.521  63.792  1.00  0.00    -0.363 A  
HETATM   12  C   UNL     1     -11.459  12.253  64.615  1.00  0.00    -0.336 C  
ENDROOT
BRANCH   3  13
HETATM   13  C   UNL     1     -11.536  13.698  68.133  1.00  0.00    -0.348 A  
HETATM   14  C   UNL     1     -12.378  13.957  70.401  1.00  0.00    -0.433 A  
HETATM   15  C   UNL     1     -11.481  15.865  69.225  1.00  0.00    -0.374 A  
HETATM   16  C   UNL     1     -11.223  15.062  68.110  1.00  0.00    -0.316 A  
HETATM   17  C   UNL     1     -12.116  13.152  69.289  1.00  0.00    -0.270 A  
HETATM   18  C   UNL     1     -12.062  15.314  70.368  1.00  0.00    -0.388 A  
ENDBRANCH   3  13
BRANCH   5  19
HETATM   19  C   UNL     1      -8.581   9.751  67.815  1.00  0.00    -0.125 C  
HETATM   20  O   UNL     1      -7.475   9.977  68.279  1.00  0.00    -0.078 OA 
BRANCH  19  21
HETATM   21  O   UNL     1      -9.586   9.144  68.501  1.00  0.00    -0.146 OA 
BRANCH  21  22
HETATM   22  C   UNL     1      -9.732   9.633  69.837  1.00  0.00    -0.231 C  
BRANCH  22  23
HETATM   23  C   UNL     1     -11.232   9.636  70.195  1.00  0.00    -0.256 C  
BRANCH  23  24
HETATM   24  N   UNL     1     -11.538   9.548  71.644  1.00  0.00    -0.393 NA 
HETATM   25  C   UNL     1     -12.805  10.193  72.023  1.00  0.00    -0.376 C  
HETATM   26  C   UNL     1     -14.011   9.541  71.354  1.00  0.00    -0.129 C  
HETATM   27  C   UNL     1     -14.060   8.036  71.615  1.00  0.00    -0.516 C  
HETATM   28  C   UNL     1     -12.701   7.339  71.498  1.00  0.00    -0.422 C  
HETATM   29  C   UNL     1     -11.561   8.154  72.112  1.00  0.00    -0.357 C  
ENDBRANCH  23  24
ENDBRANCH  22  23
ENDBRANCH  21  22
ENDBRANCH  19  21
ENDBRANCH   5  19
TORSDOF 6
ENDMDL
MODEL       32
REMARK 921   NORMALIZED FREE ENERGY PREDICTED BY IDOCK:   -6.87 KCAL/MOL
REMARK 922        TOTAL FREE ENERGY PREDICTED BY IDOCK:   -9.96 KCAL/MOL
REMARK 923 INTER-LIGAND FREE ENERGY PREDICTED BY IDOCK:   -8.88 KCAL/MOL
REMARK 924 INTRA-LIGAND FREE ENERGY PREDICTED BY IDOCK:   -1.09 KCAL/MOL
REMARK 927      BINDING AFFINITY PREDICTED BY RF-SCORE:    0.00 PKD
ROOT
HETATM    1  C   UNL     1     -10.393   8.164  68.005  1.00  0.00    -0.267 C  
HETATM    2  C   UNL     1     -10.633   9.639  68.125  1.00  0.00    -0.273 C  
HETATM    3  C   UNL     1     -10.287  10.590  67.238  1.00  0.00    -0.228 C  
HETATM    4  O   UNL     1     -10.638  11.922  67.338  1.00  0.00    -0.215 OA 
HETATM    5  C   UNL     1     -11.689  13.714  68.529  1.00  0.00    -0.392 A  
HETATM    6  C   UNL     1     -12.261  14.192  69.728  1.00  0.00    -0.397 A  
HETATM    7  C   UNL     1     -11.319  12.366  68.441  1.00  0.00    -0.285 A  
HETATM    8  C   UNL     1     -11.615  11.512  69.501  1.00  0.00    -0.400 A  
HETATM    9  C   UNL     1     -12.492  13.342  70.808  1.00  0.00    -0.403 A  
HETATM   10  O   UNL     1     -11.636   9.289  70.245  1.00  0.00    -0.225 OA 
HETATM   11  C   UNL     1     -12.191  11.993  70.684  1.00  0.00    -0.409 A  
HETATM   12  C   UNL     1     -11.325  10.077  69.361  1.00  0.00    -0.141 C  
ENDROOT
BRANCH   3  13
HETATM   13  C   UNL     1      -9.444  10.322  66.064  1.00  0.00    -0.234 A  
HETATM   14  C   UNL     1      -9.242   9.950  63.668  1.00  0.00    -0.283 A  
HETATM   15  C   UNL     1      -7.288   9.797  65.079  1.00  0.00    -0.128 A  
HETATM   16  C   UNL     1      -8.071  10.092  66.201  1.00  0.00    -0.122 A  
HETATM   17  C   UNL     1     -10.023  10.249  64.787  1.00  0.00    -0.392 A  
HETATM   18  C   UNL     1      -7.874   9.723  63.815  1.00  0.00    -0.143 A  
ENDBRANCH   3  13
BRANCH   5  19
HETATM   19  C   UNL     1     -11.427  14.648  67.393  1.00  0.00    -0.369 C  
HETATM   20  O   UNL     1     -12.108  14.790  66.390  1.00  0.00    -0.264 OA 
BRANCH  19  21
HETATM   21  O   UNL     1     -10.255  15.300  67.617  1.00  0.00    -0.238 OA 
BRANCH  21  22
HETATM   22  C   UNL     1      -9.531  15.587  66.418  1.00  0.00    -0.291 C  
BRANCH  22  23
HETATM   23  C   UNL     1      -8.593  16.782  66.687  1.00  0.00    -0.252 C  
BRANCH  23  24
HETATM   24  N   UNL     1      -8.940  18.034  65.970  1.00  0.00    -0.513 NA 
HETATM   25  C   UNL     1     -10.328  18.473  66.183  1.00  0.00    -0.426 C  
HETATM   26  C   UNL     1     -10.617  18.795  67.646  1.00  0.00    -0.481 C  
HETATM   27  C   UNL     1      -9.626  19.813  68.210  1.00  0.00    -0.467 C  
HETATM   28  C   UNL     1      -8.173  19.561  67.795  1.00  0.00    -0.333 C  
HETATM   29  C   UNL     1      -8.037  19.137  66.332  1.00  0.00    -0.308 C  
ENDBRANCH  23  24
ENDBRANCH  22  23
ENDBRANCH  21  22
ENDBRANCH  19  21
ENDBRANCH   5  19
TORSDOF 6
ENDMDL
MODEL       33
REMARK 921   NORMALIZED FREE ENERGY PREDICTED BY IDOCK:   -6.82 KCAL/MOL
REMARK 922        TOTAL FREE ENERGY PREDICTED BY IDOCK:   -9.90 KCAL/MOL
REMARK 923 INTER-LIGAND FREE ENERGY PREDICTED BY IDOCK:   -9.20 KCAL/MOL
REMARK 924 INTRA-LIGAND FREE ENERGY PREDICTED BY IDOCK:   -0.69 KCAL/MOL
REMARK 927      BINDING AFFINITY PREDICTED BY RF-SCORE:    0.00 PKD
ROOT
HETATM    1  C   UNL     1     -13.292  15.536  71.312  1.00  0.00    -0.588 C  
HETATM    2  C   UNL     1     -12.819  14.170  70.918  1.00  0.00    -0.404 C  
HETATM    3  C   UNL     1     -11.948  13.866  69.937  1.00  0.00    -0.341 C  
HETATM    4  O   UNL     1     -11.451  12.601  69.692  1.00  0.00    -0.250 OA 
HETATM    5  C   UNL     1     -11.387  10.259  70.183  1.00  0.00    -0.388 A  
HETATM    6  C   UNL     1     -11.964   9.148  70.838  1.00  0.00    -0.299 A  
HETATM    7  C   UNL     1     -11.908  11.536  70.423  1.00  0.00    -0.320 A  
HETATM    8  C   UNL     1     -12.914  11.690  71.375  1.00  0.00    -0.426 A  
HETATM    9  C   UNL     1     -13.016   9.307  71.738  1.00  0.00    -0.471 A  
HETATM   10  O   UNL     1     -14.215  13.221  72.583  1.00  0.00    -0.724 OA 
HETATM   11  C   UNL     1     -13.475  10.584  72.026  1.00  0.00    -0.330 A  
HETATM   12  C   UNL     1     -13.382  13.046  71.703  1.00  0.00    -0.292 C  
ENDROOT
BRANCH   3  13
HETATM   13  C   UNL     1     -11.453  14.857  68.971  1.00  0.00    -0.322 A  
HETATM   14  C   UNL     1     -10.939  15.471  66.673  1.00  0.00    -0.248 A  
HETATM   15  C   UNL     1     -10.432  17.001  68.470  1.00  0.00    -0.373 A  
HETATM   16  C   UNL     1     -10.938  16.086  69.398  1.00  0.00    -0.321 A  
HETATM   17  C   UNL     1     -11.449  14.557  67.599  1.00  0.00    -0.374 A  
HETATM   18  C   UNL     1     -10.429  16.693  67.109  1.00  0.00    -0.300 A  
ENDBRANCH   3  13
BRANCH   5  19
HETATM   19  C   UNL     1     -10.277  10.064  69.203  1.00  0.00    -0.210 C  
HETATM   20  O   UNL     1      -9.094  10.309  69.379  1.00  0.00    -0.196 OA 
BRANCH  19  21
HETATM   21  O   UNL     1     -10.796   9.611  68.031  1.00  0.00    -0.242 OA 
BRANCH  21  22
HETATM   22  C   UNL     1      -9.812   9.051  67.157  1.00  0.00    -0.203 C  
BRANCH  22  23
HETATM   23  C   UNL     1      -9.634   7.561  67.512  1.00  0.00    -0.142 C  
BRANCH  23  24
HETATM   24  N   UNL     1     -10.885   6.765  67.552  1.00  0.00    -0.301 NA 
HETATM   25  C   UNL     1     -10.900   5.637  66.608  1.00  0.00    -0.204 C  
HETATM   26  C   UNL     1      -9.807   4.616  66.908  1.00  0.00    -0.235 C  
HETATM   27  C   UNL     1      -9.869   4.125  68.354  1.00  0.00    -0.082 C  
HETATM   28  C   UNL     1     -10.125   5.235  69.377  1.00  0.00    -0.311 C  
HETATM   29  C   UNL     1     -11.163   6.253  68.902  1.00  0.00    -0.309 C  
ENDBRANCH  23  24
ENDBRANCH  22  23
ENDBRANCH  21  22
ENDBRANCH  19  21
ENDBRANCH   5  19
TORSDOF 6
ENDMDL
MODEL       34
REMARK 921   NORMALIZED FREE ENERGY PREDICTED BY IDOCK:   -6.80 KCAL/MOL
REMARK 922        TOTAL FREE ENERGY PREDICTED BY IDOCK:   -9.87 KCAL/MOL
REMARK 923 INTER-LIGAND FREE ENERGY PREDICTED BY IDOCK:   -8.86 KCAL/MOL
REMARK 924 INTRA-LIGAND FREE ENERGY PREDICTED BY IDOCK:   -1.01 KCAL/MOL
REMARK 927      BINDING AFFINITY PREDICTED BY RF-SCORE:    0.00 PKD
ROOT
HETATM    1  C   UNL     1     -13.323  15.414  71.292  1.00  0.00    -0.598 C  
HETATM    2  C   UNL     1     -12.845  14.044  70.916  1.00  0.00    -0.389 C  
HETATM    3  C   UNL     1     -12.013  13.725  69.907  1.00  0.00    -0.347 C  
HETATM    4  O   UNL     1     -11.506  12.461  69.676  1.00  0.00    -0.254 OA 
HETATM    5  C   UNL     1     -11.381  10.135  70.231  1.00  0.00    -0.387 A  
HETATM    6  C   UNL     1     -11.910   9.035  70.942  1.00  0.00    -0.302 A  
HETATM    7  C   UNL     1     -11.912  11.411  70.457  1.00  0.00    -0.356 A  
HETATM    8  C   UNL     1     -12.878  11.577  71.447  1.00  0.00    -0.489 A  
HETATM    9  C   UNL     1     -12.924   9.204  71.883  1.00  0.00    -0.473 A  
HETATM   10  O   UNL     1     -14.150  13.122  72.668  1.00  0.00    -0.701 OA 
HETATM   11  C   UNL     1     -13.391  10.482  72.154  1.00  0.00    -0.347 A  
HETATM   12  C   UNL     1     -13.354  12.934  71.757  1.00  0.00    -0.359 C  
ENDROOT
BRANCH   3  13
HETATM   13  C   UNL     1     -11.577  14.695  68.891  1.00  0.00    -0.340 A  
HETATM   14  C   UNL     1     -11.355  15.324  66.551  1.00  0.00    -0.168 A  
HETATM   15  C   UNL     1     -10.449  16.753  68.274  1.00  0.00    -0.341 A  
HETATM   16  C   UNL     1     -10.894  15.860  69.254  1.00  0.00    -0.276 A  
HETATM   17  C   UNL     1     -11.805  14.434  67.530  1.00  0.00    -0.418 A  
HETATM   18  C   UNL     1     -10.676  16.484  66.924  1.00  0.00    -0.175 A  
ENDBRANCH   3  13
BRANCH   5  19
HETATM   19  C   UNL     1     -10.312   9.929  69.208  1.00  0.00    -0.219 C  
HETATM   20  O   UNL     1      -9.138  10.251  69.301  1.00  0.00    -0.182 OA 
BRANCH  19  21
HETATM   21  O   UNL     1     -10.862   9.363  68.101  1.00  0.00    -0.203 OA 
BRANCH  21  22
HETATM   22  C   UNL     1      -9.969   8.479  67.417  1.00  0.00    -0.214 C  
BRANCH  22  23
HETATM   23  C   UNL     1      -9.966   8.849  65.920  1.00  0.00    -0.029 C  
BRANCH  23  24
HETATM   24  N   UNL     1      -9.775  10.290  65.624  1.00  0.00    -0.228 NA 
HETATM   25  C   UNL     1      -8.439  10.796  65.975  1.00  0.00    -0.169 C  
HETATM   26  C   UNL     1      -7.332  10.108  65.182  1.00  0.00    -0.141 C  
HETATM   27  C   UNL     1      -7.575  10.196  63.675  1.00  0.00    -0.139 C  
HETATM   28  C   UNL     1      -9.028   9.942  63.263  1.00  0.00    -0.276 C  
HETATM   29  C   UNL     1     -10.037  10.596  64.209  1.00  0.00    -0.343 C  
ENDBRANCH  23  24
ENDBRANCH  22  23
ENDBRANCH  21  22
ENDBRANCH  19  21
ENDBRANCH   5  19
TORSDOF 6
ENDMDL
MODEL       35
REMARK 921   NORMALIZED FREE ENERGY PREDICTED BY IDOCK:   -6.76 KCAL/MOL
REMARK 922        TOTAL FREE ENERGY PREDICTED BY IDOCK:   -9.81 KCAL/MOL
REMARK 923 INTER-LIGAND FREE ENERGY PREDICTED BY IDOCK:   -8.27 KCAL/MOL
REMARK 924 INTRA-LIGAND FREE ENERGY PREDICTED BY IDOCK:   -1.54 KCAL/MOL
REMARK 927      BINDING AFFINITY PREDICTED BY RF-SCORE:    0.00 PKD
ROOT
HETATM    1  C   UNL     1     -10.257   9.317  66.180  1.00  0.00    -0.229 C  
HETATM    2  C   UNL     1     -10.189  10.782  66.490  1.00  0.00    -0.287 C  
HETATM    3  C   UNL     1      -9.826  11.347  67.657  1.00  0.00    -0.176 C  
HETATM    4  O   UNL     1      -9.663  12.704  67.855  1.00  0.00    -0.203 OA 
HETATM    5  C   UNL     1      -9.770  14.954  67.043  1.00  0.00    -0.240 A  
HETATM    6  C   UNL     1     -10.209  15.858  66.050  1.00  0.00    -0.353 A  
HETATM    7  C   UNL     1      -9.956  13.581  66.843  1.00  0.00    -0.256 A  
HETATM    8  C   UNL     1     -10.476  13.136  65.629  1.00  0.00    -0.290 A  
HETATM    9  C   UNL     1     -10.789  15.405  64.867  1.00  0.00    -0.445 A  
HETATM   10  O   UNL     1     -10.953  11.267  64.298  1.00  0.00    -0.354 OA 
HETATM   11  C   UNL     1     -10.900  14.039  64.646  1.00  0.00    -0.416 A  
HETATM   12  C   UNL     1     -10.566  11.690  65.380  1.00  0.00    -0.280 C  
ENDROOT
BRANCH   3  13
HETATM   13  C   UNL     1      -9.601  10.573  68.886  1.00  0.00    -0.199 A  
HETATM   14  C   UNL     1      -8.072   9.434  70.398  1.00  0.00    -0.197 A  
HETATM   15  C   UNL     1     -10.449   9.379  70.822  1.00  0.00    -0.372 A  
HETATM   16  C   UNL     1     -10.675  10.150  69.677  1.00  0.00    -0.295 A  
HETATM   17  C   UNL     1      -8.297  10.208  69.256  1.00  0.00    -0.160 A  
HETATM   18  C   UNL     1      -9.149   9.018  71.180  1.00  0.00    -0.316 A  
ENDBRANCH   3  13
BRANCH   5  19
HETATM   19  C   UNL     1      -9.173  15.462  68.315  1.00  0.00    -0.188 C  
HETATM   20  O   UNL     1      -7.994  15.441  68.630  1.00  0.00    -0.133 OA 
BRANCH  19  21
HETATM   21  O   UNL     1     -10.170  15.916  69.120  1.00  0.00    -0.206 OA 
BRANCH  21  22
HETATM   22  C   UNL     1     -10.215  15.256  70.389  1.00  0.00     0.031 C  
BRANCH  22  23
HETATM   23  C   UNL     1     -11.542  15.622  71.084  1.00  0.00    -0.412 C  
BRANCH  23  24
HETATM   24  N   UNL     1     -12.767  15.120  70.414  1.00  0.00    -0.352 NA 
HETATM   25  C   UNL     1     -12.716  13.689  70.080  1.00  0.00    -0.049 C  
HETATM   26  C   UNL     1     -12.590  12.808  71.319  1.00  0.00    -0.347 C  
HETATM   27  C   UNL     1     -13.694  13.097  72.337  1.00  0.00    -0.640 C  
HETATM   28  C   UNL     1     -13.984  14.588  72.532  1.00  0.00    -0.510 C  
HETATM   29  C   UNL     1     -13.971  15.373  71.219  1.00  0.00    -0.395 C  
ENDBRANCH  23  24
ENDBRANCH  22  23
ENDBRANCH  21  22
ENDBRANCH  19  21
ENDBRANCH   5  19
TORSDOF 6
ENDMDL
MODEL       36
REMARK 921   NORMALIZED FREE ENERGY PREDICTED BY IDOCK:   -6.71 KCAL/MOL
REMARK 922        TOTAL FREE ENERGY PREDICTED BY IDOCK:   -9.76 KCAL/MOL
REMARK 923 INTER-LIGAND FREE ENERGY PREDICTED BY IDOCK:   -8.11 KCAL/MOL
REMARK 924 INTRA-LIGAND FREE ENERGY PREDICTED BY IDOCK:   -1.64 KCAL/MOL
REMARK 927      BINDING AFFINITY PREDICTED BY RF-SCORE:    0.00 PKD
ROOT
HETATM    1  C   UNL     1     -12.751  13.726  65.505  1.00  0.00    -0.530 C  
HETATM    2  C   UNL     1     -11.605  12.844  65.901  1.00  0.00    -0.423 C  
HETATM    3  C   UNL     1     -10.942  12.856  67.072  1.00  0.00    -0.262 C  
HETATM    4  O   UNL     1      -9.972  11.941  67.434  1.00  0.00    -0.188 OA 
HETATM    5  C   UNL     1      -8.598  10.050  66.918  1.00  0.00    -0.128 A  
HETATM    6  C   UNL     1      -8.085   9.161  65.947  1.00  0.00    -0.111 A  
HETATM    7  C   UNL     1      -9.569  10.986  66.539  1.00  0.00    -0.195 A  
HETATM    8  C   UNL     1     -10.074  10.951  65.241  1.00  0.00    -0.340 A  
HETATM    9  C   UNL     1      -8.551   9.180  64.634  1.00  0.00    -0.206 A  
HETATM   10  O   UNL     1     -11.683  11.809  63.769  1.00  0.00    -0.424 OA 
HETATM   11  C   UNL     1      -9.566  10.060  64.286  1.00  0.00    -0.301 A  
HETATM   12  C   UNL     1     -11.170  11.862  64.879  1.00  0.00    -0.292 C  
ENDROOT
BRANCH   3  13
HETATM   13  C   UNL     1     -11.148  13.887  68.099  1.00  0.00    -0.278 A  
HETATM   14  C   UNL     1     -12.373  14.704  70.036  1.00  0.00    -0.365 A  
HETATM   15  C   UNL     1     -10.637  16.061  69.049  1.00  0.00    -0.257 A  
HETATM   16  C   UNL     1     -10.402  15.071  68.090  1.00  0.00    -0.239 A  
HETATM   17  C   UNL     1     -12.136  13.712  69.081  1.00  0.00    -0.361 A  
HETATM   18  C   UNL     1     -11.624  15.880  70.019  1.00  0.00    -0.346 A  
ENDBRANCH   3  13
BRANCH   5  19
HETATM   19  C   UNL     1      -8.068  10.030  68.314  1.00  0.00    -0.104 C  
HETATM   20  O   UNL     1      -7.214  10.764  68.783  1.00  0.00    -0.078 OA 
BRANCH  19  21
HETATM   21  O   UNL     1      -8.653   9.009  68.995  1.00  0.00    -0.130 OA 
BRANCH  21  22
HETATM   22  C   UNL     1      -8.478   9.102  70.411  1.00  0.00    -0.199 C  
BRANCH  22  23
HETATM   23  C   UNL     1      -9.850   9.380  71.057  1.00  0.00    -0.247 C  
BRANCH  23  24
HETATM   24  N   UNL     1     -11.025   8.964  70.252  1.00  0.00    -0.241 NA 
HETATM   25  C   UNL     1     -11.858   7.941  70.904  1.00  0.00    -0.229 C  
HETATM   26  C   UNL     1     -12.466   8.436  72.213  1.00  0.00    -0.417 C  
HETATM   27  C   UNL     1     -13.244   9.738  72.021  1.00  0.00    -0.557 C  
HETATM   28  C   UNL     1     -12.541  10.755  71.117  1.00  0.00    -0.532 C  
HETATM   29  C   UNL     1     -11.878  10.109  69.899  1.00  0.00    -0.135 C  
ENDBRANCH  23  24
ENDBRANCH  22  23
ENDBRANCH  21  22
ENDBRANCH  19  21
ENDBRANCH   5  19
TORSDOF 6
ENDMDL
MODEL       37
REMARK 921   NORMALIZED FREE ENERGY PREDICTED BY IDOCK:   -6.66 KCAL/MOL
REMARK 922        TOTAL FREE ENERGY PREDICTED BY IDOCK:   -9.68 KCAL/MOL
REMARK 923 INTER-LIGAND FREE ENERGY PREDICTED BY IDOCK:   -8.69 KCAL/MOL
REMARK 924 INTRA-LIGAND FREE ENERGY PREDICTED BY IDOCK:   -1.00 KCAL/MOL
REMARK 927      BINDING AFFINITY PREDICTED BY RF-SCORE:    0.00 PKD
ROOT
HETATM    1  C   UNL     1      -9.668   8.078  67.907  1.00  0.00    -0.189 C  
HETATM    2  C   UNL     1     -10.331   9.418  68.020  1.00  0.00    -0.267 C  
HETATM    3  C   UNL     1     -10.757  10.017  69.147  1.00  0.00    -0.220 C  
HETATM    4  O   UNL     1     -11.253  11.305  69.213  1.00  0.00    -0.232 OA 
HETATM    5  C   UNL     1     -11.897  13.345  68.137  1.00  0.00    -0.396 A  
HETATM    6  C   UNL     1     -12.193  14.036  66.941  1.00  0.00    -0.415 A  
HETATM    7  C   UNL     1     -11.412  12.033  68.063  1.00  0.00    -0.328 A  
HETATM    8  C   UNL     1     -11.141  11.480  66.813  1.00  0.00    -0.361 A  
HETATM    9  C   UNL     1     -11.981  13.447  65.696  1.00  0.00    -0.439 A  
HETATM   10  O   UNL     1     -10.216   9.659  65.664  1.00  0.00    -0.253 OA 
HETATM   11  C   UNL     1     -11.430  12.175  65.632  1.00  0.00    -0.408 A  
HETATM   12  C   UNL     1     -10.530  10.144  66.743  1.00  0.00    -0.204 C  
ENDROOT
BRANCH   3  13
HETATM   13  C   UNL     1     -10.787   9.341  70.452  1.00  0.00    -0.302 A  
HETATM   14  C   UNL     1      -9.596   8.389  72.349  1.00  0.00    -0.373 A  
HETATM   15  C   UNL     1     -12.004   8.239  72.240  1.00  0.00    -0.448 A  
HETATM   16  C   UNL     1     -11.995   8.918  71.017  1.00  0.00    -0.307 A  
HETATM   17  C   UNL     1      -9.586   9.071  71.129  1.00  0.00    -0.356 A  
HETATM   18  C   UNL     1     -10.805   7.972  72.903  1.00  0.00    -0.399 A  
ENDBRANCH   3  13
BRANCH   5  19
HETATM   19  C   UNL     1     -12.155  13.984  69.462  1.00  0.00    -0.347 C  
HETATM   20  O   UNL     1     -12.510  13.426  70.488  1.00  0.00    -0.323 OA 
BRANCH  19  21
HETATM   21  O   UNL     1     -11.984  15.328  69.345  1.00  0.00    -0.321 OA 
BRANCH  21  22
HETATM   22  C   UNL     1     -11.008  15.853  70.250  1.00  0.00    -0.362 C  
BRANCH  22  23
HETATM   23  C   UNL     1      -9.605  15.526  69.701  1.00  0.00    -0.262 C  
BRANCH  23  24
HETATM   24  N   UNL     1      -9.231  16.239  68.454  1.00  0.00    -0.197 NA 
HETATM   25  C   UNL     1      -8.175  17.246  68.641  1.00  0.00    -0.262 C  
HETATM   26  C   UNL     1      -6.863  16.630  69.119  1.00  0.00    -0.224 C  
HETATM   27  C   UNL     1      -6.394  15.506  68.196  1.00  0.00    -0.133 C  
HETATM   28  C   UNL     1      -7.514  14.566  67.741  1.00  0.00    -0.182 C  
HETATM   29  C   UNL     1      -8.809  15.306  67.399  1.00  0.00    -0.179 C  
ENDBRANCH  23  24
ENDBRANCH  22  23
ENDBRANCH  21  22
ENDBRANCH  19  21
ENDBRANCH   5  19
TORSDOF 6
ENDMDL
MODEL       38
REMARK 921   NORMALIZED FREE ENERGY PREDICTED BY IDOCK:   -6.65 KCAL/MOL
REMARK 922        TOTAL FREE ENERGY PREDICTED BY IDOCK:   -9.68 KCAL/MOL
REMARK 923 INTER-LIGAND FREE ENERGY PREDICTED BY IDOCK:   -8.41 KCAL/MOL
REMARK 924 INTRA-LIGAND FREE ENERGY PREDICTED BY IDOCK:   -1.26 KCAL/MOL
REMARK 927      BINDING AFFINITY PREDICTED BY RF-SCORE:    0.00 PKD
ROOT
HETATM    1  C   UNL     1     -12.528  12.287  63.517  1.00  0.00    -0.642 C  
HETATM    2  C   UNL     1     -11.737  12.697  64.722  1.00  0.00    -0.402 C  
HETATM    3  C   UNL     1     -10.490  12.304  65.044  1.00  0.00    -0.290 C  
HETATM    4  O   UNL     1      -9.758  12.804  66.103  1.00  0.00    -0.258 OA 
HETATM    5  C   UNL     1      -9.576  14.226  68.020  1.00  0.00    -0.223 A  
HETATM    6  C   UNL     1     -10.214  15.044  68.979  1.00  0.00    -0.242 A  
HETATM    7  C   UNL     1     -10.329  13.708  66.959  1.00  0.00    -0.260 A  
HETATM    8  C   UNL     1     -11.661  14.093  66.822  1.00  0.00    -0.432 A  
HETATM    9  C   UNL     1     -11.565  15.369  68.868  1.00  0.00    -0.369 A  
HETATM   10  O   UNL     1     -13.567  14.010  65.460  1.00  0.00    -0.596 OA 
HETATM   11  C   UNL     1     -12.284  14.912  67.773  1.00  0.00     0.081 A  
HETATM   12  C   UNL     1     -12.417  13.635  65.646  1.00  0.00    -0.496 C  
ENDROOT
BRANCH   3  13
HETATM   13  C   UNL     1      -9.771  11.247  64.318  1.00  0.00    -0.295 A  
HETATM   14  C   UNL     1      -8.741   9.042  64.302  1.00  0.00    -0.140 A  
HETATM   15  C   UNL     1      -8.622  10.442  62.338  1.00  0.00    -0.242 A  
HETATM   16  C   UNL     1      -9.342  11.441  63.001  1.00  0.00    -0.344 A  
HETATM   17  C   UNL     1      -9.464  10.038  64.964  1.00  0.00    -0.339 A  
HETATM   18  C   UNL     1      -8.319   9.245  62.988  1.00  0.00    -0.195 A  
ENDBRANCH   3  13
BRANCH   5  19
HETATM   19  C   UNL     1      -8.134  13.871  68.171  1.00  0.00    -0.150 C  
HETATM   20  O   UNL     1      -7.671  12.950  68.826  1.00  0.00    -0.093 OA 
BRANCH  19  21
HETATM   21  O   UNL     1      -7.381  14.780  67.496  1.00  0.00    -0.175 OA 
BRANCH  21  22
HETATM   22  C   UNL     1      -6.646  15.654  68.358  1.00  0.00    -0.116 C  
BRANCH  22  23
HETATM   23  C   UNL     1      -7.566  16.819  68.775  1.00  0.00    -0.240 C  
BRANCH  23  24
HETATM   24  N   UNL     1      -7.449  18.045  67.948  1.00  0.00    -0.218 NA 
HETATM   25  C   UNL     1      -7.877  17.863  66.553  1.00  0.00    -0.264 C  
HETATM   26  C   UNL     1      -9.351  17.485  66.442  1.00  0.00    -0.265 C  
HETATM   27  C   UNL     1     -10.250  18.487  67.166  1.00  0.00    -0.408 C  
HETATM   28  C   UNL     1      -9.715  18.930  68.530  1.00  0.00    -0.441 C  
HETATM   29  C   UNL     1      -8.203  19.167  68.528  1.00  0.00    -0.364 C  
ENDBRANCH  23  24
ENDBRANCH  22  23
ENDBRANCH  21  22
ENDBRANCH  19  21
ENDBRANCH   5  19
TORSDOF 6
ENDMDL
MODEL       39
REMARK 921   NORMALIZED FREE ENERGY PREDICTED BY IDOCK:   -6.64 KCAL/MOL
REMARK 922        TOTAL FREE ENERGY PREDICTED BY IDOCK:   -9.66 KCAL/MOL
REMARK 923 INTER-LIGAND FREE ENERGY PREDICTED BY IDOCK:   -8.58 KCAL/MOL
REMARK 924 INTRA-LIGAND FREE ENERGY PREDICTED BY IDOCK:   -1.09 KCAL/MOL
REMARK 927      BINDING AFFINITY PREDICTED BY RF-SCORE:    0.00 PKD
ROOT
HETATM    1  C   UNL     1     -12.102  15.000  68.349  1.00  0.00    -0.139 C  
HETATM    2  C   UNL     1     -11.913  13.633  68.933  1.00  0.00    -0.392 C  
HETATM    3  C   UNL     1     -12.149  13.255  70.203  1.00  0.00    -0.333 C  
HETATM    4  O   UNL     1     -12.074  11.954  70.662  1.00  0.00    -0.373 OA 
HETATM    5  C   UNL     1     -11.601   9.637  70.286  1.00  0.00    -0.255 A  
HETATM    6  C   UNL     1     -11.036   8.641  69.459  1.00  0.00    -0.067 A  
HETATM    7  C   UNL     1     -11.657  10.957  69.820  1.00  0.00    -0.322 A  
HETATM    8  C   UNL     1     -11.247  11.235  68.518  1.00  0.00    -0.311 A  
HETATM    9  C   UNL     1     -10.567   8.944  68.182  1.00  0.00    -0.211 A  
HETATM   10  O   UNL     1     -11.123  12.861  66.835  1.00  0.00    -0.264 OA 
HETATM   11  C   UNL     1     -10.696  10.239  67.701  1.00  0.00    -0.339 A  
HETATM   12  C   UNL     1     -11.410  12.600  67.996  1.00  0.00    -0.290 C  
ENDROOT
BRANCH   3  13
HETATM   13  C   UNL     1     -12.476  14.206  71.275  1.00  0.00    -0.446 A  
HETATM   14  C   UNL     1     -14.144  15.343  72.634  1.00  0.00    -0.519 A  
HETATM   15  C   UNL     1     -11.806  15.888  72.892  1.00  0.00    -0.566 A  
HETATM   16  C   UNL     1     -11.476  14.956  71.903  1.00  0.00    -0.251 A  
HETATM   17  C   UNL     1     -13.815  14.408  71.649  1.00  0.00    -0.492 A  
HETATM   18  C   UNL     1     -13.139  16.083  73.255  1.00  0.00    -0.658 A  
ENDBRANCH   3  13
BRANCH   5  19
HETATM   19  C   UNL     1     -12.076   9.297  71.660  1.00  0.00    -0.379 C  
HETATM   20  O   UNL     1     -13.223   9.353  72.074  1.00  0.00    -0.384 OA 
BRANCH  19  21
HETATM   21  O   UNL     1     -11.005   8.956  72.426  1.00  0.00    -0.273 OA 
BRANCH  21  22
HETATM   22  C   UNL     1     -11.140   7.674  73.045  1.00  0.00    -0.381 C  
BRANCH  22  23
HETATM   23  C   UNL     1      -9.746   7.202  73.504  1.00  0.00    -0.251 C  
BRANCH  23  24
HETATM   24  N   UNL     1      -8.600   7.906  72.875  1.00  0.00    -0.161 NA 
HETATM   25  C   UNL     1      -7.496   8.190  73.805  1.00  0.00    -0.164 C  
HETATM   26  C   UNL     1      -6.877   6.918  74.375  1.00  0.00    -0.086 C  
HETATM   27  C   UNL     1      -6.433   5.958  73.271  1.00  0.00    -0.072 C  
HETATM   28  C   UNL     1      -7.438   5.824  72.123  1.00  0.00    -0.096 C  
HETATM   29  C   UNL     1      -8.067   7.160  71.725  1.00  0.00    -0.101 C  
ENDBRANCH  23  24
ENDBRANCH  22  23
ENDBRANCH  21  22
ENDBRANCH  19  21
ENDBRANCH   5  19
TORSDOF 6
ENDMDL
MODEL       40
REMARK 921   NORMALIZED FREE ENERGY PREDICTED BY IDOCK:   -6.63 KCAL/MOL
REMARK 922        TOTAL FREE ENERGY PREDICTED BY IDOCK:   -9.65 KCAL/MOL
REMARK 923 INTER-LIGAND FREE ENERGY PREDICTED BY IDOCK:   -8.55 KCAL/MOL
REMARK 924 INTRA-LIGAND FREE ENERGY PREDICTED BY IDOCK:   -1.10 KCAL/MOL
REMARK 927      BINDING AFFINITY PREDICTED BY RF-SCORE:    0.00 PKD
ROOT
HETATM    1  C   UNL     1      -8.129   8.516  63.992  1.00  0.00    -0.156 C  
HETATM    2  C   UNL     1      -9.123   9.471  64.582  1.00  0.00    -0.263 C  
HETATM    3  C   UNL     1      -9.553   9.507  65.857  1.00  0.00    -0.261 C  
HETATM    4  O   UNL     1     -10.378  10.484  66.379  1.00  0.00    -0.232 OA 
HETATM    5  C   UNL     1     -11.703  12.458  66.100  1.00  0.00    -0.460 A  
HETATM    6  C   UNL     1     -12.333  13.374  65.228  1.00  0.00    -0.513 A  
HETATM    7  C   UNL     1     -10.882  11.460  65.561  1.00  0.00    -0.220 A  
HETATM    8  C   UNL     1     -10.628  11.457  64.191  1.00  0.00    -0.430 A  
HETATM    9  C   UNL     1     -12.124  13.321  63.851  1.00  0.00    -0.531 A  
HETATM   10  O   UNL     1      -9.382  10.491  62.457  1.00  0.00    -0.275 OA 
HETATM   11  C   UNL     1     -11.250  12.375  63.334  1.00  0.00    -0.492 A  
HETATM   12  C   UNL     1      -9.679  10.476  63.644  1.00  0.00    -0.318 C  
ENDROOT
BRANCH   3  13
HETATM   13  C   UNL     1      -9.224   8.468  66.843  1.00  0.00    -0.197 A  
HETATM   14  C   UNL     1      -7.718   7.589  68.540  1.00  0.00    -0.120 A  
HETATM   15  C   UNL     1      -9.673   6.328  67.895  1.00  0.00    -0.123 A  
HETATM   16  C   UNL     1     -10.022   7.328  66.981  1.00  0.00    -0.293 A  
HETATM   17  C   UNL     1      -8.068   8.591  67.631  1.00  0.00    -0.107 A  
HETATM   18  C   UNL     1      -8.521   6.457  68.671  1.00  0.00    -0.123 A  
ENDBRANCH   3  13
BRANCH   5  19
HETATM   19  C   UNL     1     -11.960  12.518  67.570  1.00  0.00    -0.219 C  
HETATM   20  O   UNL     1     -12.236  11.582  68.304  1.00  0.00    -0.561 OA 
BRANCH  19  21
HETATM   21  O   UNL     1     -11.892  13.813  67.979  1.00  0.00    -0.341 OA 
BRANCH  21  22
HETATM   22  C   UNL     1     -10.586  14.197  68.419  1.00  0.00    -0.259 C  
BRANCH  22  23
HETATM   23  C   UNL     1     -10.308  15.633  67.932  1.00  0.00    -0.259 C  
BRANCH  23  24
HETATM   24  N   UNL     1      -9.787  15.743  66.548  1.00  0.00    -0.255 NA 
HETATM   25  C   UNL     1     -10.506  16.723  65.719  1.00  0.00    -0.292 C  
HETATM   26  C   UNL     1     -10.390  18.142  66.268  1.00  0.00    -0.407 C  
HETATM   27  C   UNL     1      -8.933  18.556  66.470  1.00  0.00    -0.300 C  
HETATM   28  C   UNL     1      -8.056  17.465  67.090  1.00  0.00    -0.229 C  
HETATM   29  C   UNL     1      -8.354  16.073  66.529  1.00  0.00    -0.313 C  
ENDBRANCH  23  24
ENDBRANCH  22  23
ENDBRANCH  21  22
ENDBRANCH  19  21
ENDBRANCH   5  19
TORSDOF 6
ENDMDL
MODEL       41
REMARK 921   NORMALIZED FREE ENERGY PREDICTED BY IDOCK:   -6.62 KCAL/MOL
REMARK 922        TOTAL FREE ENERGY PREDICTED BY IDOCK:   -9.63 KCAL/MOL
REMARK 923 INTER-LIGAND FREE ENERGY PREDICTED BY IDOCK:   -8.48 KCAL/MOL
REMARK 924 INTRA-LIGAND FREE ENERGY PREDICTED BY IDOCK:   -1.15 KCAL/MOL
REMARK 927      BINDING AFFINITY PREDICTED BY RF-SCORE:    0.00 PKD
ROOT
HETATM    1  C   UNL     1     -12.330  11.820  63.700  1.00  0.00    -0.488 C  
HETATM    2  C   UNL     1     -11.522  12.754  64.550  1.00  0.00    -0.389 C  
HETATM    3  C   UNL     1     -10.591  12.419  65.462  1.00  0.00    -0.275 C  
HETATM    4  O   UNL     1      -9.788  13.321  66.132  1.00  0.00    -0.283 OA 
HETATM    5  C   UNL     1      -9.141  15.575  66.613  1.00  0.00    -0.310 A  
HETATM    6  C   UNL     1      -9.427  16.956  66.527  1.00  0.00    -0.296 A  
HETATM    7  C   UNL     1      -9.970  14.666  65.945  1.00  0.00    -0.328 A  
HETATM    8  C   UNL     1     -10.994  15.151  65.135  1.00  0.00    -0.428 A  
HETATM    9  C   UNL     1     -10.495  17.426  65.767  1.00  0.00    -0.221 A  
HETATM   10  O   UNL     1     -12.654  14.596  63.575  1.00  0.00    -0.705 OA 
HETATM   11  C   UNL     1     -11.266  16.522  65.048  1.00  0.00    -0.091 A  
HETATM   12  C   UNL     1     -11.793  14.198  64.349  1.00  0.00    -0.428 C  
ENDROOT
BRANCH   3  13
HETATM   13  C   UNL     1     -10.350  11.033  65.888  1.00  0.00    -0.315 A  
HETATM   14  C   UNL     1     -10.647   9.262  67.531  1.00  0.00    -0.329 A  
HETATM   15  C   UNL     1      -9.280   8.876  65.578  1.00  0.00    -0.242 A  
HETATM   16  C   UNL     1      -9.534  10.180  65.138  1.00  0.00    -0.319 A  
HETATM   17  C   UNL     1     -10.905  10.562  67.090  1.00  0.00    -0.319 A  
HETATM   18  C   UNL     1      -9.833   8.419  66.775  1.00  0.00    -0.329 A  
ENDBRANCH   3  13
BRANCH   5  19
HETATM   19  C   UNL     1      -8.005  15.090  67.454  1.00  0.00    -0.194 C  
HETATM   20  O   UNL     1      -8.082  14.546  68.544  1.00  0.00    -0.136 OA 
BRANCH  19  21
HETATM   21  O   UNL     1      -6.834  15.399  66.836  1.00  0.00    -0.212 OA 
BRANCH  21  22
HETATM   22  C   UNL     1      -6.015  16.293  67.595  1.00  0.00    -0.146 C  
BRANCH  22  23
HETATM   23  C   UNL     1      -5.799  17.578  66.770  1.00  0.00    -0.177 C  
BRANCH  23  24
HETATM   24  N   UNL     1      -5.413  18.776  67.555  1.00  0.00    -0.158 NA 
HETATM   25  C   UNL     1      -5.636  20.046  66.847  1.00  0.00    -0.170 C  
HETATM   26  C   UNL     1      -7.109  20.279  66.524  1.00  0.00    -0.297 C  
HETATM   27  C   UNL     1      -7.986  20.184  67.772  1.00  0.00    -0.301 C  
HETATM   28  C   UNL     1      -7.622  19.022  68.701  1.00  0.00    -0.372 C  
HETATM   29  C   UNL     1      -6.111  18.830  68.848  1.00  0.00    -0.226 C  
ENDBRANCH  23  24
ENDBRANCH  22  23
ENDBRANCH  21  22
ENDBRANCH  19  21
ENDBRANCH   5  19
TORSDOF 6
ENDMDL
MODEL       42
REMARK 921   NORMALIZED FREE ENERGY PREDICTED BY IDOCK:   -6.56 KCAL/MOL
REMARK 922        TOTAL FREE ENERGY PREDICTED BY IDOCK:   -9.55 KCAL/MOL
REMARK 923 INTER-LIGAND FREE ENERGY PREDICTED BY IDOCK:   -8.87 KCAL/MOL
REMARK 924 INTRA-LIGAND FREE ENERGY PREDICTED BY IDOCK:   -0.68 KCAL/MOL
REMARK 927      BINDING AFFINITY PREDICTED BY RF-SCORE:    0.00 PKD
ROOT
HETATM    1  C   UNL     1     -10.704  17.784  65.423  1.00  0.00     0.085 C  
HETATM    2  C   UNL     1     -10.576  16.292  65.373  1.00  0.00    -0.371 C  
HETATM    3  C   UNL     1      -9.707  15.530  66.064  1.00  0.00    -0.345 C  
HETATM    4  O   UNL     1      -9.710  14.149  66.074  1.00  0.00    -0.301 OA 
HETATM    5  C   UNL     1     -10.600  12.063  65.307  1.00  0.00    -0.328 A  
HETATM    6  C   UNL     1     -11.407  11.364  64.382  1.00  0.00    -0.214 A  
HETATM    7  C   UNL     1     -10.590  13.463  65.278  1.00  0.00    -0.325 A  
HETATM    8  C   UNL     1     -11.449  14.130  64.407  1.00  0.00    -0.344 A  
HETATM    9  C   UNL     1     -12.213  12.042  63.469  1.00  0.00    -0.653 A  
HETATM   10  O   UNL     1     -12.308  16.211  63.755  1.00  0.00    -0.864 OA 
HETATM   11  C   UNL     1     -12.252  13.429  63.499  1.00  0.00    -0.468 A  
HETATM   12  C   UNL     1     -11.514  15.599  64.458  1.00  0.00    -0.300 C  
ENDROOT
BRANCH   3  13
HETATM   13  C   UNL     1      -8.610  16.092  66.865  1.00  0.00    -0.263 A  
HETATM   14  C   UNL     1      -7.418  16.235  68.981  1.00  0.00    -0.220 A  
HETATM   15  C   UNL     1      -6.751  17.629  67.127  1.00  0.00    -0.192 A  
HETATM   16  C   UNL     1      -7.765  17.074  66.339  1.00  0.00    -0.350 A  
HETATM   17  C   UNL     1      -8.428  15.676  68.194  1.00  0.00    -0.147 A  
HETATM   18  C   UNL     1      -6.580  17.212  68.448  1.00  0.00    -0.164 A  
ENDBRANCH   3  13
BRANCH   5  19
HETATM   19  C   UNL     1      -9.726  11.317  66.260  1.00  0.00    -0.216 C  
HETATM   20  O   UNL     1      -8.519  11.152  66.171  1.00  0.00    -0.169 OA 
BRANCH  19  21
HETATM   21  O   UNL     1     -10.498  10.784  67.244  1.00  0.00    -0.211 OA 
BRANCH  21  22
HETATM   22  C   UNL     1     -10.041   9.503  67.687  1.00  0.00    -0.205 C  
BRANCH  22  23
HETATM   23  C   UNL     1     -10.790   9.139  68.986  1.00  0.00    -0.090 C  
BRANCH  23  24
HETATM   24  N   UNL     1     -10.562  10.059  70.127  1.00  0.00    -0.282 NA 
HETATM   25  C   UNL     1     -11.681  10.981  70.377  1.00  0.00    -0.343 C  
HETATM   26  C   UNL     1     -12.966  10.247  70.749  1.00  0.00    -0.408 C  
HETATM   27  C   UNL     1     -12.757   9.300  71.931  1.00  0.00    -0.474 C  
HETATM   28  C   UNL     1     -11.456   8.496  71.862  1.00  0.00    -0.405 C  
HETATM   29  C   UNL     1     -10.270   9.326  71.368  1.00  0.00    -0.301 C  
ENDBRANCH  23  24
ENDBRANCH  22  23
ENDBRANCH  21  22
ENDBRANCH  19  21
ENDBRANCH   5  19
TORSDOF 6
ENDMDL
MODEL       43
REMARK 921   NORMALIZED FREE ENERGY PREDICTED BY IDOCK:   -6.56 KCAL/MOL
REMARK 922        TOTAL FREE ENERGY PREDICTED BY IDOCK:   -9.54 KCAL/MOL
REMARK 923 INTER-LIGAND FREE ENERGY PREDICTED BY IDOCK:   -8.32 KCAL/MOL
REMARK 924 INTRA-LIGAND FREE ENERGY PREDICTED BY IDOCK:   -1.22 KCAL/MOL
REMARK 927      BINDING AFFINITY PREDICTED BY RF-SCORE:    0.00 PKD
ROOT
HETATM    1  C   UNL     1     -12.638   6.522  72.061  1.00  0.00    -0.212 C  
HETATM    2  C   UNL     1     -12.309   7.836  71.419  1.00  0.00    -0.346 C  
HETATM    3  C   UNL     1     -11.498   8.042  70.364  1.00  0.00    -0.135 C  
HETATM    4  O   UNL     1     -11.323   9.259  69.734  1.00  0.00    -0.149 OA 
HETATM    5  C   UNL     1     -11.769  11.606  69.578  1.00  0.00    -0.410 A  
HETATM    6  C   UNL     1     -12.285  12.777  70.176  1.00  0.00    -0.320 A  
HETATM    7  C   UNL     1     -11.936  10.379  70.231  1.00  0.00    -0.302 A  
HETATM    8  C   UNL     1     -12.690  10.331  71.402  1.00  0.00    -0.547 A  
HETATM    9  C   UNL     1     -12.980  12.726  71.382  1.00  0.00    -0.359 A  
HETATM   10  O   UNL     1     -13.671   8.941  73.015  1.00  0.00    -0.264 OA 
HETATM   11  C   UNL     1     -13.205  11.496  71.984  1.00  0.00    -0.443 A  
HETATM   12  C   UNL     1     -12.955   9.025  72.025  1.00  0.00    -0.407 C  
ENDROOT
BRANCH   3  13
HETATM   13  C   UNL     1     -10.659   6.986  69.781  1.00  0.00    -0.253 A  
HETATM   14  C   UNL     1     -10.239   5.387  67.995  1.00  0.00    -0.221 A  
HETATM   15  C   UNL     1      -8.777   5.459  69.915  1.00  0.00    -0.128 A  
HETATM   16  C   UNL     1      -9.542   6.493  70.464  1.00  0.00    -0.180 A  
HETATM   17  C   UNL     1     -11.001   6.423  68.540  1.00  0.00    -0.396 A  
HETATM   18  C   UNL     1      -9.127   4.904  68.683  1.00  0.00    -0.145 A  
ENDBRANCH   3  13
BRANCH   5  19
HETATM   19  C   UNL     1     -11.005  11.685  68.297  1.00  0.00    -0.226 C  
HETATM   20  O   UNL     1     -11.376  11.304  67.198  1.00  0.00    -0.379 OA 
BRANCH  19  21
HETATM   21  O   UNL     1      -9.777  12.211  68.547  1.00  0.00    -0.206 OA 
BRANCH  21  22
HETATM   22  C   UNL     1      -9.051  12.538  67.359  1.00  0.00    -0.185 C  
BRANCH  22  23
HETATM   23  C   UNL     1      -8.809  14.061  67.336  1.00  0.00    -0.206 C  
BRANCH  23  24
HETATM   24  N   UNL     1      -9.652  14.822  66.382  1.00  0.00    -0.285 NA 
HETATM   25  C   UNL     1     -11.041  15.001  66.831  1.00  0.00    -0.331 C  
HETATM   26  C   UNL     1     -11.134  15.805  68.124  1.00  0.00    -0.341 C  
HETATM   27  C   UNL     1     -10.415  17.149  68.009  1.00  0.00    -0.369 C  
HETATM   28  C   UNL     1      -9.061  17.072  67.299  1.00  0.00    -0.229 C  
HETATM   29  C   UNL     1      -9.080  16.143  66.083  1.00  0.00    -0.347 C  
ENDBRANCH  23  24
ENDBRANCH  22  23
ENDBRANCH  21  22
ENDBRANCH  19  21
ENDBRANCH   5  19
TORSDOF 6
ENDMDL
MODEL       44
REMARK 921   NORMALIZED FREE ENERGY PREDICTED BY IDOCK:   -6.54 KCAL/MOL
REMARK 922        TOTAL FREE ENERGY PREDICTED BY IDOCK:   -9.53 KCAL/MOL
REMARK 923 INTER-LIGAND FREE ENERGY PREDICTED BY IDOCK:   -7.75 KCAL/MOL
REMARK 924 INTRA-LIGAND FREE ENERGY PREDICTED BY IDOCK:   -1.77 KCAL/MOL
REMARK 927      BINDING AFFINITY PREDICTED BY RF-SCORE:    0.00 PKD
ROOT
HETATM    1  C   UNL     1      -5.929  17.928  69.080  1.00  0.00    -0.212 C  
HETATM    2  C   UNL     1      -6.758  16.736  68.709  1.00  0.00    -0.185 C  
HETATM    3  C   UNL     1      -7.925  16.739  68.038  1.00  0.00    -0.178 C  
HETATM    4  O   UNL     1      -8.591  15.604  67.615  1.00  0.00    -0.162 OA 
HETATM    5  C   UNL     1      -8.775  13.220  67.500  1.00  0.00    -0.202 A  
HETATM    6  C   UNL     1      -8.353  11.954  67.965  1.00  0.00    -0.160 A  
HETATM    7  C   UNL     1      -8.107  14.366  67.947  1.00  0.00    -0.151 A  
HETATM    8  C   UNL     1      -6.983  14.223  68.759  1.00  0.00    -0.102 A  
HETATM    9  C   UNL     1      -7.269  11.828  68.830  1.00  0.00    -0.107 A  
HETATM   10  O   UNL     1      -5.190  15.324  69.790  1.00  0.00    -0.095 OA 
HETATM   11  C   UNL     1      -6.566  12.964  69.208  1.00  0.00    -0.085 A  
HETATM   12  C   UNL     1      -6.220  15.422  69.136  1.00  0.00    -0.110 C  
ENDROOT
BRANCH   3  13
HETATM   13  C   UNL     1      -8.659  17.970  67.713  1.00  0.00    -0.244 A  
HETATM   14  C   UNL     1     -10.400  19.581  68.259  1.00  0.00    -0.524 A  
HETATM   15  C   UNL     1      -9.144  19.813  66.209  1.00  0.00    -0.444 A  
HETATM   16  C   UNL     1      -8.408  18.666  66.525  1.00  0.00    -0.304 A  
HETATM   17  C   UNL     1      -9.662  18.437  68.577  1.00  0.00    -0.386 A  
HETATM   18  C   UNL     1     -10.141  20.268  67.073  1.00  0.00    -0.567 A  
ENDBRANCH   3  13
BRANCH   5  19
HETATM   19  C   UNL     1      -9.955  13.336  66.592  1.00  0.00    -0.272 C  
HETATM   20  O   UNL     1      -9.935  13.480  65.380  1.00  0.00    -0.273 OA 
BRANCH  19  21
HETATM   21  O   UNL     1     -11.091  13.311  67.338  1.00  0.00    -0.265 OA 
BRANCH  21  22
HETATM   22  C   UNL     1     -11.890  14.488  67.189  1.00  0.00    -0.387 C  
BRANCH  22  23
HETATM   23  C   UNL     1     -11.928  15.229  68.541  1.00  0.00    -0.201 C  
BRANCH  23  24
HETATM   24  N   UNL     1     -11.311  14.503  69.678  1.00  0.00    -0.265 NA 
HETATM   25  C   UNL     1     -10.673  15.385  70.668  1.00  0.00    -0.219 C  
HETATM   26  C   UNL     1     -11.671  16.328  71.333  1.00  0.00    -0.427 C  
HETATM   27  C   UNL     1     -12.846  15.570  71.949  1.00  0.00    -0.504 C  
HETATM   28  C   UNL     1     -13.390  14.443  71.066  1.00  0.00    -0.359 C  
HETATM   29  C   UNL     1     -12.285  13.646  70.371  1.00  0.00    -0.363 C  
ENDBRANCH  23  24
ENDBRANCH  22  23
ENDBRANCH  21  22
ENDBRANCH  19  21
ENDBRANCH   5  19
TORSDOF 6
ENDMDL
MODEL       45
REMARK 921   NORMALIZED FREE ENERGY PREDICTED BY IDOCK:   -6.54 KCAL/MOL
REMARK 922        TOTAL FREE ENERGY PREDICTED BY IDOCK:   -9.53 KCAL/MOL
REMARK 923 INTER-LIGAND FREE ENERGY PREDICTED BY IDOCK:   -8.43 KCAL/MOL
REMARK 924 INTRA-LIGAND FREE ENERGY PREDICTED BY IDOCK:   -1.10 KCAL/MOL
REMARK 927      BINDING AFFINITY PREDICTED BY RF-SCORE:    0.00 PKD
ROOT
HETATM    1  C   UNL     1      -9.254   5.530  70.334  1.00  0.00    -0.182 C  
HETATM    2  C   UNL     1      -9.896   6.882  70.260  1.00  0.00    -0.186 C  
HETATM    3  C   UNL     1      -9.649   7.846  69.353  1.00  0.00    -0.160 C  
HETATM    4  O   UNL     1     -10.354   9.030  69.255  1.00  0.00    -0.209 OA 
HETATM    5  C   UNL     1     -12.053  10.514  70.057  1.00  0.00    -0.351 A  
HETATM    6  C   UNL     1     -12.954  10.873  71.084  1.00  0.00    -0.449 A  
HETATM    7  C   UNL     1     -11.329   9.321  70.172  1.00  0.00    -0.164 A  
HETATM    8  C   UNL     1     -11.588   8.472  71.246  1.00  0.00    -0.332 A  
HETATM    9  C   UNL     1     -13.156  10.047  72.188  1.00  0.00    -0.482 A  
HETATM   10  O   UNL     1     -11.163   6.373  72.198  1.00  0.00    -0.251 OA 
HETATM   11  C   UNL     1     -12.490   8.831  72.257  1.00  0.00    -0.455 A  
HETATM   12  C   UNL     1     -10.906   7.171  71.306  1.00  0.00    -0.233 C  
ENDROOT
BRANCH   3  13
HETATM   13  C   UNL     1      -8.554   7.767  68.377  1.00  0.00    -0.128 A  
HETATM   14  C   UNL     1      -7.773   7.207  66.141  1.00  0.00    -0.098 A  
HETATM   15  C   UNL     1      -6.200   7.955  67.813  1.00  0.00    -0.051 A  
HETATM   16  C   UNL     1      -7.239   8.075  68.742  1.00  0.00    -0.083 A  
HETATM   17  C   UNL     1      -8.812   7.331  67.067  1.00  0.00    -0.130 A  
HETATM   18  C   UNL     1      -6.467   7.518  66.515  1.00  0.00    -0.049 A  
ENDBRANCH   3  13
BRANCH   5  19
HETATM   19  C   UNL     1     -11.833  11.426  68.894  1.00  0.00    -0.347 C  
HETATM   20  O   UNL     1     -12.162  11.227  67.736  1.00  0.00    -0.504 OA 
BRANCH  19  21
HETATM   21  O   UNL     1     -11.143  12.519  69.315  1.00  0.00    -0.220 OA 
BRANCH  21  22
HETATM   22  C   UNL     1     -11.897  13.731  69.220  1.00  0.00    -0.344 C  
BRANCH  22  23
HETATM   23  C   UNL     1     -11.464  14.668  70.367  1.00  0.00    -0.229 C  
BRANCH  23  24
HETATM   24  N   UNL     1     -12.489  15.646  70.807  1.00  0.00    -0.437 NA 
HETATM   25  C   UNL     1     -13.779  15.033  71.163  1.00  0.00    -0.414 C  
HETATM   26  C   UNL     1     -13.659  14.072  72.341  1.00  0.00    -0.658 C  
HETATM   27  C   UNL     1     -13.014  14.739  73.555  1.00  0.00    -0.449 C  
HETATM   28  C   UNL     1     -11.810  15.621  73.214  1.00  0.00    -0.507 C  
HETATM   29  C   UNL     1     -12.021  16.451  71.945  1.00  0.00    -0.324 C  
ENDBRANCH  23  24
ENDBRANCH  22  23
ENDBRANCH  21  22
ENDBRANCH  19  21
ENDBRANCH   5  19
TORSDOF 6
ENDMDL
MODEL       46
REMARK 921   NORMALIZED FREE ENERGY PREDICTED BY IDOCK:   -6.54 KCAL/MOL
REMARK 922        TOTAL FREE ENERGY PREDICTED BY IDOCK:   -9.52 KCAL/MOL
REMARK 923 INTER-LIGAND FREE ENERGY PREDICTED BY IDOCK:   -7.58 KCAL/MOL
REMARK 924 INTRA-LIGAND FREE ENERGY PREDICTED BY IDOCK:   -1.94 KCAL/MOL
REMARK 927      BINDING AFFINITY PREDICTED BY RF-SCORE:    0.00 PKD
ROOT
HETATM    1  C   UNL     1     -12.592   6.812  71.689  1.00  0.00    -0.380 C  
HETATM    2  C   UNL     1     -12.269   8.165  71.131  1.00  0.00    -0.257 C  
HETATM    3  C   UNL     1     -11.431   8.443  70.115  1.00  0.00     0.012 C  
HETATM    4  O   UNL     1     -11.260   9.696  69.558  1.00  0.00    -0.205 OA 
HETATM    5  C   UNL     1     -11.746  12.040  69.517  1.00  0.00    -0.408 A  
HETATM    6  C   UNL     1     -12.301  13.167  70.162  1.00  0.00    -0.284 A  
HETATM    7  C   UNL     1     -11.909  10.775  70.097  1.00  0.00    -0.343 A  
HETATM    8  C   UNL     1     -12.697  10.649  71.239  1.00  0.00    -0.537 A  
HETATM    9  C   UNL     1     -13.032  13.037  71.342  1.00  0.00    -0.373 A  
HETATM   10  O   UNL     1     -13.699   9.156  72.742  1.00  0.00    -0.434 OA 
HETATM   11  C   UNL     1     -13.252  11.772  71.868  1.00  0.00    -0.468 A  
HETATM   12  C   UNL     1     -12.955   9.307  71.781  1.00  0.00    -0.396 C  
ENDROOT
BRANCH   3  13
HETATM   13  C   UNL     1     -10.555   7.435  69.501  1.00  0.00    -0.244 A  
HETATM   14  C   UNL     1     -10.185   5.730  67.804  1.00  0.00    -0.234 A  
HETATM   15  C   UNL     1      -8.498   6.146  69.481  1.00  0.00    -0.120 A  
HETATM   16  C   UNL     1      -9.304   7.137  70.052  1.00  0.00    -0.154 A  
HETATM   17  C   UNL     1     -10.989   6.723  68.371  1.00  0.00    -0.257 A  
HETATM   18  C   UNL     1      -8.940   5.441  68.360  1.00  0.00    -0.113 A  
ENDBRANCH   3  13
BRANCH   5  19
HETATM   19  C   UNL     1     -10.945  12.204  68.268  1.00  0.00    -0.234 C  
HETATM   20  O   UNL     1      -9.813  12.652  68.176  1.00  0.00    -0.215 OA 
BRANCH  19  21
HETATM   21  O   UNL     1     -11.701  11.819  67.205  1.00  0.00    -0.547 OA 
BRANCH  21  22
HETATM   22  C   UNL     1     -10.973  11.800  65.973  1.00  0.00    -0.306 C  
BRANCH  22  23
HETATM   23  C   UNL     1     -10.173  10.484  65.898  1.00  0.00    -0.245 C  
BRANCH  23  24
HETATM   24  N   UNL     1      -8.759  10.625  65.471  1.00  0.00    -0.185 NA 
HETATM   25  C   UNL     1      -7.809  10.724  66.589  1.00  0.00    -0.140 C  
HETATM   26  C   UNL     1      -7.805   9.471  67.460  1.00  0.00    -0.102 C  
HETATM   27  C   UNL     1      -7.556   8.208  66.636  1.00  0.00    -0.093 C  
HETATM   28  C   UNL     1      -8.322   8.169  65.310  1.00  0.00    -0.160 C  
HETATM   29  C   UNL     1      -8.342   9.521  64.594  1.00  0.00    -0.157 C  
ENDBRANCH  23  24
ENDBRANCH  22  23
ENDBRANCH  21  22
ENDBRANCH  19  21
ENDBRANCH   5  19
TORSDOF 6
ENDMDL
MODEL       47
REMARK 921   NORMALIZED FREE ENERGY PREDICTED BY IDOCK:   -6.52 KCAL/MOL
REMARK 922        TOTAL FREE ENERGY PREDICTED BY IDOCK:   -9.49 KCAL/MOL
REMARK 923 INTER-LIGAND FREE ENERGY PREDICTED BY IDOCK:   -7.77 KCAL/MOL
REMARK 924 INTRA-LIGAND FREE ENERGY PREDICTED BY IDOCK:   -1.72 KCAL/MOL
REMARK 927      BINDING AFFINITY PREDICTED BY RF-SCORE:    0.00 PKD
ROOT
HETATM    1  C   UNL     1     -12.069  13.425  63.762  1.00  0.00    -0.516 C  
HETATM    2  C   UNL     1     -11.202  14.151  64.746  1.00  0.00    -0.379 C  
HETATM    3  C   UNL     1     -10.388  13.602  65.667  1.00  0.00    -0.300 C  
HETATM    4  O   UNL     1      -9.517  14.314  66.469  1.00  0.00    -0.272 OA 
HETATM    5  C   UNL     1      -8.607  16.398  67.216  1.00  0.00    -0.200 A  
HETATM    6  C   UNL     1      -8.698  17.807  67.259  1.00  0.00    -0.241 A  
HETATM    7  C   UNL     1      -9.504  15.683  66.414  1.00  0.00    -0.292 A  
HETATM    8  C   UNL     1     -10.397  16.382  65.604  1.00  0.00    -0.371 A  
HETATM    9  C   UNL     1      -9.640  18.494  66.495  1.00  0.00    -0.335 A  
HETATM   10  O   UNL     1     -12.007  16.218  63.909  1.00  0.00    -1.003 OA 
HETATM   11  C   UNL     1     -10.475  17.780  65.647  1.00  0.00    -0.132 A  
HETATM   12  C   UNL     1     -11.262  15.630  64.682  1.00  0.00    -0.369 C  
ENDROOT
BRANCH   3  13
HETATM   13  C   UNL     1     -10.364  12.161  65.959  1.00  0.00    -0.268 A  
HETATM   14  C   UNL     1     -10.841  10.322  67.479  1.00  0.00    -0.355 A  
HETATM   15  C   UNL     1      -9.725   9.893  65.381  1.00  0.00    -0.375 A  
HETATM   16  C   UNL     1      -9.776  11.255  65.070  1.00  0.00    -0.293 A  
HETATM   17  C   UNL     1     -10.897  11.683  67.167  1.00  0.00    -0.306 A  
HETATM   18  C   UNL     1     -10.253   9.427  66.586  1.00  0.00    -0.319 A  
ENDBRANCH   3  13
BRANCH   5  19
HETATM   19  C   UNL     1      -7.606  15.680  68.061  1.00  0.00    -0.124 C  
HETATM   20  O   UNL     1      -7.582  15.626  69.280  1.00  0.00    -0.192 OA 
BRANCH  19  21
HETATM   21  O   UNL     1      -6.665  15.122  67.254  1.00  0.00    -0.269 OA 
BRANCH  21  22
HETATM   22  C   UNL     1      -5.518  14.651  67.967  1.00  0.00    -0.122 C  
BRANCH  22  23
HETATM   23  C   UNL     1      -5.514  13.110  67.926  1.00  0.00    -0.117 C  
BRANCH  23  24
HETATM   24  N   UNL     1      -6.721  12.489  67.325  1.00  0.00    -0.149 NA 
HETATM   25  C   UNL     1      -6.427  11.339  66.457  1.00  0.00    -0.111 C  
HETATM   26  C   UNL     1      -5.765  10.193  67.217  1.00  0.00    -0.045 C  
HETATM   27  C   UNL     1      -6.587   9.768  68.433  1.00  0.00    -0.056 C  
HETATM   28  C   UNL     1      -7.157  10.939  69.239  1.00  0.00    -0.124 C  
HETATM   29  C   UNL     1      -7.686  12.069  68.353  1.00  0.00    -0.138 C  
ENDBRANCH  23  24
ENDBRANCH  22  23
ENDBRANCH  21  22
ENDBRANCH  19  21
ENDBRANCH   5  19
TORSDOF 6
ENDMDL
MODEL       48
REMARK 921   NORMALIZED FREE ENERGY PREDICTED BY IDOCK:   -6.51 KCAL/MOL
REMARK 922        TOTAL FREE ENERGY PREDICTED BY IDOCK:   -9.49 KCAL/MOL
REMARK 923 INTER-LIGAND FREE ENERGY PREDICTED BY IDOCK:   -9.00 KCAL/MOL
REMARK 924 INTRA-LIGAND FREE ENERGY PREDICTED BY IDOCK:   -0.49 KCAL/MOL
REMARK 927      BINDING AFFINITY PREDICTED BY RF-SCORE:    0.00 PKD
ROOT
HETATM    1  C   UNL     1      -9.359  18.288  65.809  1.00  0.00     0.381 C  
HETATM    2  C   UNL     1      -9.657  16.827  65.970  1.00  0.00    -0.265 C  
HETATM    3  C   UNL     1      -9.032  15.960  66.787  1.00  0.00    -0.251 C  
HETATM    4  O   UNL     1      -9.422  14.650  66.989  1.00  0.00    -0.223 OA 
HETATM    5  C   UNL     1     -10.870  12.809  66.491  1.00  0.00    -0.280 A  
HETATM    6  C   UNL     1     -11.849  12.240  65.647  1.00  0.00    -0.423 A  
HETATM    7  C   UNL     1     -10.466  14.132  66.269  1.00  0.00    -0.286 A  
HETATM    8  C   UNL     1     -11.110  14.882  65.287  1.00  0.00    -0.382 A  
HETATM    9  C   UNL     1     -12.439  12.979  64.623  1.00  0.00    -0.460 A  
HETATM   10  O   UNL     1     -11.355  17.005  64.325  1.00  0.00    -1.191 OA 
HETATM   11  C   UNL     1     -12.086  14.311  64.460  1.00  0.00    -0.499 A  
HETATM   12  C   UNL     1     -10.760  16.301  65.131  1.00  0.00    -0.331 C  
ENDROOT
BRANCH   3  13
HETATM   13  C   UNL     1      -7.814  16.300  67.537  1.00  0.00    -0.168 A  
HETATM   14  C   UNL     1      -6.744  16.905  69.638  1.00  0.00    -0.081 A  
HETATM   15  C   UNL     1      -5.441  16.806  67.608  1.00  0.00    -0.158 A  
HETATM   16  C   UNL     1      -6.583  16.440  66.887  1.00  0.00    -0.170 A  
HETATM   17  C   UNL     1      -7.885  16.535  68.920  1.00  0.00    -0.240 A  
HETATM   18  C   UNL     1      -5.522  17.041  68.981  1.00  0.00    -0.144 A  
ENDBRANCH   3  13
BRANCH   5  19
HETATM   19  C   UNL     1     -10.232  11.992  67.566  1.00  0.00    -0.198 C  
HETATM   20  O   UNL     1      -9.163  11.407  67.504  1.00  0.00    -0.157 OA 
BRANCH  19  21
HETATM   21  O   UNL     1     -11.065  11.946  68.639  1.00  0.00    -0.213 OA 
BRANCH  21  22
HETATM   22  C   UNL     1     -11.894  13.106  68.759  1.00  0.00    -0.324 C  
BRANCH  22  23
HETATM   23  C   UNL     1     -12.109  13.401  70.258  1.00  0.00    -0.349 C  
BRANCH  23  24
HETATM   24  N   UNL     1     -12.893  14.625  70.556  1.00  0.00    -0.344 NA 
HETATM   25  C   UNL     1     -13.912  14.436  71.600  1.00  0.00    -0.426 C  
HETATM   26  C   UNL     1     -13.302  14.055  72.945  1.00  0.00    -0.487 C  
HETATM   27  C   UNL     1     -12.238  15.058  73.390  1.00  0.00    -0.520 C  
HETATM   28  C   UNL     1     -11.298  15.507  72.268  1.00  0.00    -0.397 C  
HETATM   29  C   UNL     1     -12.025  15.747  70.944  1.00  0.00    -0.413 C  
ENDBRANCH  23  24
ENDBRANCH  22  23
ENDBRANCH  21  22
ENDBRANCH  19  21
ENDBRANCH   5  19
TORSDOF 6
ENDMDL
MODEL       49
REMARK 921   NORMALIZED FREE ENERGY PREDICTED BY IDOCK:   -6.47 KCAL/MOL
REMARK 922        TOTAL FREE ENERGY PREDICTED BY IDOCK:   -9.43 KCAL/MOL
REMARK 923 INTER-LIGAND FREE ENERGY PREDICTED BY IDOCK:   -8.23 KCAL/MOL
REMARK 924 INTRA-LIGAND FREE ENERGY PREDICTED BY IDOCK:   -1.20 KCAL/MOL
REMARK 927      BINDING AFFINITY PREDICTED BY RF-SCORE:    0.00 PKD
ROOT
HETATM    1  C   UNL     1      -8.004   7.432  69.409  1.00  0.00    -0.124 C  
HETATM    2  C   UNL     1      -9.020   8.455  69.819  1.00  0.00    -0.146 C  
HETATM    3  C   UNL     1      -9.020   9.765  69.510  1.00  0.00    -0.204 C  
HETATM    4  O   UNL     1     -10.044  10.642  69.810  1.00  0.00    -0.162 OA 
HETATM    5  C   UNL     1     -12.163  11.100  70.827  1.00  0.00    -0.484 A  
HETATM    6  C   UNL     1     -13.195  10.689  71.699  1.00  0.00    -0.495 A  
HETATM    7  C   UNL     1     -11.119  10.211  70.541  1.00  0.00    -0.327 A  
HETATM    8  C   UNL     1     -11.177   8.913  71.045  1.00  0.00    -0.342 A  
HETATM    9  C   UNL     1     -13.208   9.410  72.251  1.00  0.00    -0.528 A  
HETATM   10  O   UNL     1     -10.196   6.784  71.023  1.00  0.00    -0.197 OA 
HETATM   11  C   UNL     1     -12.209   8.511  71.903  1.00  0.00    -0.411 A  
HETATM   12  C   UNL     1     -10.137   7.950  70.654  1.00  0.00    -0.194 C  
ENDROOT
BRANCH   3  13
HETATM   13  C   UNL     1      -7.891  10.431  68.846  1.00  0.00    -0.115 A  
HETATM   14  C   UNL     1      -6.763  11.105  66.798  1.00  0.00    -0.135 A  
HETATM   15  C   UNL     1      -5.735  11.543  68.938  1.00  0.00    -0.046 A  
HETATM   16  C   UNL     1      -6.823  10.948  69.587  1.00  0.00    -0.137 A  
HETATM   17  C   UNL     1      -7.852  10.515  67.444  1.00  0.00    -0.106 A  
HETATM   18  C   UNL     1      -5.704  11.618  67.545  1.00  0.00    -0.071 A  
ENDBRANCH   3  13
BRANCH   5  19
HETATM   19  C   UNL     1     -12.155  12.484  70.266  1.00  0.00    -0.294 C  
HETATM   20  O   UNL     1     -12.251  13.528  70.891  1.00  0.00    -0.351 OA 
BRANCH  19  21
HETATM   21  O   UNL     1     -12.076  12.411  68.911  1.00  0.00    -0.265 OA 
BRANCH  21  22
HETATM   22  C   UNL     1     -11.833  13.677  68.291  1.00  0.00    -0.369 C  
BRANCH  22  23
HETATM   23  C   UNL     1     -11.382  13.432  66.837  1.00  0.00    -0.323 C  
BRANCH  23  24
HETATM   24  N   UNL     1     -12.059  12.308  66.145  1.00  0.00    -0.627 NA 
HETATM   25  C   UNL     1     -12.780  12.709  64.927  1.00  0.00    -0.370 C  
HETATM   26  C   UNL     1     -11.848  13.285  63.865  1.00  0.00    -0.522 C  
HETATM   27  C   UNL     1     -10.701  12.330  63.536  1.00  0.00    -0.497 C  
HETATM   28  C   UNL     1     -10.076  11.662  64.765  1.00  0.00    -0.304 C  
HETATM   29  C   UNL     1     -11.116  11.233  65.802  1.00  0.00    -0.084 C  
ENDBRANCH  23  24
ENDBRANCH  22  23
ENDBRANCH  21  22
ENDBRANCH  19  21
ENDBRANCH   5  19
TORSDOF 6
ENDMDL
MODEL       50
REMARK 921   NORMALIZED FREE ENERGY PREDICTED BY IDOCK:   -6.47 KCAL/MOL
REMARK 922        TOTAL FREE ENERGY PREDICTED BY IDOCK:   -9.43 KCAL/MOL
REMARK 923 INTER-LIGAND FREE ENERGY PREDICTED BY IDOCK:   -8.16 KCAL/MOL
REMARK 924 INTRA-LIGAND FREE ENERGY PREDICTED BY IDOCK:   -1.27 KCAL/MOL
REMARK 927      BINDING AFFINITY PREDICTED BY RF-SCORE:    0.00 PKD
ROOT
HETATM    1  C   UNL     1     -12.634  15.917  71.404  1.00  0.00    -0.437 C  
HETATM    2  C   UNL     1     -12.283  14.539  70.928  1.00  0.00    -0.409 C  
HETATM    3  C   UNL     1     -11.361  14.213  70.003  1.00  0.00    -0.134 C  
HETATM    4  O   UNL     1     -10.989  12.921  69.687  1.00  0.00     0.007 OA 
HETATM    5  C   UNL     1     -11.238  10.556  69.964  1.00  0.00    -0.386 A  
HETATM    6  C   UNL     1     -11.998   9.474  70.462  1.00  0.00    -0.197 A  
HETATM    7  C   UNL     1     -11.632  11.864  70.274  1.00  0.00    -0.089 A  
HETATM    8  C   UNL     1     -12.701  12.061  71.145  1.00  0.00    -0.365 A  
HETATM    9  C   UNL     1     -13.107   9.685  71.279  1.00  0.00    -0.437 A  
HETATM   10  O   UNL     1     -13.931  13.634  72.372  1.00  0.00    -0.587 OA 
HETATM   11  C   UNL     1     -13.444  10.982  71.642  1.00  0.00    -0.190 A  
HETATM   12  C   UNL     1     -13.042  13.432  71.555  1.00  0.00    -0.342 C  
ENDROOT
BRANCH   3  13
HETATM   13  C   UNL     1     -10.666  15.212  69.178  1.00  0.00    -0.253 A  
HETATM   14  C   UNL     1     -10.759  17.035  67.569  1.00  0.00    -0.266 A  
HETATM   15  C   UNL     1      -8.622  16.182  68.301  1.00  0.00    -0.182 A  
HETATM   16  C   UNL     1      -9.269  15.254  69.123  1.00  0.00    -0.234 A  
HETATM   17  C   UNL     1     -11.406  16.111  68.393  1.00  0.00    -0.345 A  
HETATM   18  C   UNL     1      -9.366  17.070  67.522  1.00  0.00    -0.233 A  
ENDBRANCH   3  13
BRANCH   5  19
HETATM   19  C   UNL     1     -10.068  10.309  69.070  1.00  0.00    -0.213 C  
HETATM   20  O   UNL     1      -8.947   9.963  69.409  1.00  0.00    -0.167 OA 
BRANCH  19  21
HETATM   21  O   UNL     1     -10.426  10.584  67.787  1.00  0.00    -0.194 OA 
BRANCH  21  22
HETATM   22  C   UNL     1      -9.409  11.272  67.054  1.00  0.00    -0.172 C  
BRANCH  22  23
HETATM   23  C   UNL     1     -10.088  12.164  65.995  1.00  0.00    -0.235 C  
BRANCH  23  24
HETATM   24  N   UNL     1     -11.557  11.994  65.871  1.00  0.00    -0.409 NA 
HETATM   25  C   UNL     1     -12.332  13.134  66.384  1.00  0.00    -0.231 C  
HETATM   26  C   UNL     1     -12.046  14.422  65.618  1.00  0.00    -0.359 C  
HETATM   27  C   UNL     1     -12.257  14.246  64.114  1.00  0.00    -0.410 C  
HETATM   28  C   UNL     1     -11.702  12.932  63.557  1.00  0.00    -0.576 C  
HETATM   29  C   UNL     1     -11.961  11.739  64.480  1.00  0.00    -0.115 C  
ENDBRANCH  23  24
ENDBRANCH  22  23
ENDBRANCH  21  22
ENDBRANCH  19  21
ENDBRANCH   5  19
TORSDOF 6
ENDMDL
MODEL       51
REMARK 921   NORMALIZED FREE ENERGY PREDICTED BY IDOCK:   -6.45 KCAL/MOL
REMARK 922        TOTAL FREE ENERGY PREDICTED BY IDOCK:   -9.40 KCAL/MOL
REMARK 923 INTER-LIGAND FREE ENERGY PREDICTED BY IDOCK:   -8.59 KCAL/MOL
REMARK 924 INTRA-LIGAND FREE ENERGY PREDICTED BY IDOCK:   -0.82 KCAL/MOL
REMARK 927      BINDING AFFINITY PREDICTED BY RF-SCORE:    0.00 PKD
ROOT
HETATM    1  C   UNL     1      -5.688  17.920  70.183  1.00  0.00    -0.227 C  
HETATM    2  C   UNL     1      -6.764  17.828  69.144  1.00  0.00    -0.239 C  
HETATM    3  C   UNL     1      -7.219  16.711  68.546  1.00  0.00    -0.183 C  
HETATM    4  O   UNL     1      -8.296  16.666  67.683  1.00  0.00    -0.170 OA 
HETATM    5  C   UNL     1     -10.032  17.772  66.459  1.00  0.00    -0.346 A  
HETATM    6  C   UNL     1     -10.586  18.979  65.978  1.00  0.00    -0.499 A  
HETATM    7  C   UNL     1      -8.928  17.826  67.320  1.00  0.00    -0.246 A  
HETATM    8  C   UNL     1      -8.469  19.067  67.757  1.00  0.00    -0.323 A  
HETATM    9  C   UNL     1     -10.076  20.215  66.369  1.00  0.00    -0.569 A  
HETATM   10  O   UNL     1      -7.002  20.187  69.201  1.00  0.00    -0.254 OA 
HETATM   11  C   UNL     1      -9.030  20.259  67.281  1.00  0.00    -0.472 A  
HETATM   12  C   UNL     1      -7.381  19.116  68.745  1.00  0.00    -0.337 C  
ENDROOT
BRANCH   3  13
HETATM   13  C   UNL     1      -6.581  15.397  68.712  1.00  0.00    -0.106 A  
HETATM   14  C   UNL     1      -5.143  13.639  67.839  1.00  0.00    -0.076 A  
HETATM   15  C   UNL     1      -6.271  13.334  69.952  1.00  0.00    -0.097 A  
HETATM   16  C   UNL     1      -6.853  14.600  69.829  1.00  0.00    -0.154 A  
HETATM   17  C   UNL     1      -5.720  14.905  67.717  1.00  0.00    -0.098 A  
HETATM   18  C   UNL     1      -5.420  12.853  68.957  1.00  0.00    -0.069 A  
ENDBRANCH   3  13
BRANCH   5  19
HETATM   19  C   UNL     1     -10.578  16.458  66.008  1.00  0.00    -0.269 C  
HETATM   20  O   UNL     1     -10.696  16.070  64.857  1.00  0.00    -0.576 OA 
BRANCH  19  21
HETATM   21  O   UNL     1     -10.988  15.753  67.096  1.00  0.00    -0.314 OA 
BRANCH  21  22
HETATM   22  C   UNL     1     -11.862  14.669  66.768  1.00  0.00    -0.317 C  
BRANCH  22  23
HETATM   23  C   UNL     1     -11.017  13.388  66.614  1.00  0.00    -0.287 C  
BRANCH  23  24
HETATM   24  N   UNL     1     -11.755  12.198  66.123  1.00  0.00    -0.522 NA 
HETATM   25  C   UNL     1     -12.502  12.435  64.878  1.00  0.00    -0.361 C  
HETATM   26  C   UNL     1     -11.588  12.806  63.714  1.00  0.00    -0.548 C  
HETATM   27  C   UNL     1     -10.486  11.767  63.505  1.00  0.00    -0.500 C  
HETATM   28  C   UNL     1      -9.843  11.272  64.803  1.00  0.00    -0.312 C  
HETATM   29  C   UNL     1     -10.861  11.047  65.923  1.00  0.00    -0.115 C  
ENDBRANCH  23  24
ENDBRANCH  22  23
ENDBRANCH  21  22
ENDBRANCH  19  21
ENDBRANCH   5  19
TORSDOF 6
ENDMDL
MODEL       52
REMARK 921   NORMALIZED FREE ENERGY PREDICTED BY IDOCK:   -6.42 KCAL/MOL
REMARK 922        TOTAL FREE ENERGY PREDICTED BY IDOCK:   -9.36 KCAL/MOL
REMARK 923 INTER-LIGAND FREE ENERGY PREDICTED BY IDOCK:   -8.27 KCAL/MOL
REMARK 924 INTRA-LIGAND FREE ENERGY PREDICTED BY IDOCK:   -1.09 KCAL/MOL
REMARK 927      BINDING AFFINITY PREDICTED BY RF-SCORE:    0.00 PKD
ROOT
HETATM    1  C   UNL     1     -11.767  15.579  64.350  1.00  0.00    -0.243 C  
HETATM    2  C   UNL     1     -10.979  14.471  64.979  1.00  0.00    -0.408 C  
HETATM    3  C   UNL     1     -10.216  14.548  66.086  1.00  0.00    -0.305 C  
HETATM    4  O   UNL     1      -9.606  13.468  66.695  1.00  0.00    -0.264 OA 
HETATM    5  C   UNL     1      -9.086  11.132  66.756  1.00  0.00    -0.174 A  
HETATM    6  C   UNL     1      -9.055   9.886  66.091  1.00  0.00    -0.193 A  
HETATM    7  C   UNL     1      -9.690  12.226  66.124  1.00  0.00    -0.245 A  
HETATM    8  C   UNL     1     -10.332  12.033  64.902  1.00  0.00    -0.316 A  
HETATM    9  C   UNL     1      -9.642   9.722  64.838  1.00  0.00    -0.316 A  
HETATM   10  O   UNL     1     -11.691  13.004  63.258  1.00  0.00    -0.497 OA 
HETATM   11  C   UNL     1     -10.304  10.792  64.254  1.00  0.00    -0.401 A  
HETATM   12  C   UNL     1     -11.060  13.158  64.295  1.00  0.00    -0.396 C  
ENDROOT
BRANCH   3  13
HETATM   13  C   UNL     1      -9.904  15.817  66.758  1.00  0.00    -0.256 A  
HETATM   14  C   UNL     1      -8.465  17.765  66.998  1.00  0.00    -0.245 A  
HETATM   15  C   UNL     1     -10.330  17.452  68.500  1.00  0.00    -0.378 A  
HETATM   16  C   UNL     1     -10.664  16.263  67.845  1.00  0.00    -0.329 A  
HETATM   17  C   UNL     1      -8.801  16.579  66.339  1.00  0.00    -0.345 A  
HETATM   18  C   UNL     1      -9.230  18.201  68.079  1.00  0.00    -0.285 A  
ENDBRANCH   3  13
BRANCH   5  19
HETATM   19  C   UNL     1      -8.429  11.293  68.088  1.00  0.00    -0.145 C  
HETATM   20  O   UNL     1      -7.314  11.739  68.305  1.00  0.00    -0.082 OA 
BRANCH  19  21
HETATM   21  O   UNL     1      -9.257  10.807  69.051  1.00  0.00    -0.180 OA 
BRANCH  21  22
HETATM   22  C   UNL     1      -8.649   9.794  69.857  1.00  0.00    -0.218 C  
BRANCH  22  23
HETATM   23  C   UNL     1      -9.483   8.503  69.732  1.00  0.00    -0.166 C  
BRANCH  23  24
HETATM   24  N   UNL     1      -9.472   7.624  70.927  1.00  0.00    -0.164 NA 
HETATM   25  C   UNL     1     -10.016   8.260  72.136  1.00  0.00    -0.273 C  
HETATM   26  C   UNL     1     -11.484   8.646  71.978  1.00  0.00    -0.437 C  
HETATM   27  C   UNL     1     -12.341   7.455  71.550  1.00  0.00    -0.385 C  
HETATM   28  C   UNL     1     -11.699   6.584  70.466  1.00  0.00    -0.438 C  
HETATM   29  C   UNL     1     -10.201   6.369  70.687  1.00  0.00    -0.190 C  
ENDBRANCH  23  24
ENDBRANCH  22  23
ENDBRANCH  21  22
ENDBRANCH  19  21
ENDBRANCH   5  19
TORSDOF 6
ENDMDL
MODEL       53
REMARK 921   NORMALIZED FREE ENERGY PREDICTED BY IDOCK:   -6.39 KCAL/MOL
REMARK 922        TOTAL FREE ENERGY PREDICTED BY IDOCK:   -9.32 KCAL/MOL
REMARK 923 INTER-LIGAND FREE ENERGY PREDICTED BY IDOCK:   -7.30 KCAL/MOL
REMARK 924 INTRA-LIGAND FREE ENERGY PREDICTED BY IDOCK:   -2.02 KCAL/MOL
REMARK 927      BINDING AFFINITY PREDICTED BY RF-SCORE:    0.00 PKD
ROOT
HETATM    1  C   UNL     1      -9.587  10.167  65.674  1.00  0.00    -0.302 C  
HETATM    2  C   UNL     1     -10.251  10.032  67.011  1.00  0.00    -0.295 C  
HETATM    3  C   UNL     1     -10.379   8.908  67.741  1.00  0.00    -0.242 C  
HETATM    4  O   UNL     1     -10.893   8.858  69.022  1.00  0.00    -0.167 OA 
HETATM    5  C   UNL     1     -11.895   9.943  70.907  1.00  0.00    -0.443 A  
HETATM    6  C   UNL     1     -12.537  11.082  71.442  1.00  0.00    -0.498 A  
HETATM    7  C   UNL     1     -11.392   9.995  69.601  1.00  0.00    -0.202 A  
HETATM    8  C   UNL     1     -11.450  11.198  68.900  1.00  0.00    -0.363 A  
HETATM    9  C   UNL     1     -12.648  12.260  70.706  1.00  0.00    -0.302 A  
HETATM   10  O   UNL     1     -10.795  12.339  66.960  1.00  0.00    -0.235 OA 
HETATM   11  C   UNL     1     -12.080  12.326  69.441  1.00  0.00    -0.234 A  
HETATM   12  C   UNL     1     -10.823  11.279  67.572  1.00  0.00    -0.245 C  
ENDROOT
BRANCH   3  13
HETATM   13  C   UNL     1     -10.022   7.576  67.232  1.00  0.00    -0.273 A  
HETATM   14  C   UNL     1     -10.692   5.328  66.586  1.00  0.00    -0.274 A  
HETATM   15  C   UNL     1      -8.359   5.948  66.543  1.00  0.00    -0.112 A  
HETATM   16  C   UNL     1      -8.688   7.232  66.989  1.00  0.00    -0.123 A  
HETATM   17  C   UNL     1     -11.022   6.612  67.026  1.00  0.00    -0.463 A  
HETATM   18  C   UNL     1      -9.359   4.996  66.346  1.00  0.00    -0.145 A  
ENDBRANCH   3  13
BRANCH   5  19
HETATM   19  C   UNL     1     -11.809   8.682  71.703  1.00  0.00    -0.323 C  
HETATM   20  O   UNL     1     -12.676   7.832  71.824  1.00  0.00    -0.316 OA 
BRANCH  19  21
HETATM   21  O   UNL     1     -10.607   8.641  72.338  1.00  0.00    -0.331 OA 
BRANCH  21  22
HETATM   22  C   UNL     1     -10.513   7.587  73.299  1.00  0.00    -0.371 C  
BRANCH  22  23
HETATM   23  C   UNL     1      -9.221   6.790  73.028  1.00  0.00    -0.127 C  
BRANCH  23  24
HETATM   24  N   UNL     1      -9.398   5.324  72.889  1.00  0.00    -0.137 NA 
HETATM   25  C   UNL     1     -10.440   4.941  71.925  1.00  0.00    -0.163 C  
HETATM   26  C   UNL     1     -10.120   5.407  70.508  1.00  0.00    -0.306 C  
HETATM   27  C   UNL     1      -8.743   4.926  70.050  1.00  0.00    -0.118 C  
HETATM   28  C   UNL     1      -7.653   5.049  71.119  1.00  0.00    -0.086 C  
HETATM   29  C   UNL     1      -8.142   4.656  72.514  1.00  0.00    -0.103 C  
ENDBRANCH  23  24
ENDBRANCH  22  23
ENDBRANCH  21  22
ENDBRANCH  19  21
ENDBRANCH   5  19
TORSDOF 6
ENDMDL
MODEL       54
REMARK 921   NORMALIZED FREE ENERGY PREDICTED BY IDOCK:   -6.39 KCAL/MOL
REMARK 922        TOTAL FREE ENERGY PREDICTED BY IDOCK:   -9.32 KCAL/MOL
REMARK 923 INTER-LIGAND FREE ENERGY PREDICTED BY IDOCK:   -8.17 KCAL/MOL
REMARK 924 INTRA-LIGAND FREE ENERGY PREDICTED BY IDOCK:   -1.15 KCAL/MOL
REMARK 927      BINDING AFFINITY PREDICTED BY RF-SCORE:    0.00 PKD
ROOT
HETATM    1  C   UNL     1     -13.269  15.258  71.180  1.00  0.00    -0.567 C  
HETATM    2  C   UNL     1     -12.814  13.861  70.882  1.00  0.00    -0.370 C  
HETATM    3  C   UNL     1     -11.990  13.471  69.892  1.00  0.00    -0.348 C  
HETATM    4  O   UNL     1     -11.504  12.188  69.733  1.00  0.00    -0.260 OA 
HETATM    5  C   UNL     1     -11.416   9.896  70.419  1.00  0.00    -0.372 A  
HETATM    6  C   UNL     1     -11.961   8.847  71.193  1.00  0.00    -0.344 A  
HETATM    7  C   UNL     1     -11.926  11.191  70.573  1.00  0.00    -0.380 A  
HETATM    8  C   UNL     1     -12.886  11.430  71.554  1.00  0.00    -0.508 A  
HETATM    9  C   UNL     1     -12.969   9.086  72.125  1.00  0.00    -0.490 A  
HETATM   10  O   UNL     1     -14.130  13.062  72.686  1.00  0.00    -0.643 OA 
HETATM   11  C   UNL     1     -13.415  10.385  72.323  1.00  0.00    -0.195 A  
HETATM   12  C   UNL     1     -13.339  12.810  71.786  1.00  0.00    -0.342 C  
ENDROOT
BRANCH   3  13
HETATM   13  C   UNL     1     -11.541  14.374  68.822  1.00  0.00    -0.348 A  
HETATM   14  C   UNL     1     -10.683  16.543  68.130  1.00  0.00    -0.343 A  
HETATM   15  C   UNL     1     -11.224  14.877  66.469  1.00  0.00    -0.335 A  
HETATM   16  C   UNL     1     -11.616  13.992  67.478  1.00  0.00    -0.397 A  
HETATM   17  C   UNL     1     -11.070  15.659  69.139  1.00  0.00    -0.284 A  
HETATM   18  C   UNL     1     -10.761  16.153  66.794  1.00  0.00    -0.235 A  
ENDBRANCH   3  13
BRANCH   5  19
HETATM   19  C   UNL     1     -10.353   9.614  69.409  1.00  0.00    -0.213 C  
HETATM   20  O   UNL     1     -10.517   9.307  68.239  1.00  0.00    -0.209 OA 
BRANCH  19  21
HETATM   21  O   UNL     1      -9.137   9.699  70.011  1.00  0.00    -0.208 OA 
BRANCH  21  22
HETATM   22  C   UNL     1      -8.064   9.912  69.089  1.00  0.00    -0.118 C  
BRANCH  22  23
HETATM   23  C   UNL     1      -7.987  11.418  68.767  1.00  0.00    -0.122 C  
BRANCH  23  24
HETATM   24  N   UNL     1      -6.713  11.870  68.155  1.00  0.00    -0.058 NA 
HETATM   25  C   UNL     1      -6.854  13.062  67.306  1.00  0.00    -0.026 C  
HETATM   26  C   UNL     1      -7.337  14.279  68.089  1.00  0.00    -0.128 C  
HETATM   27  C   UNL     1      -6.445  14.567  69.297  1.00  0.00    -0.123 C  
HETATM   28  C   UNL     1      -6.036  13.316  70.080  1.00  0.00    -0.134 C  
HETATM   29  C   UNL     1      -5.684  12.136  69.172  1.00  0.00    -0.069 C  
ENDBRANCH  23  24
ENDBRANCH  22  23
ENDBRANCH  21  22
ENDBRANCH  19  21
ENDBRANCH   5  19
TORSDOF 6
ENDMDL
MODEL       55
REMARK 921   NORMALIZED FREE ENERGY PREDICTED BY IDOCK:   -6.39 KCAL/MOL
REMARK 922        TOTAL FREE ENERGY PREDICTED BY IDOCK:   -9.31 KCAL/MOL
REMARK 923 INTER-LIGAND FREE ENERGY PREDICTED BY IDOCK:   -8.10 KCAL/MOL
REMARK 924 INTRA-LIGAND FREE ENERGY PREDICTED BY IDOCK:   -1.21 KCAL/MOL
REMARK 927      BINDING AFFINITY PREDICTED BY RF-SCORE:    0.00 PKD
ROOT
HETATM    1  C   UNL     1     -12.172  11.513  64.290  1.00  0.00     0.082 C  
HETATM    2  C   UNL     1     -11.639  12.704  65.027  1.00  0.00    -0.384 C  
HETATM    3  C   UNL     1     -11.031  12.706  66.229  1.00  0.00    -0.283 C  
HETATM    4  O   UNL     1     -10.449  13.815  66.811  1.00  0.00    -0.267 OA 
HETATM    5  C   UNL     1      -9.932  16.153  66.783  1.00  0.00    -0.264 A  
HETATM    6  C   UNL     1     -10.152  17.429  66.219  1.00  0.00    -0.328 A  
HETATM    7  C   UNL     1     -10.540  15.036  66.197  1.00  0.00    -0.310 A  
HETATM    8  C   UNL     1     -11.264  15.199  65.017  1.00  0.00    -0.414 A  
HETATM    9  C   UNL     1     -10.934  17.589  65.077  1.00  0.00     0.458 A  
HETATM   10  O   UNL     1     -12.390  14.111  63.273  1.00  0.00    -0.680 OA 
HETATM   11  C   UNL     1     -11.470  16.468  64.460  1.00  0.00     0.052 A  
HETATM   12  C   UNL     1     -11.809  14.009  64.346  1.00  0.00    -0.431 C  
ENDROOT
BRANCH   3  13
HETATM   13  C   UNL     1     -10.956  11.518  67.091  1.00  0.00    -0.338 A  
HETATM   14  C   UNL     1     -11.446  10.433  69.213  1.00  0.00    -0.281 A  
HETATM   15  C   UNL     1     -10.163   9.267  67.532  1.00  0.00    -0.300 A  
HETATM   16  C   UNL     1     -10.261  10.375  66.683  1.00  0.00    -0.292 A  
HETATM   17  C   UNL     1     -11.549  11.538  68.364  1.00  0.00    -0.375 A  
HETATM   18  C   UNL     1     -10.752   9.297  68.797  1.00  0.00    -0.184 A  
ENDBRANCH   3  13
BRANCH   5  19
HETATM   19  C   UNL     1      -9.111  16.006  68.022  1.00  0.00    -0.189 C  
HETATM   20  O   UNL     1      -7.958  15.611  68.094  1.00  0.00    -0.126 OA 
BRANCH  19  21
HETATM   21  O   UNL     1      -9.873  16.335  69.098  1.00  0.00    -0.238 OA 
BRANCH  21  22
HETATM   22  C   UNL     1      -9.958  15.289  70.070  1.00  0.00    -0.107 C  
BRANCH  22  23
HETATM   23  C   UNL     1     -11.416  14.789  70.124  1.00  0.00    -0.266 C  
BRANCH  23  24
HETATM   24  N   UNL     1     -12.390  15.738  70.717  1.00  0.00    -0.417 NA 
HETATM   25  C   UNL     1     -13.736  15.172  70.895  1.00  0.00    -0.288 C  
HETATM   26  C   UNL     1     -13.745  13.988  71.858  1.00  0.00    -0.532 C  
HETATM   27  C   UNL     1     -13.116  14.347  73.204  1.00  0.00    -0.490 C  
HETATM   28  C   UNL     1     -11.836  15.181  73.091  1.00  0.00    -0.438 C  
HETATM   29  C   UNL     1     -11.924  16.260  72.010  1.00  0.00    -0.467 C  
ENDBRANCH  23  24
ENDBRANCH  22  23
ENDBRANCH  21  22
ENDBRANCH  19  21
ENDBRANCH   5  19
TORSDOF 6
ENDMDL
MODEL       56
REMARK 921   NORMALIZED FREE ENERGY PREDICTED BY IDOCK:   -6.33 KCAL/MOL
REMARK 922        TOTAL FREE ENERGY PREDICTED BY IDOCK:   -9.24 KCAL/MOL
REMARK 923 INTER-LIGAND FREE ENERGY PREDICTED BY IDOCK:   -8.11 KCAL/MOL
REMARK 924 INTRA-LIGAND FREE ENERGY PREDICTED BY IDOCK:   -1.13 KCAL/MOL
REMARK 927      BINDING AFFINITY PREDICTED BY RF-SCORE:    0.00 PKD
ROOT
HETATM    1  C   UNL     1     -12.260  14.253  66.749  1.00  0.00    -0.384 C  
HETATM    2  C   UNL     1     -11.703  13.001  67.356  1.00  0.00    -0.427 C  
HETATM    3  C   UNL     1     -11.553  12.734  68.667  1.00  0.00    -0.314 C  
HETATM    4  O   UNL     1     -11.147  11.517  69.179  1.00  0.00    -0.233 OA 
HETATM    5  C   UNL     1     -10.394   9.268  68.852  1.00  0.00    -0.231 A  
HETATM    6  C   UNL     1      -9.888   8.282  67.977  1.00  0.00    -0.201 A  
HETATM    7  C   UNL     1     -10.786  10.506  68.328  1.00  0.00    -0.248 A  
HETATM    8  C   UNL     1     -10.761  10.697  66.948  1.00  0.00    -0.297 A  
HETATM    9  C   UNL     1      -9.804   8.508  66.605  1.00  0.00    -0.342 A  
HETATM   10  O   UNL     1     -11.333  12.128  65.182  1.00  0.00    -0.317 OA 
HETATM   11  C   UNL     1     -10.266   9.709  66.086  1.00  0.00    -0.276 A  
HETATM   12  C   UNL     1     -11.277  11.957  66.393  1.00  0.00    -0.331 C  
ENDROOT
BRANCH   3  13
HETATM   13  C   UNL     1     -11.765  13.740  69.718  1.00  0.00    -0.367 A  
HETATM   14  C   UNL     1     -11.217  15.899  70.696  1.00  0.00    -0.402 A  
HETATM   15  C   UNL     1     -12.787  14.438  71.806  1.00  0.00    -0.423 A  
HETATM   16  C   UNL     1     -12.627  13.489  70.791  1.00  0.00    -0.382 A  
HETATM   17  C   UNL     1     -11.060  14.954  69.679  1.00  0.00    -0.298 A  
HETATM   18  C   UNL     1     -12.080  15.641  71.760  1.00  0.00    -0.507 A  
ENDBRANCH   3  13
BRANCH   5  19
HETATM   19  C   UNL     1     -10.452   9.015  70.323  1.00  0.00    -0.215 C  
HETATM   20  O   UNL     1      -9.656   9.402  71.164  1.00  0.00    -0.253 OA 
BRANCH  19  21
HETATM   21  O   UNL     1     -11.522   8.221  70.593  1.00  0.00    -0.274 OA 
BRANCH  21  22
HETATM   22  C   UNL     1     -11.177   7.037  71.317  1.00  0.00    -0.264 C  
BRANCH  22  23
HETATM   23  C   UNL     1     -10.857   5.919  70.303  1.00  0.00    -0.320 C  
BRANCH  23  24
HETATM   24  N   UNL     1      -9.906   4.885  70.779  1.00  0.00    -0.199 NA 
HETATM   25  C   UNL     1      -9.693   3.790  69.820  1.00  0.00    -0.123 C  
HETATM   26  C   UNL     1      -9.081   4.276  68.510  1.00  0.00    -0.175 C  
HETATM   27  C   UNL     1      -7.791   5.062  68.743  1.00  0.00    -0.078 C  
HETATM   28  C   UNL     1      -7.863   6.041  69.918  1.00  0.00    -0.104 C  
HETATM   29  C   UNL     1      -8.600   5.465  71.128  1.00  0.00    -0.125 C  
ENDBRANCH  23  24
ENDBRANCH  22  23
ENDBRANCH  21  22
ENDBRANCH  19  21
ENDBRANCH   5  19
TORSDOF 6
ENDMDL
MODEL       57
REMARK 921   NORMALIZED FREE ENERGY PREDICTED BY IDOCK:   -6.31 KCAL/MOL
REMARK 922        TOTAL FREE ENERGY PREDICTED BY IDOCK:   -9.22 KCAL/MOL
REMARK 923 INTER-LIGAND FREE ENERGY PREDICTED BY IDOCK:   -7.60 KCAL/MOL
REMARK 924 INTRA-LIGAND FREE ENERGY PREDICTED BY IDOCK:   -1.61 KCAL/MOL
REMARK 927      BINDING AFFINITY PREDICTED BY RF-SCORE:    0.00 PKD
ROOT
HETATM    1  C   UNL     1     -13.074  13.793  65.251  1.00  0.00    -0.193 C  
HETATM    2  C   UNL     1     -11.767  13.083  65.435  1.00  0.00    -0.401 C  
HETATM    3  C   UNL     1     -10.901  13.232  66.455  1.00  0.00    -0.288 C  
HETATM    4  O   UNL     1      -9.767  12.466  66.640  1.00  0.00    -0.214 OA 
HETATM    5  C   UNL     1      -8.276  10.743  65.906  1.00  0.00    -0.155 A  
HETATM    6  C   UNL     1      -7.843   9.883  64.872  1.00  0.00    -0.136 A  
HETATM    7  C   UNL     1      -9.417  11.529  65.704  1.00  0.00    -0.222 A  
HETATM    8  C   UNL     1     -10.150  11.371  64.530  1.00  0.00    -0.337 A  
HETATM    9  C   UNL     1      -8.547   9.782  63.674  1.00  0.00    -0.207 A  
HETATM   10  O   UNL     1     -12.109  11.950  63.380  1.00  0.00    -0.502 OA 
HETATM   11  C   UNL     1      -9.718  10.510  63.513  1.00  0.00    -0.374 A  
HETATM   12  C   UNL     1     -11.407  12.119  64.369  1.00  0.00    -0.344 C  
ENDROOT
BRANCH   3  13
HETATM   13  C   UNL     1     -11.044  14.275  67.481  1.00  0.00    -0.309 A  
HETATM   14  C   UNL     1     -10.428  16.465  68.345  1.00  0.00    -0.298 A  
HETATM   15  C   UNL     1     -11.932  15.054  69.601  1.00  0.00    -0.356 A  
HETATM   16  C   UNL     1     -11.839  14.069  68.613  1.00  0.00    -0.396 A  
HETATM   17  C   UNL     1     -10.338  15.483  67.355  1.00  0.00    -0.266 A  
HETATM   18  C   UNL     1     -11.224  16.250  69.469  1.00  0.00    -0.308 A  
ENDBRANCH   3  13
BRANCH   5  19
HETATM   19  C   UNL     1      -7.493  10.854  67.172  1.00  0.00    -0.109 C  
HETATM   20  O   UNL     1      -6.899  11.839  67.582  1.00  0.00    -0.082 OA 
BRANCH  19  21
HETATM   21  O   UNL     1      -7.490   9.647  67.798  1.00  0.00    -0.086 OA 
BRANCH  21  22
HETATM   22  C   UNL     1      -8.029   9.698  69.122  1.00  0.00    -0.099 C  
BRANCH  22  23
HETATM   23  C   UNL     1      -8.821   8.399  69.379  1.00  0.00    -0.142 C  
BRANCH  23  24
HETATM   24  N   UNL     1     -10.296   8.527  69.285  1.00  0.00    -0.219 NA 
HETATM   25  C   UNL     1     -10.778   8.852  67.934  1.00  0.00    -0.121 C  
HETATM   26  C   UNL     1     -10.439   7.764  66.920  1.00  0.00    -0.388 C  
HETATM   27  C   UNL     1     -10.944   6.392  67.369  1.00  0.00    -0.463 C  
HETATM   28  C   UNL     1     -10.709   6.099  68.854  1.00  0.00    -0.376 C  
HETATM   29  C   UNL     1     -10.979   7.311  69.749  1.00  0.00    -0.216 C  
ENDBRANCH  23  24
ENDBRANCH  22  23
ENDBRANCH  21  22
ENDBRANCH  19  21
ENDBRANCH   5  19
TORSDOF 6
ENDMDL
MODEL       58
REMARK 921   NORMALIZED FREE ENERGY PREDICTED BY IDOCK:   -6.29 KCAL/MOL
REMARK 922        TOTAL FREE ENERGY PREDICTED BY IDOCK:   -9.19 KCAL/MOL
REMARK 923 INTER-LIGAND FREE ENERGY PREDICTED BY IDOCK:   -8.26 KCAL/MOL
REMARK 924 INTRA-LIGAND FREE ENERGY PREDICTED BY IDOCK:   -0.93 KCAL/MOL
REMARK 927      BINDING AFFINITY PREDICTED BY RF-SCORE:    0.00 PKD
ROOT
HETATM    1  C   UNL     1     -10.311   4.797  70.388  1.00  0.00    -0.183 C  
HETATM    2  C   UNL     1     -10.584   6.270  70.369  1.00  0.00    -0.309 C  
HETATM    3  C   UNL     1      -9.989   7.194  69.591  1.00  0.00    -0.174 C  
HETATM    4  O   UNL     1     -10.361   8.522  69.525  1.00  0.00    -0.210 OA 
HETATM    5  C   UNL     1     -11.734  10.339  70.264  1.00  0.00    -0.388 A  
HETATM    6  C   UNL     1     -12.647  10.852  71.211  1.00  0.00    -0.526 A  
HETATM    7  C   UNL     1     -11.348   8.996  70.348  1.00  0.00    -0.210 A  
HETATM    8  C   UNL     1     -11.949   8.176  71.301  1.00  0.00    -0.318 A  
HETATM    9  C   UNL     1     -13.192  10.038  72.203  1.00  0.00    -0.489 A  
HETATM   10  O   UNL     1     -12.185   5.983  72.094  1.00  0.00    -0.288 OA 
HETATM   11  C   UNL     1     -12.861   8.690  72.232  1.00  0.00    -0.438 A  
HETATM   12  C   UNL     1     -11.623   6.742  71.315  1.00  0.00    -0.320 C  
ENDROOT
BRANCH   3  13
HETATM   13  C   UNL     1      -8.826   6.897  68.742  1.00  0.00    -0.132 A  
HETATM   14  C   UNL     1      -7.921   6.194  66.595  1.00  0.00    -0.105 A  
HETATM   15  C   UNL     1      -6.433   6.610  68.451  1.00  0.00    -0.049 A  
HETATM   16  C   UNL     1      -7.527   6.935  69.260  1.00  0.00    -0.094 A  
HETATM   17  C   UNL     1      -9.014   6.524  67.401  1.00  0.00    -0.110 A  
HETATM   18  C   UNL     1      -6.630   6.237  67.121  1.00  0.00    -0.058 A  
ENDBRANCH   3  13
BRANCH   5  19
HETATM   19  C   UNL     1     -11.142  11.234  69.225  1.00  0.00    -0.255 C  
HETATM   20  O   UNL     1      -9.975  11.272  68.869  1.00  0.00    -0.203 OA 
BRANCH  19  21
HETATM   21  O   UNL     1     -12.110  12.064  68.754  1.00  0.00    -0.273 OA 
BRANCH  21  22
HETATM   22  C   UNL     1     -11.674  13.420  68.620  1.00  0.00    -0.349 C  
BRANCH  22  23
HETATM   23  C   UNL     1     -11.960  13.887  67.179  1.00  0.00    -0.420 C  
BRANCH  23  24
HETATM   24  N   UNL     1     -10.768  14.007  66.304  1.00  0.00    -0.286 NA 
HETATM   25  C   UNL     1     -10.299  12.723  65.761  1.00  0.00    -0.281 C  
HETATM   26  C   UNL     1     -11.342  12.054  64.870  1.00  0.00    -0.366 C  
HETATM   27  C   UNL     1     -11.815  12.983  63.753  1.00  0.00    -0.566 C  
HETATM   28  C   UNL     1     -12.065  14.424  64.207  1.00  0.00    -0.461 C  
HETATM   29  C   UNL     1     -11.004  14.933  65.185  1.00  0.00    -0.399 C  
ENDBRANCH  23  24
ENDBRANCH  22  23
ENDBRANCH  21  22
ENDBRANCH  19  21
ENDBRANCH   5  19
TORSDOF 6
ENDMDL
MODEL       59
REMARK 921   NORMALIZED FREE ENERGY PREDICTED BY IDOCK:   -6.29 KCAL/MOL
REMARK 922        TOTAL FREE ENERGY PREDICTED BY IDOCK:   -9.19 KCAL/MOL
REMARK 923 INTER-LIGAND FREE ENERGY PREDICTED BY IDOCK:   -8.06 KCAL/MOL
REMARK 924 INTRA-LIGAND FREE ENERGY PREDICTED BY IDOCK:   -1.13 KCAL/MOL
REMARK 927      BINDING AFFINITY PREDICTED BY RF-SCORE:    0.00 PKD
ROOT
HETATM    1  C   UNL     1      -9.241   8.157  72.556  1.00  0.00    -0.319 C  
HETATM    2  C   UNL     1      -9.455   8.953  71.304  1.00  0.00    -0.343 C  
HETATM    3  C   UNL     1     -10.636   9.307  70.763  1.00  0.00    -0.285 C  
HETATM    4  O   UNL     1     -10.780  10.145  69.674  1.00  0.00    -0.227 OA 
HETATM    5  C   UNL     1      -9.822  11.472  67.927  1.00  0.00    -0.192 A  
HETATM    6  C   UNL     1      -8.683  11.830  67.171  1.00  0.00    -0.169 A  
HETATM    7  C   UNL     1      -9.670  10.609  69.019  1.00  0.00    -0.202 A  
HETATM    8  C   UNL     1      -8.389  10.205  69.390  1.00  0.00    -0.174 A  
HETATM    9  C   UNL     1      -7.415  11.366  67.512  1.00  0.00    -0.113 A  
HETATM   10  O   UNL     1      -7.108   9.074  70.994  1.00  0.00    -0.084 OA 
HETATM   11  C   UNL     1      -7.264  10.571  68.640  1.00  0.00    -0.087 A  
HETATM   12  C   UNL     1      -8.224   9.387  70.602  1.00  0.00    -0.168 C  
ENDROOT
BRANCH   3  13
HETATM   13  C   UNL     1     -11.926   8.798  71.249  1.00  0.00    -0.353 A  
HETATM   14  C   UNL     1     -13.974   9.144  72.516  1.00  0.00    -0.453 A  
HETATM   15  C   UNL     1     -13.527   6.993  71.514  1.00  0.00    -0.363 A  
HETATM   16  C   UNL     1     -12.316   7.476  71.009  1.00  0.00    -0.265 A  
HETATM   17  C   UNL     1     -12.766   9.629  72.008  1.00  0.00    -0.470 A  
HETATM   18  C   UNL     1     -14.354   7.825  72.270  1.00  0.00    -0.281 A  
ENDBRANCH   3  13
BRANCH   5  19
HETATM   19  C   UNL     1     -11.176  11.961  67.529  1.00  0.00    -0.296 C  
HETATM   20  O   UNL     1     -11.899  11.491  66.665  1.00  0.00    -0.470 OA 
BRANCH  19  21
HETATM   21  O   UNL     1     -11.475  13.072  68.253  1.00  0.00    -0.270 OA 
BRANCH  21  22
HETATM   22  C   UNL     1     -11.766  14.213  67.440  1.00  0.00    -0.391 C  
BRANCH  22  23
HETATM   23  C   UNL     1     -11.045  15.437  68.039  1.00  0.00    -0.312 C  
BRANCH  23  24
HETATM   24  N   UNL     1     -10.855  16.578  67.110  1.00  0.00    -0.210 NA 
HETATM   25  C   UNL     1     -10.316  17.785  67.755  1.00  0.00    -0.380 C  
HETATM   26  C   UNL     1      -8.927  17.557  68.344  1.00  0.00    -0.276 C  
HETATM   27  C   UNL     1      -7.952  17.008  67.303  1.00  0.00    -0.197 C  
HETATM   28  C   UNL     1      -8.548  15.919  66.406  1.00  0.00    -0.364 C  
HETATM   29  C   UNL     1      -9.986  16.221  65.979  1.00  0.00    -0.345 C  
ENDBRANCH  23  24
ENDBRANCH  22  23
ENDBRANCH  21  22
ENDBRANCH  19  21
ENDBRANCH   5  19
TORSDOF 6
ENDMDL
MODEL       60
REMARK 921   NORMALIZED FREE ENERGY PREDICTED BY IDOCK:   -6.27 KCAL/MOL
REMARK 922        TOTAL FREE ENERGY PREDICTED BY IDOCK:   -9.15 KCAL/MOL
REMARK 923 INTER-LIGAND FREE ENERGY PREDICTED BY IDOCK:   -8.68 KCAL/MOL
REMARK 924 INTRA-LIGAND FREE ENERGY PREDICTED BY IDOCK:   -0.48 KCAL/MOL
REMARK 927      BINDING AFFINITY PREDICTED BY RF-SCORE:    0.00 PKD
ROOT
HETATM    1  C   UNL     1     -13.340  13.491  72.540  1.00  0.00    -0.617 C  
HETATM    2  C   UNL     1     -12.705  13.428  71.184  1.00  0.00    -0.411 C  
HETATM    3  C   UNL     1     -12.366  12.320  70.499  1.00  0.00    -0.264 C  
HETATM    4  O   UNL     1     -11.894  12.313  69.201  1.00  0.00    -0.300 OA 
HETATM    5  C   UNL     1     -11.204  13.484  67.231  1.00  0.00    -0.319 A  
HETATM    6  C   UNL     1     -10.833  14.703  66.620  1.00  0.00    -0.312 A  
HETATM    7  C   UNL     1     -11.664  13.498  68.553  1.00  0.00    -0.357 A  
HETATM    8  C   UNL     1     -11.840  14.720  69.198  1.00  0.00    -0.340 A  
HETATM    9  C   UNL     1     -10.950  15.915  67.298  1.00  0.00    -0.234 A  
HETATM   10  O   UNL     1     -12.658  15.798  71.111  1.00  0.00    -0.443 OA 
HETATM   11  C   UNL     1     -11.478  15.926  68.582  1.00  0.00    -0.391 A  
HETATM   12  C   UNL     1     -12.427  14.737  70.546  1.00  0.00    -0.352 C  
ENDROOT
BRANCH   3  13
HETATM   13  C   UNL     1     -12.420  10.971  71.081  1.00  0.00    -0.502 A  
HETATM   14  C   UNL     1     -13.588   9.308  72.419  1.00  0.00    -0.527 A  
HETATM   15  C   UNL     1     -11.392   8.821  71.543  1.00  0.00    -0.375 A  
HETATM   16  C   UNL     1     -11.344  10.087  70.948  1.00  0.00    -0.439 A  
HETATM   17  C   UNL     1     -13.543  10.571  71.822  1.00  0.00    -0.212 A  
HETATM   18  C   UNL     1     -12.511   8.434  72.280  1.00  0.00    -0.417 A  
ENDBRANCH   3  13
BRANCH   5  19
HETATM   19  C   UNL     1     -11.048  12.194  66.495  1.00  0.00    -0.307 C  
HETATM   20  O   UNL     1     -11.823  11.716  65.682  1.00  0.00    -0.278 OA 
BRANCH  19  21
HETATM   21  O   UNL     1      -9.908  11.581  66.914  1.00  0.00    -0.194 OA 
BRANCH  21  22
HETATM   22  C   UNL     1      -8.896  11.523  65.905  1.00  0.00    -0.105 C  
BRANCH  22  23
HETATM   23  C   UNL     1      -8.263  10.117  65.926  1.00  0.00    -0.138 C  
BRANCH  23  24
HETATM   24  N   UNL     1      -8.854   9.143  64.976  1.00  0.00    -0.197 NA 
HETATM   25  C   UNL     1      -8.985   9.657  63.604  1.00  0.00    -0.216 C  
HETATM   26  C   UNL     1      -7.635  10.003  62.983  1.00  0.00    -0.137 C  
HETATM   27  C   UNL     1      -6.666   8.822  63.038  1.00  0.00    -0.090 C  
HETATM   28  C   UNL     1      -6.679   8.068  64.370  1.00  0.00    -0.061 C  
HETATM   29  C   UNL     1      -8.089   7.887  64.937  1.00  0.00    -0.144 C  
ENDBRANCH  23  24
ENDBRANCH  22  23
ENDBRANCH  21  22
ENDBRANCH  19  21
ENDBRANCH   5  19
TORSDOF 6
ENDMDL
MODEL       61
REMARK 921   NORMALIZED FREE ENERGY PREDICTED BY IDOCK:   -6.24 KCAL/MOL
REMARK 922        TOTAL FREE ENERGY PREDICTED BY IDOCK:   -9.11 KCAL/MOL
REMARK 923 INTER-LIGAND FREE ENERGY PREDICTED BY IDOCK:   -8.05 KCAL/MOL
REMARK 924 INTRA-LIGAND FREE ENERGY PREDICTED BY IDOCK:   -1.06 KCAL/MOL
REMARK 927      BINDING AFFINITY PREDICTED BY RF-SCORE:    0.00 PKD
ROOT
HETATM    1  C   UNL     1      -6.401  16.228  67.205  1.00  0.00    -0.214 C  
HETATM    2  C   UNL     1      -7.389  15.103  67.272  1.00  0.00    -0.216 C  
HETATM    3  C   UNL     1      -8.731  15.202  67.253  1.00  0.00    -0.202 C  
HETATM    4  O   UNL     1      -9.597  14.127  67.195  1.00  0.00    -0.229 OA 
HETATM    5  C   UNL     1      -9.983  11.765  67.158  1.00  0.00    -0.221 A  
HETATM    6  C   UNL     1      -9.481  10.458  67.346  1.00  0.00    -0.170 A  
HETATM    7  C   UNL     1      -9.102  12.851  67.237  1.00  0.00    -0.208 A  
HETATM    8  C   UNL     1      -7.740  12.608  67.398  1.00  0.00    -0.161 A  
HETATM    9  C   UNL     1      -8.125  10.232  67.573  1.00  0.00    -0.110 A  
HETATM   10  O   UNL     1      -5.598  13.558  67.438  1.00  0.00    -0.351 OA 
HETATM   11  C   UNL     1      -7.248  11.308  67.574  1.00  0.00    -0.100 A  
HETATM   12  C   UNL     1      -6.806  13.744  67.369  1.00  0.00    -0.018 C  
ENDROOT
BRANCH   3  13
HETATM   13  C   UNL     1      -9.441  16.486  67.340  1.00  0.00    -0.228 A  
HETATM   14  C   UNL     1     -10.524  18.363  66.232  1.00  0.00    -0.421 A  
HETATM   15  C   UNL     1     -10.282  18.359  68.635  1.00  0.00    -0.370 A  
HETATM   16  C   UNL     1      -9.641  17.117  68.572  1.00  0.00    -0.288 A  
HETATM   17  C   UNL     1      -9.889  17.120  66.169  1.00  0.00    -0.280 A  
HETATM   18  C   UNL     1     -10.720  18.983  67.466  1.00  0.00    -0.532 A  
ENDBRANCH   3  13
BRANCH   5  19
HETATM   19  C   UNL     1     -11.444  11.988  66.941  1.00  0.00    -0.337 C  
HETATM   20  O   UNL     1     -11.956  12.760  66.146  1.00  0.00    -0.407 OA 
BRANCH  19  21
HETATM   21  O   UNL     1     -12.144  11.222  67.819  1.00  0.00    -0.631 OA 
BRANCH  21  22
HETATM   22  C   UNL     1     -12.076  11.703  69.165  1.00  0.00    -0.251 C  
BRANCH  22  23
HETATM   23  C   UNL     1     -12.626  10.610  70.104  1.00  0.00    -0.214 C  
BRANCH  23  24
HETATM   24  N   UNL     1     -11.720  10.207  71.207  1.00  0.00    -0.365 NA 
HETATM   25  C   UNL     1     -12.346   9.313  72.193  1.00  0.00    -0.328 C  
HETATM   26  C   UNL     1     -12.786   7.988  71.577  1.00  0.00    -0.325 C  
HETATM   27  C   UNL     1     -11.635   7.289  70.853  1.00  0.00    -0.331 C  
HETATM   28  C   UNL     1     -10.768   8.229  70.010  1.00  0.00    -0.239 C  
HETATM   29  C   UNL     1     -10.497   9.566  70.701  1.00  0.00    -0.308 C  
ENDBRANCH  23  24
ENDBRANCH  22  23
ENDBRANCH  21  22
ENDBRANCH  19  21
ENDBRANCH   5  19
TORSDOF 6
ENDMDL
MODEL       62
REMARK 921   NORMALIZED FREE ENERGY PREDICTED BY IDOCK:   -6.22 KCAL/MOL
REMARK 922        TOTAL FREE ENERGY PREDICTED BY IDOCK:   -9.09 KCAL/MOL
REMARK 923 INTER-LIGAND FREE ENERGY PREDICTED BY IDOCK:   -7.86 KCAL/MOL
REMARK 924 INTRA-LIGAND FREE ENERGY PREDICTED BY IDOCK:   -1.23 KCAL/MOL
REMARK 927      BINDING AFFINITY PREDICTED BY RF-SCORE:    0.00 PKD
ROOT
HETATM    1  C   UNL     1      -5.813  11.385  67.900  1.00  0.00    -0.044 C  
HETATM    2  C   UNL     1      -6.875  12.372  67.518  1.00  0.00    -0.143 C  
HETATM    3  C   UNL     1      -8.152  12.100  67.189  1.00  0.00    -0.175 C  
HETATM    4  O   UNL     1      -9.124  13.054  66.962  1.00  0.00    -0.216 OA 
HETATM    5  C   UNL     1      -9.787  15.347  66.772  1.00  0.00    -0.255 A  
HETATM    6  C   UNL     1      -9.413  16.704  66.654  1.00  0.00    -0.271 A  
HETATM    7  C   UNL     1      -8.793  14.383  66.984  1.00  0.00    -0.237 A  
HETATM    8  C   UNL     1      -7.476  14.798  67.173  1.00  0.00    -0.069 A  
HETATM    9  C   UNL     1      -8.083  17.100  66.778  1.00  0.00    -0.278 A  
HETATM   10  O   UNL     1      -5.303  14.132  67.744  1.00  0.00    -0.256 OA 
HETATM   11  C   UNL     1      -7.115  16.147  67.063  1.00  0.00    -0.248 A  
HETATM   12  C   UNL     1      -6.454  13.793  67.505  1.00  0.00    -0.072 C  
ENDROOT
BRANCH   3  13
HETATM   13  C   UNL     1      -8.654  10.733  66.988  1.00  0.00    -0.130 A  
HETATM   14  C   UNL     1      -9.728   8.740  67.881  1.00  0.00    -0.188 A  
HETATM   15  C   UNL     1      -8.917   8.755  65.606  1.00  0.00    -0.248 A  
HETATM   16  C   UNL     1      -8.471  10.070  65.770  1.00  0.00    -0.145 A  
HETATM   17  C   UNL     1      -9.287  10.056  68.043  1.00  0.00    -0.139 A  
HETATM   18  C   UNL     1      -9.542   8.090  66.662  1.00  0.00    -0.297 A  
ENDBRANCH   3  13
BRANCH   5  19
HETATM   19  C   UNL     1     -11.215  14.941  66.611  1.00  0.00    -0.340 C  
HETATM   20  O   UNL     1     -11.754  14.548  65.589  1.00  0.00    -0.345 OA 
BRANCH  19  21
HETATM   21  O   UNL     1     -11.863  15.129  67.791  1.00  0.00    -0.310 OA 
BRANCH  21  22
HETATM   22  C   UNL     1     -12.120  13.910  68.494  1.00  0.00    -0.296 C  
BRANCH  22  23
HETATM   23  C   UNL     1     -12.002  14.183  70.007  1.00  0.00    -0.340 C  
BRANCH  23  24
HETATM   24  N   UNL     1     -12.743  15.371  70.496  1.00  0.00    -0.421 NA 
HETATM   25  C   UNL     1     -13.958  15.040  71.257  1.00  0.00    -0.444 C  
HETATM   26  C   UNL     1     -13.651  14.252  72.526  1.00  0.00    -0.620 C  
HETATM   27  C   UNL     1     -12.629  14.970  73.407  1.00  0.00    -0.641 C  
HETATM   28  C   UNL     1     -11.459  15.580  72.631  1.00  0.00    -0.394 C  
HETATM   29  C   UNL     1     -11.894  16.242  71.322  1.00  0.00    -0.299 C  
ENDBRANCH  23  24
ENDBRANCH  22  23
ENDBRANCH  21  22
ENDBRANCH  19  21
ENDBRANCH   5  19
TORSDOF 6
ENDMDL
MODEL       63
REMARK 921   NORMALIZED FREE ENERGY PREDICTED BY IDOCK:   -6.19 KCAL/MOL
REMARK 922        TOTAL FREE ENERGY PREDICTED BY IDOCK:   -9.05 KCAL/MOL
REMARK 923 INTER-LIGAND FREE ENERGY PREDICTED BY IDOCK:   -8.35 KCAL/MOL
REMARK 924 INTRA-LIGAND FREE ENERGY PREDICTED BY IDOCK:   -0.70 KCAL/MOL
REMARK 927      BINDING AFFINITY PREDICTED BY RF-SCORE:    0.00 PKD
ROOT
HETATM    1  C   UNL     1      -7.436   9.749  63.332  1.00  0.00    -0.124 C  
HETATM    2  C   UNL     1      -8.527  10.286  64.209  1.00  0.00    -0.181 C  
HETATM    3  C   UNL     1      -8.805   9.915  65.472  1.00  0.00    -0.159 C  
HETATM    4  O   UNL     1      -9.745  10.525  66.281  1.00  0.00    -0.189 OA 
HETATM    5  C   UNL     1     -11.463  12.160  66.607  1.00  0.00    -0.426 A  
HETATM    6  C   UNL     1     -12.361  13.094  66.045  1.00  0.00    -0.426 A  
HETATM    7  C   UNL     1     -10.526  11.532  65.778  1.00  0.00    -0.259 A  
HETATM    8  C   UNL     1     -10.437  11.918  64.442  1.00  0.00    -0.356 A  
HETATM    9  C   UNL     1     -12.306  13.423  64.692  1.00  0.00    -0.433 A  
HETATM   10  O   UNL     1      -9.230  11.704  62.444  1.00  0.00    -0.220 OA 
HETATM   11  C   UNL     1     -11.325  12.852  63.894  1.00  0.00    -0.489 A  
HETATM   12  C   UNL     1      -9.379  11.336  63.602  1.00  0.00    -0.174 C  
ENDROOT
BRANCH   3  13
HETATM   13  C   UNL     1      -8.162   8.769  66.132  1.00  0.00    -0.117 A  
HETATM   14  C   UNL     1      -8.034   6.369  66.514  1.00  0.00    -0.109 A  
HETATM   15  C   UNL     1      -6.564   7.860  67.717  1.00  0.00    -0.060 A  
HETATM   16  C   UNL     1      -7.139   8.958  67.067  1.00  0.00    -0.078 A  
HETATM   17  C   UNL     1      -8.605   7.464  65.861  1.00  0.00    -0.165 A  
HETATM   18  C   UNL     1      -7.014   6.568  67.443  1.00  0.00    -0.078 A  
ENDBRANCH   3  13
BRANCH   5  19
HETATM   19  C   UNL     1     -11.555  11.803  68.055  1.00  0.00    -0.316 C  
HETATM   20  O   UNL     1     -12.414  11.119  68.587  1.00  0.00    -0.463 OA 
BRANCH  19  21
HETATM   21  O   UNL     1     -10.541  12.412  68.725  1.00  0.00    -0.227 OA 
BRANCH  21  22
HETATM   22  C   UNL     1     -10.845  13.756  69.107  1.00  0.00    -0.170 C  
BRANCH  22  23
HETATM   23  C   UNL     1     -11.964  13.722  70.168  1.00  0.00    -0.334 C  
BRANCH  23  24
HETATM   24  N   UNL     1     -12.608  15.029  70.451  1.00  0.00    -0.355 NA 
HETATM   25  C   UNL     1     -13.910  14.914  71.127  1.00  0.00    -0.358 C  
HETATM   26  C   UNL     1     -13.795  14.256  72.499  1.00  0.00    -0.575 C  
HETATM   27  C   UNL     1     -12.776  14.969  73.387  1.00  0.00    -0.654 C  
HETATM   28  C   UNL     1     -11.486  15.362  72.661  1.00  0.00    -0.401 C  
HETATM   29  C   UNL     1     -11.738  15.903  71.252  1.00  0.00    -0.448 C  
ENDBRANCH  23  24
ENDBRANCH  22  23
ENDBRANCH  21  22
ENDBRANCH  19  21
ENDBRANCH   5  19
TORSDOF 6
ENDMDL
MODEL       64
REMARK 921   NORMALIZED FREE ENERGY PREDICTED BY IDOCK:   -6.19 KCAL/MOL
REMARK 922        TOTAL FREE ENERGY PREDICTED BY IDOCK:   -9.05 KCAL/MOL
REMARK 923 INTER-LIGAND FREE ENERGY PREDICTED BY IDOCK:   -7.87 KCAL/MOL
REMARK 924 INTRA-LIGAND FREE ENERGY PREDICTED BY IDOCK:   -1.18 KCAL/MOL
REMARK 927      BINDING AFFINITY PREDICTED BY RF-SCORE:    0.00 PKD
ROOT
HETATM    1  C   UNL     1     -10.470   6.883  73.765  1.00  0.00    -0.390 C  
HETATM    2  C   UNL     1     -10.460   6.474  72.323  1.00  0.00    -0.226 C  
HETATM    3  C   UNL     1     -10.925   7.182  71.277  1.00  0.00    -0.240 C  
HETATM    4  O   UNL     1     -10.783   6.813  69.954  1.00  0.00    -0.222 OA 
HETATM    5  C   UNL     1     -10.047   5.251  68.296  1.00  0.00    -0.219 A  
HETATM    6  C   UNL     1      -9.583   3.953  67.984  1.00  0.00    -0.189 A  
HETATM    7  C   UNL     1     -10.205   5.611  69.640  1.00  0.00    -0.251 A  
HETATM    8  C   UNL     1      -9.808   4.718  70.633  1.00  0.00    -0.292 A  
HETATM    9  C   UNL     1      -9.252   3.044  68.986  1.00  0.00    -0.222 A  
HETATM   10  O   UNL     1      -9.467   4.408  72.931  1.00  0.00    -0.128 OA 
HETATM   11  C   UNL     1      -9.341   3.437  70.314  1.00  0.00    -0.243 A  
HETATM   12  C   UNL     1      -9.873   5.143  72.040  1.00  0.00    -0.171 C  
ENDROOT
BRANCH   3  13
HETATM   13  C   UNL     1     -11.689   8.429  71.430  1.00  0.00    -0.332 A  
HETATM   14  C   UNL     1     -13.723   9.572  72.119  1.00  0.00    -0.447 A  
HETATM   15  C   UNL     1     -11.937  10.818  71.078  1.00  0.00    -0.409 A  
HETATM   16  C   UNL     1     -11.181   9.646  70.963  1.00  0.00    -0.445 A  
HETATM   17  C   UNL     1     -12.967   8.402  72.010  1.00  0.00    -0.388 A  
HETATM   18  C   UNL     1     -13.208  10.780  71.652  1.00  0.00    -0.487 A  
ENDBRANCH   3  13
BRANCH   5  19
HETATM   19  C   UNL     1     -10.420   6.202  67.206  1.00  0.00    -0.255 C  
HETATM   20  O   UNL     1     -11.531   6.371  66.731  1.00  0.00    -0.141 OA 
BRANCH  19  21
HETATM   21  O   UNL     1      -9.299   6.835  66.769  1.00  0.00    -0.149 OA 
BRANCH  21  22
HETATM   22  C   UNL     1      -9.220   8.199  67.193  1.00  0.00    -0.145 C  
BRANCH  22  23
HETATM   23  C   UNL     1      -9.796   9.092  66.075  1.00  0.00    -0.272 C  
BRANCH  23  24
HETATM   24  N   UNL     1      -9.215  10.455  65.992  1.00  0.00    -0.161 NA 
HETATM   25  C   UNL     1      -9.619  11.199  64.789  1.00  0.00    -0.240 C  
HETATM   26  C   UNL     1     -11.125  11.437  64.733  1.00  0.00    -0.258 C  
HETATM   27  C   UNL     1     -11.639  12.120  66.000  1.00  0.00    -0.420 C  
HETATM   28  C   UNL     1     -11.041  11.561  67.294  1.00  0.00    -0.351 C  
HETATM   29  C   UNL     1      -9.545  11.261  67.176  1.00  0.00    -0.177 C  
ENDBRANCH  23  24
ENDBRANCH  22  23
ENDBRANCH  21  22
ENDBRANCH  19  21
ENDBRANCH   5  19
TORSDOF 6
ENDMDL
MODEL       65
REMARK 921   NORMALIZED FREE ENERGY PREDICTED BY IDOCK:   -6.16 KCAL/MOL
REMARK 922        TOTAL FREE ENERGY PREDICTED BY IDOCK:   -9.01 KCAL/MOL
REMARK 923 INTER-LIGAND FREE ENERGY PREDICTED BY IDOCK:   -7.53 KCAL/MOL
REMARK 924 INTRA-LIGAND FREE ENERGY PREDICTED BY IDOCK:   -1.48 KCAL/MOL
REMARK 927      BINDING AFFINITY PREDICTED BY RF-SCORE:    0.00 PKD
ROOT
HETATM    1  C   UNL     1     -11.398  16.682  64.668  1.00  0.00     0.039 C  
HETATM    2  C   UNL     1     -10.348  16.052  65.532  1.00  0.00    -0.415 C  
HETATM    3  C   UNL     1     -10.054  14.741  65.623  1.00  0.00    -0.366 C  
HETATM    4  O   UNL     1      -8.996  14.222  66.343  1.00  0.00    -0.188 OA 
HETATM    5  C   UNL     1      -7.129  14.525  67.811  1.00  0.00    -0.190 A  
HETATM    6  C   UNL     1      -6.415  15.363  68.697  1.00  0.00    -0.094 A  
HETATM    7  C   UNL     1      -8.211  15.054  67.097  1.00  0.00    -0.222 A  
HETATM    8  C   UNL     1      -8.493  16.415  67.204  1.00  0.00    -0.208 A  
HETATM    9  C   UNL     1      -6.748  16.708  68.845  1.00  0.00    -0.184 A  
HETATM   10  O   UNL     1      -9.787  18.191  66.388  1.00  0.00    -0.334 OA 
HETATM   11  C   UNL     1      -7.775  17.241  68.077  1.00  0.00    -0.202 A  
HETATM   12  C   UNL     1      -9.560  16.988  66.369  1.00  0.00    -0.282 C  
ENDROOT
BRANCH   3  13
HETATM   13  C   UNL     1     -10.866  13.692  64.990  1.00  0.00    -0.358 A  
HETATM   14  C   UNL     1     -11.032  11.793  63.478  1.00  0.00    -0.499 A  
HETATM   15  C   UNL     1     -13.014  12.646  64.561  1.00  0.00    -0.236 A  
HETATM   16  C   UNL     1     -12.248  13.625  65.202  1.00  0.00    -0.461 A  
HETATM   17  C   UNL     1     -10.264  12.767  64.122  1.00  0.00    -0.344 A  
HETATM   18  C   UNL     1     -12.407  11.733  63.697  1.00  0.00    -0.488 A  
ENDBRANCH   3  13
BRANCH   5  19
HETATM   19  C   UNL     1      -6.771  13.081  67.685  1.00  0.00    -0.157 C  
HETATM   20  O   UNL     1      -6.025  12.580  66.859  1.00  0.00    -0.278 OA 
BRANCH  19  21
HETATM   21  O   UNL     1      -7.459  12.372  68.619  1.00  0.00    -0.111 OA 
BRANCH  21  22
HETATM   22  C   UNL     1      -7.717  11.021  68.225  1.00  0.00    -0.113 C  
BRANCH  22  23
HETATM   23  C   UNL     1      -8.751  10.417  69.196  1.00  0.00    -0.166 C  
BRANCH  23  24
HETATM   24  N   UNL     1      -9.988   9.898  68.562  1.00  0.00    -0.155 NA 
HETATM   25  C   UNL     1     -10.945   9.318  69.517  1.00  0.00    -0.151 C  
HETATM   26  C   UNL     1     -11.453  10.345  70.525  1.00  0.00    -0.431 C  
HETATM   27  C   UNL     1     -12.040  11.576  69.835  1.00  0.00    -0.389 C  
HETATM   28  C   UNL     1     -11.217  12.074  68.644  1.00  0.00    -0.309 C  
HETATM   29  C   UNL     1     -10.675  10.936  67.778  1.00  0.00    -0.235 C  
ENDBRANCH  23  24
ENDBRANCH  22  23
ENDBRANCH  21  22
ENDBRANCH  19  21
ENDBRANCH   5  19
TORSDOF 6
ENDMDL
MODEL       66
REMARK 921   NORMALIZED FREE ENERGY PREDICTED BY IDOCK:   -6.16 KCAL/MOL
REMARK 922        TOTAL FREE ENERGY PREDICTED BY IDOCK:   -9.01 KCAL/MOL
REMARK 923 INTER-LIGAND FREE ENERGY PREDICTED BY IDOCK:   -7.68 KCAL/MOL
REMARK 924 INTRA-LIGAND FREE ENERGY PREDICTED BY IDOCK:   -1.32 KCAL/MOL
REMARK 927      BINDING AFFINITY PREDICTED BY RF-SCORE:    0.00 PKD
ROOT
HETATM    1  C   UNL     1     -13.098  13.748  65.530  1.00  0.00    -0.210 C  
HETATM    2  C   UNL     1     -12.015  12.711  65.530  1.00  0.00    -0.509 C  
HETATM    3  C   UNL     1     -11.483  12.097  66.604  1.00  0.00    -0.365 C  
HETATM    4  O   UNL     1     -10.572  11.060  66.544  1.00  0.00    -0.249 OA 
HETATM    5  C   UNL     1      -9.179   9.584  65.274  1.00  0.00    -0.307 A  
HETATM    6  C   UNL     1      -8.577   9.260  64.038  1.00  0.00    -0.204 A  
HETATM    7  C   UNL     1     -10.088  10.648  65.330  1.00  0.00    -0.291 A  
HETATM    8  C   UNL     1     -10.450  11.293  64.150  1.00  0.00    -0.431 A  
HETATM    9  C   UNL     1      -8.897   9.957  62.874  1.00  0.00    -0.248 A  
HETATM   10  O   UNL     1     -11.876  12.874  63.169  1.00  0.00    -0.506 OA 
HETATM   11  C   UNL     1      -9.855  10.960  62.926  1.00  0.00    -0.313 A  
HETATM   12  C   UNL     1     -11.486  12.336  64.197  1.00  0.00    -0.383 C  
ENDROOT
BRANCH   3  13
HETATM   13  C   UNL     1     -11.783  12.497  67.986  1.00  0.00    -0.410 A  
HETATM   14  C   UNL     1     -12.074  14.253  69.646  1.00  0.00    -0.396 A  
HETATM   15  C   UNL     1     -12.216  11.935  70.307  1.00  0.00    -0.353 A  
HETATM   16  C   UNL     1     -11.973  11.539  68.988  1.00  0.00    -0.377 A  
HETATM   17  C   UNL     1     -11.836  13.858  68.326  1.00  0.00    -0.412 A  
HETATM   18  C   UNL     1     -12.263  13.290  70.636  1.00  0.00    -0.417 A  
ENDBRANCH   3  13
BRANCH   5  19
HETATM   19  C   UNL     1      -8.803   8.841  66.514  1.00  0.00    -0.131 C  
HETATM   20  O   UNL     1      -9.333   7.832  66.951  1.00  0.00    -0.150 OA 
BRANCH  19  21
HETATM   21  O   UNL     1      -7.790   9.501  67.135  1.00  0.00    -0.095 OA 
BRANCH  21  22
HETATM   22  C   UNL     1      -7.938   9.552  68.557  1.00  0.00    -0.093 C  
BRANCH  22  23
HETATM   23  C   UNL     1      -7.465  10.935  69.049  1.00  0.00    -0.124 C  
BRANCH  23  24
HETATM   24  N   UNL     1      -6.864  11.805  68.009  1.00  0.00    -0.069 NA 
HETATM   25  C   UNL     1      -7.809  12.768  67.422  1.00  0.00    -0.172 C  
HETATM   26  C   UNL     1      -8.352  13.751  68.454  1.00  0.00    -0.152 C  
HETATM   27  C   UNL     1      -7.227  14.469  69.200  1.00  0.00    -0.138 C  
HETATM   28  C   UNL     1      -6.068  13.556  69.608  1.00  0.00    -0.121 C  
HETATM   29  C   UNL     1      -5.699  12.543  68.522  1.00  0.00    -0.055 C  
ENDBRANCH  23  24
ENDBRANCH  22  23
ENDBRANCH  21  22
ENDBRANCH  19  21
ENDBRANCH   5  19
TORSDOF 6
ENDMDL
MODEL       67
REMARK 921   NORMALIZED FREE ENERGY PREDICTED BY IDOCK:   -6.16 KCAL/MOL
REMARK 922        TOTAL FREE ENERGY PREDICTED BY IDOCK:   -9.00 KCAL/MOL
REMARK 923 INTER-LIGAND FREE ENERGY PREDICTED BY IDOCK:   -7.56 KCAL/MOL
REMARK 924 INTRA-LIGAND FREE ENERGY PREDICTED BY IDOCK:   -1.45 KCAL/MOL
REMARK 927      BINDING AFFINITY PREDICTED BY RF-SCORE:    0.00 PKD
ROOT
HETATM    1  C   UNL     1     -13.222  11.474  71.586  1.00  0.00    -0.389 C  
HETATM    2  C   UNL     1     -12.092  11.442  70.603  1.00  0.00    -0.469 C  
HETATM    3  C   UNL     1     -11.254  10.415  70.364  1.00  0.00    -0.321 C  
HETATM    4  O   UNL     1     -10.305  10.393  69.362  1.00  0.00    -0.213 OA 
HETATM    5  C   UNL     1      -9.161  11.468  67.553  1.00  0.00    -0.166 A  
HETATM    6  C   UNL     1      -8.869  12.656  66.848  1.00  0.00    -0.201 A  
HETATM    7  C   UNL     1     -10.112  11.502  68.580  1.00  0.00    -0.207 A  
HETATM    8  C   UNL     1     -10.816  12.682  68.814  1.00  0.00    -0.267 A  
HETATM    9  C   UNL     1      -9.531  13.848  67.135  1.00  0.00    -0.246 A  
HETATM   10  O   UNL     1     -12.573  13.684  69.998  1.00  0.00    -0.243 OA 
HETATM   11  C   UNL     1     -10.526  13.854  68.104  1.00  0.00    -0.246 A  
HETATM   12  C   UNL     1     -11.890  12.684  69.818  1.00  0.00    -0.309 C  
ENDROOT
BRANCH   3  13
HETATM   13  C   UNL     1     -11.225   9.198  71.187  1.00  0.00    -0.395 A  
HETATM   14  C   UNL     1     -10.068   7.773  72.785  1.00  0.00    -0.344 A  
HETATM   15  C   UNL     1     -12.191   7.079  71.870  1.00  0.00    -0.362 A  
HETATM   16  C   UNL     1     -12.253   8.252  71.112  1.00  0.00    -0.253 A  
HETATM   17  C   UNL     1     -10.131   8.948  72.032  1.00  0.00    -0.351 A  
HETATM   18  C   UNL     1     -11.098   6.838  72.703  1.00  0.00    -0.301 A  
ENDBRANCH   3  13
BRANCH   5  19
HETATM   19  C   UNL     1      -8.422  10.207  67.246  1.00  0.00    -0.125 C  
HETATM   20  O   UNL     1      -7.457   9.760  67.846  1.00  0.00    -0.085 OA 
BRANCH  19  21
HETATM   21  O   UNL     1      -8.961   9.637  66.136  1.00  0.00    -0.144 OA 
BRANCH  21  22
HETATM   22  C   UNL     1     -10.097   8.816  66.419  1.00  0.00    -0.243 C  
BRANCH  22  23
HETATM   23  C   UNL     1      -9.616   7.363  66.612  1.00  0.00    -0.190 C  
BRANCH  23  24
HETATM   24  N   UNL     1     -10.689   6.365  66.841  1.00  0.00    -0.324 NA 
HETATM   25  C   UNL     1     -10.319   4.996  66.452  1.00  0.00    -0.294 C  
HETATM   26  C   UNL     1      -9.141   4.461  67.262  1.00  0.00    -0.145 C  
HETATM   27  C   UNL     1      -9.397   4.556  68.766  1.00  0.00    -0.206 C  
HETATM   28  C   UNL     1     -10.042   5.873  69.206  1.00  0.00    -0.251 C  
HETATM   29  C   UNL     1     -11.130   6.353  68.244  1.00  0.00    -0.267 C  
ENDBRANCH  23  24
ENDBRANCH  22  23
ENDBRANCH  21  22
ENDBRANCH  19  21
ENDBRANCH   5  19
TORSDOF 6
ENDMDL
MODEL       68
REMARK 921   NORMALIZED FREE ENERGY PREDICTED BY IDOCK:   -6.14 KCAL/MOL
REMARK 922        TOTAL FREE ENERGY PREDICTED BY IDOCK:   -8.99 KCAL/MOL
REMARK 923 INTER-LIGAND FREE ENERGY PREDICTED BY IDOCK:   -7.24 KCAL/MOL
REMARK 924 INTRA-LIGAND FREE ENERGY PREDICTED BY IDOCK:   -1.75 KCAL/MOL
REMARK 927      BINDING AFFINITY PREDICTED BY RF-SCORE:    0.00 PKD
ROOT
HETATM    1  C   UNL     1      -6.391  10.068  67.529  1.00  0.00    -0.059 C  
HETATM    2  C   UNL     1      -7.388  11.167  67.735  1.00  0.00    -0.093 C  
HETATM    3  C   UNL     1      -8.676  11.033  68.103  1.00  0.00    -0.141 C  
HETATM    4  O   UNL     1      -9.522  12.085  68.397  1.00  0.00    -0.201 OA 
HETATM    5  C   UNL     1      -9.942  14.437  68.560  1.00  0.00    -0.237 A  
HETATM    6  C   UNL     1      -9.538  15.757  68.261  1.00  0.00    -0.201 A  
HETATM    7  C   UNL     1      -9.087  13.375  68.242  1.00  0.00    -0.181 A  
HETATM    8  C   UNL     1      -7.820  13.653  67.732  1.00  0.00    -0.172 A  
HETATM    9  C   UNL     1      -8.294  16.019  67.689  1.00  0.00    -0.164 A  
HETATM   10  O   UNL     1      -5.741  12.759  67.122  1.00  0.00    -0.332 OA 
HETATM   11  C   UNL     1      -7.423  14.966  67.448  1.00  0.00    -0.228 A  
HETATM   12  C   UNL     1      -6.884  12.542  67.503  1.00  0.00    -0.150 C  
ENDROOT
BRANCH   3  13
HETATM   13  C   UNL     1      -9.353   9.732  68.191  1.00  0.00    -0.136 A  
HETATM   14  C   UNL     1      -9.900   7.735  69.469  1.00  0.00    -0.179 A  
HETATM   15  C   UNL     1     -10.619   7.929  67.173  1.00  0.00    -0.383 A  
HETATM   16  C   UNL     1     -10.015   9.187  67.086  1.00  0.00    -0.280 A  
HETATM   17  C   UNL     1      -9.301   8.994  69.385  1.00  0.00    -0.158 A  
HETATM   18  C   UNL     1     -10.559   7.202  68.362  1.00  0.00    -0.223 A  
ENDBRANCH   3  13
BRANCH   5  19
HETATM   19  C   UNL     1     -11.289  14.175  69.149  1.00  0.00    -0.279 C  
HETATM   20  O   UNL     1     -11.656  14.440  70.283  1.00  0.00    -0.273 OA 
BRANCH  19  21
HETATM   21  O   UNL     1     -12.056  13.530  68.231  1.00  0.00    -0.354 OA 
BRANCH  21  22
HETATM   22  C   UNL     1     -12.316  14.315  67.063  1.00  0.00    -0.168 C  
BRANCH  22  23
HETATM   23  C   UNL     1     -12.362  13.374  65.842  1.00  0.00    -0.437 C  
BRANCH  23  24
HETATM   24  N   UNL     1     -11.620  13.849  64.648  1.00  0.00    -0.368 NA 
HETATM   25  C   UNL     1     -10.168  13.623  64.723  1.00  0.00    -0.337 C  
HETATM   26  C   UNL     1      -9.816  12.141  64.808  1.00  0.00    -0.157 C  
HETATM   27  C   UNL     1     -10.438  11.343  63.663  1.00  0.00    -0.472 C  
HETATM   28  C   UNL     1     -11.888  11.727  63.353  1.00  0.00    -0.435 C  
HETATM   29  C   UNL     1     -12.128  13.237  63.411  1.00  0.00    -0.439 C  
ENDBRANCH  23  24
ENDBRANCH  22  23
ENDBRANCH  21  22
ENDBRANCH  19  21
ENDBRANCH   5  19
TORSDOF 6
ENDMDL
MODEL       69
REMARK 921   NORMALIZED FREE ENERGY PREDICTED BY IDOCK:   -6.11 KCAL/MOL
REMARK 922        TOTAL FREE ENERGY PREDICTED BY IDOCK:   -8.94 KCAL/MOL
REMARK 923 INTER-LIGAND FREE ENERGY PREDICTED BY IDOCK:   -8.52 KCAL/MOL
REMARK 924 INTRA-LIGAND FREE ENERGY PREDICTED BY IDOCK:   -0.42 KCAL/MOL
REMARK 927      BINDING AFFINITY PREDICTED BY RF-SCORE:    0.00 PKD
ROOT
HETATM    1  C   UNL     1      -8.493   7.442  67.383  1.00  0.00    -0.119 C  
HETATM    2  C   UNL     1      -9.138   8.740  67.000  1.00  0.00    -0.160 C  
HETATM    3  C   UNL     1      -9.730   9.624  67.824  1.00  0.00    -0.146 C  
HETATM    4  O   UNL     1     -10.202  10.863  67.438  1.00  0.00    -0.188 OA 
HETATM    5  C   UNL     1     -10.619  12.494  65.736  1.00  0.00    -0.299 A  
HETATM    6  C   UNL     1     -10.702  12.808  64.361  1.00  0.00    -0.398 A  
HETATM    7  C   UNL     1     -10.156  11.229  66.119  1.00  0.00    -0.236 A  
HETATM    8  C   UNL     1      -9.697  10.351  65.140  1.00  0.00    -0.353 A  
HETATM    9  C   UNL     1     -10.302  11.895  63.387  1.00  0.00    -0.481 A  
HETATM   10  O   UNL     1      -8.634   8.303  64.724  1.00  0.00    -0.133 OA 
HETATM   11  C   UNL     1      -9.774  10.673  63.779  1.00  0.00    -0.382 A  
HETATM   12  C   UNL     1      -9.110   9.067  65.554  1.00  0.00    -0.214 C  
ENDROOT
BRANCH   3  13
HETATM   13  C   UNL     1      -9.986   9.347  69.245  1.00  0.00    -0.182 A  
HETATM   14  C   UNL     1     -11.561   9.110  71.085  1.00  0.00    -0.386 A  
HETATM   15  C   UNL     1      -9.189   8.926  71.498  1.00  0.00    -0.322 A  
HETATM   16  C   UNL     1      -8.931   9.147  70.142  1.00  0.00    -0.219 A  
HETATM   17  C   UNL     1     -11.305   9.327  69.729  1.00  0.00    -0.029 A  
HETATM   18  C   UNL     1     -10.502   8.911  71.970  1.00  0.00    -0.383 A  
ENDBRANCH   3  13
BRANCH   5  19
HETATM   19  C   UNL     1     -11.077  13.477  66.763  1.00  0.00    -0.299 C  
HETATM   20  O   UNL     1     -11.816  13.257  67.709  1.00  0.00    -0.342 OA 
BRANCH  19  21
HETATM   21  O   UNL     1     -10.579  14.704  66.453  1.00  0.00    -0.290 OA 
BRANCH  21  22
HETATM   22  C   UNL     1     -11.013  15.731  67.349  1.00  0.00    -0.279 C  
BRANCH  22  23
HETATM   23  C   UNL     1     -10.121  16.971  67.142  1.00  0.00    -0.292 C  
BRANCH  23  24
HETATM   24  N   UNL     1     -10.536  18.183  67.890  1.00  0.00    -0.395 NA 
HETATM   25  C   UNL     1      -9.594  18.577  68.949  1.00  0.00    -0.275 C  
HETATM   26  C   UNL     1      -8.219  18.941  68.397  1.00  0.00    -0.377 C  
HETATM   27  C   UNL     1      -8.308  20.014  67.313  1.00  0.00    -0.381 C  
HETATM   28  C   UNL     1      -9.456  19.803  66.321  1.00  0.00    -0.493 C  
HETATM   29  C   UNL     1     -10.745  19.331  66.996  1.00  0.00    -0.464 C  
ENDBRANCH  23  24
ENDBRANCH  22  23
ENDBRANCH  21  22
ENDBRANCH  19  21
ENDBRANCH   5  19
TORSDOF 6
ENDMDL
MODEL       70
REMARK 921   NORMALIZED FREE ENERGY PREDICTED BY IDOCK:   -6.07 KCAL/MOL
REMARK 922        TOTAL FREE ENERGY PREDICTED BY IDOCK:   -8.88 KCAL/MOL
REMARK 923 INTER-LIGAND FREE ENERGY PREDICTED BY IDOCK:   -8.32 KCAL/MOL
REMARK 924 INTRA-LIGAND FREE ENERGY PREDICTED BY IDOCK:   -0.57 KCAL/MOL
REMARK 927      BINDING AFFINITY PREDICTED BY RF-SCORE:    0.00 PKD
ROOT
HETATM    1  C   UNL     1     -12.104   6.297  72.014  1.00  0.00    -0.321 C  
HETATM    2  C   UNL     1     -11.797   7.567  71.280  1.00  0.00    -0.319 C  
HETATM    3  C   UNL     1     -11.012   7.705  70.194  1.00  0.00    -0.246 C  
HETATM    4  O   UNL     1     -10.857   8.878  69.481  1.00  0.00    -0.225 OA 
HETATM    5  C   UNL     1     -11.317  11.208  69.181  1.00  0.00    -0.340 A  
HETATM    6  C   UNL     1     -11.824  12.415  69.712  1.00  0.00    -0.387 A  
HETATM    7  C   UNL     1     -11.463  10.026  69.918  1.00  0.00    -0.215 A  
HETATM    8  C   UNL     1     -12.189  10.053  71.107  1.00  0.00    -0.477 A  
HETATM    9  C   UNL     1     -12.491  12.442  70.935  1.00  0.00    -0.367 A  
HETATM   10  O   UNL     1     -13.125   8.771  72.831  1.00  0.00    -0.312 OA 
HETATM   11  C   UNL     1     -12.696  11.254  71.622  1.00  0.00    -0.448 A  
HETATM   12  C   UNL     1     -12.433   8.791  71.821  1.00  0.00    -0.350 C  
ENDROOT
BRANCH   3  13
HETATM   13  C   UNL     1     -10.182   6.614  69.662  1.00  0.00    -0.213 A  
HETATM   14  C   UNL     1      -9.904   4.747  68.127  1.00  0.00    -0.182 A  
HETATM   15  C   UNL     1      -8.170   5.258  69.727  1.00  0.00    -0.098 A  
HETATM   16  C   UNL     1      -8.931   6.325  70.217  1.00  0.00    -0.154 A  
HETATM   17  C   UNL     1     -10.663   5.816  68.612  1.00  0.00    -0.303 A  
HETATM   18  C   UNL     1      -8.658   4.468  68.686  1.00  0.00    -0.101 A  
ENDBRANCH   3  13
BRANCH   5  19
HETATM   19  C   UNL     1     -10.584  11.205  67.880  1.00  0.00    -0.198 C  
HETATM   20  O   UNL     1     -10.809  10.493  66.914  1.00  0.00    -0.250 OA 
BRANCH  19  21
HETATM   21  O   UNL     1      -9.563  12.100  67.946  1.00  0.00    -0.185 OA 
BRANCH  21  22
HETATM   22  C   UNL     1      -9.336  12.788  66.713  1.00  0.00    -0.241 C  
BRANCH  22  23
HETATM   23  C   UNL     1     -10.634  13.522  66.316  1.00  0.00    -0.288 C  
BRANCH  23  24
HETATM   24  N   UNL     1     -10.724  13.921  64.890  1.00  0.00    -0.386 NA 
HETATM   25  C   UNL     1     -10.194  12.915  63.957  1.00  0.00    -0.231 C  
HETATM   26  C   UNL     1     -10.968  11.602  64.019  1.00  0.00    -0.456 C  
HETATM   27  C   UNL     1     -12.467  11.815  63.805  1.00  0.00    -0.436 C  
HETATM   28  C   UNL     1     -13.034  13.028  64.548  1.00  0.00    -0.107 C  
HETATM   29  C   UNL     1     -12.105  14.243  64.500  1.00  0.00    -0.480 C  
ENDBRANCH  23  24
ENDBRANCH  22  23
ENDBRANCH  21  22
ENDBRANCH  19  21
ENDBRANCH   5  19
TORSDOF 6
ENDMDL
MODEL       71
REMARK 921   NORMALIZED FREE ENERGY PREDICTED BY IDOCK:   -6.07 KCAL/MOL
REMARK 922        TOTAL FREE ENERGY PREDICTED BY IDOCK:   -8.88 KCAL/MOL
REMARK 923 INTER-LIGAND FREE ENERGY PREDICTED BY IDOCK:   -7.34 KCAL/MOL
REMARK 924 INTRA-LIGAND FREE ENERGY PREDICTED BY IDOCK:   -1.54 KCAL/MOL
REMARK 927      BINDING AFFINITY PREDICTED BY RF-SCORE:    0.00 PKD
ROOT
HETATM    1  C   UNL     1     -10.432   6.913  73.808  1.00  0.00    -0.390 C  
HETATM    2  C   UNL     1     -10.396   6.539  72.357  1.00  0.00    -0.210 C  
HETATM    3  C   UNL     1     -10.911   7.238  71.328  1.00  0.00    -0.235 C  
HETATM    4  O   UNL     1     -10.745   6.911  69.996  1.00  0.00    -0.223 OA 
HETATM    5  C   UNL     1      -9.903   5.444  68.301  1.00  0.00    -0.196 A  
HETATM    6  C   UNL     1      -9.350   4.191  67.958  1.00  0.00    -0.213 A  
HETATM    7  C   UNL     1     -10.084   5.761  69.653  1.00  0.00    -0.212 A  
HETATM    8  C   UNL     1      -9.624   4.875  70.625  1.00  0.00    -0.254 A  
HETATM    9  C   UNL     1      -8.954   3.283  68.939  1.00  0.00    -0.186 A  
HETATM   10  O   UNL     1      -9.259   4.535  72.915  1.00  0.00    -0.122 OA 
HETATM   11  C   UNL     1      -9.068   3.637  70.276  1.00  0.00    -0.200 A  
HETATM   12  C   UNL     1      -9.717   5.260  72.041  1.00  0.00    -0.160 C  
ENDROOT
BRANCH   3  13
HETATM   13  C   UNL     1     -11.760   8.424  71.510  1.00  0.00    -0.341 A  
HETATM   14  C   UNL     1     -12.037  10.840  71.419  1.00  0.00    -0.297 A  
HETATM   15  C   UNL     1     -13.837   9.451  72.232  1.00  0.00    -0.441 A  
HETATM   16  C   UNL     1     -13.055   8.310  72.026  1.00  0.00    -0.351 A  
HETATM   17  C   UNL     1     -11.257   9.700  71.208  1.00  0.00    -0.446 A  
HETATM   18  C   UNL     1     -13.327  10.715  71.933  1.00  0.00    -0.454 A  
ENDBRANCH   3  13
BRANCH   5  19
HETATM   19  C   UNL     1     -10.344   6.392  67.235  1.00  0.00    -0.218 C  
HETATM   20  O   UNL     1     -11.389   6.353  66.606  1.00  0.00    -0.171 OA 
BRANCH  19  21
HETATM   21  O   UNL     1      -9.359   7.305  67.020  1.00  0.00    -0.136 OA 
BRANCH  21  22
HETATM   22  C   UNL     1      -9.777   8.404  66.206  1.00  0.00    -0.207 C  
BRANCH  22  23
HETATM   23  C   UNL     1      -9.936   9.647  67.106  1.00  0.00    -0.194 C  
BRANCH  23  24
HETATM   24  N   UNL     1      -9.997  10.944  66.389  1.00  0.00    -0.213 NA 
HETATM   25  C   UNL     1     -11.306  11.610  66.479  1.00  0.00    -0.263 C  
HETATM   26  C   UNL     1     -11.678  11.966  67.916  1.00  0.00    -0.368 C  
HETATM   27  C   UNL     1     -10.590  12.798  68.594  1.00  0.00    -0.256 C  
HETATM   28  C   UNL     1      -9.167  12.308  68.314  1.00  0.00    -0.189 C  
HETATM   29  C   UNL     1      -8.962  11.876  66.860  1.00  0.00    -0.196 C  
ENDBRANCH  23  24
ENDBRANCH  22  23
ENDBRANCH  21  22
ENDBRANCH  19  21
ENDBRANCH   5  19
TORSDOF 6
ENDMDL
MODEL       72
REMARK 921   NORMALIZED FREE ENERGY PREDICTED BY IDOCK:   -6.06 KCAL/MOL
REMARK 922        TOTAL FREE ENERGY PREDICTED BY IDOCK:   -8.88 KCAL/MOL
REMARK 923 INTER-LIGAND FREE ENERGY PREDICTED BY IDOCK:   -7.16 KCAL/MOL
REMARK 924 INTRA-LIGAND FREE ENERGY PREDICTED BY IDOCK:   -1.72 KCAL/MOL
REMARK 927      BINDING AFFINITY PREDICTED BY RF-SCORE:    0.00 PKD
ROOT
HETATM    1  C   UNL     1     -10.746  18.641  66.930  1.00  0.00    -0.367 C  
HETATM    2  C   UNL     1      -9.628  17.774  67.423  1.00  0.00    -0.264 C  
HETATM    3  C   UNL     1      -9.483  16.451  67.227  1.00  0.00    -0.227 C  
HETATM    4  O   UNL     1      -8.372  15.719  67.600  1.00  0.00    -0.150 OA 
HETATM    5  C   UNL     1      -6.224  15.583  68.649  1.00  0.00    -0.096 A  
HETATM    6  C   UNL     1      -5.250  16.177  69.482  1.00  0.00    -0.115 A  
HETATM    7  C   UNL     1      -7.356  16.326  68.290  1.00  0.00    -0.145 A  
HETATM    8  C   UNL     1      -7.444  17.660  68.681  1.00  0.00    -0.273 A  
HETATM    9  C   UNL     1      -5.381  17.492  69.923  1.00  0.00    -0.217 A  
HETATM   10  O   UNL     1      -8.651  19.659  68.479  1.00  0.00    -0.345 OA 
HETATM   11  C   UNL     1      -6.469  18.244  69.500  1.00  0.00    -0.201 A  
HETATM   12  C   UNL     1      -8.580  18.467  68.211  1.00  0.00    -0.303 C  
ENDROOT
BRANCH   3  13
HETATM   13  C   UNL     1     -10.528  15.611  66.624  1.00  0.00    -0.301 A  
HETATM   14  C   UNL     1     -12.370  14.043  66.886  1.00  0.00    -0.321 A  
HETATM   15  C   UNL     1     -11.612  14.651  64.676  1.00  0.00    -0.406 A  
HETATM   16  C   UNL     1     -10.639  15.487  65.235  1.00  0.00    -0.446 A  
HETATM   17  C   UNL     1     -11.402  14.881  67.446  1.00  0.00    -0.354 A  
HETATM   18  C   UNL     1     -12.474  13.928  65.501  1.00  0.00    -0.541 A  
ENDBRANCH   3  13
BRANCH   5  19
HETATM   19  C   UNL     1      -6.077  14.164  68.208  1.00  0.00    -0.118 C  
HETATM   20  O   UNL     1      -5.303  13.735  67.369  1.00  0.00    -0.343 OA 
BRANCH  19  21
HETATM   21  O   UNL     1      -6.996  13.402  68.859  1.00  0.00    -0.104 OA 
BRANCH  21  22
HETATM   22  C   UNL     1      -6.674  12.008  68.858  1.00  0.00    -0.093 C  
BRANCH  22  23
HETATM   23  C   UNL     1      -7.888  11.225  68.317  1.00  0.00    -0.130 C  
BRANCH  23  24
HETATM   24  N   UNL     1      -9.080  12.048  67.995  1.00  0.00    -0.182 NA 
HETATM   25  C   UNL     1      -9.316  12.210  66.552  1.00  0.00    -0.228 C  
HETATM   26  C   UNL     1      -9.590  10.880  65.857  1.00  0.00    -0.257 C  
HETATM   27  C   UNL     1     -10.737  10.118  66.520  1.00  0.00    -0.118 C  
HETATM   28  C   UNL     1     -10.696  10.141  68.051  1.00  0.00    -0.305 C  
HETATM   29  C   UNL     1     -10.299  11.507  68.614  1.00  0.00    -0.210 C  
ENDBRANCH  23  24
ENDBRANCH  22  23
ENDBRANCH  21  22
ENDBRANCH  19  21
ENDBRANCH   5  19
TORSDOF 6
ENDMDL
MODEL       73
REMARK 921   NORMALIZED FREE ENERGY PREDICTED BY IDOCK:   -6.04 KCAL/MOL
REMARK 922        TOTAL FREE ENERGY PREDICTED BY IDOCK:   -8.85 KCAL/MOL
REMARK 923 INTER-LIGAND FREE ENERGY PREDICTED BY IDOCK:   -7.73 KCAL/MOL
REMARK 924 INTRA-LIGAND FREE ENERGY PREDICTED BY IDOCK:   -1.12 KCAL/MOL
REMARK 927      BINDING AFFINITY PREDICTED BY RF-SCORE:    0.00 PKD
ROOT
HETATM    1  C   UNL     1     -10.450  17.364  69.160  1.00  0.00    -0.231 C  
HETATM    2  C   UNL     1     -10.351  15.872  69.054  1.00  0.00    -0.231 C  
HETATM    3  C   UNL     1     -11.092  14.963  69.714  1.00  0.00    -0.274 C  
HETATM    4  O   UNL     1     -11.045  13.600  69.491  1.00  0.00    -0.186 OA 
HETATM    5  C   UNL     1     -10.108  11.706  68.365  1.00  0.00    -0.207 A  
HETATM    6  C   UNL     1      -9.079  11.171  67.558  1.00  0.00    -0.146 A  
HETATM    7  C   UNL     1     -10.139  13.086  68.601  1.00  0.00    -0.136 A  
HETATM    8  C   UNL     1      -9.215  13.906  67.955  1.00  0.00    -0.198 A  
HETATM    9  C   UNL     1      -8.120  11.993  66.971  1.00  0.00    -0.158 A  
HETATM   10  O   UNL     1      -8.568  16.114  67.510  1.00  0.00    -0.172 OA 
HETATM   11  C   UNL     1      -8.204  13.367  67.149  1.00  0.00    -0.121 A  
HETATM   12  C   UNL     1      -9.320  15.364  68.119  1.00  0.00    -0.197 C  
ENDROOT
BRANCH   3  13
HETATM   13  C   UNL     1     -12.021  15.319  70.796  1.00  0.00    -0.384 A  
HETATM   14  C   UNL     1     -12.390  16.102  73.070  1.00  0.00    -0.625 A  
HETATM   15  C   UNL     1     -14.269  15.444  71.703  1.00  0.00    -0.621 A  
HETATM   16  C   UNL     1     -13.401  15.140  70.650  1.00  0.00    -0.304 A  
HETATM   17  C   UNL     1     -11.522  15.803  72.017  1.00  0.00    -0.459 A  
HETATM   18  C   UNL     1     -13.763  15.922  72.914  1.00  0.00    -0.588 A  
ENDBRANCH   3  13
BRANCH   5  19
HETATM   19  C   UNL     1     -11.111  10.805  69.006  1.00  0.00    -0.253 C  
HETATM   20  O   UNL     1     -12.253  10.596  68.630  1.00  0.00    -0.386 OA 
BRANCH  19  21
HETATM   21  O   UNL     1     -10.571  10.274  70.135  1.00  0.00    -0.280 OA 
BRANCH  21  22
HETATM   22  C   UNL     1     -10.935   8.907  70.345  1.00  0.00    -0.244 C  
BRANCH  22  23
HETATM   23  C   UNL     1     -10.131   8.030  69.363  1.00  0.00    -0.197 C  
BRANCH  23  24
HETATM   24  N   UNL     1     -10.927   7.032  68.607  1.00  0.00    -0.139 NA 
HETATM   25  C   UNL     1     -10.901   7.234  67.150  1.00  0.00    -0.308 C  
HETATM   26  C   UNL     1      -9.497   7.097  66.571  1.00  0.00    -0.208 C  
HETATM   27  C   UNL     1      -8.852   5.765  66.954  1.00  0.00    -0.114 C  
HETATM   28  C   UNL     1      -9.077   5.362  68.414  1.00  0.00    -0.119 C  
HETATM   29  C   UNL     1     -10.497   5.657  68.900  1.00  0.00    -0.240 C  
ENDBRANCH  23  24
ENDBRANCH  22  23
ENDBRANCH  21  22
ENDBRANCH  19  21
ENDBRANCH   5  19
TORSDOF 6
ENDMDL
MODEL       74
REMARK 921   NORMALIZED FREE ENERGY PREDICTED BY IDOCK:   -6.02 KCAL/MOL
REMARK 922        TOTAL FREE ENERGY PREDICTED BY IDOCK:   -8.82 KCAL/MOL
REMARK 923 INTER-LIGAND FREE ENERGY PREDICTED BY IDOCK:   -7.64 KCAL/MOL
REMARK 924 INTRA-LIGAND FREE ENERGY PREDICTED BY IDOCK:   -1.18 KCAL/MOL
REMARK 927      BINDING AFFINITY PREDICTED BY RF-SCORE:    0.00 PKD
ROOT
HETATM    1  C   UNL     1      -7.232   8.121  71.659  1.00  0.00    -0.083 C  
HETATM    2  C   UNL     1      -7.655   9.164  70.669  1.00  0.00    -0.143 C  
HETATM    3  C   UNL     1      -8.910   9.439  70.269  1.00  0.00    -0.236 C  
HETATM    4  O   UNL     1      -9.259  10.492  69.446  1.00  0.00    -0.184 OA 
HETATM    5  C   UNL     1      -8.644  12.368  68.091  1.00  0.00    -0.185 A  
HETATM    6  C   UNL     1      -7.631  13.097  67.431  1.00  0.00    -0.137 A  
HETATM    7  C   UNL     1      -8.283  11.291  68.911  1.00  0.00    -0.079 A  
HETATM    8  C   UNL     1      -6.933  11.029  69.131  1.00  0.00    -0.104 A  
HETATM    9  C   UNL     1      -6.284  12.784  67.606  1.00  0.00    -0.153 A  
HETATM   10  O   UNL     1      -5.382   9.759  70.347  1.00  0.00    -0.034 OA 
HETATM   11  C   UNL     1      -5.934  11.763  68.479  1.00  0.00    -0.049 A  
HETATM   12  C   UNL     1      -6.558   9.968  70.078  1.00  0.00    -0.102 C  
ENDROOT
BRANCH   3  13
HETATM   13  C   UNL     1     -10.067   8.609  70.634  1.00  0.00    -0.237 A  
HETATM   14  C   UNL     1     -11.881   8.099  72.175  1.00  0.00    -0.417 A  
HETATM   15  C   UNL     1     -11.500   6.687  70.254  1.00  0.00    -0.449 A  
HETATM   16  C   UNL     1     -10.422   7.492  69.871  1.00  0.00    -0.232 A  
HETATM   17  C   UNL     1     -10.807   8.907  71.791  1.00  0.00    -0.436 A  
HETATM   18  C   UNL     1     -12.226   6.989  71.407  1.00  0.00    -0.407 A  
ENDBRANCH   3  13
BRANCH   5  19
HETATM   19  C   UNL     1     -10.082  12.704  67.870  1.00  0.00    -0.222 C  
HETATM   20  O   UNL     1     -10.850  12.161  67.091  1.00  0.00    -0.228 OA 
BRANCH  19  21
HETATM   21  O   UNL     1     -10.411  13.770  68.647  1.00  0.00    -0.239 OA 
BRANCH  21  22
HETATM   22  C   UNL     1     -11.816  14.041  68.667  1.00  0.00    -0.361 C  
BRANCH  22  23
HETATM   23  C   UNL     1     -12.137  14.870  69.927  1.00  0.00    -0.332 C  
BRANCH  23  24
HETATM   24  N   UNL     1     -11.992  14.147  71.215  1.00  0.00    -0.274 NA 
HETATM   25  C   UNL     1     -11.486  14.985  72.312  1.00  0.00    -0.211 C  
HETATM   26  C   UNL     1     -12.429  16.139  72.643  1.00  0.00    -0.535 C  
HETATM   27  C   UNL     1     -13.846  15.647  72.935  1.00  0.00    -0.571 C  
HETATM   28  C   UNL     1     -14.338  14.561  71.974  1.00  0.00    -0.639 C  
HETATM   29  C   UNL     1     -13.258  13.531  71.639  1.00  0.00    -0.366 C  
ENDBRANCH  23  24
ENDBRANCH  22  23
ENDBRANCH  21  22
ENDBRANCH  19  21
ENDBRANCH   5  19
TORSDOF 6
ENDMDL
MODEL       75
REMARK 921   NORMALIZED FREE ENERGY PREDICTED BY IDOCK:   -6.01 KCAL/MOL
REMARK 922        TOTAL FREE ENERGY PREDICTED BY IDOCK:   -8.81 KCAL/MOL
REMARK 923 INTER-LIGAND FREE ENERGY PREDICTED BY IDOCK:   -7.30 KCAL/MOL
REMARK 924 INTRA-LIGAND FREE ENERGY PREDICTED BY IDOCK:   -1.50 KCAL/MOL
REMARK 927      BINDING AFFINITY PREDICTED BY RF-SCORE:    0.00 PKD
ROOT
HETATM    1  C   UNL     1     -10.520  17.455  66.793  1.00  0.00    -0.257 C  
HETATM    2  C   UNL     1      -9.445  16.512  67.242  1.00  0.00    -0.237 C  
HETATM    3  C   UNL     1      -9.316  15.214  66.909  1.00  0.00    -0.234 C  
HETATM    4  O   UNL     1      -8.240  14.419  67.252  1.00  0.00    -0.193 OA 
HETATM    5  C   UNL     1      -6.152  14.116  68.384  1.00  0.00    -0.101 A  
HETATM    6  C   UNL     1      -5.211  14.591  69.325  1.00  0.00    -0.082 A  
HETATM    7  C   UNL     1      -7.249  14.921  68.055  1.00  0.00    -0.134 A  
HETATM    8  C   UNL     1      -7.332  16.207  68.586  1.00  0.00    -0.175 A  
HETATM    9  C   UNL     1      -5.339  15.853  69.901  1.00  0.00    -0.127 A  
HETATM   10  O   UNL     1      -8.487  18.245  68.546  1.00  0.00    -0.306 OA 
HETATM   11  C   UNL     1      -6.389  16.673  69.511  1.00  0.00    -0.227 A  
HETATM   12  C   UNL     1      -8.426  17.088  68.152  1.00  0.00    -0.227 C  
ENDROOT
BRANCH   3  13
HETATM   13  C   UNL     1     -10.344  14.472  66.165  1.00  0.00    -0.305 A  
HETATM   14  C   UNL     1     -12.569  13.491  66.075  1.00  0.00    -0.408 A  
HETATM   15  C   UNL     1     -11.053  13.212  64.216  1.00  0.00    -0.426 A  
HETATM   16  C   UNL     1     -10.079  13.952  64.894  1.00  0.00    -0.294 A  
HETATM   17  C   UNL     1     -11.598  14.235  66.751  1.00  0.00    -0.407 A  
HETATM   18  C   UNL     1     -12.296  12.979  64.807  1.00  0.00    -0.490 A  
ENDBRANCH   3  13
BRANCH   5  19
HETATM   19  C   UNL     1      -6.010  12.750  67.797  1.00  0.00    -0.133 C  
HETATM   20  O   UNL     1      -5.492  12.462  66.730  1.00  0.00    -0.335 OA 
BRANCH  19  21
HETATM   21  O   UNL     1      -6.607  11.850  68.623  1.00  0.00    -0.057 OA 
BRANCH  21  22
HETATM   22  C   UNL     1      -7.581  11.038  67.961  1.00  0.00    -0.092 C  
BRANCH  22  23
HETATM   23  C   UNL     1      -8.889  11.080  68.776  1.00  0.00    -0.147 C  
BRANCH  23  24
HETATM   24  N   UNL     1      -9.891  10.045  68.420  1.00  0.00    -0.151 NA 
HETATM   25  C   UNL     1     -10.185   9.104  69.512  1.00  0.00    -0.203 C  
HETATM   26  C   UNL     1     -10.790   9.798  70.728  1.00  0.00    -0.403 C  
HETATM   27  C   UNL     1     -12.028  10.615  70.358  1.00  0.00    -0.436 C  
HETATM   28  C   UNL     1     -11.878  11.420  69.064  1.00  0.00    -0.415 C  
HETATM   29  C   UNL     1     -11.154  10.644  67.962  1.00  0.00    -0.301 C  
ENDBRANCH  23  24
ENDBRANCH  22  23
ENDBRANCH  21  22
ENDBRANCH  19  21
ENDBRANCH   5  19
TORSDOF 6
ENDMDL
MODEL       76
REMARK 921   NORMALIZED FREE ENERGY PREDICTED BY IDOCK:   -6.01 KCAL/MOL
REMARK 922        TOTAL FREE ENERGY PREDICTED BY IDOCK:   -8.81 KCAL/MOL
REMARK 923 INTER-LIGAND FREE ENERGY PREDICTED BY IDOCK:   -8.90 KCAL/MOL
REMARK 924 INTRA-LIGAND FREE ENERGY PREDICTED BY IDOCK:    0.09 KCAL/MOL
REMARK 927      BINDING AFFINITY PREDICTED BY RF-SCORE:    0.00 PKD
ROOT
HETATM    1  C   UNL     1      -8.661   9.161  69.555  1.00  0.00    -0.140 C  
HETATM    2  C   UNL     1      -9.381   9.842  68.430  1.00  0.00    -0.135 C  
HETATM    3  C   UNL     1     -10.545  10.515  68.504  1.00  0.00    -0.206 C  
HETATM    4  O   UNL     1     -11.107  11.227  67.462  1.00  0.00    -0.249 OA 
HETATM    5  C   UNL     1     -11.077  11.951  65.180  1.00  0.00    -0.360 A  
HETATM    6  C   UNL     1     -10.543  11.816  63.879  1.00  0.00    -0.445 A  
HETATM    7  C   UNL     1     -10.513  11.212  66.227  1.00  0.00    -0.259 A  
HETATM    8  C   UNL     1      -9.380  10.440  65.979  1.00  0.00    -0.219 A  
HETATM    9  C   UNL     1      -9.450  10.988  63.630  1.00  0.00    -0.298 A  
HETATM   10  O   UNL     1      -7.691   9.123  66.931  1.00  0.00    -0.096 OA 
HETATM   11  C   UNL     1      -8.851  10.318  64.688  1.00  0.00    -0.220 A  
HETATM   12  C   UNL     1      -8.727   9.752  67.103  1.00  0.00    -0.132 C  
ENDROOT
BRANCH   3  13
HETATM   13  C   UNL     1     -11.387  10.530  69.708  1.00  0.00    -0.367 A  
HETATM   14  C   UNL     1     -12.487   9.327  71.514  1.00  0.00    -0.435 A  
HETATM   15  C   UNL     1     -12.804  11.710  71.287  1.00  0.00    -0.430 A  
HETATM   16  C   UNL     1     -11.972  11.717  70.163  1.00  0.00    -0.421 A  
HETATM   17  C   UNL     1     -11.652   9.334  70.394  1.00  0.00    -0.215 A  
HETATM   18  C   UNL     1     -13.064  10.515  71.960  1.00  0.00    -0.511 A  
ENDBRANCH   3  13
BRANCH   5  19
HETATM   19  C   UNL     1     -12.264  12.825  65.422  1.00  0.00    -0.478 C  
HETATM   20  O   UNL     1     -13.076  13.202  64.592  1.00  0.00    -0.699 OA 
BRANCH  19  21
HETATM   21  O   UNL     1     -12.282  13.195  66.730  1.00  0.00    -0.354 OA 
BRANCH  21  22
HETATM   22  C   UNL     1     -11.976  14.578  66.928  1.00  0.00    -0.346 C  
BRANCH  22  23
HETATM   23  C   UNL     1     -11.140  14.715  68.216  1.00  0.00    -0.271 C  
BRANCH  23  24
HETATM   24  N   UNL     1     -10.491  16.035  68.413  1.00  0.00    -0.252 NA 
HETATM   25  C   UNL     1      -9.171  15.957  69.058  1.00  0.00    -0.242 C  
HETATM   26  C   UNL     1      -8.163  15.174  68.222  1.00  0.00    -0.144 C  
HETATM   27  C   UNL     1      -8.050  15.729  66.802  1.00  0.00    -0.297 C  
HETATM   28  C   UNL     1      -9.396  16.089  66.166  1.00  0.00    -0.377 C  
HETATM   29  C   UNL     1     -10.353  16.769  67.146  1.00  0.00    -0.297 C  
ENDBRANCH  23  24
ENDBRANCH  22  23
ENDBRANCH  21  22
ENDBRANCH  19  21
ENDBRANCH   5  19
TORSDOF 6
ENDMDL
MODEL       77
REMARK 921   NORMALIZED FREE ENERGY PREDICTED BY IDOCK:   -6.01 KCAL/MOL
REMARK 922        TOTAL FREE ENERGY PREDICTED BY IDOCK:   -8.80 KCAL/MOL
REMARK 923 INTER-LIGAND FREE ENERGY PREDICTED BY IDOCK:   -7.69 KCAL/MOL
REMARK 924 INTRA-LIGAND FREE ENERGY PREDICTED BY IDOCK:   -1.11 KCAL/MOL
REMARK 927      BINDING AFFINITY PREDICTED BY RF-SCORE:    0.00 PKD
ROOT
HETATM    1  C   UNL     1     -10.818  17.052  68.830  1.00  0.00    -0.258 C  
HETATM    2  C   UNL     1     -10.797  15.553  68.792  1.00  0.00    -0.256 C  
HETATM    3  C   UNL     1     -11.440  14.713  69.625  1.00  0.00    -0.289 C  
HETATM    4  O   UNL     1     -11.485  13.341  69.474  1.00  0.00    -0.268 OA 
HETATM    5  C   UNL     1     -10.842  11.352  68.307  1.00  0.00    -0.253 A  
HETATM    6  C   UNL     1      -9.999  10.729  67.360  1.00  0.00    -0.214 A  
HETATM    7  C   UNL     1     -10.777  12.742  68.467  1.00  0.00    -0.253 A  
HETATM    8  C   UNL     1      -9.956  13.484  67.619  1.00  0.00    -0.229 A  
HETATM    9  C   UNL     1      -9.132  11.476  66.564  1.00  0.00    -0.199 A  
HETATM   10  O   UNL     1      -9.317  15.634  66.941  1.00  0.00    -0.216 OA 
HETATM   11  C   UNL     1      -9.130  12.859  66.677  1.00  0.00    -0.181 A  
HETATM   12  C   UNL     1      -9.974  14.951  67.716  1.00  0.00    -0.222 C  
ENDROOT
BRANCH   3  13
HETATM   13  C   UNL     1     -12.141  15.166  70.835  1.00  0.00    -0.388 A  
HETATM   14  C   UNL     1     -12.061  15.923  73.146  1.00  0.00    -0.611 A  
HETATM   15  C   UNL     1     -14.192  15.585  72.063  1.00  0.00    -0.606 A  
HETATM   16  C   UNL     1     -13.538  15.192  70.890  1.00  0.00    -0.397 A  
HETATM   17  C   UNL     1     -11.407  15.535  71.974  1.00  0.00    -0.445 A  
HETATM   18  C   UNL     1     -13.454  15.947  73.190  1.00  0.00    -0.650 A  
ENDBRANCH   3  13
BRANCH   5  19
HETATM   19  C   UNL     1     -11.745  10.532  69.168  1.00  0.00    -0.189 C  
HETATM   20  O   UNL     1     -12.894  10.795  69.484  1.00  0.00    -0.198 OA 
BRANCH  19  21
HETATM   21  O   UNL     1     -11.064   9.440  69.609  1.00  0.00    -0.222 OA 
BRANCH  21  22
HETATM   22  C   UNL     1     -10.773   9.485  71.009  1.00  0.00    -0.340 C  
BRANCH  22  23
HETATM   23  C   UNL     1      -9.341   8.957  71.228  1.00  0.00    -0.266 C  
BRANCH  23  24
HETATM   24  N   UNL     1      -8.603   8.595  69.993  1.00  0.00    -0.127 NA 
HETATM   25  C   UNL     1      -7.501   9.514  69.670  1.00  0.00    -0.092 C  
HETATM   26  C   UNL     1      -6.423   9.529  70.749  1.00  0.00    -0.097 C  
HETATM   27  C   UNL     1      -5.899   8.125  71.048  1.00  0.00    -0.033 C  
HETATM   28  C   UNL     1      -6.993   7.057  71.130  1.00  0.00    -0.062 C  
HETATM   29  C   UNL     1      -8.071   7.226  70.058  1.00  0.00    -0.130 C  
ENDBRANCH  23  24
ENDBRANCH  22  23
ENDBRANCH  21  22
ENDBRANCH  19  21
ENDBRANCH   5  19
TORSDOF 6
ENDMDL
MODEL       78
REMARK 921   NORMALIZED FREE ENERGY PREDICTED BY IDOCK:   -5.95 KCAL/MOL
REMARK 922        TOTAL FREE ENERGY PREDICTED BY IDOCK:   -8.73 KCAL/MOL
REMARK 923 INTER-LIGAND FREE ENERGY PREDICTED BY IDOCK:   -6.57 KCAL/MOL
REMARK 924 INTRA-LIGAND FREE ENERGY PREDICTED BY IDOCK:   -2.15 KCAL/MOL
REMARK 927      BINDING AFFINITY PREDICTED BY RF-SCORE:    0.00 PKD
ROOT
HETATM    1  C   UNL     1     -10.975   5.679  73.443  1.00  0.00    -0.293 C  
HETATM    2  C   UNL     1     -10.793   5.528  71.963  1.00  0.00    -0.287 C  
HETATM    3  C   UNL     1     -11.242   6.358  71.003  1.00  0.00    -0.313 C  
HETATM    4  O   UNL     1     -10.945   6.238  69.660  1.00  0.00    -0.298 OA 
HETATM    5  C   UNL     1      -9.894   5.066  67.856  1.00  0.00    -0.200 A  
HETATM    6  C   UNL     1      -9.260   3.894  67.387  1.00  0.00    -0.199 A  
HETATM    7  C   UNL     1     -10.208   5.172  69.217  1.00  0.00    -0.206 A  
HETATM    8  C   UNL     1      -9.800   4.164  70.088  1.00  0.00    -0.242 A  
HETATM    9  C   UNL     1      -8.915   2.861  68.258  1.00  0.00    -0.193 A  
HETATM   10  O   UNL     1      -9.627   3.496  72.328  1.00  0.00    -0.125 OA 
HETATM   11  C   UNL     1      -9.163   3.008  69.616  1.00  0.00    -0.219 A  
HETATM   12  C   UNL     1     -10.035   4.330  71.530  1.00  0.00    -0.173 C  
ENDROOT
BRANCH   3  13
HETATM   13  C   UNL     1     -12.154   7.478  71.275  1.00  0.00    -0.351 A  
HETATM   14  C   UNL     1     -12.499   9.858  71.650  1.00  0.00    -0.507 A  
HETATM   15  C   UNL     1     -14.363   8.330  71.810  1.00  0.00    -0.574 A  
HETATM   16  C   UNL     1     -13.515   7.259  71.512  1.00  0.00    -0.439 A  
HETATM   17  C   UNL     1     -11.653   8.788  71.347  1.00  0.00    -0.366 A  
HETATM   18  C   UNL     1     -13.855   9.628  71.883  1.00  0.00    -0.291 A  
ENDBRANCH   3  13
BRANCH   5  19
HETATM   19  C   UNL     1     -10.277   6.150  66.903  1.00  0.00    -0.208 C  
HETATM   20  O   UNL     1     -11.404   6.429  66.527  1.00  0.00    -0.042 OA 
BRANCH  19  21
HETATM   21  O   UNL     1      -9.149   6.765  66.458  1.00  0.00    -0.142 OA 
BRANCH  21  22
HETATM   22  C   UNL     1      -9.178   8.185  66.629  1.00  0.00    -0.180 C  
BRANCH  22  23
HETATM   23  C   UNL     1      -9.071   8.499  68.135  1.00  0.00    -0.138 C  
BRANCH  23  24
HETATM   24  N   UNL     1      -7.741   8.972  68.591  1.00  0.00    -0.095 NA 
HETATM   25  C   UNL     1      -7.750   9.555  69.942  1.00  0.00    -0.129 C  
HETATM   26  C   UNL     1      -8.164   8.544  71.006  1.00  0.00    -0.163 C  
HETATM   27  C   UNL     1      -7.303   7.282  70.957  1.00  0.00    -0.074 C  
HETATM   28  C   UNL     1      -7.028   6.771  69.539  1.00  0.00    -0.067 C  
HETATM   29  C   UNL     1      -6.736   7.899  68.548  1.00  0.00    -0.062 C  
ENDBRANCH  23  24
ENDBRANCH  22  23
ENDBRANCH  21  22
ENDBRANCH  19  21
ENDBRANCH   5  19
TORSDOF 6
ENDMDL
MODEL       79
REMARK 921   NORMALIZED FREE ENERGY PREDICTED BY IDOCK:   -5.92 KCAL/MOL
REMARK 922        TOTAL FREE ENERGY PREDICTED BY IDOCK:   -8.68 KCAL/MOL
REMARK 923 INTER-LIGAND FREE ENERGY PREDICTED BY IDOCK:   -7.38 KCAL/MOL
REMARK 924 INTRA-LIGAND FREE ENERGY PREDICTED BY IDOCK:   -1.30 KCAL/MOL
REMARK 927      BINDING AFFINITY PREDICTED BY RF-SCORE:    0.00 PKD
ROOT
HETATM    1  C   UNL     1      -5.303  13.333  68.625  1.00  0.00    -0.073 C  
HETATM    2  C   UNL     1      -6.704  12.804  68.562  1.00  0.00    -0.090 C  
HETATM    3  C   UNL     1      -7.819  13.499  68.270  1.00  0.00    -0.145 C  
HETATM    4  O   UNL     1      -9.072  12.940  68.105  1.00  0.00    -0.199 OA 
HETATM    5  C   UNL     1     -10.523  11.035  68.135  1.00  0.00    -0.216 A  
HETATM    6  C   UNL     1     -10.734   9.687  68.498  1.00  0.00    -0.239 A  
HETATM    7  C   UNL     1      -9.255  11.600  68.321  1.00  0.00    -0.187 A  
HETATM    8  C   UNL     1      -8.211  10.790  68.766  1.00  0.00    -0.145 A  
HETATM    9  C   UNL     1      -9.698   8.904  69.005  1.00  0.00    -0.171 A  
HETATM   10  O   UNL     1      -5.907  10.656  69.176  1.00  0.00    -0.041 OA 
HETATM   11  C   UNL     1      -8.427   9.451  69.115  1.00  0.00    -0.134 A  
HETATM   12  C   UNL     1      -6.857  11.359  68.855  1.00  0.00    -0.089 C  
ENDROOT
BRANCH   3  13
HETATM   13  C   UNL     1      -7.839  14.962  68.134  1.00  0.00    -0.122 A  
HETATM   14  C   UNL     1      -8.064  17.160  69.154  1.00  0.00    -0.019 A  
HETATM   15  C   UNL     1      -7.810  16.963  66.761  1.00  0.00    -0.279 A  
HETATM   16  C   UNL     1      -7.749  15.571  66.878  1.00  0.00    -0.200 A  
HETATM   17  C   UNL     1      -7.997  15.769  69.273  1.00  0.00    -0.239 A  
HETATM   18  C   UNL     1      -7.971  17.757  67.898  1.00  0.00    -0.233 A  
ENDBRANCH   3  13
BRANCH   5  19
HETATM   19  C   UNL     1     -11.652  11.864  67.617  1.00  0.00    -0.312 C  
HETATM   20  O   UNL     1     -11.966  12.025  66.449  1.00  0.00    -0.611 OA 
BRANCH  19  21
HETATM   21  O   UNL     1     -12.269  12.475  68.664  1.00  0.00    -0.173 OA 
BRANCH  21  22
HETATM   22  C   UNL     1     -12.086  13.893  68.675  1.00  0.00    -0.302 C  
BRANCH  22  23
HETATM   23  C   UNL     1     -11.728  14.330  70.110  1.00  0.00    -0.288 C  
BRANCH  23  24
HETATM   24  N   UNL     1     -12.553  15.433  70.661  1.00  0.00    -0.416 NA 
HETATM   25  C   UNL     1     -13.845  14.991  71.208  1.00  0.00    -0.450 C  
HETATM   26  C   UNL     1     -13.680  14.034  72.385  1.00  0.00    -0.669 C  
HETATM   27  C   UNL     1     -12.792  14.627  73.479  1.00  0.00    -0.425 C  
HETATM   28  C   UNL     1     -11.549  15.348  72.950  1.00  0.00    -0.419 C  
HETATM   29  C   UNL     1     -11.834  16.184  71.701  1.00  0.00    -0.487 C  
ENDBRANCH  23  24
ENDBRANCH  22  23
ENDBRANCH  21  22
ENDBRANCH  19  21
ENDBRANCH   5  19
TORSDOF 6
ENDMDL
MODEL       80
REMARK 921   NORMALIZED FREE ENERGY PREDICTED BY IDOCK:   -5.91 KCAL/MOL
REMARK 922        TOTAL FREE ENERGY PREDICTED BY IDOCK:   -8.67 KCAL/MOL
REMARK 923 INTER-LIGAND FREE ENERGY PREDICTED BY IDOCK:   -8.21 KCAL/MOL
REMARK 924 INTRA-LIGAND FREE ENERGY PREDICTED BY IDOCK:   -0.46 KCAL/MOL
REMARK 927      BINDING AFFINITY PREDICTED BY RF-SCORE:    0.00 PKD
ROOT
HETATM    1  C   UNL     1      -9.251   5.426  66.893  1.00  0.00    -0.121 C  
HETATM    2  C   UNL     1      -9.674   6.352  67.993  1.00  0.00    -0.122 C  
HETATM    3  C   UNL     1      -9.750   7.695  67.937  1.00  0.00    -0.148 C  
HETATM    4  O   UNL     1     -10.262   8.495  68.940  1.00  0.00    -0.199 OA 
HETATM    5  C   UNL     1     -11.194   8.746  71.131  1.00  0.00    -0.339 A  
HETATM    6  C   UNL     1     -11.466   8.183  72.397  1.00  0.00    -0.462 A  
HETATM    7  C   UNL     1     -10.659   7.933  70.125  1.00  0.00    -0.237 A  
HETATM    8  C   UNL     1     -10.502   6.570  70.367  1.00  0.00    -0.256 A  
HETATM    9  C   UNL     1     -11.242   6.831  72.649  1.00  0.00    -0.291 A  
HETATM   10  O   UNL     1      -9.961   4.489  69.432  1.00  0.00    -0.204 OA 
HETATM   11  C   UNL     1     -10.782   6.017  71.623  1.00  0.00    -0.303 A  
HETATM   12  C   UNL     1     -10.043   5.700  69.273  1.00  0.00    -0.214 C  
ENDROOT
BRANCH   3  13
HETATM   13  C   UNL     1      -9.248   8.479  66.800  1.00  0.00    -0.215 A  
HETATM   14  C   UNL     1      -7.377   9.266  65.458  1.00  0.00    -0.090 A  
HETATM   15  C   UNL     1      -9.614  10.031  64.970  1.00  0.00    -0.362 A  
HETATM   16  C   UNL     1     -10.113   9.257  66.023  1.00  0.00    -0.262 A  
HETATM   17  C   UNL     1      -7.874   8.489  66.508  1.00  0.00    -0.096 A  
HETATM   18  C   UNL     1      -8.247  10.038  64.690  1.00  0.00    -0.163 A  
ENDBRANCH   3  13
BRANCH   5  19
HETATM   19  C   UNL     1     -11.418  10.203  70.889  1.00  0.00    -0.360 C  
HETATM   20  O   UNL     1     -10.790  10.925  70.131  1.00  0.00    -0.186 OA 
BRANCH  19  21
HETATM   21  O   UNL     1     -12.420  10.637  71.700  1.00  0.00    -0.373 OA 
BRANCH  21  22
HETATM   22  C   UNL     1     -13.247  11.632  71.090  1.00  0.00     0.098 C  
BRANCH  22  23
HETATM   23  C   UNL     1     -13.276  12.872  72.006  1.00  0.00    -0.448 C  
BRANCH  23  24
HETATM   24  N   UNL     1     -13.755  14.122  71.365  1.00  0.00    -0.315 NA 
HETATM   25  C   UNL     1     -14.163  15.161  72.324  1.00  0.00    -0.517 C  
HETATM   26  C   UNL     1     -13.007  15.621  73.207  1.00  0.00    -0.664 C  
HETATM   27  C   UNL     1     -11.806  16.077  72.378  1.00  0.00    -0.639 C  
HETATM   28  C   UNL     1     -11.492  15.169  71.187  1.00  0.00    -0.387 C  
HETATM   29  C   UNL     1     -12.748  14.689  70.457  1.00  0.00    -0.337 C  
ENDBRANCH  23  24
ENDBRANCH  22  23
ENDBRANCH  21  22
ENDBRANCH  19  21
ENDBRANCH   5  19
TORSDOF 6
ENDMDL
MODEL       81
REMARK 921   NORMALIZED FREE ENERGY PREDICTED BY IDOCK:   -5.91 KCAL/MOL
REMARK 922        TOTAL FREE ENERGY PREDICTED BY IDOCK:   -8.67 KCAL/MOL
REMARK 923 INTER-LIGAND FREE ENERGY PREDICTED BY IDOCK:   -7.99 KCAL/MOL
REMARK 924 INTRA-LIGAND FREE ENERGY PREDICTED BY IDOCK:   -0.68 KCAL/MOL
REMARK 927      BINDING AFFINITY PREDICTED BY RF-SCORE:    0.00 PKD
ROOT
HETATM    1  C   UNL     1     -13.022  13.882  65.490  1.00  0.00    -0.375 C  
HETATM    2  C   UNL     1     -11.980  12.805  65.496  1.00  0.00    -0.497 C  
HETATM    3  C   UNL     1     -11.476  12.172  66.572  1.00  0.00    -0.369 C  
HETATM    4  O   UNL     1     -10.605  11.101  66.516  1.00  0.00    -0.247 OA 
HETATM    5  C   UNL     1      -9.264   9.572  65.254  1.00  0.00    -0.307 A  
HETATM    6  C   UNL     1      -8.669   9.225  64.020  1.00  0.00    -0.198 A  
HETATM    7  C   UNL     1     -10.132  10.670  65.305  1.00  0.00    -0.297 A  
HETATM    8  C   UNL     1     -10.464  11.328  64.123  1.00  0.00    -0.431 A  
HETATM    9  C   UNL     1      -8.957   9.932  62.855  1.00  0.00    -0.271 A  
HETATM   10  O   UNL     1     -11.825  12.961  63.135  1.00  0.00    -0.506 OA 
HETATM   11  C   UNL     1      -9.877  10.971  62.902  1.00  0.00    -0.319 A  
HETATM   12  C   UNL     1     -11.460  12.409  64.166  1.00  0.00    -0.381 C  
ENDROOT
BRANCH   3  13
HETATM   13  C   UNL     1     -11.767  12.584  67.953  1.00  0.00    -0.416 A  
HETATM   14  C   UNL     1     -12.009  14.351  69.608  1.00  0.00    -0.385 A  
HETATM   15  C   UNL     1     -12.221  12.040  70.274  1.00  0.00    -0.348 A  
HETATM   16  C   UNL     1     -11.987  11.634  68.957  1.00  0.00    -0.368 A  
HETATM   17  C   UNL     1     -11.780  13.947  68.290  1.00  0.00    -0.396 A  
HETATM   18  C   UNL     1     -12.229  13.397  70.600  1.00  0.00    -0.427 A  
ENDBRANCH   3  13
BRANCH   5  19
HETATM   19  C   UNL     1      -8.923   8.816  66.495  1.00  0.00    -0.148 C  
HETATM   20  O   UNL     1      -7.984   9.026  67.247  1.00  0.00    -0.099 OA 
BRANCH  19  21
HETATM   21  O   UNL     1      -9.805   7.792  66.646  1.00  0.00    -0.219 OA 
BRANCH  21  22
HETATM   22  C   UNL     1      -9.660   7.102  67.890  1.00  0.00    -0.133 C  
BRANCH  22  23
HETATM   23  C   UNL     1     -10.000   5.614  67.667  1.00  0.00    -0.150 C  
BRANCH  23  24
HETATM   24  N   UNL     1      -8.935   4.656  68.052  1.00  0.00    -0.110 NA 
HETATM   25  C   UNL     1      -9.192   3.276  67.614  1.00  0.00    -0.195 C  
HETATM   26  C   UNL     1      -9.264   3.153  66.095  1.00  0.00    -0.135 C  
HETATM   27  C   UNL     1      -8.016   3.721  65.420  1.00  0.00    -0.093 C  
HETATM   28  C   UNL     1      -7.532   5.045  66.019  1.00  0.00    -0.082 C  
HETATM   29  C   UNL     1      -7.618   5.073  67.546  1.00  0.00    -0.087 C  
ENDBRANCH  23  24
ENDBRANCH  22  23
ENDBRANCH  21  22
ENDBRANCH  19  21
ENDBRANCH   5  19
TORSDOF 6
ENDMDL
MODEL       82
REMARK 921   NORMALIZED FREE ENERGY PREDICTED BY IDOCK:   -5.90 KCAL/MOL
REMARK 922        TOTAL FREE ENERGY PREDICTED BY IDOCK:   -8.66 KCAL/MOL
REMARK 923 INTER-LIGAND FREE ENERGY PREDICTED BY IDOCK:   -7.58 KCAL/MOL
REMARK 924 INTRA-LIGAND FREE ENERGY PREDICTED BY IDOCK:   -1.08 KCAL/MOL
REMARK 927      BINDING AFFINITY PREDICTED BY RF-SCORE:    0.00 PKD
ROOT
HETATM    1  C   UNL     1      -8.974   5.910  69.191  1.00  0.00    -0.119 C  
HETATM    2  C   UNL     1      -9.704   7.198  69.427  1.00  0.00    -0.160 C  
HETATM    3  C   UNL     1      -9.689   8.292  68.642  1.00  0.00    -0.156 C  
HETATM    4  O   UNL     1     -10.474   9.411  68.840  1.00  0.00    -0.208 OA 
HETATM    5  C   UNL     1     -12.090  10.619  70.129  1.00  0.00    -0.414 A  
HETATM    6  C   UNL     1     -12.810  10.757  71.337  1.00  0.00    -0.557 A  
HETATM    7  C   UNL     1     -11.282   9.490  69.943  1.00  0.00    -0.178 A  
HETATM    8  C   UNL     1     -11.287   8.487  70.910  1.00  0.00    -0.304 A  
HETATM    9  C   UNL     1     -12.755   9.777  72.326  1.00  0.00    -0.333 A  
HETATM   10  O   UNL     1     -10.562   6.326  71.457  1.00  0.00    -0.224 OA 
HETATM   11  C   UNL     1     -12.011   8.627  72.101  1.00  0.00    -0.449 A  
HETATM   12  C   UNL     1     -10.523   7.254  70.660  1.00  0.00    -0.214 C  
ENDROOT
BRANCH   3  13
HETATM   13  C   UNL     1      -8.786   8.440  67.491  1.00  0.00    -0.139 A  
HETATM   14  C   UNL     1      -6.611   9.068  66.598  1.00  0.00    -0.068 A  
HETATM   15  C   UNL     1      -8.375   8.381  65.100  1.00  0.00    -0.177 A  
HETATM   16  C   UNL     1      -9.234   8.195  66.189  1.00  0.00    -0.230 A  
HETATM   17  C   UNL     1      -7.466   8.879  67.687  1.00  0.00    -0.092 A  
HETATM   18  C   UNL     1      -7.067   8.820  65.304  1.00  0.00    -0.083 A  
ENDBRANCH   3  13
BRANCH   5  19
HETATM   19  C   UNL     1     -12.144  11.692  69.092  1.00  0.00    -0.251 C  
HETATM   20  O   UNL     1     -12.276  11.541  67.888  1.00  0.00    -0.586 OA 
BRANCH  19  21
HETATM   21  O   UNL     1     -11.965  12.898  69.694  1.00  0.00    -0.313 OA 
BRANCH  21  22
HETATM   22  C   UNL     1     -11.937  13.990  68.771  1.00  0.00    -0.347 C  
BRANCH  22  23
HETATM   23  C   UNL     1     -10.468  14.400  68.542  1.00  0.00    -0.254 C  
BRANCH  23  24
HETATM   24  N   UNL     1      -9.866  13.918  67.275  1.00  0.00    -0.239 NA 
HETATM   25  C   UNL     1     -10.499  14.472  66.069  1.00  0.00    -0.308 C  
HETATM   26  C   UNL     1     -10.360  15.989  65.986  1.00  0.00    -0.366 C  
HETATM   27  C   UNL     1      -8.901  16.433  66.095  1.00  0.00    -0.349 C  
HETATM   28  C   UNL     1      -8.104  15.689  67.170  1.00  0.00    -0.247 C  
HETATM   29  C   UNL     1      -8.422  14.193  67.218  1.00  0.00    -0.214 C  
ENDBRANCH  23  24
ENDBRANCH  22  23
ENDBRANCH  21  22
ENDBRANCH  19  21
ENDBRANCH   5  19
TORSDOF 6
ENDMDL
MODEL       83
REMARK 921   NORMALIZED FREE ENERGY PREDICTED BY IDOCK:   -5.86 KCAL/MOL
REMARK 922        TOTAL FREE ENERGY PREDICTED BY IDOCK:   -8.60 KCAL/MOL
REMARK 923 INTER-LIGAND FREE ENERGY PREDICTED BY IDOCK:   -7.77 KCAL/MOL
REMARK 924 INTRA-LIGAND FREE ENERGY PREDICTED BY IDOCK:   -0.83 KCAL/MOL
REMARK 927      BINDING AFFINITY PREDICTED BY RF-SCORE:    0.00 PKD
ROOT
HETATM    1  C   UNL     1     -12.761  14.719  70.703  1.00  0.00    -0.415 C  
HETATM    2  C   UNL     1     -12.476  13.261  70.503  1.00  0.00    -0.332 C  
HETATM    3  C   UNL     1     -11.771  12.703  69.501  1.00  0.00    -0.308 C  
HETATM    4  O   UNL     1     -11.434  11.365  69.428  1.00  0.00    -0.257 OA 
HETATM    5  C   UNL     1     -11.535   9.142  70.310  1.00  0.00    -0.174 A  
HETATM    6  C   UNL     1     -12.129   8.227  71.207  1.00  0.00    -0.307 A  
HETATM    7  C   UNL     1     -11.895  10.493  70.379  1.00  0.00    -0.340 A  
HETATM    8  C   UNL     1     -12.752  10.916  71.393  1.00  0.00    -0.539 A  
HETATM    9  C   UNL     1     -13.037   8.651  72.176  1.00  0.00    -0.423 A  
HETATM   10  O   UNL     1     -13.734  12.763  72.451  1.00  0.00    -0.546 OA 
HETATM   11  C   UNL     1     -13.330  10.003  72.285  1.00  0.00    -0.387 A  
HETATM   12  C   UNL     1     -13.041  12.352  71.529  1.00  0.00    -0.264 C  
ENDROOT
BRANCH   3  13
HETATM   13  C   UNL     1     -11.309  13.460  68.329  1.00  0.00    -0.330 A  
HETATM   14  C   UNL     1      -9.631  14.865  67.267  1.00  0.00    -0.216 A  
HETATM   15  C   UNL     1     -11.680  14.347  66.100  1.00  0.00    -0.384 A  
HETATM   16  C   UNL     1     -12.115  13.589  67.192  1.00  0.00    -0.386 A  
HETATM   17  C   UNL     1     -10.062  14.105  68.357  1.00  0.00    -0.238 A  
HETATM   18  C   UNL     1     -10.440  14.987  66.139  1.00  0.00    -0.313 A  
ENDBRANCH   3  13
BRANCH   5  19
HETATM   19  C   UNL     1     -10.583   8.663  69.264  1.00  0.00    -0.192 C  
HETATM   20  O   UNL     1     -10.612   8.925  68.072  1.00  0.00    -0.221 OA 
BRANCH  19  21
HETATM   21  O   UNL     1      -9.682   7.823  69.838  1.00  0.00    -0.174 OA 
BRANCH  21  22
HETATM   22  C   UNL     1      -9.237   6.786  68.957  1.00  0.00    -0.136 C  
BRANCH  22  23
HETATM   23  C   UNL     1      -8.690   5.622  69.808  1.00  0.00    -0.125 C  
BRANCH  23  24
HETATM   24  N   UNL     1      -9.670   4.553  70.123  1.00  0.00    -0.201 NA 
HETATM   25  C   UNL     1      -9.075   3.210  70.205  1.00  0.00    -0.123 C  
HETATM   26  C   UNL     1      -8.041   3.101  71.322  1.00  0.00    -0.067 C  
HETATM   27  C   UNL     1      -8.616   3.532  72.672  1.00  0.00    -0.091 C  
HETATM   28  C   UNL     1      -9.481   4.793  72.605  1.00  0.00    -0.159 C  
HETATM   29  C   UNL     1     -10.391   4.826  71.375  1.00  0.00    -0.122 C  
ENDBRANCH  23  24
ENDBRANCH  22  23
ENDBRANCH  21  22
ENDBRANCH  19  21
ENDBRANCH   5  19
TORSDOF 6
ENDMDL
MODEL       84
REMARK 921   NORMALIZED FREE ENERGY PREDICTED BY IDOCK:   -5.84 KCAL/MOL
REMARK 922        TOTAL FREE ENERGY PREDICTED BY IDOCK:   -8.58 KCAL/MOL
REMARK 923 INTER-LIGAND FREE ENERGY PREDICTED BY IDOCK:   -6.99 KCAL/MOL
REMARK 924 INTRA-LIGAND FREE ENERGY PREDICTED BY IDOCK:   -1.59 KCAL/MOL
REMARK 927      BINDING AFFINITY PREDICTED BY RF-SCORE:    0.00 PKD
ROOT
HETATM    1  C   UNL     1      -7.454  12.097  67.376  1.00  0.00    -0.156 C  
HETATM    2  C   UNL     1      -8.154  11.269  68.412  1.00  0.00    -0.143 C  
HETATM    3  C   UNL     1      -9.483  11.146  68.586  1.00  0.00    -0.193 C  
HETATM    4  O   UNL     1     -10.080  10.276  69.478  1.00  0.00    -0.221 OA 
HETATM    5  C   UNL     1      -9.915   8.629  71.208  1.00  0.00    -0.315 A  
HETATM    6  C   UNL     1      -9.120   7.965  72.168  1.00  0.00    -0.205 A  
HETATM    7  C   UNL     1      -9.305   9.523  70.319  1.00  0.00    -0.259 A  
HETATM    8  C   UNL     1      -7.918   9.659  70.339  1.00  0.00    -0.191 A  
HETATM    9  C   UNL     1      -7.741   8.159  72.222  1.00  0.00    -0.155 A  
HETATM   10  O   UNL     1      -6.051  10.600  69.280  1.00  0.00    -0.041 OA 
HETATM   11  C   UNL     1      -7.135   8.989  71.289  1.00  0.00    -0.093 A  
HETATM   12  C   UNL     1      -7.271  10.514  69.333  1.00  0.00    -0.117 C  
ENDROOT
BRANCH   3  13
HETATM   13  C   UNL     1     -10.465  11.970  67.867  1.00  0.00    -0.221 A  
HETATM   14  C   UNL     1     -11.829  12.360  65.890  1.00  0.00    -0.467 A  
HETATM   15  C   UNL     1     -11.819  13.976  67.684  1.00  0.00    -0.430 A  
HETATM   16  C   UNL     1     -10.916  13.182  68.399  1.00  0.00    -0.287 A  
HETATM   17  C   UNL     1     -10.930  11.565  66.605  1.00  0.00    -0.349 A  
HETATM   18  C   UNL     1     -12.273  13.567  66.430  1.00  0.00    -0.454 A  
ENDBRANCH   3  13
BRANCH   5  19
HETATM   19  C   UNL     1     -11.394   8.426  71.182  1.00  0.00    -0.268 C  
HETATM   20  O   UNL     1     -12.186   8.694  72.072  1.00  0.00    -0.324 OA 
BRANCH  19  21
HETATM   21  O   UNL     1     -11.738   7.831  70.009  1.00  0.00     0.019 OA 
BRANCH  21  22
HETATM   22  C   UNL     1     -11.527   6.416  70.012  1.00  0.00    -0.428 C  
BRANCH  22  23
HETATM   23  C   UNL     1     -10.578   6.061  68.849  1.00  0.00    -0.290 C  
BRANCH  23  24
HETATM   24  N   UNL     1     -11.080   6.401  67.495  1.00  0.00    -0.357 NA 
HETATM   25  C   UNL     1     -10.642   7.721  67.015  1.00  0.00    -0.326 C  
HETATM   26  C   UNL     1      -9.125   7.815  66.879  1.00  0.00    -0.171 C  
HETATM   27  C   UNL     1      -8.564   6.697  66.001  1.00  0.00    -0.152 C  
HETATM   28  C   UNL     1      -9.184   5.323  66.272  1.00  0.00    -0.152 C  
HETATM   29  C   UNL     1     -10.695   5.388  66.501  1.00  0.00    -0.240 C  
ENDBRANCH  23  24
ENDBRANCH  22  23
ENDBRANCH  21  22
ENDBRANCH  19  21
ENDBRANCH   5  19
TORSDOF 6
ENDMDL
MODEL       85
REMARK 921   NORMALIZED FREE ENERGY PREDICTED BY IDOCK:   -5.83 KCAL/MOL
REMARK 922        TOTAL FREE ENERGY PREDICTED BY IDOCK:   -8.56 KCAL/MOL
REMARK 923 INTER-LIGAND FREE ENERGY PREDICTED BY IDOCK:   -7.50 KCAL/MOL
REMARK 924 INTRA-LIGAND FREE ENERGY PREDICTED BY IDOCK:   -1.06 KCAL/MOL
REMARK 927      BINDING AFFINITY PREDICTED BY RF-SCORE:    0.00 PKD
ROOT
HETATM    1  C   UNL     1      -9.509   7.717  73.711  1.00  0.00    -0.300 C  
HETATM    2  C   UNL     1      -9.261   7.810  72.236  1.00  0.00    -0.207 C  
HETATM    3  C   UNL     1     -10.165   8.096  71.280  1.00  0.00    -0.195 C  
HETATM    4  O   UNL     1      -9.862   8.290  69.946  1.00  0.00    -0.182 OA 
HETATM    5  C   UNL     1      -8.272   8.327  68.156  1.00  0.00    -0.128 A  
HETATM    6  C   UNL     1      -6.981   8.003  67.684  1.00  0.00    -0.075 A  
HETATM    7  C   UNL     1      -8.577   8.111  69.506  1.00  0.00    -0.134 A  
HETATM    8  C   UNL     1      -7.572   7.677  70.367  1.00  0.00    -0.088 A  
HETATM    9  C   UNL     1      -6.002   7.506  68.541  1.00  0.00    -0.027 A  
HETATM   10  O   UNL     1      -6.987   7.245  72.595  1.00  0.00    -0.067 OA 
HETATM   11  C   UNL     1      -6.291   7.366  69.892  1.00  0.00    -0.031 A  
HETATM   12  C   UNL     1      -7.866   7.557  71.803  1.00  0.00    -0.086 C  
ENDROOT
BRANCH   3  13
HETATM   13  C   UNL     1     -11.608   8.193  71.544  1.00  0.00    -0.315 A  
HETATM   14  C   UNL     1     -13.808   7.154  71.576  1.00  0.00    -0.421 A  
HETATM   15  C   UNL     1     -13.572   9.493  72.130  1.00  0.00    -0.500 A  
HETATM   16  C   UNL     1     -12.191   9.407  71.923  1.00  0.00    -0.440 A  
HETATM   17  C   UNL     1     -12.429   7.066  71.373  1.00  0.00    -0.426 A  
HETATM   18  C   UNL     1     -14.380   8.369  71.954  1.00  0.00    -0.561 A  
ENDBRANCH   3  13
BRANCH   5  19
HETATM   19  C   UNL     1      -9.315   8.836  67.215  1.00  0.00    -0.147 C  
HETATM   20  O   UNL     1     -10.188   8.182  66.668  1.00  0.00    -0.292 OA 
BRANCH  19  21
HETATM   21  O   UNL     1      -9.113  10.164  67.008  1.00  0.00    -0.138 OA 
BRANCH  21  22
HETATM   22  C   UNL     1     -10.223  10.973  67.407  1.00  0.00    -0.195 C  
BRANCH  22  23
HETATM   23  C   UNL     1     -10.990  11.410  66.143  1.00  0.00    -0.236 C  
BRANCH  23  24
HETATM   24  N   UNL     1     -10.173  12.093  65.110  1.00  0.00    -0.274 NA 
HETATM   25  C   UNL     1     -10.561  11.760  63.731  1.00  0.00    -0.415 C  
HETATM   26  C   UNL     1     -11.990  12.190  63.411  1.00  0.00    -0.578 C  
HETATM   27  C   UNL     1     -12.216  13.673  63.704  1.00  0.00    -0.376 C  
HETATM   28  C   UNL     1     -11.593  14.149  65.019  1.00  0.00    -0.362 C  
HETATM   29  C   UNL     1     -10.205  13.555  65.269  1.00  0.00    -0.306 C  
ENDBRANCH  23  24
ENDBRANCH  22  23
ENDBRANCH  21  22
ENDBRANCH  19  21
ENDBRANCH   5  19
TORSDOF 6
ENDMDL
MODEL       86
REMARK 921   NORMALIZED FREE ENERGY PREDICTED BY IDOCK:   -5.82 KCAL/MOL
REMARK 922        TOTAL FREE ENERGY PREDICTED BY IDOCK:   -8.55 KCAL/MOL
REMARK 923 INTER-LIGAND FREE ENERGY PREDICTED BY IDOCK:   -7.65 KCAL/MOL
REMARK 924 INTRA-LIGAND FREE ENERGY PREDICTED BY IDOCK:   -0.89 KCAL/MOL
REMARK 927      BINDING AFFINITY PREDICTED BY RF-SCORE:    0.00 PKD
ROOT
HETATM    1  C   UNL     1     -12.266   8.207  70.900  1.00  0.00    -0.108 C  
HETATM    2  C   UNL     1     -12.145   9.687  70.692  1.00  0.00    -0.269 C  
HETATM    3  C   UNL     1     -11.416  10.315  69.751  1.00  0.00    -0.256 C  
HETATM    4  O   UNL     1     -11.433  11.678  69.525  1.00  0.00    -0.270 OA 
HETATM    5  C   UNL     1     -12.198  13.874  70.096  1.00  0.00    -0.425 A  
HETATM    6  C   UNL     1     -12.839  14.723  71.024  1.00  0.00    -0.415 A  
HETATM    7  C   UNL     1     -12.169  12.495  70.341  1.00  0.00    -0.286 A  
HETATM    8  C   UNL     1     -12.858  11.988  71.441  1.00  0.00    -0.391 A  
HETATM    9  C   UNL     1     -13.469  14.211  72.157  1.00  0.00    -0.545 A  
HETATM   10  O   UNL     1     -13.572  10.051  72.550  1.00  0.00    -0.267 OA 
HETATM   11  C   UNL     1     -13.500  12.837  72.352  1.00  0.00    -0.512 A  
HETATM   12  C   UNL     1     -12.918  10.531  71.634  1.00  0.00    -0.476 C  
ENDROOT
BRANCH   3  13
HETATM   13  C   UNL     1     -10.468   9.615  68.872  1.00  0.00    -0.234 A  
HETATM   14  C   UNL     1      -8.244   8.708  68.484  1.00  0.00    -0.122 A  
HETATM   15  C   UNL     1      -9.897   8.636  66.726  1.00  0.00    -0.322 A  
HETATM   16  C   UNL     1     -10.823   9.264  67.565  1.00  0.00    -0.182 A  
HETATM   17  C   UNL     1      -9.169   9.332  69.325  1.00  0.00    -0.152 A  
HETATM   18  C   UNL     1      -8.607   8.361  67.184  1.00  0.00    -0.123 A  
ENDBRANCH   3  13
BRANCH   5  19
HETATM   19  C   UNL     1     -11.507  14.445  68.901  1.00  0.00    -0.289 C  
HETATM   20  O   UNL     1     -12.034  14.888  67.893  1.00  0.00    -0.317 OA 
BRANCH  19  21
HETATM   21  O   UNL     1     -10.163  14.350  69.080  1.00  0.00    -0.230 OA 
BRANCH  21  22
HETATM   22  C   UNL     1      -9.419  14.542  67.873  1.00  0.00    -0.212 C  
BRANCH  22  23
HETATM   23  C   UNL     1      -7.918  14.574  68.223  1.00  0.00    -0.137 C  
BRANCH  23  24
HETATM   24  N   UNL     1      -7.068  15.364  67.299  1.00  0.00    -0.197 NA 
HETATM   25  C   UNL     1      -7.585  16.714  67.025  1.00  0.00    -0.202 C  
HETATM   26  C   UNL     1      -7.657  17.574  68.284  1.00  0.00    -0.240 C  
HETATM   27  C   UNL     1      -6.310  17.636  69.005  1.00  0.00    -0.223 C  
HETATM   28  C   UNL     1      -5.585  16.290  69.086  1.00  0.00    -0.115 C  
HETATM   29  C   UNL     1      -5.687  15.481  67.792  1.00  0.00    -0.129 C  
ENDBRANCH  23  24
ENDBRANCH  22  23
ENDBRANCH  21  22
ENDBRANCH  19  21
ENDBRANCH   5  19
TORSDOF 6
ENDMDL
MODEL       87
REMARK 921   NORMALIZED FREE ENERGY PREDICTED BY IDOCK:   -5.81 KCAL/MOL
REMARK 922        TOTAL FREE ENERGY PREDICTED BY IDOCK:   -8.54 KCAL/MOL
REMARK 923 INTER-LIGAND FREE ENERGY PREDICTED BY IDOCK:   -6.51 KCAL/MOL
REMARK 924 INTRA-LIGAND FREE ENERGY PREDICTED BY IDOCK:   -2.02 KCAL/MOL
REMARK 927      BINDING AFFINITY PREDICTED BY RF-SCORE:    0.00 PKD
ROOT
HETATM    1  C   UNL     1      -8.179   7.466  69.235  1.00  0.00    -0.131 C  
HETATM    2  C   UNL     1      -9.047   8.681  69.370  1.00  0.00    -0.149 C  
HETATM    3  C   UNL     1      -8.948   9.827  68.673  1.00  0.00    -0.130 C  
HETATM    4  O   UNL     1      -9.848  10.873  68.749  1.00  0.00    -0.184 OA 
HETATM    5  C   UNL     1     -11.805  11.870  69.703  1.00  0.00    -0.406 A  
HETATM    6  C   UNL     1     -12.784  11.870  70.721  1.00  0.00    -0.242 A  
HETATM    7  C   UNL     1     -10.885  10.816  69.642  1.00  0.00    -0.241 A  
HETATM    8  C   UNL     1     -11.021   9.746  70.525  1.00  0.00    -0.384 A  
HETATM    9  C   UNL     1     -12.869  10.826  71.640  1.00  0.00    -0.562 A  
HETATM   10  O   UNL     1     -10.260   7.605  71.101  1.00  0.00    -0.196 OA 
HETATM   11  C   UNL     1     -12.001   9.749  71.526  1.00  0.00    -0.488 A  
HETATM   12  C   UNL     1     -10.122   8.590  70.387  1.00  0.00    -0.189 C  
ENDROOT
BRANCH   3  13
HETATM   13  C   UNL     1      -7.828  10.121  67.767  1.00  0.00    -0.098 A  
HETATM   14  C   UNL     1      -5.524  10.835  67.443  1.00  0.00    -0.040 A  
HETATM   15  C   UNL     1      -6.927  10.386  65.529  1.00  0.00    -0.134 A  
HETATM   16  C   UNL     1      -7.990  10.064  66.379  1.00  0.00    -0.116 A  
HETATM   17  C   UNL     1      -6.585  10.509  68.293  1.00  0.00    -0.059 A  
HETATM   18  C   UNL     1      -5.696  10.775  66.061  1.00  0.00    -0.140 A  
ENDBRANCH   3  13
BRANCH   5  19
HETATM   19  C   UNL     1     -11.715  13.010  68.742  1.00  0.00    -0.324 C  
HETATM   20  O   UNL     1     -11.946  12.979  67.544  1.00  0.00    -0.357 OA 
BRANCH  19  21
HETATM   21  O   UNL     1     -11.273  14.112  69.405  1.00  0.00    -0.256 OA 
BRANCH  21  22
HETATM   22  C   UNL     1     -11.349  15.308  68.623  1.00  0.00    -0.317 C  
BRANCH  22  23
HETATM   23  C   UNL     1      -9.976  16.009  68.666  1.00  0.00    -0.220 C  
BRANCH  23  24
HETATM   24  N   UNL     1      -9.328  16.214  67.347  1.00  0.00    -0.216 NA 
HETATM   25  C   UNL     1      -7.970  16.774  67.435  1.00  0.00    -0.170 C  
HETATM   26  C   UNL     1      -7.008  15.851  68.177  1.00  0.00    -0.124 C  
HETATM   27  C   UNL     1      -6.986  14.448  67.571  1.00  0.00    -0.182 C  
HETATM   28  C   UNL     1      -8.371  13.908  67.202  1.00  0.00    -0.171 C  
HETATM   29  C   UNL     1      -9.273  14.968  66.567  1.00  0.00    -0.290 C  
ENDBRANCH  23  24
ENDBRANCH  22  23
ENDBRANCH  21  22
ENDBRANCH  19  21
ENDBRANCH   5  19
TORSDOF 6
ENDMDL
MODEL       88
REMARK 921   NORMALIZED FREE ENERGY PREDICTED BY IDOCK:   -5.76 KCAL/MOL
REMARK 922        TOTAL FREE ENERGY PREDICTED BY IDOCK:   -8.46 KCAL/MOL
REMARK 923 INTER-LIGAND FREE ENERGY PREDICTED BY IDOCK:   -7.60 KCAL/MOL
REMARK 924 INTRA-LIGAND FREE ENERGY PREDICTED BY IDOCK:   -0.86 KCAL/MOL
REMARK 927      BINDING AFFINITY PREDICTED BY RF-SCORE:    0.00 PKD
ROOT
HETATM    1  C   UNL     1     -11.353   5.902  71.713  1.00  0.00    -0.289 C  
HETATM    2  C   UNL     1     -10.801   6.460  70.436  1.00  0.00    -0.343 C  
HETATM    3  C   UNL     1     -10.883   7.733  70.007  1.00  0.00    -0.241 C  
HETATM    4  O   UNL     1     -10.253   8.224  68.879  1.00  0.00    -0.202 OA 
HETATM    5  C   UNL     1      -8.897   7.880  66.936  1.00  0.00    -0.146 A  
HETATM    6  C   UNL     1      -8.296   6.978  66.030  1.00  0.00    -0.134 A  
HETATM    7  C   UNL     1      -9.549   7.374  68.067  1.00  0.00    -0.141 A  
HETATM    8  C   UNL     1      -9.503   6.004  68.321  1.00  0.00    -0.117 A  
HETATM    9  C   UNL     1      -8.314   5.604  66.259  1.00  0.00    -0.114 A  
HETATM   10  O   UNL     1     -10.010   4.303  69.851  1.00  0.00    -0.221 OA 
HETATM   11  C   UNL     1      -8.897   5.118  67.421  1.00  0.00    -0.105 A  
HETATM   12  C   UNL     1     -10.094   5.490  69.566  1.00  0.00    -0.234 C  
ENDROOT
BRANCH   3  13
HETATM   13  C   UNL     1     -11.702   8.754  70.676  1.00  0.00    -0.194 A  
HETATM   14  C   UNL     1     -13.592   9.324  72.100  1.00  0.00    -0.536 A  
HETATM   15  C   UNL     1     -12.274  11.076  71.087  1.00  0.00    -0.415 A  
HETATM   16  C   UNL     1     -11.460  10.117  70.476  1.00  0.00    -0.417 A  
HETATM   17  C   UNL     1     -12.776   8.365  71.494  1.00  0.00    -0.330 A  
HETATM   18  C   UNL     1     -13.341  10.680  71.895  1.00  0.00    -0.454 A  
ENDBRANCH   3  13
BRANCH   5  19
HETATM   19  C   UNL     1      -8.888   9.347  66.659  1.00  0.00    -0.135 C  
HETATM   20  O   UNL     1      -8.068  10.162  67.052  1.00  0.00    -0.116 OA 
BRANCH  19  21
HETATM   21  O   UNL     1      -9.988   9.666  65.927  1.00  0.00    -0.285 OA 
BRANCH  21  22
HETATM   22  C   UNL     1      -9.787  10.790  65.067  1.00  0.00    -0.288 C  
BRANCH  22  23
HETATM   23  C   UNL     1     -10.815  11.879  65.435  1.00  0.00    -0.294 C  
BRANCH  23  24
HETATM   24  N   UNL     1     -10.241  13.206  65.767  1.00  0.00    -0.286 NA 
HETATM   25  C   UNL     1     -11.245  14.276  65.875  1.00  0.00    -0.319 C  
HETATM   26  C   UNL     1     -12.248  14.020  66.995  1.00  0.00    -0.387 C  
HETATM   27  C   UNL     1     -11.553  13.780  68.336  1.00  0.00    -0.369 C  
HETATM   28  C   UNL     1     -10.321  12.876  68.245  1.00  0.00    -0.248 C  
HETATM   29  C   UNL     1      -9.461  13.166  67.013  1.00  0.00    -0.242 C  
ENDBRANCH  23  24
ENDBRANCH  22  23
ENDBRANCH  21  22
ENDBRANCH  19  21
ENDBRANCH   5  19
TORSDOF 6
ENDMDL
MODEL       89
REMARK 921   NORMALIZED FREE ENERGY PREDICTED BY IDOCK:   -5.75 KCAL/MOL
REMARK 922        TOTAL FREE ENERGY PREDICTED BY IDOCK:   -8.45 KCAL/MOL
REMARK 923 INTER-LIGAND FREE ENERGY PREDICTED BY IDOCK:   -7.34 KCAL/MOL
REMARK 924 INTRA-LIGAND FREE ENERGY PREDICTED BY IDOCK:   -1.11 KCAL/MOL
REMARK 927      BINDING AFFINITY PREDICTED BY RF-SCORE:    0.00 PKD
ROOT
HETATM    1  C   UNL     1     -11.196  12.373  63.553  1.00  0.00    -0.540 C  
HETATM    2  C   UNL     1     -10.240  11.620  64.428  1.00  0.00    -0.346 C  
HETATM    3  C   UNL     1      -9.962  11.865  65.722  1.00  0.00    -0.236 C  
HETATM    4  O   UNL     1      -9.164  11.067  66.519  1.00  0.00    -0.163 OA 
HETATM    5  C   UNL     1      -7.734   9.167  66.792  1.00  0.00    -0.097 A  
HETATM    6  C   UNL     1      -6.969   8.139  66.199  1.00  0.00    -0.058 A  
HETATM    7  C   UNL     1      -8.527   9.983  65.976  1.00  0.00    -0.131 A  
HETATM    8  C   UNL     1      -8.617   9.697  64.615  1.00  0.00    -0.201 A  
HETATM    9  C   UNL     1      -7.015   7.904  64.826  1.00  0.00    -0.062 A  
HETATM   10  O   UNL     1      -9.689  10.217  62.597  1.00  0.00    -0.288 OA 
HETATM   11  C   UNL     1      -7.861   8.670  64.036  1.00  0.00    -0.146 A  
HETATM   12  C   UNL     1      -9.535  10.487  63.781  1.00  0.00    -0.298 C  
ENDROOT
BRANCH   3  13
HETATM   13  C   UNL     1     -10.448  13.056  66.434  1.00  0.00    -0.285 A  
HETATM   14  C   UNL     1     -10.181  15.400  67.027  1.00  0.00    -0.262 A  
HETATM   15  C   UNL     1     -11.997  14.119  67.971  1.00  0.00    -0.372 A  
HETATM   16  C   UNL     1     -11.570  12.988  67.267  1.00  0.00    -0.409 A  
HETATM   17  C   UNL     1      -9.757  14.273  66.320  1.00  0.00    -0.321 A  
HETATM   18  C   UNL     1     -11.301  15.323  67.854  1.00  0.00    -0.339 A  
ENDBRANCH   3  13
BRANCH   5  19
HETATM   19  C   UNL     1      -7.651   9.417  68.262  1.00  0.00    -0.082 C  
HETATM   20  O   UNL     1      -6.794  10.058  68.849  1.00  0.00    -0.052 OA 
BRANCH  19  21
HETATM   21  O   UNL     1      -8.670   8.762  68.881  1.00  0.00    -0.131 OA 
BRANCH  21  22
HETATM   22  C   UNL     1      -9.045   9.353  70.128  1.00  0.00    -0.231 C  
BRANCH  22  23
HETATM   23  C   UNL     1     -10.566   9.178  70.315  1.00  0.00    -0.223 C  
BRANCH  23  24
HETATM   24  N   UNL     1     -11.035   9.179  71.722  1.00  0.00    -0.370 NA 
HETATM   25  C   UNL     1     -12.473   8.905  71.867  1.00  0.00    -0.378 C  
HETATM   26  C   UNL     1     -12.855   7.520  71.353  1.00  0.00    -0.381 C  
HETATM   27  C   UNL     1     -12.018   6.421  72.007  1.00  0.00    -0.375 C  
HETATM   28  C   UNL     1     -10.530   6.764  72.132  1.00  0.00    -0.231 C  
HETATM   29  C   UNL     1     -10.288   8.217  72.546  1.00  0.00    -0.330 C  
ENDBRANCH  23  24
ENDBRANCH  22  23
ENDBRANCH  21  22
ENDBRANCH  19  21
ENDBRANCH   5  19
TORSDOF 6
ENDMDL
MODEL       90
REMARK 921   NORMALIZED FREE ENERGY PREDICTED BY IDOCK:   -5.75 KCAL/MOL
REMARK 922        TOTAL FREE ENERGY PREDICTED BY IDOCK:   -8.45 KCAL/MOL
REMARK 923 INTER-LIGAND FREE ENERGY PREDICTED BY IDOCK:   -7.34 KCAL/MOL
REMARK 924 INTRA-LIGAND FREE ENERGY PREDICTED BY IDOCK:   -1.12 KCAL/MOL
REMARK 927      BINDING AFFINITY PREDICTED BY RF-SCORE:    0.00 PKD
ROOT
HETATM    1  C   UNL     1      -8.873  10.965  66.862  1.00  0.00    -0.145 C  
HETATM    2  C   UNL     1      -9.877  10.835  67.967  1.00  0.00    -0.180 C  
HETATM    3  C   UNL     1     -10.300   9.697  68.548  1.00  0.00    -0.205 C  
HETATM    4  O   UNL     1     -11.137   9.639  69.645  1.00  0.00    -0.236 OA 
HETATM    5  C   UNL     1     -12.494  10.730  71.289  1.00  0.00    -0.504 A  
HETATM    6  C   UNL     1     -13.143  11.905  71.729  1.00  0.00    -0.465 A  
HETATM    7  C   UNL     1     -11.661  10.793  70.165  1.00  0.00    -0.339 A  
HETATM    8  C   UNL     1     -11.416  12.029  69.571  1.00  0.00    -0.351 A  
HETATM    9  C   UNL     1     -12.943  13.124  71.085  1.00  0.00    -0.280 A  
HETATM   10  O   UNL     1     -10.167  13.189  67.962  1.00  0.00    -0.220 OA 
HETATM   11  C   UNL     1     -12.058  13.191  70.019  1.00  0.00    -0.375 A  
HETATM   12  C   UNL     1     -10.456  12.108  68.459  1.00  0.00    -0.233 C  
ENDROOT
BRANCH   3  13
HETATM   13  C   UNL     1      -9.948   8.362  68.044  1.00  0.00    -0.221 A  
HETATM   14  C   UNL     1      -8.395   6.489  67.969  1.00  0.00    -0.116 A  
HETATM   15  C   UNL     1     -10.382   6.461  66.598  1.00  0.00    -0.223 A  
HETATM   16  C   UNL     1     -10.751   7.713  67.099  1.00  0.00    -0.361 A  
HETATM   17  C   UNL     1      -8.766   7.738  68.475  1.00  0.00    -0.128 A  
HETATM   18  C   UNL     1      -9.203   5.851  67.030  1.00  0.00    -0.120 A  
ENDBRANCH   3  13
BRANCH   5  19
HETATM   19  C   UNL     1     -12.741   9.428  71.977  1.00  0.00    -0.403 C  
HETATM   20  O   UNL     1     -13.825   8.927  72.230  1.00  0.00    -0.434 OA 
BRANCH  19  21
HETATM   21  O   UNL     1     -11.548   8.887  72.342  1.00  0.00    -0.324 OA 
BRANCH  21  22
HETATM   22  C   UNL     1     -11.592   7.464  72.476  1.00  0.00    -0.275 C  
BRANCH  22  23
HETATM   23  C   UNL     1     -10.372   7.012  73.305  1.00  0.00    -0.309 C  
BRANCH  23  24
HETATM   24  N   UNL     1      -9.231   7.961  73.321  1.00  0.00    -0.261 NA 
HETATM   25  C   UNL     1      -8.295   7.743  74.435  1.00  0.00    -0.224 C  
HETATM   26  C   UNL     1      -7.630   6.371  74.373  1.00  0.00    -0.098 C  
HETATM   27  C   UNL     1      -6.949   6.130  73.026  1.00  0.00    -0.079 C  
HETATM   28  C   UNL     1      -7.774   6.591  71.821  1.00  0.00    -0.095 C  
HETATM   29  C   UNL     1      -8.478   7.929  72.059  1.00  0.00    -0.132 C  
ENDBRANCH  23  24
ENDBRANCH  22  23
ENDBRANCH  21  22
ENDBRANCH  19  21
ENDBRANCH   5  19
TORSDOF 6
ENDMDL
MODEL       91
REMARK 921   NORMALIZED FREE ENERGY PREDICTED BY IDOCK:   -5.75 KCAL/MOL
REMARK 922        TOTAL FREE ENERGY PREDICTED BY IDOCK:   -8.45 KCAL/MOL
REMARK 923 INTER-LIGAND FREE ENERGY PREDICTED BY IDOCK:   -6.51 KCAL/MOL
REMARK 924 INTRA-LIGAND FREE ENERGY PREDICTED BY IDOCK:   -1.94 KCAL/MOL
REMARK 927      BINDING AFFINITY PREDICTED BY RF-SCORE:    0.00 PKD
ROOT
HETATM    1  C   UNL     1     -12.528  11.915  63.523  1.00  0.00    -0.609 C  
HETATM    2  C   UNL     1     -11.727  12.510  64.642  1.00  0.00    -0.416 C  
HETATM    3  C   UNL     1     -10.452  12.226  64.964  1.00  0.00    -0.290 C  
HETATM    4  O   UNL     1      -9.719  12.891  65.929  1.00  0.00    -0.252 OA 
HETATM    5  C   UNL     1      -9.563  14.544  67.653  1.00  0.00    -0.214 A  
HETATM    6  C   UNL     1     -10.219  15.438  68.529  1.00  0.00    -0.219 A  
HETATM    7  C   UNL     1     -10.316  13.861  66.690  1.00  0.00    -0.278 A  
HETATM    8  C   UNL     1     -11.671  14.154  66.555  1.00  0.00    -0.414 A  
HETATM    9  C   UNL     1     -11.588  15.674  68.428  1.00  0.00    -0.358 A  
HETATM   10  O   UNL     1     -13.608  13.805  65.282  1.00  0.00    -0.421 OA 
HETATM   11  C   UNL     1     -12.312  15.049  67.422  1.00  0.00     0.464 A  
HETATM   12  C   UNL     1     -12.433  13.516  65.471  1.00  0.00    -0.491 C  
ENDROOT
BRANCH   3  13
HETATM   13  C   UNL     1      -9.694  11.129  64.346  1.00  0.00    -0.312 A  
HETATM   14  C   UNL     1      -8.505  10.220  62.427  1.00  0.00    -0.209 A  
HETATM   15  C   UNL     1      -8.819   8.865  64.401  1.00  0.00    -0.047 A  
HETATM   16  C   UNL     1      -9.506   9.916  65.018  1.00  0.00    -0.343 A  
HETATM   17  C   UNL     1      -9.187  11.272  63.044  1.00  0.00    -0.310 A  
HETATM   18  C   UNL     1      -8.322   9.016  63.105  1.00  0.00    -0.195 A  
ENDBRANCH   3  13
BRANCH   5  19
HETATM   19  C   UNL     1      -8.099  14.286  67.795  1.00  0.00    -0.170 C  
HETATM   20  O   UNL     1      -7.208  14.710  67.075  1.00  0.00    -0.105 OA 
BRANCH  19  21
HETATM   21  O   UNL     1      -7.898  13.442  68.841  1.00  0.00    -0.054 OA 
BRANCH  21  22
HETATM   22  C   UNL     1      -7.174  12.262  68.482  1.00  0.00    -0.103 C  
BRANCH  22  23
HETATM   23  C   UNL     1      -8.184  11.119  68.251  1.00  0.00    -0.134 C  
BRANCH  23  24
HETATM   24  N   UNL     1      -9.082  10.828  69.395  1.00  0.00    -0.041 NA 
HETATM   25  C   UNL     1     -10.508  11.035  69.097  1.00  0.00    -0.210 C  
HETATM   26  C   UNL     1     -11.010  10.110  67.992  1.00  0.00    -0.326 C  
HETATM   27  C   UNL     1     -10.720   8.642  68.305  1.00  0.00    -0.107 C  
HETATM   28  C   UNL     1      -9.324   8.393  68.882  1.00  0.00    -0.147 C  
HETATM   29  C   UNL     1      -8.900   9.457  69.896  1.00  0.00    -0.199 C  
ENDBRANCH  23  24
ENDBRANCH  22  23
ENDBRANCH  21  22
ENDBRANCH  19  21
ENDBRANCH   5  19
TORSDOF 6
ENDMDL
MODEL       92
REMARK 921   NORMALIZED FREE ENERGY PREDICTED BY IDOCK:   -5.75 KCAL/MOL
REMARK 922        TOTAL FREE ENERGY PREDICTED BY IDOCK:   -8.45 KCAL/MOL
REMARK 923 INTER-LIGAND FREE ENERGY PREDICTED BY IDOCK:   -7.62 KCAL/MOL
REMARK 924 INTRA-LIGAND FREE ENERGY PREDICTED BY IDOCK:   -0.83 KCAL/MOL
REMARK 927      BINDING AFFINITY PREDICTED BY RF-SCORE:    0.00 PKD
ROOT
HETATM    1  C   UNL     1     -12.046  14.495  66.439  1.00  0.00    -0.320 C  
HETATM    2  C   UNL     1     -11.167  13.413  66.991  1.00  0.00    -0.328 C  
HETATM    3  C   UNL     1     -10.960  13.122  68.289  1.00  0.00    -0.253 C  
HETATM    4  O   UNL     1     -10.235  12.038  68.745  1.00  0.00    -0.204 OA 
HETATM    5  C   UNL     1      -8.882  10.109  68.316  1.00  0.00    -0.124 A  
HETATM    6  C   UNL     1      -8.114   9.355  67.402  1.00  0.00    -0.110 A  
HETATM    7  C   UNL     1      -9.600  11.218  67.850  1.00  0.00    -0.178 A  
HETATM    8  C   UNL     1      -9.617  11.489  66.483  1.00  0.00    -0.225 A  
HETATM    9  C   UNL     1      -8.085   9.676  66.046  1.00  0.00    -0.112 A  
HETATM   10  O   UNL     1     -10.550  12.806  64.784  1.00  0.00    -0.297 OA 
HETATM   11  C   UNL     1      -8.859  10.730  65.582  1.00  0.00    -0.202 A  
HETATM   12  C   UNL     1     -10.459  12.587  65.985  1.00  0.00    -0.258 C  
ENDROOT
BRANCH   3  13
HETATM   13  C   UNL     1     -11.452  13.965  69.388  1.00  0.00    -0.334 A  
HETATM   14  C   UNL     1     -11.265  15.991  70.724  1.00  0.00    -0.381 A  
HETATM   15  C   UNL     1     -12.931  14.333  71.277  1.00  0.00    -0.422 A  
HETATM   16  C   UNL     1     -12.500  13.538  70.210  1.00  0.00    -0.309 A  
HETATM   17  C   UNL     1     -10.837  15.200  69.654  1.00  0.00    -0.297 A  
HETATM   18  C   UNL     1     -12.311  15.556  71.536  1.00  0.00    -0.465 A  
ENDBRANCH   3  13
BRANCH   5  19
HETATM   19  C   UNL     1      -8.880   9.764  69.769  1.00  0.00    -0.224 C  
HETATM   20  O   UNL     1      -7.923   9.788  70.526  1.00  0.00    -0.220 OA 
BRANCH  19  21
HETATM   21  O   UNL     1     -10.126   9.354  70.128  1.00  0.00    -0.201 OA 
BRANCH  21  22
HETATM   22  C   UNL     1     -10.519   8.131  69.500  1.00  0.00    -0.227 C  
BRANCH  22  23
HETATM   23  C   UNL     1     -10.005   6.954  70.354  1.00  0.00    -0.179 C  
BRANCH  23  24
HETATM   24  N   UNL     1     -11.054   6.175  71.056  1.00  0.00    -0.292 NA 
HETATM   25  C   UNL     1     -10.524   5.102  71.910  1.00  0.00    -0.207 C  
HETATM   26  C   UNL     1      -9.649   5.638  73.039  1.00  0.00    -0.159 C  
HETATM   27  C   UNL     1     -10.378   6.693  73.870  1.00  0.00    -0.385 C  
HETATM   28  C   UNL     1     -11.182   7.695  73.037  1.00  0.00    -0.388 C  
HETATM   29  C   UNL     1     -11.922   7.039  71.870  1.00  0.00    -0.320 C  
ENDBRANCH  23  24
ENDBRANCH  22  23
ENDBRANCH  21  22
ENDBRANCH  19  21
ENDBRANCH   5  19
TORSDOF 6
ENDMDL
MODEL       93
REMARK 921   NORMALIZED FREE ENERGY PREDICTED BY IDOCK:   -5.74 KCAL/MOL
REMARK 922        TOTAL FREE ENERGY PREDICTED BY IDOCK:   -8.45 KCAL/MOL
REMARK 923 INTER-LIGAND FREE ENERGY PREDICTED BY IDOCK:   -8.05 KCAL/MOL
REMARK 924 INTRA-LIGAND FREE ENERGY PREDICTED BY IDOCK:   -0.39 KCAL/MOL
REMARK 927      BINDING AFFINITY PREDICTED BY RF-SCORE:    0.00 PKD
ROOT
HETATM    1  C   UNL     1      -8.777   8.857  64.222  1.00  0.00    -0.095 C  
HETATM    2  C   UNL     1      -9.566   9.603  65.255  1.00  0.00    -0.347 C  
HETATM    3  C   UNL     1      -9.934   9.157  66.471  1.00  0.00    -0.288 C  
HETATM    4  O   UNL     1     -10.557   9.927  67.434  1.00  0.00    -0.253 OA 
HETATM    5  C   UNL     1     -11.530  11.999  68.135  1.00  0.00    -0.383 A  
HETATM    6  C   UNL     1     -12.025  13.276  67.789  1.00  0.00    -0.356 A  
HETATM    7  C   UNL     1     -10.916  11.218  67.148  1.00  0.00    -0.291 A  
HETATM    8  C   UNL     1     -10.720  11.758  65.879  1.00  0.00    -0.328 A  
HETATM    9  C   UNL     1     -11.883  13.781  66.498  1.00  0.00    -0.438 A  
HETATM   10  O   UNL     1      -9.728  11.451  63.778  1.00  0.00    -0.257 OA 
HETATM   11  C   UNL     1     -11.206  13.030  65.547  1.00  0.00    -0.315 A  
HETATM   12  C   UNL     1      -9.977  10.977  64.879  1.00  0.00    -0.288 C  
ENDROOT
BRANCH   3  13
HETATM   13  C   UNL     1      -9.751   7.764  66.902  1.00  0.00    -0.282 A  
HETATM   14  C   UNL     1     -10.708   5.594  67.445  1.00  0.00    -0.283 A  
HETATM   15  C   UNL     1      -8.338   5.967  67.718  1.00  0.00    -0.112 A  
HETATM   16  C   UNL     1      -8.490   7.284  67.270  1.00  0.00    -0.118 A  
HETATM   17  C   UNL     1     -10.860   6.907  66.993  1.00  0.00    -0.436 A  
HETATM   18  C   UNL     1      -9.446   5.124  67.809  1.00  0.00    -0.150 A  
ENDBRANCH   3  13
BRANCH   5  19
HETATM   19  C   UNL     1     -11.715  11.467  69.518  1.00  0.00    -0.348 C  
HETATM   20  O   UNL     1     -12.530  11.843  70.344  1.00  0.00    -0.253 OA 
BRANCH  19  21
HETATM   21  O   UNL     1     -10.778  10.509  69.751  1.00  0.00    -0.258 OA 
BRANCH  21  22
HETATM   22  C   UNL     1     -10.982   9.810  70.982  1.00  0.00    -0.332 C  
BRANCH  22  23
HETATM   23  C   UNL     1     -11.429   8.369  70.659  1.00  0.00    -0.219 C  
BRANCH  23  24
HETATM   24  N   UNL     1     -10.353   7.348  70.703  1.00  0.00    -0.210 NA 
HETATM   25  C   UNL     1      -9.301   7.638  71.690  1.00  0.00    -0.138 C  
HETATM   26  C   UNL     1      -9.836   7.668  73.118  1.00  0.00    -0.337 C  
HETATM   27  C   UNL     1     -10.583   6.382  73.472  1.00  0.00    -0.297 C  
HETATM   28  C   UNL     1     -11.506   5.873  72.361  1.00  0.00    -0.358 C  
HETATM   29  C   UNL     1     -10.889   6.004  70.968  1.00  0.00    -0.282 C  
ENDBRANCH  23  24
ENDBRANCH  22  23
ENDBRANCH  21  22
ENDBRANCH  19  21
ENDBRANCH   5  19
TORSDOF 6
ENDMDL
MODEL       94
REMARK 921   NORMALIZED FREE ENERGY PREDICTED BY IDOCK:   -5.73 KCAL/MOL
REMARK 922        TOTAL FREE ENERGY PREDICTED BY IDOCK:   -8.43 KCAL/MOL
REMARK 923 INTER-LIGAND FREE ENERGY PREDICTED BY IDOCK:   -7.87 KCAL/MOL
REMARK 924 INTRA-LIGAND FREE ENERGY PREDICTED BY IDOCK:   -0.56 KCAL/MOL
REMARK 927      BINDING AFFINITY PREDICTED BY RF-SCORE:    0.00 PKD
ROOT
HETATM    1  C   UNL     1      -7.676  10.033  64.893  1.00  0.00    -0.138 C  
HETATM    2  C   UNL     1      -8.399  10.121  66.203  1.00  0.00    -0.131 C  
HETATM    3  C   UNL     1      -9.536  10.796  66.457  1.00  0.00    -0.169 C  
HETATM    4  O   UNL     1     -10.228  10.747  67.651  1.00  0.00    -0.177 OA 
HETATM    5  C   UNL     1     -10.434   9.976  69.908  1.00  0.00    -0.317 A  
HETATM    6  C   UNL     1      -9.836   9.364  71.032  1.00  0.00    -0.317 A  
HETATM    7  C   UNL     1      -9.719  10.037  68.706  1.00  0.00    -0.171 A  
HETATM    8  C   UNL     1      -8.479   9.407  68.622  1.00  0.00    -0.119 A  
HETATM    9  C   UNL     1      -8.566   8.795  70.955  1.00  0.00    -0.229 A  
HETATM   10  O   UNL     1      -6.723   8.775  67.203  1.00  0.00    -0.064 OA 
HETATM   11  C   UNL     1      -7.897   8.794  69.739  1.00  0.00    -0.090 A  
HETATM   12  C   UNL     1      -7.780   9.379  67.328  1.00  0.00    -0.091 C  
ENDROOT
BRANCH   3  13
HETATM   13  C   UNL     1     -10.156  11.713  65.490  1.00  0.00    -0.285 A  
HETATM   14  C   UNL     1     -11.036  12.129  63.260  1.00  0.00    -0.398 A  
HETATM   15  C   UNL     1     -10.933  13.927  64.868  1.00  0.00    -0.391 A  
HETATM   16  C   UNL     1     -10.381  13.056  65.813  1.00  0.00    -0.296 A  
HETATM   17  C   UNL     1     -10.488  11.257  64.204  1.00  0.00    -0.431 A  
HETATM   18  C   UNL     1     -11.257  13.465  63.592  1.00  0.00    -0.010 A  
ENDBRANCH   3  13
BRANCH   5  19
HETATM   19  C   UNL     1     -11.785  10.601  70.019  1.00  0.00    -0.324 C  
HETATM   20  O   UNL     1     -12.623  10.697  69.137  1.00  0.00    -0.252 OA 
BRANCH  19  21
HETATM   21  O   UNL     1     -11.934  11.113  71.270  1.00  0.00    -0.195 OA 
BRANCH  21  22
HETATM   22  C   UNL     1     -13.282  11.484  71.571  1.00  0.00    -0.220 C  
BRANCH  22  23
HETATM   23  C   UNL     1     -13.264  12.828  72.327  1.00  0.00    -0.386 C  
BRANCH  23  24
HETATM   24  N   UNL     1     -13.793  13.988  71.569  1.00  0.00    -0.302 NA 
HETATM   25  C   UNL     1     -14.115  15.150  72.412  1.00  0.00    -0.495 C  
HETATM   26  C   UNL     1     -12.886  15.707  73.126  1.00  0.00    -0.621 C  
HETATM   27  C   UNL     1     -11.760  16.034  72.145  1.00  0.00    -0.587 C  
HETATM   28  C   UNL     1     -11.551  14.972  71.062  1.00  0.00    -0.367 C  
HETATM   29  C   UNL     1     -12.866  14.417  70.511  1.00  0.00    -0.294 C  
ENDBRANCH  23  24
ENDBRANCH  22  23
ENDBRANCH  21  22
ENDBRANCH  19  21
ENDBRANCH   5  19
TORSDOF 6
ENDMDL
MODEL       95
REMARK 921   NORMALIZED FREE ENERGY PREDICTED BY IDOCK:   -5.72 KCAL/MOL
REMARK 922        TOTAL FREE ENERGY PREDICTED BY IDOCK:   -8.41 KCAL/MOL
REMARK 923 INTER-LIGAND FREE ENERGY PREDICTED BY IDOCK:   -7.33 KCAL/MOL
REMARK 924 INTRA-LIGAND FREE ENERGY PREDICTED BY IDOCK:   -1.08 KCAL/MOL
REMARK 927      BINDING AFFINITY PREDICTED BY RF-SCORE:    0.00 PKD
ROOT
HETATM    1  C   UNL     1     -12.999   6.999  71.929  1.00  0.00    -0.283 C  
HETATM    2  C   UNL     1     -12.190   8.079  71.277  1.00  0.00    -0.308 C  
HETATM    3  C   UNL     1     -11.036   7.928  70.600  1.00  0.00    -0.245 C  
HETATM    4  O   UNL     1     -10.391   8.938  69.913  1.00  0.00    -0.194 OA 
HETATM    5  C   UNL     1     -10.234  11.233  69.248  1.00  0.00    -0.058 A  
HETATM    6  C   UNL     1     -10.659  12.569  69.418  1.00  0.00     0.219 A  
HETATM    7  C   UNL     1     -10.881  10.216  69.961  1.00  0.00    -0.307 A  
HETATM    8  C   UNL     1     -11.990  10.536  70.742  1.00  0.00    -0.472 A  
HETATM    9  C   UNL     1     -11.728  12.886  70.254  1.00  0.00    -0.187 A  
HETATM   10  O   UNL     1     -13.751   9.692  72.038  1.00  0.00    -0.379 OA 
HETATM   11  C   UNL     1     -12.411  11.863  70.898  1.00  0.00    -0.397 A  
HETATM   12  C   UNL     1     -12.733   9.452  71.402  1.00  0.00    -0.345 C  
ENDROOT
BRANCH   3  13
HETATM   13  C   UNL     1     -10.295   6.659  70.551  1.00  0.00    -0.231 A  
HETATM   14  C   UNL     1      -9.846   4.534  69.455  1.00  0.00    -0.260 A  
HETATM   15  C   UNL     1      -8.743   5.073  71.534  1.00  0.00    -0.141 A  
HETATM   16  C   UNL     1      -9.409   6.303  71.573  1.00  0.00    -0.155 A  
HETATM   17  C   UNL     1     -10.508   5.763  69.490  1.00  0.00    -0.364 A  
HETATM   18  C   UNL     1      -8.964   4.188  70.477  1.00  0.00    -0.154 A  
ENDBRANCH   3  13
BRANCH   5  19
HETATM   19  C   UNL     1      -9.070  10.918  68.366  1.00  0.00    -0.164 C  
HETATM   20  O   UNL     1      -8.092  10.249  68.656  1.00  0.00    -0.102 OA 
BRANCH  19  21
HETATM   21  O   UNL     1      -9.237  11.547  67.172  1.00  0.00    -0.165 OA 
BRANCH  21  22
HETATM   22  C   UNL     1     -10.099  10.838  66.277  1.00  0.00    -0.232 C  
BRANCH  22  23
HETATM   23  C   UNL     1     -10.618  11.826  65.213  1.00  0.00    -0.278 C  
BRANCH  23  24
HETATM   24  N   UNL     1     -12.054  12.183  65.327  1.00  0.00    -0.453 NA 
HETATM   25  C   UNL     1     -12.311  13.330  66.210  1.00  0.00    -0.317 C  
HETATM   26  C   UNL     1     -11.653  14.611  65.705  1.00  0.00    -0.328 C  
HETATM   27  C   UNL     1     -12.056  14.925  64.264  1.00  0.00    -0.373 C  
HETATM   28  C   UNL     1     -12.070  13.703  63.341  1.00  0.00    -0.246 C  
HETATM   29  C   UNL     1     -12.653  12.458  64.012  1.00  0.00    -0.412 C  
ENDBRANCH  23  24
ENDBRANCH  22  23
ENDBRANCH  21  22
ENDBRANCH  19  21
ENDBRANCH   5  19
TORSDOF 6
ENDMDL
MODEL       96
REMARK 921   NORMALIZED FREE ENERGY PREDICTED BY IDOCK:   -5.72 KCAL/MOL
REMARK 922        TOTAL FREE ENERGY PREDICTED BY IDOCK:   -8.41 KCAL/MOL
REMARK 923 INTER-LIGAND FREE ENERGY PREDICTED BY IDOCK:   -7.89 KCAL/MOL
REMARK 924 INTRA-LIGAND FREE ENERGY PREDICTED BY IDOCK:   -0.52 KCAL/MOL
REMARK 927      BINDING AFFINITY PREDICTED BY RF-SCORE:    0.00 PKD
ROOT
HETATM    1  C   UNL     1     -10.549  17.902  65.714  1.00  0.00    -0.175 C  
HETATM    2  C   UNL     1     -10.350  16.420  65.617  1.00  0.00    -0.371 C  
HETATM    3  C   UNL     1      -9.466  15.674  66.306  1.00  0.00    -0.319 C  
HETATM    4  O   UNL     1      -9.404  14.295  66.269  1.00  0.00    -0.272 OA 
HETATM    5  C   UNL     1     -10.176  12.199  65.406  1.00  0.00    -0.299 A  
HETATM    6  C   UNL     1     -10.924  11.497  64.435  1.00  0.00    -0.390 A  
HETATM    7  C   UNL     1     -10.229  13.598  65.426  1.00  0.00    -0.313 A  
HETATM    8  C   UNL     1     -11.095  14.256  64.554  1.00  0.00    -0.321 A  
HETATM    9  C   UNL     1     -11.735  12.169  63.524  1.00  0.00    -0.579 A  
HETATM   10  O   UNL     1     -12.032  16.317  63.948  1.00  0.00    -1.003 OA 
HETATM   11  C   UNL     1     -11.840  13.551  63.600  1.00  0.00    -0.383 A  
HETATM   12  C   UNL     1     -11.230  15.717  64.652  1.00  0.00    -0.369 C  
ENDROOT
BRANCH   3  13
HETATM   13  C   UNL     1      -8.418  16.257  67.156  1.00  0.00    -0.213 A  
HETATM   14  C   UNL     1      -7.785  17.666  69.037  1.00  0.00    -0.128 A  
HETATM   15  C   UNL     1      -6.078  16.649  67.665  1.00  0.00    -0.164 A  
HETATM   16  C   UNL     1      -7.063  16.055  66.871  1.00  0.00    -0.182 A  
HETATM   17  C   UNL     1      -8.771  17.068  68.247  1.00  0.00    -0.241 A  
HETATM   18  C   UNL     1      -6.438  17.457  68.745  1.00  0.00    -0.201 A  
ENDBRANCH   3  13
BRANCH   5  19
HETATM   19  C   UNL     1      -9.293  11.460  66.358  1.00  0.00    -0.204 C  
HETATM   20  O   UNL     1      -9.119  11.711  67.540  1.00  0.00    -0.165 OA 
BRANCH  19  21
HETATM   21  O   UNL     1      -8.649  10.470  65.686  1.00  0.00    -0.163 OA 
BRANCH  21  22
HETATM   22  C   UNL     1      -8.264   9.377  66.525  1.00  0.00    -0.115 C  
BRANCH  22  23
HETATM   23  C   UNL     1      -9.417   8.353  66.554  1.00  0.00    -0.220 C  
BRANCH  23  24
HETATM   24  N   UNL     1      -9.515   7.545  67.795  1.00  0.00    -0.140 NA 
HETATM   25  C   UNL     1     -10.732   6.721  67.871  1.00  0.00    -0.256 C  
HETATM   26  C   UNL     1     -10.802   5.686  66.753  1.00  0.00    -0.296 C  
HETATM   27  C   UNL     1      -9.549   4.813  66.708  1.00  0.00    -0.184 C  
HETATM   28  C   UNL     1      -8.242   5.589  66.896  1.00  0.00    -0.105 C  
HETATM   29  C   UNL     1      -8.345   6.673  67.972  1.00  0.00    -0.117 C  
ENDBRANCH  23  24
ENDBRANCH  22  23
ENDBRANCH  21  22
ENDBRANCH  19  21
ENDBRANCH   5  19
TORSDOF 6
ENDMDL
MODEL       97
REMARK 921   NORMALIZED FREE ENERGY PREDICTED BY IDOCK:   -5.70 KCAL/MOL
REMARK 922        TOTAL FREE ENERGY PREDICTED BY IDOCK:   -8.39 KCAL/MOL
REMARK 923 INTER-LIGAND FREE ENERGY PREDICTED BY IDOCK:   -7.20 KCAL/MOL
REMARK 924 INTRA-LIGAND FREE ENERGY PREDICTED BY IDOCK:   -1.19 KCAL/MOL
REMARK 927      BINDING AFFINITY PREDICTED BY RF-SCORE:    0.00 PKD
ROOT
HETATM    1  C   UNL     1     -13.690  10.341  71.394  1.00  0.00    -0.025 C  
HETATM    2  C   UNL     1     -12.275   9.850  71.339  1.00  0.00    -0.499 C  
HETATM    3  C   UNL     1     -11.291  10.305  70.541  1.00  0.00    -0.341 C  
HETATM    4  O   UNL     1      -9.972   9.901  70.614  1.00  0.00    -0.215 OA 
HETATM    5  C   UNL     1      -8.267   8.522  71.574  1.00  0.00    -0.199 A  
HETATM    6  C   UNL     1      -7.925   7.409  72.373  1.00  0.00    -0.112 A  
HETATM    7  C   UNL     1      -9.609   8.914  71.491  1.00  0.00    -0.292 A  
HETATM    8  C   UNL     1     -10.556   8.260  72.276  1.00  0.00    -0.393 A  
HETATM    9  C   UNL     1      -8.891   6.720  73.103  1.00  0.00    -0.138 A  
HETATM   10  O   UNL     1     -12.785   8.237  73.000  1.00  0.00    -0.109 OA 
HETATM   11  C   UNL     1     -10.207   7.162  73.074  1.00  0.00    -0.290 A  
HETATM   12  C   UNL     1     -11.944   8.745  72.270  1.00  0.00    -0.345 C  
ENDROOT
BRANCH   3  13
HETATM   13  C   UNL     1     -11.521  11.267  69.453  1.00  0.00    -0.370 A  
HETATM   14  C   UNL     1     -11.570  11.769  67.073  1.00  0.00    -0.321 A  
HETATM   15  C   UNL     1     -11.993  13.519  68.682  1.00  0.00    -0.378 A  
HETATM   16  C   UNL     1     -11.817  12.606  69.727  1.00  0.00    -0.379 A  
HETATM   17  C   UNL     1     -11.399  10.855  68.116  1.00  0.00    -0.383 A  
HETATM   18  C   UNL     1     -11.866  13.101  67.356  1.00  0.00    -0.412 A  
ENDBRANCH   3  13
BRANCH   5  19
HETATM   19  C   UNL     1      -7.219   9.232  70.780  1.00  0.00    -0.121 C  
HETATM   20  O   UNL     1      -6.347   9.968  71.212  1.00  0.00    -0.304 OA 
BRANCH  19  21
HETATM   21  O   UNL     1      -7.415   8.974  69.460  1.00  0.00    -0.072 OA 
BRANCH  21  22
HETATM   22  C   UNL     1      -6.734   7.801  69.007  1.00  0.00    -0.049 C  
BRANCH  22  23
HETATM   23  C   UNL     1      -7.785   6.782  68.521  1.00  0.00    -0.113 C  
BRANCH  23  24
HETATM   24  N   UNL     1      -8.010   6.755  67.055  1.00  0.00    -0.108 NA 
HETATM   25  C   UNL     1      -8.386   5.430  66.537  1.00  0.00    -0.109 C  
HETATM   26  C   UNL     1      -9.705   4.932  67.120  1.00  0.00    -0.194 C  
HETATM   27  C   UNL     1     -10.834   5.943  66.916  1.00  0.00    -0.376 C  
HETATM   28  C   UNL     1     -10.424   7.394  67.183  1.00  0.00    -0.403 C  
HETATM   29  C   UNL     1      -9.032   7.728  66.642  1.00  0.00    -0.149 C  
ENDBRANCH  23  24
ENDBRANCH  22  23
ENDBRANCH  21  22
ENDBRANCH  19  21
ENDBRANCH   5  19
TORSDOF 6
ENDMDL
MODEL       98
REMARK 921   NORMALIZED FREE ENERGY PREDICTED BY IDOCK:   -5.70 KCAL/MOL
REMARK 922        TOTAL FREE ENERGY PREDICTED BY IDOCK:   -8.39 KCAL/MOL
REMARK 923 INTER-LIGAND FREE ENERGY PREDICTED BY IDOCK:   -8.37 KCAL/MOL
REMARK 924 INTRA-LIGAND FREE ENERGY PREDICTED BY IDOCK:   -0.01 KCAL/MOL
REMARK 927      BINDING AFFINITY PREDICTED BY RF-SCORE:    0.00 PKD
ROOT
HETATM    1  C   UNL     1     -10.980   7.864  70.538  1.00  0.00    -0.250 C  
HETATM    2  C   UNL     1     -11.087   9.200  69.869  1.00  0.00    -0.175 C  
HETATM    3  C   UNL     1     -10.702   9.512  68.617  1.00  0.00    -0.184 C  
HETATM    4  O   UNL     1     -10.933  10.729  68.005  1.00  0.00    -0.237 OA 
HETATM    5  C   UNL     1     -11.770  12.970  68.077  1.00  0.00    -0.397 A  
HETATM    6  C   UNL     1     -12.243  14.056  68.847  1.00  0.00    -0.261 A  
HETATM    7  C   UNL     1     -11.521  11.746  68.709  1.00  0.00    -0.291 A  
HETATM    8  C   UNL     1     -11.841  11.601  70.057  1.00  0.00    -0.435 A  
HETATM    9  C   UNL     1     -12.497  13.919  70.211  1.00  0.00    -0.380 A  
HETATM   10  O   UNL     1     -12.019  10.105  71.853  1.00  0.00    -0.230 OA 
HETATM   11  C   UNL     1     -12.319  12.680  70.812  1.00  0.00    -0.372 A  
HETATM   12  C   UNL     1     -11.682  10.282  70.689  1.00  0.00    -0.348 C  
ENDROOT
BRANCH   3  13
HETATM   13  C   UNL     1      -9.940   8.592  67.761  1.00  0.00    -0.240 A  
HETATM   14  C   UNL     1      -7.866   8.015  66.626  1.00  0.00    -0.098 A  
HETATM   15  C   UNL     1      -9.822   6.630  66.337  1.00  0.00    -0.101 A  
HETATM   16  C   UNL     1     -10.550   7.474  67.183  1.00  0.00    -0.415 A  
HETATM   17  C   UNL     1      -8.590   8.856  67.475  1.00  0.00    -0.120 A  
HETATM   18  C   UNL     1      -8.483   6.902  66.056  1.00  0.00    -0.140 A  
ENDBRANCH   3  13
BRANCH   5  19
HETATM   19  C   UNL     1     -11.481  13.146  66.623  1.00  0.00    -0.348 C  
HETATM   20  O   UNL     1     -12.295  13.178  65.713  1.00  0.00    -0.443 OA 
BRANCH  19  21
HETATM   21  O   UNL     1     -10.135  13.213  66.444  1.00  0.00    -0.267 OA 
BRANCH  21  22
HETATM   22  C   UNL     1      -9.571  14.457  66.867  1.00  0.00    -0.256 C  
BRANCH  22  23
HETATM   23  C   UNL     1     -10.444  15.603  66.315  1.00  0.00    -0.306 C  
BRANCH  23  24
HETATM   24  N   UNL     1      -9.700  16.798  65.848  1.00  0.00    -0.514 NA 
HETATM   25  C   UNL     1     -10.436  18.060  66.021  1.00  0.00    -0.313 C  
HETATM   26  C   UNL     1     -10.733  18.362  67.486  1.00  0.00    -0.399 C  
HETATM   27  C   UNL     1      -9.464  18.345  68.338  1.00  0.00    -0.352 C  
HETATM   28  C   UNL     1      -8.513  17.189  68.014  1.00  0.00    -0.219 C  
HETATM   29  C   UNL     1      -8.394  16.921  66.513  1.00  0.00    -0.280 C  
ENDBRANCH  23  24
ENDBRANCH  22  23
ENDBRANCH  21  22
ENDBRANCH  19  21
ENDBRANCH   5  19
TORSDOF 6
ENDMDL
MODEL       99
REMARK 921   NORMALIZED FREE ENERGY PREDICTED BY IDOCK:   -5.69 KCAL/MOL
REMARK 922        TOTAL FREE ENERGY PREDICTED BY IDOCK:   -8.37 KCAL/MOL
REMARK 923 INTER-LIGAND FREE ENERGY PREDICTED BY IDOCK:   -7.78 KCAL/MOL
REMARK 924 INTRA-LIGAND FREE ENERGY PREDICTED BY IDOCK:   -0.59 KCAL/MOL
REMARK 927      BINDING AFFINITY PREDICTED BY RF-SCORE:    0.00 PKD
ROOT
HETATM    1  C   UNL     1     -11.971  14.334  67.261  1.00  0.00    -0.439 C  
HETATM    2  C   UNL     1     -11.438  12.944  67.090  1.00  0.00    -0.388 C  
HETATM    3  C   UNL     1     -11.515  11.932  67.975  1.00  0.00    -0.323 C  
HETATM    4  O   UNL     1     -11.114  10.635  67.721  1.00  0.00    -0.284 OA 
HETATM    5  C   UNL     1     -10.131   9.006  66.268  1.00  0.00    -0.311 A  
HETATM    6  C   UNL     1      -9.391   8.724  65.098  1.00  0.00     0.077 A  
HETATM    7  C   UNL     1     -10.519  10.326  66.527  1.00  0.00    -0.173 A  
HETATM    8  C   UNL     1     -10.251  11.310  65.577  1.00  0.00    -0.312 A  
HETATM    9  C   UNL     1      -9.071   9.729  64.187  1.00  0.00    -0.289 A  
HETATM   10  O   UNL     1     -10.596  13.543  64.956  1.00  0.00    -0.329 OA 
HETATM   11  C   UNL     1      -9.523  11.021  64.415  1.00  0.00    -0.273 A  
HETATM   12  C   UNL     1     -10.755  12.673  65.802  1.00  0.00    -0.268 C  
ENDROOT
BRANCH   3  13
HETATM   13  C   UNL     1     -12.001  12.107  69.351  1.00  0.00    -0.329 A  
HETATM   14  C   UNL     1     -13.131  11.203  71.307  1.00  0.00    -0.353 A  
HETATM   15  C   UNL     1     -12.402  13.504  71.295  1.00  0.00    -0.325 A  
HETATM   16  C   UNL     1     -11.897  13.342  70.000  1.00  0.00    -0.365 A  
HETATM   17  C   UNL     1     -12.623  11.038  70.016  1.00  0.00    -0.240 A  
HETATM   18  C   UNL     1     -13.021  12.437  71.946  1.00  0.00    -0.407 A  
ENDBRANCH   3  13
BRANCH   5  19
HETATM   19  C   UNL     1     -10.443   7.919  67.243  1.00  0.00    -0.320 C  
HETATM   20  O   UNL     1     -11.330   7.085  67.152  1.00  0.00    -0.240 OA 
BRANCH  19  21
HETATM   21  O   UNL     1      -9.605   8.027  68.308  1.00  0.00    -0.144 OA 
BRANCH  21  22
HETATM   22  C   UNL     1      -9.125   6.765  68.779  1.00  0.00    -0.132 C  
BRANCH  22  23
HETATM   23  C   UNL     1      -9.576   6.584  70.243  1.00  0.00    -0.161 C  
BRANCH  23  24
HETATM   24  N   UNL     1      -8.711   7.235  71.257  1.00  0.00    -0.127 NA 
HETATM   25  C   UNL     1      -9.318   8.421  71.881  1.00  0.00    -0.244 C  
HETATM   26  C   UNL     1     -10.593   8.084  72.649  1.00  0.00    -0.419 C  
HETATM   27  C   UNL     1     -10.360   6.978  73.678  1.00  0.00    -0.412 C  
HETATM   28  C   UNL     1      -9.495   5.823  73.166  1.00  0.00    -0.147 C  
HETATM   29  C   UNL     1      -8.313   6.297  72.317  1.00  0.00    -0.108 C  
ENDBRANCH  23  24
ENDBRANCH  22  23
ENDBRANCH  21  22
ENDBRANCH  19  21
ENDBRANCH   5  19
TORSDOF 6
ENDMDL
MODEL      100
REMARK 921   NORMALIZED FREE ENERGY PREDICTED BY IDOCK:   -5.66 KCAL/MOL
REMARK 922        TOTAL FREE ENERGY PREDICTED BY IDOCK:   -8.34 KCAL/MOL
REMARK 923 INTER-LIGAND FREE ENERGY PREDICTED BY IDOCK:   -8.11 KCAL/MOL
REMARK 924 INTRA-LIGAND FREE ENERGY PREDICTED BY IDOCK:   -0.23 KCAL/MOL
REMARK 927      BINDING AFFINITY PREDICTED BY RF-SCORE:    0.00 PKD
ROOT
HETATM    1  C   UNL     1     -13.956   9.234  72.029  1.00  0.00    -0.392 C  
HETATM    2  C   UNL     1     -12.604   9.249  71.382  1.00  0.00    -0.411 C  
HETATM    3  C   UNL     1     -11.886  10.332  71.032  1.00  0.00    -0.377 C  
HETATM    4  O   UNL     1     -10.592  10.294  70.550  1.00  0.00    -0.251 OA 
HETATM    5  C   UNL     1      -8.667   9.054  69.849  1.00  0.00    -0.160 A  
HETATM    6  C   UNL     1      -8.100   7.814  69.480  1.00  0.00    -0.126 A  
HETATM    7  C   UNL     1      -9.985   9.087  70.321  1.00  0.00    -0.195 A  
HETATM    8  C   UNL     1     -10.668   7.887  70.508  1.00  0.00    -0.233 A  
HETATM    9  C   UNL     1      -8.817   6.626  69.609  1.00  0.00    -0.143 A  
HETATM   10  O   UNL     1     -12.610   6.878  71.347  1.00  0.00    -0.367 OA 
HETATM   11  C   UNL     1     -10.096   6.660  70.148  1.00  0.00    -0.200 A  
HETATM   12  C   UNL     1     -12.012   7.918  71.106  1.00  0.00    -0.285 C  
ENDROOT
BRANCH   3  13
HETATM   13  C   UNL     1     -12.422  11.700  71.083  1.00  0.00    -0.412 A  
HETATM   14  C   UNL     1     -12.492  13.960  70.185  1.00  0.00    -0.355 A  
HETATM   15  C   UNL     1     -13.761  13.411  72.164  1.00  0.00    -0.646 A  
HETATM   16  C   UNL     1     -13.291  12.095  72.105  1.00  0.00    -0.438 A  
HETATM   17  C   UNL     1     -12.026  12.644  70.122  1.00  0.00    -0.375 A  
HETATM   18  C   UNL     1     -13.359  14.344  71.207  1.00  0.00    -0.409 A  
ENDBRANCH   3  13
BRANCH   5  19
HETATM   19  C   UNL     1      -7.890  10.319  69.681  1.00  0.00    -0.160 C  
HETATM   20  O   UNL     1      -6.889  10.651  70.294  1.00  0.00    -0.218 OA 
BRANCH  19  21
HETATM   21  O   UNL     1      -8.509  11.097  68.753  1.00  0.00    -0.156 OA 
BRANCH  21  22
HETATM   22  C   UNL     1      -7.984  10.927  67.434  1.00  0.00    -0.113 C  
BRANCH  22  23
HETATM   23  C   UNL     1      -8.987  11.526  66.427  1.00  0.00    -0.197 C  
BRANCH  23  24
HETATM   24  N   UNL     1     -10.070  10.610  65.990  1.00  0.00    -0.241 NA 
HETATM   25  C   UNL     1     -10.490  10.812  64.595  1.00  0.00    -0.276 C  
HETATM   26  C   UNL     1      -9.361  10.543  63.604  1.00  0.00    -0.324 C  
HETATM   27  C   UNL     1      -8.752   9.155  63.801  1.00  0.00    -0.150 C  
HETATM   28  C   UNL     1      -8.537   8.771  65.268  1.00  0.00    -0.212 C  
HETATM   29  C   UNL     1      -9.696   9.199  66.170  1.00  0.00    -0.287 C  
ENDBRANCH  23  24
ENDBRANCH  22  23
ENDBRANCH  21  22
ENDBRANCH  19  21
ENDBRANCH   5  19
TORSDOF 6
ENDMDL
MODEL      101
REMARK 921   NORMALIZED FREE ENERGY PREDICTED BY IDOCK:   -5.60 KCAL/MOL
REMARK 922        TOTAL FREE ENERGY PREDICTED BY IDOCK:   -8.25 KCAL/MOL
REMARK 923 INTER-LIGAND FREE ENERGY PREDICTED BY IDOCK:   -7.58 KCAL/MOL
REMARK 924 INTRA-LIGAND FREE ENERGY PREDICTED BY IDOCK:   -0.67 KCAL/MOL
REMARK 927      BINDING AFFINITY PREDICTED BY RF-SCORE:    0.00 PKD
ROOT
HETATM    1  C   UNL     1     -12.806  13.275  65.379  1.00  0.00    -0.340 C  
HETATM    2  C   UNL     1     -11.726  12.240  65.465  1.00  0.00    -0.433 C  
HETATM    3  C   UNL     1     -11.236  11.672  66.583  1.00  0.00    -0.299 C  
HETATM    4  O   UNL     1     -10.325  10.634  66.601  1.00  0.00    -0.227 OA 
HETATM    5  C   UNL     1      -8.887   9.104  65.449  1.00  0.00    -0.236 A  
HETATM    6  C   UNL     1      -8.239   8.728  64.252  1.00  0.00    -0.164 A  
HETATM    7  C   UNL     1      -9.796  10.169  65.426  1.00  0.00    -0.307 A  
HETATM    8  C   UNL     1     -10.112  10.764  64.206  1.00  0.00    -0.427 A  
HETATM    9  C   UNL     1      -8.514   9.375  63.048  1.00  0.00    -0.204 A  
HETATM   10  O   UNL     1     -11.497  12.302  63.106  1.00  0.00    -0.365 OA 
HETATM   11  C   UNL     1      -9.471  10.379  63.021  1.00  0.00    -0.362 A  
HETATM   12  C   UNL     1     -11.147  11.808  64.170  1.00  0.00    -0.374 C  
ENDROOT
BRANCH   3  13
HETATM   13  C   UNL     1     -11.587  12.130  67.934  1.00  0.00    -0.413 A  
HETATM   14  C   UNL     1     -11.818  13.943  69.541  1.00  0.00    -0.383 A  
HETATM   15  C   UNL     1     -12.227  11.665  70.229  1.00  0.00    -0.401 A  
HETATM   16  C   UNL     1     -11.935  11.218  68.937  1.00  0.00    -0.378 A  
HETATM   17  C   UNL     1     -11.531  13.498  68.248  1.00  0.00    -0.345 A  
HETATM   18  C   UNL     1     -12.165  13.026  70.532  1.00  0.00    -0.392 A  
ENDBRANCH   3  13
BRANCH   5  19
HETATM   19  C   UNL     1      -8.560   8.415  66.733  1.00  0.00    -0.118 C  
HETATM   20  O   UNL     1      -7.714   8.746  67.548  1.00  0.00    -0.099 OA 
BRANCH  19  21
HETATM   21  O   UNL     1      -9.328   7.298  66.843  1.00  0.00    -0.142 OA 
BRANCH  21  22
HETATM   22  C   UNL     1      -8.564   6.089  66.870  1.00  0.00    -0.108 C  
BRANCH  22  23
HETATM   23  C   UNL     1      -8.460   5.609  68.332  1.00  0.00    -0.105 C  
BRANCH  23  24
HETATM   24  N   UNL     1      -9.502   4.643  68.758  1.00  0.00    -0.140 NA 
HETATM   25  C   UNL     1      -8.971   3.482  69.489  1.00  0.00    -0.115 C  
HETATM   26  C   UNL     1      -8.286   3.881  70.793  1.00  0.00    -0.090 C  
HETATM   27  C   UNL     1      -9.204   4.718  71.683  1.00  0.00    -0.179 C  
HETATM   28  C   UNL     1     -10.001   5.785  70.926  1.00  0.00    -0.243 C  
HETATM   29  C   UNL     1     -10.536   5.285  69.583  1.00  0.00    -0.191 C  
ENDBRANCH  23  24
ENDBRANCH  22  23
ENDBRANCH  21  22
ENDBRANCH  19  21
ENDBRANCH   5  19
TORSDOF 6
ENDMDL
MODEL      102
REMARK 921   NORMALIZED FREE ENERGY PREDICTED BY IDOCK:   -5.59 KCAL/MOL
REMARK 922        TOTAL FREE ENERGY PREDICTED BY IDOCK:   -8.24 KCAL/MOL
REMARK 923 INTER-LIGAND FREE ENERGY PREDICTED BY IDOCK:   -7.46 KCAL/MOL
REMARK 924 INTRA-LIGAND FREE ENERGY PREDICTED BY IDOCK:   -0.78 KCAL/MOL
REMARK 927      BINDING AFFINITY PREDICTED BY RF-SCORE:    0.00 PKD
ROOT
HETATM    1  C   UNL     1      -8.652   6.389  68.905  1.00  0.00    -0.123 C  
HETATM    2  C   UNL     1      -9.208   7.499  68.065  1.00  0.00    -0.137 C  
HETATM    3  C   UNL     1     -10.164   8.379  68.416  1.00  0.00    -0.206 C  
HETATM    4  O   UNL     1     -10.557   9.459  67.649  1.00  0.00    -0.260 OA 
HETATM    5  C   UNL     1     -10.407  10.749  65.638  1.00  0.00    -0.297 A  
HETATM    6  C   UNL     1      -9.958  10.852  64.303  1.00  0.00    -0.392 A  
HETATM    7  C   UNL     1     -10.019   9.642  66.403  1.00  0.00    -0.255 A  
HETATM    8  C   UNL     1      -9.122   8.724  65.861  1.00  0.00    -0.271 A  
HETATM    9  C   UNL     1      -9.114   9.892  63.749  1.00  0.00    -0.293 A  
HETATM   10  O   UNL     1      -7.791   6.841  66.281  1.00  0.00    -0.099 OA 
HETATM   11  C   UNL     1      -8.674   8.838  64.538  1.00  0.00    -0.078 A  
HETATM   12  C   UNL     1      -8.632   7.624  66.705  1.00  0.00    -0.133 C  
ENDROOT
BRANCH   3  13
HETATM   13  C   UNL     1     -10.944   8.262  69.657  1.00  0.00    -0.092 A  
HETATM   14  C   UNL     1     -11.654   9.206  71.784  1.00  0.00    -0.457 A  
HETATM   15  C   UNL     1     -12.348   6.978  71.164  1.00  0.00    -0.423 A  
HETATM   16  C   UNL     1     -11.644   7.090  69.960  1.00  0.00    -0.226 A  
HETATM   17  C   UNL     1     -10.954   9.321  70.580  1.00  0.00    -0.318 A  
HETATM   18  C   UNL     1     -12.350   8.034  72.076  1.00  0.00    -0.366 A  
ENDBRANCH   3  13
BRANCH   5  19
HETATM   19  C   UNL     1     -11.331  11.776  66.205  1.00  0.00    -0.280 C  
HETATM   20  O   UNL     1     -12.466  12.026  65.831  1.00  0.00    -0.337 OA 
BRANCH  19  21
HETATM   21  O   UNL     1     -10.689  12.451  67.194  1.00  0.00    -0.228 OA 
BRANCH  21  22
HETATM   22  C   UNL     1     -11.556  13.294  67.957  1.00  0.00    -0.336 C  
BRANCH  22  23
HETATM   23  C   UNL     1     -11.081  14.753  67.803  1.00  0.00    -0.299 C  
BRANCH  23  24
HETATM   24  N   UNL     1      -9.615  14.931  67.667  1.00  0.00    -0.200 NA 
HETATM   25  C   UNL     1      -9.195  15.402  66.339  1.00  0.00    -0.305 C  
HETATM   26  C   UNL     1      -9.763  16.778  66.005  1.00  0.00    -0.287 C  
HETATM   27  C   UNL     1      -9.429  17.808  67.085  1.00  0.00    -0.265 C  
HETATM   28  C   UNL     1      -9.590  17.283  68.515  1.00  0.00    -0.291 C  
HETATM   29  C   UNL     1      -9.081  15.851  68.683  1.00  0.00    -0.206 C  
ENDBRANCH  23  24
ENDBRANCH  22  23
ENDBRANCH  21  22
ENDBRANCH  19  21
ENDBRANCH   5  19
TORSDOF 6
ENDMDL
MODEL      103
REMARK 921   NORMALIZED FREE ENERGY PREDICTED BY IDOCK:   -5.58 KCAL/MOL
REMARK 922        TOTAL FREE ENERGY PREDICTED BY IDOCK:   -8.23 KCAL/MOL
REMARK 923 INTER-LIGAND FREE ENERGY PREDICTED BY IDOCK:   -7.15 KCAL/MOL
REMARK 924 INTRA-LIGAND FREE ENERGY PREDICTED BY IDOCK:   -1.08 KCAL/MOL
REMARK 927      BINDING AFFINITY PREDICTED BY RF-SCORE:    0.00 PKD
ROOT
HETATM    1  C   UNL     1     -10.491  16.609  65.341  1.00  0.00    -0.253 C  
HETATM    2  C   UNL     1      -9.703  15.667  66.200  1.00  0.00    -0.348 C  
HETATM    3  C   UNL     1      -9.708  14.322  66.142  1.00  0.00    -0.303 C  
HETATM    4  O   UNL     1      -8.872  13.501  66.874  1.00  0.00    -0.227 OA 
HETATM    5  C   UNL     1      -7.157  13.212  68.521  1.00  0.00    -0.105 A  
HETATM    6  C   UNL     1      -6.384  13.765  69.565  1.00  0.00    -0.118 A  
HETATM    7  C   UNL     1      -8.016  14.047  67.794  1.00  0.00    -0.171 A  
HETATM    8  C   UNL     1      -8.010  15.416  68.054  1.00  0.00    -0.134 A  
HETATM    9  C   UNL     1      -6.436  15.126  69.861  1.00  0.00    -0.171 A  
HETATM   10  O   UNL     1      -8.796  17.517  67.374  1.00  0.00    -0.225 OA 
HETATM   11  C   UNL     1      -7.233  15.957  69.086  1.00  0.00    -0.196 A  
HETATM   12  C   UNL     1      -8.831  16.303  67.216  1.00  0.00    -0.188 C  
ENDROOT
BRANCH   3  13
HETATM   13  C   UNL     1     -10.650  13.559  65.312  1.00  0.00    -0.335 A  
HETATM   14  C   UNL     1     -12.891  12.680  64.949  1.00  0.00    -0.312 A  
HETATM   15  C   UNL     1     -11.122  12.148  63.393  1.00  0.00    -0.495 A  
HETATM   16  C   UNL     1     -10.222  12.905  64.151  1.00  0.00    -0.311 A  
HETATM   17  C   UNL     1     -11.994  13.440  65.704  1.00  0.00    -0.439 A  
HETATM   18  C   UNL     1     -12.454  12.033  63.794  1.00  0.00    -0.594 A  
ENDBRANCH   3  13
BRANCH   5  19
HETATM   19  C   UNL     1      -7.105  11.747  68.236  1.00  0.00    -0.079 C  
HETATM   20  O   UNL     1      -6.240  11.153  67.612  1.00  0.00    -0.050 OA 
BRANCH  19  21
HETATM   21  O   UNL     1      -8.221  11.158  68.742  1.00  0.00    -0.142 OA 
BRANCH  21  22
HETATM   22  C   UNL     1      -7.933  10.129  69.693  1.00  0.00    -0.173 C  
BRANCH  22  23
HETATM   23  C   UNL     1      -8.679   8.848  69.269  1.00  0.00    -0.138 C  
BRANCH  23  24
HETATM   24  N   UNL     1     -10.149   8.989  69.125  1.00  0.00    -0.190 NA 
HETATM   25  C   UNL     1     -10.648   8.660  67.781  1.00  0.00    -0.183 C  
HETATM   26  C   UNL     1     -10.380   7.206  67.403  1.00  0.00    -0.324 C  
HETATM   27  C   UNL     1     -10.933   6.236  68.447  1.00  0.00    -0.409 C  
HETATM   28  C   UNL     1     -10.677   6.668  69.894  1.00  0.00    -0.297 C  
HETATM   29  C   UNL     1     -10.874   8.170  70.109  1.00  0.00    -0.241 C  
ENDBRANCH  23  24
ENDBRANCH  22  23
ENDBRANCH  21  22
ENDBRANCH  19  21
ENDBRANCH   5  19
TORSDOF 6
ENDMDL
MODEL      104
REMARK 921   NORMALIZED FREE ENERGY PREDICTED BY IDOCK:   -5.57 KCAL/MOL
REMARK 922        TOTAL FREE ENERGY PREDICTED BY IDOCK:   -8.22 KCAL/MOL
REMARK 923 INTER-LIGAND FREE ENERGY PREDICTED BY IDOCK:   -7.69 KCAL/MOL
REMARK 924 INTRA-LIGAND FREE ENERGY PREDICTED BY IDOCK:   -0.52 KCAL/MOL
REMARK 927      BINDING AFFINITY PREDICTED BY RF-SCORE:    0.00 PKD
ROOT
HETATM    1  C   UNL     1      -9.363  11.100  62.815  1.00  0.00    -0.377 C  
HETATM    2  C   UNL     1      -9.356  10.256  64.053  1.00  0.00    -0.337 C  
HETATM    3  C   UNL     1     -10.114  10.423  65.152  1.00  0.00    -0.308 C  
HETATM    4  O   UNL     1     -10.156   9.546  66.218  1.00  0.00    -0.269 OA 
HETATM    5  C   UNL     1      -9.387   7.560  67.312  1.00  0.00    -0.168 A  
HETATM    6  C   UNL     1      -8.433   6.522  67.394  1.00  0.00    -0.119 A  
HETATM    7  C   UNL     1      -9.327   8.456  66.237  1.00  0.00    -0.219 A  
HETATM    8  C   UNL     1      -8.392   8.241  65.227  1.00  0.00    -0.175 A  
HETATM    9  C   UNL     1      -7.459   6.357  66.412  1.00  0.00    -0.086 A  
HETATM   10  O   UNL     1      -7.641   8.915  63.112  1.00  0.00    -0.099 OA 
HETATM   11  C   UNL     1      -7.454   7.204  65.312  1.00  0.00    -0.092 A  
HETATM   12  C   UNL     1      -8.404   9.119  64.047  1.00  0.00    -0.180 C  
ENDROOT
BRANCH   3  13
HETATM   13  C   UNL     1     -10.965  11.603  65.366  1.00  0.00    -0.328 A  
HETATM   14  C   UNL     1     -11.753  13.384  66.824  1.00  0.00    -0.429 A  
HETATM   15  C   UNL     1     -12.696  13.130  64.616  1.00  0.00    -0.326 A  
HETATM   16  C   UNL     1     -11.863  12.031  64.383  1.00  0.00    -0.395 A  
HETATM   17  C   UNL     1     -10.917  12.290  66.590  1.00  0.00    -0.321 A  
HETATM   18  C   UNL     1     -12.644  13.804  65.837  1.00  0.00    -0.494 A  
ENDBRANCH   3  13
BRANCH   5  19
HETATM   19  C   UNL     1     -10.408   7.734  68.388  1.00  0.00    -0.196 C  
HETATM   20  O   UNL     1     -10.684   8.769  68.975  1.00  0.00    -0.203 OA 
BRANCH  19  21
HETATM   21  O   UNL     1     -10.966   6.527  68.668  1.00  0.00    -0.278 OA 
BRANCH  21  22
HETATM   22  C   UNL     1     -11.769   6.538  69.852  1.00  0.00    -0.283 C  
BRANCH  22  23
HETATM   23  C   UNL     1     -10.931   5.977  71.018  1.00  0.00    -0.286 C  
BRANCH  23  24
HETATM   24  N   UNL     1     -11.347   6.426  72.370  1.00  0.00    -0.277 NA 
HETATM   25  C   UNL     1     -10.552   5.839  73.460  1.00  0.00    -0.269 C  
HETATM   26  C   UNL     1      -9.080   6.232  73.380  1.00  0.00    -0.132 C  
HETATM   27  C   UNL     1      -8.899   7.748  73.322  1.00  0.00    -0.277 C  
HETATM   28  C   UNL     1      -9.890   8.458  72.395  1.00  0.00    -0.378 C  
HETATM   29  C   UNL     1     -11.307   7.890  72.494  1.00  0.00    -0.390 C  
ENDBRANCH  23  24
ENDBRANCH  22  23
ENDBRANCH  21  22
ENDBRANCH  19  21
ENDBRANCH   5  19
TORSDOF 6
ENDMDL
MODEL      105
REMARK 921   NORMALIZED FREE ENERGY PREDICTED BY IDOCK:   -5.56 KCAL/MOL
REMARK 922        TOTAL FREE ENERGY PREDICTED BY IDOCK:   -8.19 KCAL/MOL
REMARK 923 INTER-LIGAND FREE ENERGY PREDICTED BY IDOCK:   -6.78 KCAL/MOL
REMARK 924 INTRA-LIGAND FREE ENERGY PREDICTED BY IDOCK:   -1.41 KCAL/MOL
REMARK 927      BINDING AFFINITY PREDICTED BY RF-SCORE:    0.00 PKD
ROOT
HETATM    1  C   UNL     1      -9.185  14.998  66.688  1.00  0.00    -0.302 C  
HETATM    2  C   UNL     1      -8.827  13.594  67.071  1.00  0.00    -0.233 C  
HETATM    3  C   UNL     1      -9.273  12.460  66.499  1.00  0.00    -0.215 C  
HETATM    4  O   UNL     1      -8.820  11.193  66.810  1.00  0.00    -0.152 OA 
HETATM    5  C   UNL     1      -7.440   9.738  68.119  1.00  0.00    -0.081 A  
HETATM    6  C   UNL     1      -6.616   9.555  69.251  1.00  0.00    -0.048 A  
HETATM    7  C   UNL     1      -7.910  11.023  67.820  1.00  0.00    -0.110 A  
HETATM    8  C   UNL     1      -7.473  12.100  68.588  1.00  0.00    -0.105 A  
HETATM    9  C   UNL     1      -6.238  10.631  70.051  1.00  0.00    -0.111 A  
HETATM   10  O   UNL     1      -7.458  14.433  68.816  1.00  0.00    -0.122 OA 
HETATM   11  C   UNL     1      -6.648  11.911  69.704  1.00  0.00    -0.062 A  
HETATM   12  C   UNL     1      -7.881  13.460  68.204  1.00  0.00    -0.145 C  
ENDROOT
BRANCH   3  13
HETATM   13  C   UNL     1     -10.343  12.438  65.491  1.00  0.00    -0.298 A  
HETATM   14  C   UNL     1     -12.705  12.627  64.936  1.00  0.00    -0.450 A  
HETATM   15  C   UNL     1     -11.105  12.065  63.217  1.00  0.00    -0.400 A  
HETATM   16  C   UNL     1     -10.070  12.123  64.156  1.00  0.00    -0.335 A  
HETATM   17  C   UNL     1     -11.671  12.690  65.874  1.00  0.00    -0.470 A  
HETATM   18  C   UNL     1     -12.421  12.314  63.607  1.00  0.00    -0.647 A  
ENDBRANCH   3  13
BRANCH   5  19
HETATM   19  C   UNL     1      -7.853   8.567  67.288  1.00  0.00    -0.098 C  
HETATM   20  O   UNL     1      -7.623   8.394  66.102  1.00  0.00    -0.086 OA 
BRANCH  19  21
HETATM   21  O   UNL     1      -8.592   7.721  68.054  1.00  0.00    -0.123 OA 
BRANCH  21  22
HETATM   22  C   UNL     1      -9.995   7.799  67.787  1.00  0.00    -0.174 C  
BRANCH  22  23
HETATM   23  C   UNL     1     -10.750   7.799  69.131  1.00  0.00    -0.126 C  
BRANCH  23  24
HETATM   24  N   UNL     1      -9.912   8.054  70.329  1.00  0.00    -0.188 NA 
HETATM   25  C   UNL     1     -10.151   9.364  70.952  1.00  0.00    -0.296 C  
HETATM   26  C   UNL     1     -11.580   9.510  71.467  1.00  0.00    -0.465 C  
HETATM   27  C   UNL     1     -11.960   8.372  72.415  1.00  0.00    -0.451 C  
HETATM   28  C   UNL     1     -11.494   6.990  71.947  1.00  0.00    -0.304 C  
HETATM   29  C   UNL     1     -10.086   7.009  71.349  1.00  0.00    -0.189 C  
ENDBRANCH  23  24
ENDBRANCH  22  23
ENDBRANCH  21  22
ENDBRANCH  19  21
ENDBRANCH   5  19
TORSDOF 6
ENDMDL
MODEL      106
REMARK 921   NORMALIZED FREE ENERGY PREDICTED BY IDOCK:   -5.55 KCAL/MOL
REMARK 922        TOTAL FREE ENERGY PREDICTED BY IDOCK:   -8.19 KCAL/MOL
REMARK 923 INTER-LIGAND FREE ENERGY PREDICTED BY IDOCK:   -7.28 KCAL/MOL
REMARK 924 INTRA-LIGAND FREE ENERGY PREDICTED BY IDOCK:   -0.91 KCAL/MOL
REMARK 927      BINDING AFFINITY PREDICTED BY RF-SCORE:    0.00 PKD
ROOT
HETATM    1  C   UNL     1      -9.643  20.517  66.680  1.00  0.00    -0.396 C  
HETATM    2  C   UNL     1      -9.375  19.042  66.698  1.00  0.00    -0.360 C  
HETATM    3  C   UNL     1      -8.423  18.400  67.400  1.00  0.00    -0.253 C  
HETATM    4  O   UNL     1      -8.294  17.027  67.476  1.00  0.00    -0.185 OA 
HETATM    5  C   UNL     1      -9.001  14.831  66.834  1.00  0.00    -0.276 A  
HETATM    6  C   UNL     1      -9.760  14.014  65.966  1.00  0.00    -0.280 A  
HETATM    7  C   UNL     1      -9.124  16.223  66.739  1.00  0.00    -0.232 A  
HETATM    8  C   UNL     1     -10.062  16.763  65.861  1.00  0.00    -0.324 A  
HETATM    9  C   UNL     1     -10.647  14.568  65.045  1.00  0.00    -0.458 A  
HETATM   10  O   UNL     1     -11.129  18.719  65.134  1.00  0.00    -0.422 OA 
HETATM   11  C   UNL     1     -10.816  15.945  65.010  1.00  0.00    -0.444 A  
HETATM   12  C   UNL     1     -10.265  18.219  65.843  1.00  0.00    -0.226 C  
ENDROOT
BRANCH   3  13
HETATM   13  C   UNL     1      -7.365  19.101  68.142  1.00  0.00    -0.304 A  
HETATM   14  C   UNL     1      -5.151  20.109  68.190  1.00  0.00    -0.205 A  
HETATM   15  C   UNL     1      -6.463  19.988  70.214  1.00  0.00    -0.300 A  
HETATM   16  C   UNL     1      -7.495  19.357  69.512  1.00  0.00    -0.099 A  
HETATM   17  C   UNL     1      -6.183  19.483  67.487  1.00  0.00    -0.211 A  
HETATM   18  C   UNL     1      -5.291  20.360  69.555  1.00  0.00    -0.323 A  
ENDBRANCH   3  13
BRANCH   5  19
HETATM   19  C   UNL     1      -8.038  14.219  67.797  1.00  0.00    -0.170 C  
HETATM   20  O   UNL     1      -7.771  14.618  68.919  1.00  0.00    -0.130 OA 
BRANCH  19  21
HETATM   21  O   UNL     1      -7.442  13.149  67.206  1.00  0.00    -0.146 OA 
BRANCH  21  22
HETATM   22  C   UNL     1      -7.352  12.009  68.065  1.00  0.00    -0.102 C  
BRANCH  22  23
HETATM   23  C   UNL     1      -8.321  10.927  67.546  1.00  0.00    -0.117 C  
BRANCH  23  24
HETATM   24  N   UNL     1      -9.655  10.908  68.194  1.00  0.00    -0.159 NA 
HETATM   25  C   UNL     1     -10.739  10.458  67.307  1.00  0.00    -0.273 C  
HETATM   26  C   UNL     1     -10.541   9.021  66.833  1.00  0.00    -0.243 C  
HETATM   27  C   UNL     1     -10.353   8.058  68.004  1.00  0.00    -0.262 C  
HETATM   28  C   UNL     1      -9.434   8.591  69.107  1.00  0.00    -0.154 C  
HETATM   29  C   UNL     1      -9.662  10.074  69.405  1.00  0.00    -0.225 C  
ENDBRANCH  23  24
ENDBRANCH  22  23
ENDBRANCH  21  22
ENDBRANCH  19  21
ENDBRANCH   5  19
TORSDOF 6
ENDMDL
MODEL      107
REMARK 921   NORMALIZED FREE ENERGY PREDICTED BY IDOCK:   -5.49 KCAL/MOL
REMARK 922        TOTAL FREE ENERGY PREDICTED BY IDOCK:   -8.11 KCAL/MOL
REMARK 923 INTER-LIGAND FREE ENERGY PREDICTED BY IDOCK:   -6.67 KCAL/MOL
REMARK 924 INTRA-LIGAND FREE ENERGY PREDICTED BY IDOCK:   -1.44 KCAL/MOL
REMARK 927      BINDING AFFINITY PREDICTED BY RF-SCORE:    0.00 PKD
ROOT
HETATM    1  C   UNL     1      -9.832  14.085  67.220  1.00  0.00    -0.242 C  
HETATM    2  C   UNL     1     -10.461  13.108  68.166  1.00  0.00    -0.255 C  
HETATM    3  C   UNL     1     -10.322  11.769  68.158  1.00  0.00    -0.200 C  
HETATM    4  O   UNL     1     -10.826  10.922  69.126  1.00  0.00    -0.207 OA 
HETATM    5  C   UNL     1     -12.088  10.567  71.130  1.00  0.00    -0.473 A  
HETATM    6  C   UNL     1     -12.995  11.070  72.088  1.00  0.00    -0.244 A  
HETATM    7  C   UNL     1     -11.595  11.428  70.141  1.00  0.00    -0.280 A  
HETATM    8  C   UNL     1     -11.933  12.778  70.188  1.00  0.00    -0.371 A  
HETATM    9  C   UNL     1     -13.379  12.410  72.086  1.00  0.00    -0.508 A  
HETATM   10  O   UNL     1     -11.549  14.901  69.272  1.00  0.00    -0.273 OA 
HETATM   11  C   UNL     1     -12.827  13.271  71.148  1.00  0.00    -0.363 A  
HETATM   12  C   UNL     1     -11.327  13.699  69.215  1.00  0.00    -0.269 C  
ENDROOT
BRANCH   3  13
HETATM   13  C   UNL     1      -9.644  11.040  67.077  1.00  0.00    -0.199 A  
HETATM   14  C   UNL     1      -7.590  10.197  66.082  1.00  0.00    -0.114 A  
HETATM   15  C   UNL     1      -9.692   9.914  64.927  1.00  0.00    -0.332 A  
HETATM   16  C   UNL     1     -10.357  10.570  65.968  1.00  0.00    -0.279 A  
HETATM   17  C   UNL     1      -8.254  10.848  67.125  1.00  0.00    -0.126 A  
HETATM   18  C   UNL     1      -8.309   9.731  64.982  1.00  0.00    -0.149 A  
ENDBRANCH   3  13
BRANCH   5  19
HETATM   19  C   UNL     1     -11.708   9.122  71.135  1.00  0.00    -0.313 C  
HETATM   20  O   UNL     1     -12.455   8.170  71.291  1.00  0.00    -0.307 OA 
BRANCH  19  21
HETATM   21  O   UNL     1     -10.360   9.019  70.992  1.00  0.00    -0.231 OA 
BRANCH  21  22
HETATM   22  C   UNL     1      -9.905   7.666  70.902  1.00  0.00    -0.176 C  
BRANCH  22  23
HETATM   23  C   UNL     1      -9.531   7.372  69.435  1.00  0.00    -0.155 C  
BRANCH  23  24
HETATM   24  N   UNL     1      -8.834   6.082  69.206  1.00  0.00    -0.123 NA 
HETATM   25  C   UNL     1      -9.205   5.424  67.943  1.00  0.00    -0.110 C  
HETATM   26  C   UNL     1      -8.836   6.262  66.722  1.00  0.00    -0.126 C  
HETATM   27  C   UNL     1      -7.358   6.652  66.726  1.00  0.00    -0.078 C  
HETATM   28  C   UNL     1      -6.836   7.095  68.096  1.00  0.00    -0.074 C  
HETATM   29  C   UNL     1      -7.372   6.237  69.243  1.00  0.00    -0.092 C  
ENDBRANCH  23  24
ENDBRANCH  22  23
ENDBRANCH  21  22
ENDBRANCH  19  21
ENDBRANCH   5  19
TORSDOF 6
ENDMDL
MODEL      108
REMARK 921   NORMALIZED FREE ENERGY PREDICTED BY IDOCK:   -5.47 KCAL/MOL
REMARK 922        TOTAL FREE ENERGY PREDICTED BY IDOCK:   -8.08 KCAL/MOL
REMARK 923 INTER-LIGAND FREE ENERGY PREDICTED BY IDOCK:   -6.52 KCAL/MOL
REMARK 924 INTRA-LIGAND FREE ENERGY PREDICTED BY IDOCK:   -1.56 KCAL/MOL
REMARK 927      BINDING AFFINITY PREDICTED BY RF-SCORE:    0.00 PKD
ROOT
HETATM    1  C   UNL     1      -9.088   5.565  65.393  1.00  0.00    -0.064 C  
HETATM    2  C   UNL     1      -9.441   6.543  66.473  1.00  0.00    -0.190 C  
HETATM    3  C   UNL     1      -9.164   7.860  66.494  1.00  0.00    -0.191 C  
HETATM    4  O   UNL     1      -9.617   8.743  67.456  1.00  0.00    -0.144 OA 
HETATM    5  C   UNL     1     -10.808   9.177  69.486  1.00  0.00    -0.194 A  
HETATM    6  C   UNL     1     -11.422   8.674  70.655  1.00  0.00    -0.256 A  
HETATM    7  C   UNL     1     -10.336   8.276  68.524  1.00  0.00    -0.199 A  
HETATM    8  C   UNL     1     -10.572   6.914  68.697  1.00  0.00    -0.254 A  
HETATM    9  C   UNL     1     -11.593   7.305  70.849  1.00  0.00    -0.331 A  
HETATM   10  O   UNL     1     -10.427   4.787  67.724  1.00  0.00    -0.016 OA 
HETATM   11  C   UNL     1     -11.189   6.424  69.855  1.00  0.00    -0.485 A  
HETATM   12  C   UNL     1     -10.172   5.981  67.633  1.00  0.00    -0.181 C  
ENDROOT
BRANCH   3  13
HETATM   13  C   UNL     1      -8.296   8.513  65.503  1.00  0.00    -0.163 A  
HETATM   14  C   UNL     1      -8.051   9.910  63.525  1.00  0.00    -0.158 A  
HETATM   15  C   UNL     1      -6.104   8.901  64.536  1.00  0.00    -0.066 A  
HETATM   16  C   UNL     1      -6.913   8.307  65.510  1.00  0.00    -0.066 A  
HETATM   17  C   UNL     1      -8.860   9.320  64.501  1.00  0.00    -0.203 A  
HETATM   18  C   UNL     1      -6.674   9.699  63.542  1.00  0.00    -0.110 A  
ENDBRANCH   3  13
BRANCH   5  19
HETATM   19  C   UNL     1     -10.613  10.647  69.309  1.00  0.00    -0.233 C  
HETATM   20  O   UNL     1      -9.564  11.264  69.412  1.00  0.00     0.066 OA 
BRANCH  19  21
HETATM   21  O   UNL     1     -11.817  11.227  69.062  1.00  0.00    -0.310 OA 
BRANCH  21  22
HETATM   22  C   UNL     1     -11.712  12.461  68.347  1.00  0.00    -0.336 C  
BRANCH  22  23
HETATM   23  C   UNL     1     -11.644  12.149  66.838  1.00  0.00    -0.341 C  
BRANCH  23  24
HETATM   24  N   UNL     1     -11.973  13.285  65.941  1.00  0.00    -0.396 NA 
HETATM   25  C   UNL     1     -10.794  13.924  65.338  1.00  0.00    -0.319 C  
HETATM   26  C   UNL     1     -10.009  12.968  64.445  1.00  0.00    -0.131 C  
HETATM   27  C   UNL     1     -10.896  12.330  63.377  1.00  0.00    -0.457 C  
HETATM   28  C   UNL     1     -12.266  11.881  63.893  1.00  0.00    -0.497 C  
HETATM   29  C   UNL     1     -12.892  12.881  64.866  1.00  0.00    -0.295 C  
ENDBRANCH  23  24
ENDBRANCH  22  23
ENDBRANCH  21  22
ENDBRANCH  19  21
ENDBRANCH   5  19
TORSDOF 6
ENDMDL
MODEL      109
REMARK 921   NORMALIZED FREE ENERGY PREDICTED BY IDOCK:   -5.47 KCAL/MOL
REMARK 922        TOTAL FREE ENERGY PREDICTED BY IDOCK:   -8.08 KCAL/MOL
REMARK 923 INTER-LIGAND FREE ENERGY PREDICTED BY IDOCK:   -6.28 KCAL/MOL
REMARK 924 INTRA-LIGAND FREE ENERGY PREDICTED BY IDOCK:   -1.80 KCAL/MOL
REMARK 927      BINDING AFFINITY PREDICTED BY RF-SCORE:    0.00 PKD
ROOT
HETATM    1  C   UNL     1     -11.873  11.976  67.680  1.00  0.00    -0.294 C  
HETATM    2  C   UNL     1     -10.526  11.617  68.229  1.00  0.00    -0.223 C  
HETATM    3  C   UNL     1     -10.269  10.929  69.358  1.00  0.00    -0.122 C  
HETATM    4  O   UNL     1      -9.012  10.519  69.758  1.00  0.00    -0.054 OA 
HETATM    5  C   UNL     1      -6.642  10.446  69.427  1.00  0.00    -0.063 A  
HETATM    6  C   UNL     1      -5.503  10.941  68.754  1.00  0.00    -0.040 A  
HETATM    7  C   UNL     1      -7.911  10.881  69.027  1.00  0.00    -0.131 A  
HETATM    8  C   UNL     1      -8.024  11.711  67.914  1.00  0.00    -0.132 A  
HETATM    9  C   UNL     1      -5.624  11.825  67.683  1.00  0.00    -0.067 A  
HETATM   10  O   UNL     1      -9.499  12.747  66.415  1.00  0.00    -0.246 OA 
HETATM   11  C   UNL     1      -6.890  12.191  67.246  1.00  0.00    -0.149 A  
HETATM   12  C   UNL     1      -9.364  12.077  67.431  1.00  0.00    -0.178 C  
ENDROOT
BRANCH   3  13
HETATM   13  C   UNL     1     -11.309  10.570  70.332  1.00  0.00    -0.411 A  
HETATM   14  C   UNL     1     -12.460   8.873  71.642  1.00  0.00    -0.403 A  
HETATM   15  C   UNL     1     -13.215  11.165  71.712  1.00  0.00    -0.486 A  
HETATM   16  C   UNL     1     -12.203  11.530  70.817  1.00  0.00    -0.463 A  
HETATM   17  C   UNL     1     -11.446   9.237  70.752  1.00  0.00    -0.351 A  
HETATM   18  C   UNL     1     -13.345   9.838  72.121  1.00  0.00    -0.527 A  
ENDBRANCH   3  13
BRANCH   5  19
HETATM   19  C   UNL     1      -6.488   9.520  70.588  1.00  0.00    -0.093 C  
HETATM   20  O   UNL     1      -6.606   9.801  71.770  1.00  0.00    -0.295 OA 
BRANCH  19  21
HETATM   21  O   UNL     1      -6.135   8.290  70.129  1.00  0.00    -0.031 OA 
BRANCH  21  22
HETATM   22  C   UNL     1      -7.012   7.250  70.571  1.00  0.00    -0.057 C  
BRANCH  22  23
HETATM   23  C   UNL     1      -8.307   7.313  69.737  1.00  0.00    -0.135 C  
BRANCH  23  24
HETATM   24  N   UNL     1      -8.317   6.468  68.517  1.00  0.00    -0.121 NA 
HETATM   25  C   UNL     1      -9.462   5.548  68.443  1.00  0.00    -0.118 C  
HETATM   26  C   UNL     1     -10.797   6.285  68.389  1.00  0.00    -0.394 C  
HETATM   27  C   UNL     1     -10.836   7.305  67.251  1.00  0.00    -0.354 C  
HETATM   28  C   UNL     1      -9.549   8.122  67.103  1.00  0.00    -0.227 C  
HETATM   29  C   UNL     1      -8.286   7.280  67.291  1.00  0.00    -0.115 C  
ENDBRANCH  23  24
ENDBRANCH  22  23
ENDBRANCH  21  22
ENDBRANCH  19  21
ENDBRANCH   5  19
TORSDOF 6
ENDMDL
MODEL      110
REMARK 921   NORMALIZED FREE ENERGY PREDICTED BY IDOCK:   -5.43 KCAL/MOL
REMARK 922        TOTAL FREE ENERGY PREDICTED BY IDOCK:   -8.03 KCAL/MOL
REMARK 923 INTER-LIGAND FREE ENERGY PREDICTED BY IDOCK:   -6.81 KCAL/MOL
REMARK 924 INTRA-LIGAND FREE ENERGY PREDICTED BY IDOCK:   -1.22 KCAL/MOL
REMARK 927      BINDING AFFINITY PREDICTED BY RF-SCORE:    0.00 PKD
ROOT
HETATM    1  C   UNL     1      -9.309   7.910  73.501  1.00  0.00    -0.333 C  
HETATM    2  C   UNL     1      -9.087   8.015  72.023  1.00  0.00    -0.217 C  
HETATM    3  C   UNL     1     -10.009   8.291  71.082  1.00  0.00    -0.185 C  
HETATM    4  O   UNL     1      -9.731   8.496  69.745  1.00  0.00    -0.176 OA 
HETATM    5  C   UNL     1      -8.170   8.567  67.931  1.00  0.00    -0.119 A  
HETATM    6  C   UNL     1      -6.882   8.265  67.436  1.00  0.00    -0.070 A  
HETATM    7  C   UNL     1      -8.450   8.340  69.284  1.00  0.00    -0.126 A  
HETATM    8  C   UNL     1      -7.425   7.917  70.127  1.00  0.00    -0.078 A  
HETATM    9  C   UNL     1      -5.882   7.779  68.276  1.00  0.00    -0.036 A  
HETATM   10  O   UNL     1      -6.798   7.483  72.343  1.00  0.00    -0.058 OA 
HETATM   11  C   UNL     1      -6.147   7.629  69.630  1.00  0.00    -0.030 A  
HETATM   12  C   UNL     1      -7.695   7.785  71.566  1.00  0.00    -0.086 C  
ENDROOT
BRANCH   3  13
HETATM   13  C   UNL     1     -11.449   8.363  71.370  1.00  0.00    -0.328 A  
HETATM   14  C   UNL     1     -13.603   7.252  71.589  1.00  0.00    -0.435 A  
HETATM   15  C   UNL     1     -13.454   9.649  71.837  1.00  0.00    -0.496 A  
HETATM   16  C   UNL     1     -12.076   9.591  71.607  1.00  0.00    -0.474 A  
HETATM   17  C   UNL     1     -12.225   7.192  71.363  1.00  0.00    -0.399 A  
HETATM   18  C   UNL     1     -14.217   8.481  71.825  1.00  0.00    -0.525 A  
ENDBRANCH   3  13
BRANCH   5  19
HETATM   19  C   UNL     1      -9.235   9.063  67.009  1.00  0.00    -0.136 C  
HETATM   20  O   UNL     1     -10.134   8.407  66.507  1.00  0.00    -0.276 OA 
BRANCH  19  21
HETATM   21  O   UNL     1      -9.022  10.382  66.757  1.00  0.00    -0.139 OA 
BRANCH  21  22
HETATM   22  C   UNL     1     -10.078  11.224  67.229  1.00  0.00    -0.186 C  
BRANCH  22  23
HETATM   23  C   UNL     1      -9.468  12.565  67.686  1.00  0.00    -0.188 C  
BRANCH  23  24
HETATM   24  N   UNL     1     -10.047  13.774  67.050  1.00  0.00    -0.252 NA 
HETATM   25  C   UNL     1     -11.510  13.868  67.177  1.00  0.00    -0.347 C  
HETATM   26  C   UNL     1     -11.960  13.967  68.632  1.00  0.00    -0.389 C  
HETATM   27  C   UNL     1     -11.269  15.118  69.363  1.00  0.00    -0.293 C  
HETATM   28  C   UNL     1      -9.774  15.241  69.057  1.00  0.00    -0.234 C  
HETATM   29  C   UNL     1      -9.448  15.008  67.580  1.00  0.00    -0.195 C  
ENDBRANCH  23  24
ENDBRANCH  22  23
ENDBRANCH  21  22
ENDBRANCH  19  21
ENDBRANCH   5  19
TORSDOF 6
ENDMDL
MODEL      111
REMARK 921   NORMALIZED FREE ENERGY PREDICTED BY IDOCK:   -5.42 KCAL/MOL
REMARK 922        TOTAL FREE ENERGY PREDICTED BY IDOCK:   -8.00 KCAL/MOL
REMARK 923 INTER-LIGAND FREE ENERGY PREDICTED BY IDOCK:   -6.46 KCAL/MOL
REMARK 924 INTRA-LIGAND FREE ENERGY PREDICTED BY IDOCK:   -1.54 KCAL/MOL
REMARK 927      BINDING AFFINITY PREDICTED BY RF-SCORE:    0.00 PKD
ROOT
HETATM    1  C   UNL     1      -9.737   4.552  65.555  1.00  0.00    -0.204 C  
HETATM    2  C   UNL     1      -9.561   4.563  67.043  1.00  0.00    -0.210 C  
HETATM    3  C   UNL     1      -9.428   5.643  67.835  1.00  0.00    -0.113 C  
HETATM    4  O   UNL     1      -9.389   5.605  69.215  1.00  0.00    -0.117 OA 
HETATM    5  C   UNL     1      -9.384   4.367  71.264  1.00  0.00    -0.210 A  
HETATM    6  C   UNL     1      -9.255   3.123  71.921  1.00  0.00    -0.181 A  
HETATM    7  C   UNL     1      -9.404   4.399  69.865  1.00  0.00    -0.155 A  
HETATM    8  C   UNL     1      -9.398   3.198  69.159  1.00  0.00    -0.228 A  
HETATM    9  C   UNL     1      -9.181   1.932  71.202  1.00  0.00    -0.171 A  
HETATM   10  O   UNL     1      -9.597   2.192  67.051  1.00  0.00     0.060 OA 
HETATM   11  C   UNL     1      -9.278   1.968  69.818  1.00  0.00    -0.178 A  
HETATM   12  C   UNL     1      -9.530   3.232  67.694  1.00  0.00    -0.165 C  
ENDROOT
BRANCH   3  13
HETATM   13  C   UNL     1      -9.262   7.006  67.309  1.00  0.00    -0.141 A  
HETATM   14  C   UNL     1     -10.246   9.045  66.418  1.00  0.00    -0.297 A  
HETATM   15  C   UNL     1      -7.846   8.831  66.565  1.00  0.00    -0.103 A  
HETATM   16  C   UNL     1      -7.989   7.549  67.105  1.00  0.00    -0.117 A  
HETATM   17  C   UNL     1     -10.390   7.766  66.961  1.00  0.00    -0.405 A  
HETATM   18  C   UNL     1      -8.973   9.577  66.219  1.00  0.00    -0.188 A  
ENDBRANCH   3  13
BRANCH   5  19
HETATM   19  C   UNL     1      -9.436   5.635  72.053  1.00  0.00    -0.150 C  
HETATM   20  O   UNL     1      -8.486   6.272  72.478  1.00  0.00    -0.120 OA 
BRANCH  19  21
HETATM   21  O   UNL     1     -10.736   5.959  72.282  1.00  0.00    -0.214 OA 
BRANCH  21  22
HETATM   22  C   UNL     1     -10.899   6.942  73.309  1.00  0.00    -0.290 C  
BRANCH  22  23
HETATM   23  C   UNL     1     -11.202   8.300  72.643  1.00  0.00    -0.340 C  
BRANCH  23  24
HETATM   24  N   UNL     1     -12.109   8.242  71.470  1.00  0.00    -0.290 NA 
HETATM   25  C   UNL     1     -13.291   9.108  71.591  1.00  0.00    -0.383 C  
HETATM   26  C   UNL     1     -12.921  10.584  71.696  1.00  0.00    -0.581 C  
HETATM   27  C   UNL     1     -12.029  11.029  70.537  1.00  0.00    -0.474 C  
HETATM   28  C   UNL     1     -10.927  10.028  70.180  1.00  0.00    -0.368 C  
HETATM   29  C   UNL     1     -11.407   8.576  70.222  1.00  0.00    -0.130 C  
ENDBRANCH  23  24
ENDBRANCH  22  23
ENDBRANCH  21  22
ENDBRANCH  19  21
ENDBRANCH   5  19
TORSDOF 6
ENDMDL
MODEL      112
REMARK 921   NORMALIZED FREE ENERGY PREDICTED BY IDOCK:   -5.41 KCAL/MOL
REMARK 922        TOTAL FREE ENERGY PREDICTED BY IDOCK:   -8.00 KCAL/MOL
REMARK 923 INTER-LIGAND FREE ENERGY PREDICTED BY IDOCK:   -7.34 KCAL/MOL
REMARK 924 INTRA-LIGAND FREE ENERGY PREDICTED BY IDOCK:   -0.66 KCAL/MOL
REMARK 927      BINDING AFFINITY PREDICTED BY RF-SCORE:    0.00 PKD
ROOT
HETATM    1  C   UNL     1      -9.967  17.518  69.485  1.00  0.00     0.118 C  
HETATM    2  C   UNL     1      -9.830  16.062  69.155  1.00  0.00    -0.247 C  
HETATM    3  C   UNL     1     -10.654  15.066  69.531  1.00  0.00    -0.254 C  
HETATM    4  O   UNL     1     -10.552  13.758  69.100  1.00  0.00    -0.185 OA 
HETATM    5  C   UNL     1      -9.421  12.062  67.844  1.00  0.00    -0.196 A  
HETATM    6  C   UNL     1      -8.270  11.653  67.134  1.00  0.00    -0.165 A  
HETATM    7  C   UNL     1      -9.509  13.385  68.293  1.00  0.00    -0.209 A  
HETATM    8  C   UNL     1      -8.507  14.288  67.944  1.00  0.00    -0.168 A  
HETATM    9  C   UNL     1      -7.242  12.549  66.847  1.00  0.00     0.141 A  
HETATM   10  O   UNL     1      -7.829  16.531  67.973  1.00  0.00    -0.152 OA 
HETATM   11  C   UNL     1      -7.373  13.876  67.232  1.00  0.00    -0.017 A  
HETATM   12  C   UNL     1      -8.657  15.701  68.324  1.00  0.00    -0.158 C  
ENDROOT
BRANCH   3  13
HETATM   13  C   UNL     1     -11.747  15.251  70.497  1.00  0.00    -0.355 A  
HETATM   14  C   UNL     1     -12.557  16.180  72.594  1.00  0.00    -0.499 A  
HETATM   15  C   UNL     1     -14.000  14.774  71.263  1.00  0.00    -0.444 A  
HETATM   16  C   UNL     1     -12.983  14.622  70.315  1.00  0.00    -0.166 A  
HETATM   17  C   UNL     1     -11.542  16.033  71.646  1.00  0.00    -0.538 A  
HETATM   18  C   UNL     1     -13.786  15.550  72.403  1.00  0.00    -0.662 A  
ENDBRANCH   3  13
BRANCH   5  19
HETATM   19  C   UNL     1     -10.500  11.080  68.162  1.00  0.00    -0.189 C  
HETATM   20  O   UNL     1     -11.491  10.838  67.491  1.00  0.00    -0.475 OA 
BRANCH  19  21
HETATM   21  O   UNL     1     -10.240  10.513  69.370  1.00  0.00    -0.220 OA 
BRANCH  21  22
HETATM   22  C   UNL     1     -10.020   9.102  69.295  1.00  0.00    -0.187 C  
BRANCH  22  23
HETATM   23  C   UNL     1     -11.211   8.384  69.961  1.00  0.00    -0.085 C  
BRANCH  23  24
HETATM   24  N   UNL     1     -11.233   8.436  71.444  1.00  0.00    -0.249 NA 
HETATM   25  C   UNL     1     -11.993   9.573  71.986  1.00  0.00    -0.213 C  
HETATM   26  C   UNL     1     -13.467   9.524  71.599  1.00  0.00    -0.463 C  
HETATM   27  C   UNL     1     -14.113   8.195  71.990  1.00  0.00    -0.446 C  
HETATM   28  C   UNL     1     -13.244   6.970  71.694  1.00  0.00    -0.368 C  
HETATM   29  C   UNL     1     -11.767   7.194  72.025  1.00  0.00    -0.289 C  
ENDBRANCH  23  24
ENDBRANCH  22  23
ENDBRANCH  21  22
ENDBRANCH  19  21
ENDBRANCH   5  19
TORSDOF 6
ENDMDL
MODEL      113
REMARK 921   NORMALIZED FREE ENERGY PREDICTED BY IDOCK:   -5.38 KCAL/MOL
REMARK 922        TOTAL FREE ENERGY PREDICTED BY IDOCK:   -7.96 KCAL/MOL
REMARK 923 INTER-LIGAND FREE ENERGY PREDICTED BY IDOCK:   -7.44 KCAL/MOL
REMARK 924 INTRA-LIGAND FREE ENERGY PREDICTED BY IDOCK:   -0.52 KCAL/MOL
REMARK 927      BINDING AFFINITY PREDICTED BY RF-SCORE:    0.00 PKD
ROOT
HETATM    1  C   UNL     1      -9.765   6.658  66.163  1.00  0.00     0.030 C  
HETATM    2  C   UNL     1     -10.087   7.933  66.882  1.00  0.00    -0.362 C  
HETATM    3  C   UNL     1      -9.969   9.185  66.402  1.00  0.00    -0.288 C  
HETATM    4  O   UNL     1     -10.393  10.322  67.062  1.00  0.00    -0.219 OA 
HETATM    5  C   UNL     1     -11.349  11.378  68.986  1.00  0.00    -0.345 A  
HETATM    6  C   UNL     1     -11.739  11.289  70.341  1.00  0.00    -0.398 A  
HETATM    7  C   UNL     1     -10.904  10.224  68.329  1.00  0.00    -0.255 A  
HETATM    8  C   UNL     1     -10.950   9.003  68.998  1.00  0.00    -0.001 A  
HETATM    9  C   UNL     1     -11.718  10.073  71.020  1.00  0.00    -0.479 A  
HETATM   10  O   UNL     1     -10.682   6.682  68.807  1.00  0.00    -0.217 OA 
HETATM   11  C   UNL     1     -11.347   8.922  70.339  1.00  0.00    -0.229 A  
HETATM   12  C   UNL     1     -10.586   7.778  68.270  1.00  0.00    -0.117 C  
ENDROOT
BRANCH   3  13
HETATM   13  C   UNL     1      -9.324   9.493  65.118  1.00  0.00    -0.316 A  
HETATM   14  C   UNL     1      -9.268  10.781  63.054  1.00  0.00    -0.320 A  
HETATM   15  C   UNL     1      -7.642   9.036  63.428  1.00  0.00    -0.107 A  
HETATM   16  C   UNL     1      -8.220   8.758  64.672  1.00  0.00    -0.166 A  
HETATM   17  C   UNL     1      -9.843  10.508  64.297  1.00  0.00    -0.402 A  
HETATM   18  C   UNL     1      -8.168  10.044  62.619  1.00  0.00    -0.152 A  
ENDBRANCH   3  13
BRANCH   5  19
HETATM   19  C   UNL     1     -11.356  12.696  68.283  1.00  0.00    -0.295 C  
HETATM   20  O   UNL     1     -12.275  13.180  67.642  1.00  0.00    -0.279 OA 
BRANCH  19  21
HETATM   21  O   UNL     1     -10.133  13.275  68.419  1.00  0.00    -0.238 OA 
BRANCH  21  22
HETATM   22  C   UNL     1      -9.886  14.303  67.456  1.00  0.00    -0.231 C  
BRANCH  22  23
HETATM   23  C   UNL     1      -9.890  15.664  68.180  1.00  0.00    -0.212 C  
BRANCH  23  24
HETATM   24  N   UNL     1     -10.540  16.774  67.440  1.00  0.00    -0.315 NA 
HETATM   25  C   UNL     1     -10.621  18.028  68.204  1.00  0.00    -0.319 C  
HETATM   26  C   UNL     1      -9.244  18.582  68.559  1.00  0.00    -0.360 C  
HETATM   27  C   UNL     1      -8.363  18.747  67.321  1.00  0.00    -0.281 C  
HETATM   28  C   UNL     1      -8.443  17.575  66.339  1.00  0.00    -0.287 C  
HETATM   29  C   UNL     1      -9.867  17.044  66.161  1.00  0.00    -0.278 C  
ENDBRANCH  23  24
ENDBRANCH  22  23
ENDBRANCH  21  22
ENDBRANCH  19  21
ENDBRANCH   5  19
TORSDOF 6
ENDMDL
MODEL      114
REMARK 921   NORMALIZED FREE ENERGY PREDICTED BY IDOCK:   -5.28 KCAL/MOL
REMARK 922        TOTAL FREE ENERGY PREDICTED BY IDOCK:   -7.81 KCAL/MOL
REMARK 923 INTER-LIGAND FREE ENERGY PREDICTED BY IDOCK:   -7.07 KCAL/MOL
REMARK 924 INTRA-LIGAND FREE ENERGY PREDICTED BY IDOCK:   -0.74 KCAL/MOL
REMARK 927      BINDING AFFINITY PREDICTED BY RF-SCORE:    0.00 PKD
ROOT
HETATM    1  C   UNL     1      -9.895   3.945  70.243  1.00  0.00    -0.168 C  
HETATM    2  C   UNL     1     -10.081   5.402  69.945  1.00  0.00    -0.322 C  
HETATM    3  C   UNL     1      -9.781   6.039  68.798  1.00  0.00    -0.131 C  
HETATM    4  O   UNL     1     -10.084   7.360  68.531  1.00  0.00    -0.164 OA 
HETATM    5  C   UNL     1     -10.981   9.470  69.218  1.00  0.00    -0.167 A  
HETATM    6  C   UNL     1     -11.439  10.302  70.264  1.00  0.00    -0.395 A  
HETATM    7  C   UNL     1     -10.659   8.137  69.501  1.00  0.00    -0.213 A  
HETATM    8  C   UNL     1     -10.893   7.640  70.781  1.00  0.00    -0.246 A  
HETATM    9  C   UNL     1     -11.606   9.811  71.557  1.00  0.00    -0.424 A  
HETATM   10  O   UNL     1     -10.919   5.729  72.139  1.00  0.00    -0.237 OA 
HETATM   11  C   UNL     1     -11.356   8.469  71.811  1.00  0.00    -0.377 A  
HETATM   12  C   UNL     1     -10.657   6.212  71.045  1.00  0.00    -0.246 C  
ENDROOT
BRANCH   3  13
HETATM   13  C   UNL     1      -9.045   5.401  67.697  1.00  0.00    -0.109 A  
HETATM   14  C   UNL     1      -7.052   5.268  66.307  1.00  0.00    -0.072 A  
HETATM   15  C   UNL     1      -8.936   3.828  65.852  1.00  0.00    -0.135 A  
HETATM   16  C   UNL     1      -9.634   4.396  66.923  1.00  0.00    -0.219 A  
HETATM   17  C   UNL     1      -7.746   5.833  67.380  1.00  0.00    -0.097 A  
HETATM   18  C   UNL     1      -7.648   4.266  65.542  1.00  0.00    -0.085 A  
ENDBRANCH   3  13
BRANCH   5  19
HETATM   19  C   UNL     1     -10.785  10.023  67.845  1.00  0.00    -0.272 C  
HETATM   20  O   UNL     1      -9.844   9.810  67.097  1.00  0.00    -0.171 OA 
BRANCH  19  21
HETATM   21  O   UNL     1     -11.811  10.867  67.558  1.00  0.00    -0.524 OA 
BRANCH  21  22
HETATM   22  C   UNL     1     -11.460  11.880  66.611  1.00  0.00    -0.314 C  
BRANCH  22  23
HETATM   23  C   UNL     1     -11.747  13.259  67.241  1.00  0.00    -0.377 C  
BRANCH  23  24
HETATM   24  N   UNL     1     -11.081  13.512  68.542  1.00  0.00    -0.260 NA 
HETATM   25  C   UNL     1      -9.647  13.821  68.423  1.00  0.00    -0.206 C  
HETATM   26  C   UNL     1      -9.392  15.096  67.625  1.00  0.00    -0.189 C  
HETATM   27  C   UNL     1     -10.166  16.286  68.194  1.00  0.00    -0.258 C  
HETATM   28  C   UNL     1     -11.607  15.956  68.595  1.00  0.00    -0.383 C  
HETATM   29  C   UNL     1     -11.735  14.598  69.287  1.00  0.00    -0.312 C  
ENDBRANCH  23  24
ENDBRANCH  22  23
ENDBRANCH  21  22
ENDBRANCH  19  21
ENDBRANCH   5  19
TORSDOF 6
ENDMDL
MODEL      115
REMARK 921   NORMALIZED FREE ENERGY PREDICTED BY IDOCK:   -5.25 KCAL/MOL
REMARK 922        TOTAL FREE ENERGY PREDICTED BY IDOCK:   -7.78 KCAL/MOL
REMARK 923 INTER-LIGAND FREE ENERGY PREDICTED BY IDOCK:   -6.94 KCAL/MOL
REMARK 924 INTRA-LIGAND FREE ENERGY PREDICTED BY IDOCK:   -0.85 KCAL/MOL
REMARK 927      BINDING AFFINITY PREDICTED BY RF-SCORE:    0.00 PKD
ROOT
HETATM    1  C   UNL     1     -11.010   7.968  70.624  1.00  0.00    -0.250 C  
HETATM    2  C   UNL     1     -11.125   9.153  69.714  1.00  0.00    -0.140 C  
HETATM    3  C   UNL     1     -10.892   9.182  68.389  1.00  0.00    -0.048 C  
HETATM    4  O   UNL     1     -11.128  10.272  67.573  1.00  0.00    -0.311 OA 
HETATM    5  C   UNL     1     -11.813  12.548  67.287  1.00  0.00    -0.381 A  
HETATM    6  C   UNL     1     -12.114  13.799  67.871  1.00  0.00    -0.322 A  
HETATM    7  C   UNL     1     -11.556  11.453  68.121  1.00  0.00    -0.294 A  
HETATM    8  C   UNL     1     -11.702  11.600  69.499  1.00  0.00    -0.410 A  
HETATM    9  C   UNL     1     -12.191  13.951  69.254  1.00  0.00    -0.319 A  
HETATM   10  O   UNL     1     -11.729  10.501  71.569  1.00  0.00    -0.194 OA 
HETATM   11  C   UNL     1     -12.010  12.842  70.069  1.00  0.00    -0.380 A  
HETATM   12  C   UNL     1     -11.540  10.421  70.362  1.00  0.00    -0.337 C  
ENDROOT
BRANCH   3  13
HETATM   13  C   UNL     1     -10.306   8.052  67.653  1.00  0.00    -0.312 A  
HETATM   14  C   UNL     1     -10.549   5.842  66.664  1.00  0.00    -0.330 A  
HETATM   15  C   UNL     1      -8.397   6.938  66.650  1.00  0.00    -0.118 A  
HETATM   16  C   UNL     1      -8.949   8.039  67.314  1.00  0.00    -0.148 A  
HETATM   17  C   UNL     1     -11.102   6.943  67.322  1.00  0.00    -0.355 A  
HETATM   18  C   UNL     1      -9.196   5.840  66.329  1.00  0.00    -0.168 A  
ENDBRANCH   3  13
BRANCH   5  19
HETATM   19  C   UNL     1     -11.710  12.413  65.804  1.00  0.00    -0.414 C  
HETATM   20  O   UNL     1     -12.609  12.558  64.991  1.00  0.00    -0.592 OA 
BRANCH  19  21
HETATM   21  O   UNL     1     -10.443  12.041  65.481  1.00  0.00    -0.251 OA 
BRANCH  21  22
HETATM   22  C   UNL     1      -9.453  12.983  65.905  1.00  0.00    -0.032 C  
BRANCH  22  23
HETATM   23  C   UNL     1      -8.373  12.229  66.708  1.00  0.00    -0.087 C  
BRANCH  23  24
HETATM   24  N   UNL     1      -8.189  12.688  68.107  1.00  0.00    -0.163 NA 
HETATM   25  C   UNL     1      -7.056  12.051  68.795  1.00  0.00    -0.111 C  
HETATM   26  C   UNL     1      -5.721  12.365  68.128  1.00  0.00    -0.063 C  
HETATM   27  C   UNL     1      -5.500  13.871  67.982  1.00  0.00    -0.116 C  
HETATM   28  C   UNL     1      -6.741  14.640  67.520  1.00  0.00    -0.148 C  
HETATM   29  C   UNL     1      -8.027  14.147  68.185  1.00  0.00    -0.143 C  
ENDBRANCH  23  24
ENDBRANCH  22  23
ENDBRANCH  21  22
ENDBRANCH  19  21
ENDBRANCH   5  19
TORSDOF 6
ENDMDL
MODEL      116
REMARK 921   NORMALIZED FREE ENERGY PREDICTED BY IDOCK:   -5.25 KCAL/MOL
REMARK 922        TOTAL FREE ENERGY PREDICTED BY IDOCK:   -7.77 KCAL/MOL
REMARK 923 INTER-LIGAND FREE ENERGY PREDICTED BY IDOCK:   -6.86 KCAL/MOL
REMARK 924 INTRA-LIGAND FREE ENERGY PREDICTED BY IDOCK:   -0.91 KCAL/MOL
REMARK 927      BINDING AFFINITY PREDICTED BY RF-SCORE:    0.00 PKD
ROOT
HETATM    1  C   UNL     1      -7.506  11.782  66.752  1.00  0.00    -0.057 C  
HETATM    2  C   UNL     1      -8.170  11.172  67.949  1.00  0.00    -0.121 C  
HETATM    3  C   UNL     1      -9.473  11.248  68.278  1.00  0.00    -0.190 C  
HETATM    4  O   UNL     1     -10.059  10.567  69.328  1.00  0.00    -0.213 OA 
HETATM    5  C   UNL     1      -9.886   9.107  71.217  1.00  0.00    -0.363 A  
HETATM    6  C   UNL     1      -9.066   8.448  72.160  1.00  0.00    -0.309 A  
HETATM    7  C   UNL     1      -9.284   9.810  70.166  1.00  0.00    -0.208 A  
HETATM    8  C   UNL     1      -7.899   9.759  70.021  1.00  0.00    -0.188 A  
HETATM    9  C   UNL     1      -7.678   8.459  72.043  1.00  0.00    -0.163 A  
HETATM   10  O   UNL     1      -6.075  10.322  68.662  1.00  0.00    -0.047 OA 
HETATM   11  C   UNL     1      -7.094   9.095  70.956  1.00  0.00    -0.106 A  
HETATM   12  C   UNL     1      -7.281  10.407  68.855  1.00  0.00    -0.082 C  
ENDROOT
BRANCH   3  13
HETATM   13  C   UNL     1     -10.428  12.115  67.574  1.00  0.00    -0.229 A  
HETATM   14  C   UNL     1     -11.672  14.204  67.453  1.00  0.00    -0.422 A  
HETATM   15  C   UNL     1     -12.019  12.497  65.780  1.00  0.00    -0.482 A  
HETATM   16  C   UNL     1     -11.082  11.677  66.417  1.00  0.00    -0.347 A  
HETATM   17  C   UNL     1     -10.732  13.387  68.087  1.00  0.00    -0.267 A  
HETATM   18  C   UNL     1     -12.316  13.758  66.300  1.00  0.00    -0.479 A  
ENDBRANCH   3  13
BRANCH   5  19
HETATM   19  C   UNL     1     -11.371   9.104  71.375  1.00  0.00    -0.344 C  
HETATM   20  O   UNL     1     -12.049   9.943  71.946  1.00  0.00    -0.357 OA 
BRANCH  19  21
HETATM   21  O   UNL     1     -11.872   7.968  70.819  1.00  0.00    -0.261 OA 
BRANCH  21  22
HETATM   22  C   UNL     1     -12.622   7.172  71.742  1.00  0.00    -0.346 C  
BRANCH  22  23
HETATM   23  C   UNL     1     -11.951   5.788  71.852  1.00  0.00     0.135 C  
BRANCH  23  24
HETATM   24  N   UNL     1     -10.672   5.762  72.604  1.00  0.00    -0.225 NA 
HETATM   25  C   UNL     1     -10.764   5.086  73.907  1.00  0.00    -0.299 C  
HETATM   26  C   UNL     1     -11.141   3.614  73.772  1.00  0.00    -0.281 C  
HETATM   27  C   UNL     1     -10.192   2.870  72.833  1.00  0.00    -0.233 C  
HETATM   28  C   UNL     1      -9.838   3.647  71.562  1.00  0.00    -0.227 C  
HETATM   29  C   UNL     1      -9.594   5.135  71.824  1.00  0.00    -0.152 C  
ENDBRANCH  23  24
ENDBRANCH  22  23
ENDBRANCH  21  22
ENDBRANCH  19  21
ENDBRANCH   5  19
TORSDOF 6
ENDMDL
MODEL      117
REMARK 921   NORMALIZED FREE ENERGY PREDICTED BY IDOCK:   -5.23 KCAL/MOL
REMARK 922        TOTAL FREE ENERGY PREDICTED BY IDOCK:   -7.75 KCAL/MOL
REMARK 923 INTER-LIGAND FREE ENERGY PREDICTED BY IDOCK:   -6.31 KCAL/MOL
REMARK 924 INTRA-LIGAND FREE ENERGY PREDICTED BY IDOCK:   -1.44 KCAL/MOL
REMARK 927      BINDING AFFINITY PREDICTED BY RF-SCORE:    0.00 PKD
ROOT
HETATM    1  C   UNL     1     -10.828   5.259  70.740  1.00  0.00    -0.117 C  
HETATM    2  C   UNL     1     -10.931   6.713  70.392  1.00  0.00    -0.341 C  
HETATM    3  C   UNL     1     -10.325   7.346  69.370  1.00  0.00    -0.210 C  
HETATM    4  O   UNL     1     -10.548   8.663  69.020  1.00  0.00    -0.217 OA 
HETATM    5  C   UNL     1     -11.613  10.771  69.415  1.00  0.00    -0.380 A  
HETATM    6  C   UNL     1     -12.350  11.605  70.285  1.00  0.00    -0.339 A  
HETATM    7  C   UNL     1     -11.376   9.442  69.785  1.00  0.00    -0.042 A  
HETATM    8  C   UNL     1     -11.956   8.949  70.952  1.00  0.00    -0.254 A  
HETATM    9  C   UNL     1     -12.870  11.119  71.483  1.00  0.00    -0.542 A  
HETATM   10  O   UNL     1     -12.351   7.046  72.262  1.00  0.00    -0.213 OA 
HETATM   11  C   UNL     1     -12.693   9.781  71.805  1.00  0.00    -0.519 A  
HETATM   12  C   UNL     1     -11.796   7.525  71.281  1.00  0.00    -0.294 C  
ENDROOT
BRANCH   3  13
HETATM   13  C   UNL     1      -9.306   6.708  68.524  1.00  0.00    -0.125 A  
HETATM   14  C   UNL     1      -6.964   6.333  67.983  1.00  0.00    -0.080 A  
HETATM   15  C   UNL     1      -8.689   5.383  66.586  1.00  0.00    -0.115 A  
HETATM   16  C   UNL     1      -9.671   5.949  67.406  1.00  0.00    -0.126 A  
HETATM   17  C   UNL     1      -7.943   6.896  68.805  1.00  0.00    -0.120 A  
HETATM   18  C   UNL     1      -7.337   5.578  66.872  1.00  0.00    -0.079 A  
ENDBRANCH   3  13
BRANCH   5  19
HETATM   19  C   UNL     1     -11.043  11.318  68.147  1.00  0.00    -0.259 C  
HETATM   20  O   UNL     1     -11.475  11.150  67.018  1.00  0.00    -0.442 OA 
BRANCH  19  21
HETATM   21  O   UNL     1      -9.908  12.008  68.434  1.00  0.00    -0.207 OA 
BRANCH  21  22
HETATM   22  C   UNL     1      -8.742  11.180  68.482  1.00  0.00    -0.161 C  
BRANCH  22  23
HETATM   23  C   UNL     1      -8.215  10.992  67.045  1.00  0.00    -0.138 C  
BRANCH  23  24
HETATM   24  N   UNL     1      -8.053   9.584  66.609  1.00  0.00    -0.108 NA 
HETATM   25  C   UNL     1      -9.121   9.114  65.713  1.00  0.00    -0.213 C  
HETATM   26  C   UNL     1      -9.170   9.899  64.406  1.00  0.00    -0.317 C  
HETATM   27  C   UNL     1      -7.817   9.901  63.695  1.00  0.00    -0.145 C  
HETATM   28  C   UNL     1      -6.623  10.120  64.629  1.00  0.00    -0.125 C  
HETATM   29  C   UNL     1      -6.757   9.362  65.951  1.00  0.00    -0.081 C  
ENDBRANCH  23  24
ENDBRANCH  22  23
ENDBRANCH  21  22
ENDBRANCH  19  21
ENDBRANCH   5  19
TORSDOF 6
ENDMDL
MODEL      118
REMARK 921   NORMALIZED FREE ENERGY PREDICTED BY IDOCK:   -5.22 KCAL/MOL
REMARK 922        TOTAL FREE ENERGY PREDICTED BY IDOCK:   -7.73 KCAL/MOL
REMARK 923 INTER-LIGAND FREE ENERGY PREDICTED BY IDOCK:   -7.09 KCAL/MOL
REMARK 924 INTRA-LIGAND FREE ENERGY PREDICTED BY IDOCK:   -0.64 KCAL/MOL
REMARK 927      BINDING AFFINITY PREDICTED BY RF-SCORE:    0.00 PKD
ROOT
HETATM    1  C   UNL     1      -7.442   8.605  63.461  1.00  0.00    -0.110 C  
HETATM    2  C   UNL     1      -8.494   9.258  64.307  1.00  0.00    -0.202 C  
HETATM    3  C   UNL     1      -8.901   8.874  65.531  1.00  0.00    -0.197 C  
HETATM    4  O   UNL     1      -9.788   9.579  66.321  1.00  0.00    -0.226 OA 
HETATM    5  C   UNL     1     -11.265  11.436  66.644  1.00  0.00    -0.298 A  
HETATM    6  C   UNL     1     -11.980  12.520  66.087  1.00  0.00    -0.432 A  
HETATM    7  C   UNL     1     -10.381  10.714  65.833  1.00  0.00    -0.224 A  
HETATM    8  C   UNL     1     -10.154  11.144  64.527  1.00  0.00    -0.364 A  
HETATM    9  C   UNL     1     -11.795  12.900  64.759  1.00  0.00    -0.409 A  
HETATM   10  O   UNL     1      -8.872  10.847  62.588  1.00  0.00    -0.254 OA 
HETATM   11  C   UNL     1     -10.861  12.226  63.985  1.00  0.00    -0.439 A  
HETATM   12  C   UNL     1      -9.144  10.451  63.714  1.00  0.00    -0.247 C  
ENDROOT
BRANCH   3  13
HETATM   13  C   UNL     1      -8.475   7.615  66.159  1.00  0.00    -0.147 A  
HETATM   14  C   UNL     1      -6.915   6.403  67.581  1.00  0.00    -0.078 A  
HETATM   15  C   UNL     1      -8.693   5.216  66.458  1.00  0.00    -0.111 A  
HETATM   16  C   UNL     1      -9.136   6.413  65.885  1.00  0.00    -0.074 A  
HETATM   17  C   UNL     1      -7.360   7.600  67.013  1.00  0.00    -0.090 A  
HETATM   18  C   UNL     1      -7.582   5.211  67.302  1.00  0.00    -0.091 A  
ENDBRANCH   3  13
BRANCH   5  19
HETATM   19  C   UNL     1     -11.497  11.029  68.063  1.00  0.00    -0.290 C  
HETATM   20  O   UNL     1     -12.407  11.393  68.790  1.00  0.00    -0.480 OA 
BRANCH  19  21
HETATM   21  O   UNL     1     -10.486  10.210  68.458  1.00  0.00    -0.177 OA 
BRANCH  21  22
HETATM   22  C   UNL     1     -10.383  10.088  69.880  1.00  0.00    -0.272 C  
BRANCH  22  23
HETATM   23  C   UNL     1     -10.167   8.602  70.229  1.00  0.00    -0.194 C  
BRANCH  23  24
HETATM   24  N   UNL     1     -11.341   7.722  70.007  1.00  0.00    -0.124 NA 
HETATM   25  C   UNL     1     -10.995   6.392  69.483  1.00  0.00    -0.359 C  
HETATM   26  C   UNL     1     -10.119   5.598  70.448  1.00  0.00    -0.284 C  
HETATM   27  C   UNL     1     -10.753   5.495  71.835  1.00  0.00    -0.292 C  
HETATM   28  C   UNL     1     -11.380   6.801  72.331  1.00  0.00    -0.306 C  
HETATM   29  C   UNL     1     -12.135   7.552  71.233  1.00  0.00    -0.323 C  
ENDBRANCH  23  24
ENDBRANCH  22  23
ENDBRANCH  21  22
ENDBRANCH  19  21
ENDBRANCH   5  19
TORSDOF 6
ENDMDL
MODEL      119
REMARK 921   NORMALIZED FREE ENERGY PREDICTED BY IDOCK:   -5.21 KCAL/MOL
REMARK 922        TOTAL FREE ENERGY PREDICTED BY IDOCK:   -7.73 KCAL/MOL
REMARK 923 INTER-LIGAND FREE ENERGY PREDICTED BY IDOCK:   -6.65 KCAL/MOL
REMARK 924 INTRA-LIGAND FREE ENERGY PREDICTED BY IDOCK:   -1.08 KCAL/MOL
REMARK 927      BINDING AFFINITY PREDICTED BY RF-SCORE:    0.00 PKD
ROOT
HETATM    1  C   UNL     1     -13.049  10.424  71.887  1.00  0.00    -0.563 C  
HETATM    2  C   UNL     1     -11.991  10.302  70.832  1.00  0.00    -0.473 C  
HETATM    3  C   UNL     1     -11.164   9.259  70.632  1.00  0.00    -0.276 C  
HETATM    4  O   UNL     1     -10.288   9.144  69.570  1.00  0.00    -0.202 OA 
HETATM    5  C   UNL     1      -9.285  10.046  67.592  1.00  0.00    -0.148 A  
HETATM    6  C   UNL     1      -9.054  11.164  66.760  1.00  0.00    -0.174 A  
HETATM    7  C   UNL     1     -10.161  10.175  68.677  1.00  0.00    -0.176 A  
HETATM    8  C   UNL     1     -10.856  11.370  68.848  1.00  0.00    -0.259 A  
HETATM    9  C   UNL     1      -9.704  12.376  66.981  1.00  0.00    -0.211 A  
HETATM   10  O   UNL     1     -12.533  12.476  70.057  1.00  0.00    -0.116 OA 
HETATM   11  C   UNL     1     -10.627  12.472  68.013  1.00  0.00    -0.237 A  
HETATM   12  C   UNL     1     -11.856  11.465  69.923  1.00  0.00    -0.359 C  
ENDROOT
BRANCH   3  13
HETATM   13  C   UNL     1     -11.066   8.124  71.561  1.00  0.00    -0.302 A  
HETATM   14  C   UNL     1     -11.641   5.831  72.139  1.00  0.00    -0.265 A  
HETATM   15  C   UNL     1     -10.350   7.174  73.676  1.00  0.00    -0.411 A  
HETATM   16  C   UNL     1     -10.400   8.250  72.784  1.00  0.00    -0.330 A  
HETATM   17  C   UNL     1     -11.687   6.904  71.245  1.00  0.00    -0.371 A  
HETATM   18  C   UNL     1     -10.973   5.967  73.356  1.00  0.00    -0.230 A  
ENDBRANCH   3  13
BRANCH   5  19
HETATM   19  C   UNL     1      -8.559   8.763  67.352  1.00  0.00    -0.126 C  
HETATM   20  O   UNL     1      -7.537   8.387  67.903  1.00  0.00    -0.096 OA 
BRANCH  19  21
HETATM   21  O   UNL     1      -9.189   8.077  66.362  1.00  0.00    -0.174 OA 
BRANCH  21  22
HETATM   22  C   UNL     1      -9.872   6.911  66.831  1.00  0.00    -0.183 C  
BRANCH  22  23
HETATM   23  C   UNL     1      -9.083   5.666  66.377  1.00  0.00    -0.147 C  
BRANCH  23  24
HETATM   24  N   UNL     1      -9.884   4.425  66.236  1.00  0.00    -0.213 NA 
HETATM   25  C   UNL     1      -9.877   3.867  64.875  1.00  0.00    -0.197 C  
HETATM   26  C   UNL     1      -8.479   3.454  64.423  1.00  0.00    -0.093 C  
HETATM   27  C   UNL     1      -7.823   2.494  65.415  1.00  0.00    -0.078 C  
HETATM   28  C   UNL     1      -8.028   2.879  66.883  1.00  0.00    -0.076 C  
HETATM   29  C   UNL     1      -9.443   3.382  67.174  1.00  0.00    -0.162 C  
ENDBRANCH  23  24
ENDBRANCH  22  23
ENDBRANCH  21  22
ENDBRANCH  19  21
ENDBRANCH   5  19
TORSDOF 6
ENDMDL
MODEL      120
REMARK 921   NORMALIZED FREE ENERGY PREDICTED BY IDOCK:   -5.19 KCAL/MOL
REMARK 922        TOTAL FREE ENERGY PREDICTED BY IDOCK:   -7.70 KCAL/MOL
REMARK 923 INTER-LIGAND FREE ENERGY PREDICTED BY IDOCK:   -6.06 KCAL/MOL
REMARK 924 INTRA-LIGAND FREE ENERGY PREDICTED BY IDOCK:   -1.65 KCAL/MOL
REMARK 927      BINDING AFFINITY PREDICTED BY RF-SCORE:    0.00 PKD
ROOT
HETATM    1  C   UNL     1      -6.968  12.337  67.233  1.00  0.00    -0.142 C  
HETATM    2  C   UNL     1      -7.672  11.511  68.267  1.00  0.00    -0.123 C  
HETATM    3  C   UNL     1      -9.002  11.392  68.439  1.00  0.00    -0.172 C  
HETATM    4  O   UNL     1      -9.603  10.523  69.329  1.00  0.00    -0.208 OA 
HETATM    5  C   UNL     1      -9.445   8.873  71.057  1.00  0.00    -0.318 A  
HETATM    6  C   UNL     1      -8.653   8.206  72.018  1.00  0.00    -0.216 A  
HETATM    7  C   UNL     1      -8.831   9.766  70.171  1.00  0.00    -0.188 A  
HETATM    8  C   UNL     1      -7.444   9.898  70.193  1.00  0.00    -0.178 A  
HETATM    9  C   UNL     1      -7.274   8.396  72.074  1.00  0.00    -0.114 A  
HETATM   10  O   UNL     1      -5.573  10.834  69.137  1.00  0.00    -0.041 OA 
HETATM   11  C   UNL     1      -6.665   9.225  71.143  1.00  0.00    -0.074 A  
HETATM   12  C   UNL     1      -6.793  10.752  69.188  1.00  0.00    -0.084 C  
ENDROOT
BRANCH   3  13
HETATM   13  C   UNL     1      -9.981  12.219  67.720  1.00  0.00    -0.200 A  
HETATM   14  C   UNL     1     -11.292  14.263  67.569  1.00  0.00    -0.346 A  
HETATM   15  C   UNL     1     -11.572  12.529  65.913  1.00  0.00    -0.454 A  
HETATM   16  C   UNL     1     -10.612  11.747  66.563  1.00  0.00    -0.289 A  
HETATM   17  C   UNL     1     -10.330  13.485  68.218  1.00  0.00    -0.253 A  
HETATM   18  C   UNL     1     -11.914  13.784  66.417  1.00  0.00    -0.473 A  
ENDBRANCH   3  13
BRANCH   5  19
HETATM   19  C   UNL     1     -10.925   8.675  71.030  1.00  0.00    -0.260 C  
HETATM   20  O   UNL     1     -11.742   9.146  71.805  1.00  0.00    -0.346 OA 
BRANCH  19  21
HETATM   21  O   UNL     1     -11.238   7.823  70.017  1.00  0.00    -0.224 OA 
BRANCH  21  22
HETATM   22  C   UNL     1     -11.758   6.571  70.474  1.00  0.00    -0.375 C  
BRANCH  22  23
HETATM   23  C   UNL     1     -10.578   5.684  70.920  1.00  0.00    -0.258 C  
BRANCH  23  24
HETATM   24  N   UNL     1     -10.104   4.705  69.912  1.00  0.00    -0.235 NA 
HETATM   25  C   UNL     1      -9.527   5.325  68.709  1.00  0.00    -0.128 C  
HETATM   26  C   UNL     1      -8.287   6.156  69.024  1.00  0.00    -0.112 C  
HETATM   27  C   UNL     1      -7.237   5.345  69.783  1.00  0.00    -0.064 C  
HETATM   28  C   UNL     1      -7.816   4.459  70.889  1.00  0.00    -0.067 C  
HETATM   29  C   UNL     1      -9.120   3.771  70.479  1.00  0.00    -0.119 C  
ENDBRANCH  23  24
ENDBRANCH  22  23
ENDBRANCH  21  22
ENDBRANCH  19  21
ENDBRANCH   5  19
TORSDOF 6
ENDMDL
MODEL      121
REMARK 921   NORMALIZED FREE ENERGY PREDICTED BY IDOCK:   -5.19 KCAL/MOL
REMARK 922        TOTAL FREE ENERGY PREDICTED BY IDOCK:   -7.69 KCAL/MOL
REMARK 923 INTER-LIGAND FREE ENERGY PREDICTED BY IDOCK:   -6.72 KCAL/MOL
REMARK 924 INTRA-LIGAND FREE ENERGY PREDICTED BY IDOCK:   -0.97 KCAL/MOL
REMARK 927      BINDING AFFINITY PREDICTED BY RF-SCORE:    0.00 PKD
ROOT
HETATM    1  C   UNL     1      -7.581   8.066  70.280  1.00  0.00    -0.081 C  
HETATM    2  C   UNL     1      -7.842   9.262  69.415  1.00  0.00    -0.083 C  
HETATM    3  C   UNL     1      -8.643   9.320  68.335  1.00  0.00    -0.124 C  
HETATM    4  O   UNL     1      -8.945  10.476  67.643  1.00  0.00    -0.137 OA 
HETATM    5  C   UNL     1      -8.673  12.831  67.304  1.00  0.00    -0.200 A  
HETATM    6  C   UNL     1      -7.950  14.013  67.579  1.00  0.00    -0.199 A  
HETATM    7  C   UNL     1      -8.349  11.658  67.997  1.00  0.00    -0.148 A  
HETATM    8  C   UNL     1      -7.392  11.711  69.008  1.00  0.00    -0.074 A  
HETATM    9  C   UNL     1      -6.948  14.038  68.547  1.00  0.00    -0.103 A  
HETATM   10  O   UNL     1      -6.350  10.535  70.748  1.00  0.00    -0.298 OA 
HETATM   11  C   UNL     1      -6.686  12.889  69.281  1.00  0.00    -0.061 A  
HETATM   12  C   UNL     1      -7.133  10.503  69.807  1.00  0.00    -0.150 C  
ENDROOT
BRANCH   3  13
HETATM   13  C   UNL     1      -9.262   8.131  67.731  1.00  0.00    -0.143 A  
HETATM   14  C   UNL     1     -11.129   6.576  67.601  1.00  0.00    -0.380 A  
HETATM   15  C   UNL     1      -9.157   6.206  66.256  1.00  0.00    -0.165 A  
HETATM   16  C   UNL     1      -8.572   7.358  66.791  1.00  0.00    -0.127 A  
HETATM   17  C   UNL     1     -10.547   7.730  68.132  1.00  0.00    -0.182 A  
HETATM   18  C   UNL     1     -10.433   5.814  66.663  1.00  0.00    -0.330 A  
ENDBRANCH   3  13
BRANCH   5  19
HETATM   19  C   UNL     1      -9.726  12.820  66.245  1.00  0.00    -0.262 C  
HETATM   20  O   UNL     1      -9.702  12.198  65.194  1.00  0.00    -0.216 OA 
BRANCH  19  21
HETATM   21  O   UNL     1     -10.724  13.670  66.605  1.00  0.00    -0.278 OA 
BRANCH  21  22
HETATM   22  C   UNL     1     -10.846  14.797  65.733  1.00  0.00    -0.331 C  
BRANCH  22  23
HETATM   23  C   UNL     1     -10.628  16.081  66.558  1.00  0.00    -0.284 C  
BRANCH  23  24
HETATM   24  N   UNL     1      -9.889  17.163  65.863  1.00  0.00    -0.532 NA 
HETATM   25  C   UNL     1     -10.535  18.481  65.961  1.00  0.00    -0.400 C  
HETATM   26  C   UNL     1     -10.634  18.972  67.402  1.00  0.00    -0.559 C  
HETATM   27  C   UNL     1      -9.272  18.974  68.097  1.00  0.00    -0.371 C  
HETATM   28  C   UNL     1      -8.426  17.730  67.811  1.00  0.00    -0.236 C  
HETATM   29  C   UNL     1      -8.506  17.280  66.351  1.00  0.00    -0.269 C  
ENDBRANCH  23  24
ENDBRANCH  22  23
ENDBRANCH  21  22
ENDBRANCH  19  21
ENDBRANCH   5  19
TORSDOF 6
ENDMDL
MODEL      122
REMARK 921   NORMALIZED FREE ENERGY PREDICTED BY IDOCK:   -5.16 KCAL/MOL
REMARK 922        TOTAL FREE ENERGY PREDICTED BY IDOCK:   -7.66 KCAL/MOL
REMARK 923 INTER-LIGAND FREE ENERGY PREDICTED BY IDOCK:   -6.77 KCAL/MOL
REMARK 924 INTRA-LIGAND FREE ENERGY PREDICTED BY IDOCK:   -0.89 KCAL/MOL
REMARK 927      BINDING AFFINITY PREDICTED BY RF-SCORE:    0.00 PKD
ROOT
HETATM    1  C   UNL     1      -7.090   9.863  63.027  1.00  0.00    -0.124 C  
HETATM    2  C   UNL     1      -7.612   9.004  64.140  1.00  0.00    -0.118 C  
HETATM    3  C   UNL     1      -8.685   9.248  64.915  1.00  0.00    -0.192 C  
HETATM    4  O   UNL     1      -9.197   8.366  65.847  1.00  0.00    -0.195 OA 
HETATM    5  C   UNL     1      -9.087   6.283  67.022  1.00  0.00    -0.125 A  
HETATM    6  C   UNL     1      -8.344   5.133  67.370  1.00  0.00    -0.106 A  
HETATM    7  C   UNL     1      -8.554   7.181  66.089  1.00  0.00    -0.146 A  
HETATM    8  C   UNL     1      -7.353   6.868  65.456  1.00  0.00    -0.079 A  
HETATM    9  C   UNL     1      -7.111   4.863  66.779  1.00  0.00    -0.068 A  
HETATM   10  O   UNL     1      -5.836   7.476  63.776  1.00  0.00    -0.047 OA 
HETATM   11  C   UNL     1      -6.626   5.721  65.801  1.00  0.00    -0.044 A  
HETATM   12  C   UNL     1      -6.851   7.759  64.399  1.00  0.00    -0.059 C  
ENDROOT
BRANCH   3  13
HETATM   13  C   UNL     1      -9.421  10.520  64.888  1.00  0.00    -0.304 A  
HETATM   14  C   UNL     1     -10.796  12.123  63.679  1.00  0.00    -0.523 A  
HETATM   15  C   UNL     1     -10.061  12.619  65.925  1.00  0.00    -0.276 A  
HETATM   16  C   UNL     1      -9.390  11.393  65.981  1.00  0.00    -0.235 A  
HETATM   17  C   UNL     1     -10.130  10.896  63.736  1.00  0.00    -0.413 A  
HETATM   18  C   UNL     1     -10.760  12.986  64.774  1.00  0.00    -0.370 A  
ENDBRANCH   3  13
BRANCH   5  19
HETATM   19  C   UNL     1     -10.395   6.566  67.685  1.00  0.00    -0.194 C  
HETATM   20  O   UNL     1     -11.508   6.391  67.214  1.00  0.00    -0.168 OA 
BRANCH  19  21
HETATM   21  O   UNL     1     -10.161   7.114  68.907  1.00  0.00    -0.175 OA 
BRANCH  21  22
HETATM   22  C   UNL     1     -10.687   6.334  69.984  1.00  0.00    -0.285 C  
BRANCH  22  23
HETATM   23  C   UNL     1     -11.791   7.151  70.686  1.00  0.00    -0.291 C  
BRANCH  23  24
HETATM   24  N   UNL     1     -11.315   8.096  71.726  1.00  0.00    -0.263 NA 
HETATM   25  C   UNL     1     -10.701   9.317  71.181  1.00  0.00    -0.333 C  
HETATM   26  C   UNL     1     -11.683  10.143  70.357  1.00  0.00    -0.390 C  
HETATM   27  C   UNL     1     -12.951  10.470  71.145  1.00  0.00    -0.506 C  
HETATM   28  C   UNL     1     -13.497   9.295  71.961  1.00  0.00    -0.519 C  
HETATM   29  C   UNL     1     -12.395   8.484  72.646  1.00  0.00    -0.222 C  
ENDBRANCH  23  24
ENDBRANCH  22  23
ENDBRANCH  21  22
ENDBRANCH  19  21
ENDBRANCH   5  19
TORSDOF 6
ENDMDL
MODEL      123
REMARK 921   NORMALIZED FREE ENERGY PREDICTED BY IDOCK:   -5.16 KCAL/MOL
REMARK 922        TOTAL FREE ENERGY PREDICTED BY IDOCK:   -7.66 KCAL/MOL
REMARK 923 INTER-LIGAND FREE ENERGY PREDICTED BY IDOCK:   -6.87 KCAL/MOL
REMARK 924 INTRA-LIGAND FREE ENERGY PREDICTED BY IDOCK:   -0.79 KCAL/MOL
REMARK 927      BINDING AFFINITY PREDICTED BY RF-SCORE:    0.00 PKD
ROOT
HETATM    1  C   UNL     1     -10.533   6.880  73.938  1.00  0.00    -0.352 C  
HETATM    2  C   UNL     1     -10.446   6.374  72.530  1.00  0.00    -0.225 C  
HETATM    3  C   UNL     1     -10.792   7.035  71.410  1.00  0.00    -0.229 C  
HETATM    4  O   UNL     1     -10.579   6.570  70.126  1.00  0.00    -0.202 OA 
HETATM    5  C   UNL     1      -9.821   4.861  68.630  1.00  0.00    -0.221 A  
HETATM    6  C   UNL     1      -9.414   3.523  68.436  1.00  0.00    -0.209 A  
HETATM    7  C   UNL     1     -10.053   5.320  69.933  1.00  0.00    -0.263 A  
HETATM    8  C   UNL     1      -9.780   4.476  71.007  1.00  0.00    -0.259 A  
HETATM    9  C   UNL     1      -9.209   2.666  69.516  1.00  0.00    -0.197 A  
HETATM   10  O   UNL     1      -9.621   4.304  73.339  1.00  0.00    -0.119 OA 
HETATM   11  C   UNL     1      -9.368   3.152  70.806  1.00  0.00    -0.223 A  
HETATM   12  C   UNL     1      -9.919   4.997  72.376  1.00  0.00    -0.178 C  
ENDROOT
BRANCH   3  13
HETATM   13  C   UNL     1     -11.490   8.329  71.426  1.00  0.00    -0.314 A  
HETATM   14  C   UNL     1     -13.413   9.667  72.084  1.00  0.00    -0.516 A  
HETATM   15  C   UNL     1     -11.671  10.646  70.728  1.00  0.00    -0.435 A  
HETATM   16  C   UNL     1     -10.975   9.433  70.739  1.00  0.00    -0.371 A  
HETATM   17  C   UNL     1     -12.716   8.456  72.099  1.00  0.00    -0.399 A  
HETATM   18  C   UNL     1     -12.890  10.762  71.397  1.00  0.00    -0.557 A  
ENDBRANCH   3  13
BRANCH   5  19
HETATM   19  C   UNL     1     -10.060   5.756  67.458  1.00  0.00    -0.171 C  
HETATM   20  O   UNL     1     -11.131   5.993  66.924  1.00  0.00    -0.303 OA 
BRANCH  19  21
HETATM   21  O   UNL     1      -8.867   6.241  67.023  1.00  0.00    -0.107 OA 
BRANCH  21  22
HETATM   22  C   UNL     1      -8.772   6.309  65.597  1.00  0.00    -0.114 C  
BRANCH  22  23
HETATM   23  C   UNL     1      -7.776   7.426  65.225  1.00  0.00    -0.113 C  
BRANCH  23  24
HETATM   24  N   UNL     1      -8.392   8.724  64.851  1.00  0.00    -0.162 NA 
HETATM   25  C   UNL     1      -7.943   9.853  65.680  1.00  0.00    -0.130 C  
HETATM   26  C   UNL     1      -6.444  10.108  65.552  1.00  0.00    -0.107 C  
HETATM   27  C   UNL     1      -6.022  10.293  64.094  1.00  0.00    -0.132 C  
HETATM   28  C   UNL     1      -6.676   9.302  63.127  1.00  0.00    -0.090 C  
HETATM   29  C   UNL     1      -8.153   9.053  63.438  1.00  0.00    -0.167 C  
ENDBRANCH  23  24
ENDBRANCH  22  23
ENDBRANCH  21  22
ENDBRANCH  19  21
ENDBRANCH   5  19
TORSDOF 6
ENDMDL
MODEL      124
REMARK 921   NORMALIZED FREE ENERGY PREDICTED BY IDOCK:   -5.16 KCAL/MOL
REMARK 922        TOTAL FREE ENERGY PREDICTED BY IDOCK:   -7.65 KCAL/MOL
REMARK 923 INTER-LIGAND FREE ENERGY PREDICTED BY IDOCK:   -6.14 KCAL/MOL
REMARK 924 INTRA-LIGAND FREE ENERGY PREDICTED BY IDOCK:   -1.51 KCAL/MOL
REMARK 927      BINDING AFFINITY PREDICTED BY RF-SCORE:    0.00 PKD
ROOT
HETATM    1  C   UNL     1      -9.428   7.806  73.797  1.00  0.00    -0.241 C  
HETATM    2  C   UNL     1      -9.152   8.458  72.476  1.00  0.00    -0.326 C  
HETATM    3  C   UNL     1     -10.058   8.843  71.559  1.00  0.00    -0.324 C  
HETATM    4  O   UNL     1      -9.761   9.550  70.410  1.00  0.00    -0.242 OA 
HETATM    5  C   UNL     1      -8.162  10.567  68.946  1.00  0.00    -0.141 A  
HETATM    6  C   UNL     1      -6.812  10.730  68.562  1.00  0.00    -0.062 A  
HETATM    7  C   UNL     1      -8.456   9.834  70.102  1.00  0.00    -0.174 A  
HETATM    8  C   UNL     1      -7.409   9.370  70.896  1.00  0.00    -0.095 A  
HETATM    9  C   UNL     1      -5.774  10.204  69.328  1.00  0.00    -0.037 A  
HETATM   10  O   UNL     1      -6.825   8.338  72.918  1.00  0.00    -0.095 OA 
HETATM   11  C   UNL     1      -6.073   9.544  70.512  1.00  0.00    -0.065 A  
HETATM   12  C   UNL     1      -7.722   8.696  72.165  1.00  0.00    -0.017 C  
ENDROOT
BRANCH   3  13
HETATM   13  C   UNL     1     -11.487   8.510  71.654  1.00  0.00    -0.365 A  
HETATM   14  C   UNL     1     -13.319   6.978  71.187  1.00  0.00    -0.188 A  
HETATM   15  C   UNL     1     -13.764   9.099  72.253  1.00  0.00    -0.548 A  
HETATM   16  C   UNL     1     -12.401   9.413  72.207  1.00  0.00    -0.298 A  
HETATM   17  C   UNL     1     -11.957   7.289  71.145  1.00  0.00    -0.363 A  
HETATM   18  C   UNL     1     -14.222   7.884  71.741  1.00  0.00    -0.555 A  
ENDBRANCH   3  13
BRANCH   5  19
HETATM   19  C   UNL     1      -9.260  11.117  68.097  1.00  0.00    -0.166 C  
HETATM   20  O   UNL     1      -9.522  12.295  67.911  1.00  0.00    -0.187 OA 
BRANCH  19  21
HETATM   21  O   UNL     1      -9.984  10.086  67.587  1.00  0.00    -0.163 OA 
BRANCH  21  22
HETATM   22  C   UNL     1      -9.410   9.525  66.403  1.00  0.00    -0.179 C  
BRANCH  22  23
HETATM   23  C   UNL     1      -9.749   8.021  66.360  1.00  0.00    -0.185 C  
BRANCH  23  24
HETATM   24  N   UNL     1      -9.990   7.388  67.679  1.00  0.00    -0.156 NA 
HETATM   25  C   UNL     1     -11.002   6.321  67.649  1.00  0.00    -0.342 C  
HETATM   26  C   UNL     1     -10.592   5.157  66.753  1.00  0.00    -0.266 C  
HETATM   27  C   UNL     1      -9.220   4.602  67.135  1.00  0.00    -0.140 C  
HETATM   28  C   UNL     1      -8.178   5.680  67.448  1.00  0.00    -0.101 C  
HETATM   29  C   UNL     1      -8.751   6.844  68.257  1.00  0.00    -0.123 C  
ENDBRANCH  23  24
ENDBRANCH  22  23
ENDBRANCH  21  22
ENDBRANCH  19  21
ENDBRANCH   5  19
TORSDOF 6
ENDMDL
MODEL      125
REMARK 921   NORMALIZED FREE ENERGY PREDICTED BY IDOCK:   -5.15 KCAL/MOL
REMARK 922        TOTAL FREE ENERGY PREDICTED BY IDOCK:   -7.65 KCAL/MOL
REMARK 923 INTER-LIGAND FREE ENERGY PREDICTED BY IDOCK:   -6.89 KCAL/MOL
REMARK 924 INTRA-LIGAND FREE ENERGY PREDICTED BY IDOCK:   -0.75 KCAL/MOL
REMARK 927      BINDING AFFINITY PREDICTED BY RF-SCORE:    0.00 PKD
ROOT
HETATM    1  C   UNL     1      -9.009   5.451  70.192  1.00  0.00    -0.157 C  
HETATM    2  C   UNL     1      -9.158   6.428  69.066  1.00  0.00    -0.130 C  
HETATM    3  C   UNL     1      -9.928   7.532  69.047  1.00  0.00    -0.175 C  
HETATM    4  O   UNL     1      -9.938   8.466  68.030  1.00  0.00    -0.167 OA 
HETATM    5  C   UNL     1      -9.185   9.215  65.884  1.00  0.00    -0.286 A  
HETATM    6  C   UNL     1      -8.523   8.925  64.670  1.00  0.00    -0.185 A  
HETATM    7  C   UNL     1      -9.186   8.256  66.904  1.00  0.00    -0.158 A  
HETATM    8  C   UNL     1      -8.451   7.084  66.734  1.00  0.00    -0.118 A  
HETATM    9  C   UNL     1      -7.847   7.721  64.486  1.00  0.00    -0.138 A  
HETATM   10  O   UNL     1      -7.671   5.124  67.757  1.00  0.00    -0.086 OA 
HETATM   11  C   UNL     1      -7.790   6.808  65.530  1.00  0.00    -0.112 A  
HETATM   12  C   UNL     1      -8.364   6.129  67.849  1.00  0.00    -0.117 C  
ENDROOT
BRANCH   3  13
HETATM   13  C   UNL     1     -10.896   7.851  70.107  1.00  0.00    -0.243 A  
HETATM   14  C   UNL     1     -12.817   7.209  71.456  1.00  0.00    -0.434 A  
HETATM   15  C   UNL     1     -11.856   9.411  71.699  1.00  0.00    -0.464 A  
HETATM   16  C   UNL     1     -10.903   9.107  70.721  1.00  0.00    -0.331 A  
HETATM   17  C   UNL     1     -11.862   6.903  70.483  1.00  0.00    -0.385 A  
HETATM   18  C   UNL     1     -12.814   8.464  72.063  1.00  0.00    -0.389 A  
ENDBRANCH   3  13
BRANCH   5  19
HETATM   19  C   UNL     1      -9.925  10.501  66.052  1.00  0.00    -0.237 C  
HETATM   20  O   UNL     1     -10.942  10.843  65.470  1.00  0.00    -0.106 OA 
BRANCH  19  21
HETATM   21  O   UNL     1      -9.252  11.285  66.935  1.00  0.00    -0.169 OA 
BRANCH  21  22
HETATM   22  C   UNL     1     -10.109  12.145  67.692  1.00  0.00    -0.199 C  
BRANCH  22  23
HETATM   23  C   UNL     1      -9.829  13.604  67.277  1.00  0.00    -0.241 C  
BRANCH  23  24
HETATM   24  N   UNL     1     -10.972  14.315  66.654  1.00  0.00    -0.305 NA 
HETATM   25  C   UNL     1     -12.004  14.735  67.614  1.00  0.00    -0.213 C  
HETATM   26  C   UNL     1     -11.471  15.729  68.642  1.00  0.00    -0.389 C  
HETATM   27  C   UNL     1     -10.815  16.938  67.976  1.00  0.00    -0.338 C  
HETATM   28  C   UNL     1      -9.926  16.583  66.780  1.00  0.00    -0.281 C  
HETATM   29  C   UNL     1     -10.531  15.494  65.892  1.00  0.00    -0.342 C  
ENDBRANCH  23  24
ENDBRANCH  22  23
ENDBRANCH  21  22
ENDBRANCH  19  21
ENDBRANCH   5  19
TORSDOF 6
ENDMDL
MODEL      126
REMARK 921   NORMALIZED FREE ENERGY PREDICTED BY IDOCK:   -5.13 KCAL/MOL
REMARK 922        TOTAL FREE ENERGY PREDICTED BY IDOCK:   -7.62 KCAL/MOL
REMARK 923 INTER-LIGAND FREE ENERGY PREDICTED BY IDOCK:   -6.43 KCAL/MOL
REMARK 924 INTRA-LIGAND FREE ENERGY PREDICTED BY IDOCK:   -1.20 KCAL/MOL
REMARK 927      BINDING AFFINITY PREDICTED BY RF-SCORE:    0.00 PKD
ROOT
HETATM    1  C   UNL     1     -12.408  15.316  64.474  1.00  0.00    -0.144 C  
HETATM    2  C   UNL     1     -11.354  14.298  64.789  1.00  0.00    -0.382 C  
HETATM    3  C   UNL     1     -10.400  14.387  65.735  1.00  0.00    -0.326 C  
HETATM    4  O   UNL     1      -9.527  13.369  66.067  1.00  0.00    -0.207 OA 
HETATM    5  C   UNL     1      -8.671  11.161  65.713  1.00  0.00    -0.153 A  
HETATM    6  C   UNL     1      -8.597  10.015  64.891  1.00  0.00    -0.184 A  
HETATM    7  C   UNL     1      -9.546  12.197  65.359  1.00  0.00    -0.096 A  
HETATM    8  C   UNL     1     -10.389  12.027  64.263  1.00  0.00    -0.357 A  
HETATM    9  C   UNL     1      -9.398   9.885  63.759  1.00  0.00    -0.250 A  
HETATM   10  O   UNL     1     -12.184  12.919  63.048  1.00  0.00    -0.449 OA 
HETATM   11  C   UNL     1     -10.315  10.883  63.458  1.00  0.00    -0.342 A  
HETATM   12  C   UNL     1     -11.382  13.069  63.961  1.00  0.00    -0.410 C  
ENDROOT
BRANCH   3  13
HETATM   13  C   UNL     1     -10.145  15.614  66.503  1.00  0.00    -0.293 A  
HETATM   14  C   UNL     1     -10.580  16.992  68.461  1.00  0.00    -0.370 A  
HETATM   15  C   UNL     1      -9.113  17.799  66.722  1.00  0.00    -0.273 A  
HETATM   16  C   UNL     1      -9.313  16.619  65.999  1.00  0.00    -0.270 A  
HETATM   17  C   UNL     1     -10.778  15.810  67.741  1.00  0.00    -0.307 A  
HETATM   18  C   UNL     1      -9.748  17.987  67.950  1.00  0.00    -0.297 A  
ENDBRANCH   3  13
BRANCH   5  19
HETATM   19  C   UNL     1      -7.786  11.292  66.908  1.00  0.00    -0.152 C  
HETATM   20  O   UNL     1      -6.766  11.957  66.995  1.00  0.00    -0.139 OA 
BRANCH  19  21
HETATM   21  O   UNL     1      -8.264  10.496  67.902  1.00  0.00    -0.106 OA 
BRANCH  21  22
HETATM   22  C   UNL     1      -7.382   9.422  68.237  1.00  0.00    -0.078 C  
BRANCH  22  23
HETATM   23  C   UNL     1      -8.210   8.126  68.353  1.00  0.00    -0.129 C  
BRANCH  23  24
HETATM   24  N   UNL     1      -7.462   6.871  68.095  1.00  0.00    -0.097 NA 
HETATM   25  C   UNL     1      -8.165   5.659  68.543  1.00  0.00    -0.106 C  
HETATM   26  C   UNL     1      -9.489   5.453  67.813  1.00  0.00    -0.132 C  
HETATM   27  C   UNL     1      -9.306   5.454  66.295  1.00  0.00    -0.163 C  
HETATM   28  C   UNL     1      -8.357   6.541  65.784  1.00  0.00    -0.143 C  
HETATM   29  C   UNL     1      -7.124   6.720  66.672  1.00  0.00    -0.072 C  
ENDBRANCH  23  24
ENDBRANCH  22  23
ENDBRANCH  21  22
ENDBRANCH  19  21
ENDBRANCH   5  19
TORSDOF 6
ENDMDL
MODEL      127
REMARK 921   NORMALIZED FREE ENERGY PREDICTED BY IDOCK:   -5.13 KCAL/MOL
REMARK 922        TOTAL FREE ENERGY PREDICTED BY IDOCK:   -7.62 KCAL/MOL
REMARK 923 INTER-LIGAND FREE ENERGY PREDICTED BY IDOCK:   -5.85 KCAL/MOL
REMARK 924 INTRA-LIGAND FREE ENERGY PREDICTED BY IDOCK:   -1.77 KCAL/MOL
REMARK 927      BINDING AFFINITY PREDICTED BY RF-SCORE:    0.00 PKD
ROOT
HETATM    1  C   UNL     1      -6.013  13.700  70.800  1.00  0.00    -0.130 C  
HETATM    2  C   UNL     1      -6.569  12.754  69.779  1.00  0.00     0.071 C  
HETATM    3  C   UNL     1      -7.205  13.076  68.638  1.00  0.00    -0.101 C  
HETATM    4  O   UNL     1      -7.592  12.169  67.671  1.00  0.00    -0.119 OA 
HETATM    5  C   UNL     1      -7.784   9.913  66.891  1.00  0.00    -0.098 A  
HETATM    6  C   UNL     1      -7.723   8.531  67.173  1.00  0.00    -0.097 A  
HETATM    7  C   UNL     1      -7.406  10.828  67.882  1.00  0.00    -0.088 A  
HETATM    8  C   UNL     1      -6.888  10.350  69.083  1.00  0.00    -0.066 A  
HETATM    9  C   UNL     1      -7.265   8.065  68.404  1.00  0.00    -0.089 A  
HETATM   10  O   UNL     1      -5.866  10.924  71.113  1.00  0.00    -0.331 OA 
HETATM   11  C   UNL     1      -6.822   8.976  69.352  1.00  0.00    -0.049 A  
HETATM   12  C   UNL     1      -6.391  11.313  70.078  1.00  0.00    -0.140 C  
ENDROOT
BRANCH   3  13
HETATM   13  C   UNL     1      -7.606  14.451  68.305  1.00  0.00    -0.124 A  
HETATM   14  C   UNL     1      -9.025  16.382  68.726  1.00  0.00    -0.245 A  
HETATM   15  C   UNL     1      -7.465  16.413  66.883  1.00  0.00    -0.269 A  
HETATM   16  C   UNL     1      -7.043  15.121  67.213  1.00  0.00    -0.161 A  
HETATM   17  C   UNL     1      -8.601  15.093  69.059  1.00  0.00    -0.219 A  
HETATM   18  C   UNL     1      -8.457  17.042  67.637  1.00  0.00    -0.210 A  
ENDBRANCH   3  13
BRANCH   5  19
HETATM   19  C   UNL     1      -8.301  10.392  65.574  1.00  0.00    -0.168 C  
HETATM   20  O   UNL     1      -7.654  10.571  64.554  1.00  0.00    -0.078 OA 
BRANCH  19  21
HETATM   21  O   UNL     1      -9.628  10.662  65.692  1.00  0.00    -0.194 OA 
BRANCH  21  22
HETATM   22  C   UNL     1     -10.282  10.836  64.432  1.00  0.00    -0.364 C  
BRANCH  22  23
HETATM   23  C   UNL     1     -10.511  12.344  64.204  1.00  0.00    -0.389 C  
BRANCH  23  24
HETATM   24  N   UNL     1     -11.875  12.833  64.525  1.00  0.00    -0.356 NA 
HETATM   25  C   UNL     1     -12.217  12.742  65.953  1.00  0.00    -0.359 C  
HETATM   26  C   UNL     1     -11.305  13.600  66.824  1.00  0.00    -0.346 C  
HETATM   27  C   UNL     1     -11.278  15.055  66.356  1.00  0.00    -0.310 C  
HETATM   28  C   UNL     1     -11.194  15.219  64.836  1.00  0.00    -0.422 C  
HETATM   29  C   UNL     1     -12.074  14.221  64.081  1.00  0.00    -0.393 C  
ENDBRANCH  23  24
ENDBRANCH  22  23
ENDBRANCH  21  22
ENDBRANCH  19  21
ENDBRANCH   5  19
TORSDOF 6
ENDMDL
MODEL      128
REMARK 921   NORMALIZED FREE ENERGY PREDICTED BY IDOCK:   -5.13 KCAL/MOL
REMARK 922        TOTAL FREE ENERGY PREDICTED BY IDOCK:   -7.61 KCAL/MOL
REMARK 923 INTER-LIGAND FREE ENERGY PREDICTED BY IDOCK:   -6.51 KCAL/MOL
REMARK 924 INTRA-LIGAND FREE ENERGY PREDICTED BY IDOCK:   -1.10 KCAL/MOL
REMARK 927      BINDING AFFINITY PREDICTED BY RF-SCORE:    0.00 PKD
ROOT
HETATM    1  C   UNL     1      -9.928   2.766  72.365  1.00  0.00    -0.235 C  
HETATM    2  C   UNL     1     -10.015   4.080  71.649  1.00  0.00    -0.232 C  
HETATM    3  C   UNL     1      -9.539   4.366  70.423  1.00  0.00    -0.196 C  
HETATM    4  O   UNL     1      -9.751   5.558  69.758  1.00  0.00    -0.155 OA 
HETATM    5  C   UNL     1     -10.648   7.777  69.696  1.00  0.00    -0.242 A  
HETATM    6  C   UNL     1     -11.209   8.870  70.393  1.00  0.00    -0.259 A  
HETATM    7  C   UNL     1     -10.420   6.578  70.382  1.00  0.00    -0.212 A  
HETATM    8  C   UNL     1     -10.843   6.462  71.705  1.00  0.00    -0.291 A  
HETATM    9  C   UNL     1     -11.567   8.764  71.735  1.00  0.00    -0.416 A  
HETATM   10  O   UNL     1     -11.125   5.013  73.525  1.00  0.00    -0.304 OA 
HETATM   11  C   UNL     1     -11.407   7.549  72.386  1.00  0.00    -0.360 A  
HETATM   12  C   UNL     1     -10.701   5.167  72.387  1.00  0.00    -0.216 C  
ENDROOT
BRANCH   3  13
HETATM   13  C   UNL     1      -8.687   3.444  69.658  1.00  0.00    -0.129 A  
HETATM   14  C   UNL     1      -8.472   1.665  68.012  1.00  0.00    -0.087 A  
HETATM   15  C   UNL     1      -6.517   2.468  69.181  1.00  0.00    -0.029 A  
HETATM   16  C   UNL     1      -7.309   3.379  69.887  1.00  0.00    -0.041 A  
HETATM   17  C   UNL     1      -9.263   2.579  68.714  1.00  0.00    -0.227 A  
HETATM   18  C   UNL     1      -7.099   1.609  68.247  1.00  0.00    -0.039 A  
ENDBRANCH   3  13
BRANCH   5  19
HETATM   19  C   UNL     1     -10.249   7.920  68.264  1.00  0.00    -0.203 C  
HETATM   20  O   UNL     1     -10.802   7.422  67.297  1.00  0.00    -0.301 OA 
BRANCH  19  21
HETATM   21  O   UNL     1      -9.113   8.663  68.194  1.00  0.00    -0.140 OA 
BRANCH  21  22
HETATM   22  C   UNL     1      -9.068   9.518  67.048  1.00  0.00    -0.134 C  
BRANCH  22  23
HETATM   23  C   UNL     1      -9.608  10.905  67.450  1.00  0.00    -0.163 C  
BRANCH  23  24
HETATM   24  N   UNL     1     -11.074  11.082  67.301  1.00  0.00    -0.301 NA 
HETATM   25  C   UNL     1     -11.718  11.698  68.472  1.00  0.00    -0.315 C  
HETATM   26  C   UNL     1     -11.204  13.109  68.742  1.00  0.00    -0.323 C  
HETATM   27  C   UNL     1     -11.330  14.004  67.509  1.00  0.00    -0.343 C  
HETATM   28  C   UNL     1     -10.923  13.322  66.200  1.00  0.00    -0.292 C  
HETATM   29  C   UNL     1     -11.409  11.874  66.108  1.00  0.00    -0.324 C  
ENDBRANCH  23  24
ENDBRANCH  22  23
ENDBRANCH  21  22
ENDBRANCH  19  21
ENDBRANCH   5  19
TORSDOF 6
ENDMDL
MODEL      129
REMARK 921   NORMALIZED FREE ENERGY PREDICTED BY IDOCK:   -5.11 KCAL/MOL
REMARK 922        TOTAL FREE ENERGY PREDICTED BY IDOCK:   -7.58 KCAL/MOL
REMARK 923 INTER-LIGAND FREE ENERGY PREDICTED BY IDOCK:   -6.24 KCAL/MOL
REMARK 924 INTRA-LIGAND FREE ENERGY PREDICTED BY IDOCK:   -1.34 KCAL/MOL
REMARK 927      BINDING AFFINITY PREDICTED BY RF-SCORE:    0.00 PKD
ROOT
HETATM    1  C   UNL     1     -11.772  11.651  67.153  1.00  0.00    -0.215 C  
HETATM    2  C   UNL     1     -10.425  11.379  67.750  1.00  0.00    -0.215 C  
HETATM    3  C   UNL     1     -10.166  10.919  68.988  1.00  0.00    -0.203 C  
HETATM    4  O   UNL     1      -8.912  10.569  69.450  1.00  0.00    -0.170 OA 
HETATM    5  C   UNL     1      -6.548  10.387  69.119  1.00  0.00    -0.054 A  
HETATM    6  C   UNL     1      -5.409  10.719  68.352  1.00  0.00    -0.040 A  
HETATM    7  C   UNL     1      -7.814  10.761  68.653  1.00  0.00    -0.122 A  
HETATM    8  C   UNL     1      -7.926  11.361  67.401  1.00  0.00    -0.139 A  
HETATM    9  C   UNL     1      -5.527  11.380  67.131  1.00  0.00    -0.081 A  
HETATM   10  O   UNL     1      -9.401  12.115  65.742  1.00  0.00    -0.194 OA 
HETATM   11  C   UNL     1      -6.792  11.679  66.642  1.00  0.00    -0.032 A  
HETATM   12  C   UNL     1      -9.265  11.652  66.867  1.00  0.00    -0.184 C  
ENDROOT
BRANCH   3  13
HETATM   13  C   UNL     1     -11.201  10.776  70.023  1.00  0.00    -0.366 A  
HETATM   14  C   UNL     1     -12.971  11.764  71.369  1.00  0.00    -0.408 A  
HETATM   15  C   UNL     1     -12.323   9.466  71.730  1.00  0.00    -0.471 A  
HETATM   16  C   UNL     1     -11.362   9.574  70.719  1.00  0.00    -0.387 A  
HETATM   17  C   UNL     1     -12.014  11.871  70.356  1.00  0.00    -0.400 A  
HETATM   18  C   UNL     1     -13.125  10.561  72.056  1.00  0.00    -0.511 A  
ENDBRANCH   3  13
BRANCH   5  19
HETATM   19  C   UNL     1      -6.396   9.701  70.437  1.00  0.00    -0.081 C  
HETATM   20  O   UNL     1      -6.086  10.216  71.499  1.00  0.00    -0.310 OA 
BRANCH  19  21
HETATM   21  O   UNL     1      -6.608   8.369  70.268  1.00  0.00    -0.035 OA 
BRANCH  21  22
HETATM   22  C   UNL     1      -6.873   7.680  71.494  1.00  0.00    -0.049 C  
BRANCH  22  23
HETATM   23  C   UNL     1      -8.380   7.359  71.559  1.00  0.00    -0.108 C  
BRANCH  23  24
HETATM   24  N   UNL     1      -8.713   5.941  71.845  1.00  0.00    -0.138 NA 
HETATM   25  C   UNL     1      -9.317   5.730  73.170  1.00  0.00    -0.139 C  
HETATM   26  C   UNL     1     -10.648   6.458  73.324  1.00  0.00    -0.291 C  
HETATM   27  C   UNL     1     -11.628   6.092  72.208  1.00  0.00    -0.362 C  
HETATM   28  C   UNL     1     -10.991   6.030  70.817  1.00  0.00    -0.364 C  
HETATM   29  C   UNL     1      -9.608   5.375  70.825  1.00  0.00    -0.173 C  
ENDBRANCH  23  24
ENDBRANCH  22  23
ENDBRANCH  21  22
ENDBRANCH  19  21
ENDBRANCH   5  19
TORSDOF 6
ENDMDL
MODEL      130
REMARK 921   NORMALIZED FREE ENERGY PREDICTED BY IDOCK:   -5.07 KCAL/MOL
REMARK 922        TOTAL FREE ENERGY PREDICTED BY IDOCK:   -7.54 KCAL/MOL
REMARK 923 INTER-LIGAND FREE ENERGY PREDICTED BY IDOCK:   -6.24 KCAL/MOL
REMARK 924 INTRA-LIGAND FREE ENERGY PREDICTED BY IDOCK:   -1.30 KCAL/MOL
REMARK 927      BINDING AFFINITY PREDICTED BY RF-SCORE:    0.00 PKD
ROOT
HETATM    1  C   UNL     1      -9.494   3.028  68.657  1.00  0.00    -0.194 C  
HETATM    2  C   UNL     1      -9.550   4.190  69.603  1.00  0.00    -0.277 C  
HETATM    3  C   UNL     1      -9.291   5.479  69.317  1.00  0.00    -0.118 C  
HETATM    4  O   UNL     1      -9.475   6.530  70.195  1.00  0.00    -0.157 OA 
HETATM    5  C   UNL     1     -10.074   7.352  72.362  1.00  0.00    -0.228 A  
HETATM    6  C   UNL     1     -10.342   7.081  73.722  1.00  0.00    -0.408 A  
HETATM    7  C   UNL     1      -9.872   6.281  71.482  1.00  0.00    -0.173 A  
HETATM    8  C   UNL     1     -10.038   4.979  71.949  1.00  0.00    -0.257 A  
HETATM    9  C   UNL     1     -10.441   5.772  74.192  1.00  0.00    -0.266 A  
HETATM   10  O   UNL     1     -10.142   2.713  71.361  1.00  0.00    -0.079 OA 
HETATM   11  C   UNL     1     -10.313   4.719  73.297  1.00  0.00    -0.233 A  
HETATM   12  C   UNL     1      -9.933   3.863  70.997  1.00  0.00    -0.079 C  
ENDROOT
BRANCH   3  13
HETATM   13  C   UNL     1      -8.732   5.918  68.030  1.00  0.00    -0.111 A  
HETATM   14  C   UNL     1      -6.854   6.025  66.487  1.00  0.00    -0.062 A  
HETATM   15  C   UNL     1      -8.917   7.161  65.954  1.00  0.00    -0.098 A  
HETATM   16  C   UNL     1      -9.477   6.716  67.155  1.00  0.00    -0.158 A  
HETATM   17  C   UNL     1      -7.414   5.576  67.685  1.00  0.00    -0.081 A  
HETATM   18  C   UNL     1      -7.605   6.818  65.621  1.00  0.00    -0.090 A  
ENDBRANCH   3  13
BRANCH   5  19
HETATM   19  C   UNL     1      -9.948   8.761  71.884  1.00  0.00    -0.331 C  
HETATM   20  O   UNL     1      -8.914   9.385  71.709  1.00  0.00    -0.218 OA 
BRANCH  19  21
HETATM   21  O   UNL     1     -11.192   9.284  71.717  1.00  0.00    -0.362 OA 
BRANCH  21  22
HETATM   22  C   UNL     1     -11.593   9.357  70.346  1.00  0.00    -0.192 C  
BRANCH  22  23
HETATM   23  C   UNL     1     -11.512  10.828  69.890  1.00  0.00    -0.321 C  
BRANCH  23  24
HETATM   24  N   UNL     1     -11.851  11.070  68.466  1.00  0.00    -0.520 NA 
HETATM   25  C   UNL     1     -11.904  12.494  68.102  1.00  0.00    -0.317 C  
HETATM   26  C   UNL     1     -10.558  13.189  68.282  1.00  0.00    -0.260 C  
HETATM   27  C   UNL     1      -9.442  12.468  67.525  1.00  0.00    -0.185 C  
HETATM   28  C   UNL     1      -9.493  10.943  67.645  1.00  0.00    -0.170 C  
HETATM   29  C   UNL     1     -10.916  10.387  67.560  1.00  0.00    -0.295 C  
ENDBRANCH  23  24
ENDBRANCH  22  23
ENDBRANCH  21  22
ENDBRANCH  19  21
ENDBRANCH   5  19
TORSDOF 6
ENDMDL
MODEL      131
REMARK 921   NORMALIZED FREE ENERGY PREDICTED BY IDOCK:   -5.06 KCAL/MOL
REMARK 922        TOTAL FREE ENERGY PREDICTED BY IDOCK:   -7.52 KCAL/MOL
REMARK 923 INTER-LIGAND FREE ENERGY PREDICTED BY IDOCK:   -6.47 KCAL/MOL
REMARK 924 INTRA-LIGAND FREE ENERGY PREDICTED BY IDOCK:   -1.05 KCAL/MOL
REMARK 927      BINDING AFFINITY PREDICTED BY RF-SCORE:    0.00 PKD
ROOT
HETATM    1  C   UNL     1      -9.384   3.681  68.625  1.00  0.00    -0.228 C  
HETATM    2  C   UNL     1      -9.585   5.088  69.101  1.00  0.00    -0.220 C  
HETATM    3  C   UNL     1      -9.237   6.218  68.458  1.00  0.00    -0.123 C  
HETATM    4  O   UNL     1      -9.553   7.494  68.884  1.00  0.00    -0.149 OA 
HETATM    5  C   UNL     1     -10.533   8.967  70.497  1.00  0.00    -0.257 A  
HETATM    6  C   UNL     1     -11.066   9.153  71.792  1.00  0.00    -0.437 A  
HETATM    7  C   UNL     1     -10.198   7.673  70.079  1.00  0.00    -0.213 A  
HETATM    8  C   UNL     1     -10.491   6.594  70.911  1.00  0.00    -0.249 A  
HETATM    9  C   UNL     1     -11.293   8.073  72.642  1.00  0.00    -0.469 A  
HETATM   10  O   UNL     1     -10.549   4.259  71.102  1.00  0.00     0.116 OA 
HETATM   11  C   UNL     1     -11.028   6.787  72.190  1.00  0.00    -0.270 A  
HETATM   12  C   UNL     1     -10.239   5.230  70.424  1.00  0.00    -0.268 C  
ENDROOT
BRANCH   3  13
HETATM   13  C   UNL     1      -8.427   6.225  67.231  1.00  0.00    -0.108 A  
HETATM   14  C   UNL     1      -6.316   6.690  66.113  1.00  0.00    -0.042 A  
HETATM   15  C   UNL     1      -8.213   5.922  64.832  1.00  0.00    -0.135 A  
HETATM   16  C   UNL     1      -8.985   5.871  65.998  1.00  0.00    -0.159 A  
HETATM   17  C   UNL     1      -7.085   6.635  67.279  1.00  0.00    -0.080 A  
HETATM   18  C   UNL     1      -6.881   6.334  64.889  1.00  0.00    -0.050 A  
ENDBRANCH   3  13
BRANCH   5  19
HETATM   19  C   UNL     1     -10.274  10.141  69.611  1.00  0.00    -0.242 C  
HETATM   20  O   UNL     1      -9.263  10.823  69.576  1.00  0.00    -0.059 OA 
BRANCH  19  21
HETATM   21  O   UNL     1     -11.382  10.381  68.861  1.00  0.00    -0.249 OA 
BRANCH  21  22
HETATM   22  C   UNL     1     -11.095  10.557  67.471  1.00  0.00    -0.290 C  
BRANCH  22  23
HETATM   23  C   UNL     1     -11.858  11.798  66.966  1.00  0.00    -0.044 C  
BRANCH  23  24
HETATM   24  N   UNL     1     -11.050  13.038  66.858  1.00  0.00    -0.270 NA 
HETATM   25  C   UNL     1     -10.167  13.069  65.681  1.00  0.00    -0.287 C  
HETATM   26  C   UNL     1     -10.946  13.024  64.370  1.00  0.00    -0.400 C  
HETATM   27  C   UNL     1     -12.000  14.129  64.297  1.00  0.00    -0.460 C  
HETATM   28  C   UNL     1     -12.781  14.331  65.599  1.00  0.00    -0.395 C  
HETATM   29  C   UNL     1     -11.896  14.241  66.844  1.00  0.00    -0.433 C  
ENDBRANCH  23  24
ENDBRANCH  22  23
ENDBRANCH  21  22
ENDBRANCH  19  21
ENDBRANCH   5  19
TORSDOF 6
ENDMDL
MODEL      132
REMARK 921   NORMALIZED FREE ENERGY PREDICTED BY IDOCK:   -4.99 KCAL/MOL
REMARK 922        TOTAL FREE ENERGY PREDICTED BY IDOCK:   -7.43 KCAL/MOL
REMARK 923 INTER-LIGAND FREE ENERGY PREDICTED BY IDOCK:   -7.98 KCAL/MOL
REMARK 924 INTRA-LIGAND FREE ENERGY PREDICTED BY IDOCK:    0.55 KCAL/MOL
REMARK 927      BINDING AFFINITY PREDICTED BY RF-SCORE:    0.00 PKD
ROOT
HETATM    1  C   UNL     1      -9.439  20.354  66.987  1.00  0.00    -0.544 C  
HETATM    2  C   UNL     1      -9.347  18.867  66.825  1.00  0.00    -0.343 C  
HETATM    3  C   UNL     1      -8.511  18.032  67.469  1.00  0.00    -0.237 C  
HETATM    4  O   UNL     1      -8.548  16.655  67.373  1.00  0.00    -0.185 OA 
HETATM    5  C   UNL     1      -9.477  14.658  66.435  1.00  0.00    -0.325 A  
HETATM    6  C   UNL     1     -10.285  14.053  65.447  1.00  0.00    -0.368 A  
HETATM    7  C   UNL     1      -9.431  16.055  66.514  1.00  0.00    -0.271 A  
HETATM    8  C   UNL     1     -10.257  16.809  65.684  1.00  0.00    -0.258 A  
HETATM    9  C   UNL     1     -11.057  14.819  64.577  1.00  0.00    -0.260 A  
HETATM   10  O   UNL     1     -11.052  18.955  65.179  1.00  0.00    -0.399 OA 
HETATM   11  C   UNL     1     -11.062  16.201  64.712  1.00  0.00    -0.345 A  
HETATM   12  C   UNL     1     -10.287  18.271  65.845  1.00  0.00    -0.284 C  
ENDROOT
BRANCH   3  13
HETATM   13  C   UNL     1      -7.414  18.502  68.328  1.00  0.00    -0.298 A  
HETATM   14  C   UNL     1      -5.685  18.024  69.972  1.00  0.00    -0.238 A  
HETATM   15  C   UNL     1      -6.076  20.299  69.263  1.00  0.00    -0.371 A  
HETATM   16  C   UNL     1      -7.095  19.862  68.410  1.00  0.00    -0.330 A  
HETATM   17  C   UNL     1      -6.699  17.586  69.117  1.00  0.00    -0.243 A  
HETATM   18  C   UNL     1      -5.374  19.381  70.045  1.00  0.00    -0.229 A  
ENDBRANCH   3  13
BRANCH   5  19
HETATM   19  C   UNL     1      -8.638  13.818  67.342  1.00  0.00    -0.203 C  
HETATM   20  O   UNL     1      -7.821  14.214  68.158  1.00  0.00    -0.120 OA 
BRANCH  19  21
HETATM   21  O   UNL     1      -8.884  12.506  67.083  1.00  0.00    -0.188 OA 
BRANCH  21  22
HETATM   22  C   UNL     1      -9.739  11.891  68.051  1.00  0.00    -0.191 C  
BRANCH  22  23
HETATM   23  C   UNL     1     -10.336  12.994  68.948  1.00  0.00    -0.045 C  
BRANCH  23  24
HETATM   24  N   UNL     1     -11.818  13.044  68.989  1.00  0.00    -0.317 NA 
HETATM   25  C   UNL     1     -12.375  13.021  70.350  1.00  0.00    -0.277 C  
HETATM   26  C   UNL     1     -11.944  14.230  71.174  1.00  0.00    -0.354 C  
HETATM   27  C   UNL     1     -12.274  15.545  70.468  1.00  0.00    -0.444 C  
HETATM   28  C   UNL     1     -11.963  15.541  68.969  1.00  0.00    -0.323 C  
HETATM   29  C   UNL     1     -12.343  14.225  68.286  1.00  0.00     0.011 C  
ENDBRANCH  23  24
ENDBRANCH  22  23
ENDBRANCH  21  22
ENDBRANCH  19  21
ENDBRANCH   5  19
TORSDOF 6
ENDMDL
MODEL      133
REMARK 921   NORMALIZED FREE ENERGY PREDICTED BY IDOCK:   -4.97 KCAL/MOL
REMARK 922        TOTAL FREE ENERGY PREDICTED BY IDOCK:   -7.40 KCAL/MOL
REMARK 923 INTER-LIGAND FREE ENERGY PREDICTED BY IDOCK:   -6.41 KCAL/MOL
REMARK 924 INTRA-LIGAND FREE ENERGY PREDICTED BY IDOCK:   -0.99 KCAL/MOL
REMARK 927      BINDING AFFINITY PREDICTED BY RF-SCORE:    0.00 PKD
ROOT
HETATM    1  C   UNL     1      -5.222  13.063  67.427  1.00  0.00     0.064 C  
HETATM    2  C   UNL     1      -6.535  13.702  67.766  1.00  0.00    -0.178 C  
HETATM    3  C   UNL     1      -7.616  13.099  68.295  1.00  0.00    -0.139 C  
HETATM    4  O   UNL     1      -8.761  13.755  68.702  1.00  0.00    -0.147 OA 
HETATM    5  C   UNL     1     -10.036  15.769  68.932  1.00  0.00    -0.223 A  
HETATM    6  C   UNL     1     -10.214  17.128  68.593  1.00  0.00    -0.336 A  
HETATM    7  C   UNL     1      -8.881  15.105  68.500  1.00  0.00    -0.185 A  
HETATM    8  C   UNL     1      -7.892  15.827  67.835  1.00  0.00    -0.149 A  
HETATM    9  C   UNL     1      -9.248  17.824  67.868  1.00  0.00    -0.265 A  
HETATM   10  O   UNL     1      -5.720  15.777  66.958  1.00  0.00    -0.317 OA 
HETATM   11  C   UNL     1      -8.073  17.178  67.510  1.00  0.00    -0.196 A  
HETATM   12  C   UNL     1      -6.634  15.153  67.481  1.00  0.00    -0.138 C  
ENDROOT
BRANCH   3  13
HETATM   13  C   UNL     1      -7.719  11.642  68.461  1.00  0.00    -0.134 A  
HETATM   14  C   UNL     1      -7.031   9.606  69.603  1.00  0.00    -0.071 A  
HETATM   15  C   UNL     1      -8.570   9.483  67.747  1.00  0.00    -0.115 A  
HETATM   16  C   UNL     1      -8.514  10.874  67.603  1.00  0.00    -0.123 A  
HETATM   17  C   UNL     1      -6.978  10.996  69.463  1.00  0.00    -0.126 A  
HETATM   18  C   UNL     1      -7.827   8.850  68.744  1.00  0.00    -0.101 A  
ENDBRANCH   3  13
BRANCH   5  19
HETATM   19  C   UNL     1     -11.094  15.035  69.688  1.00  0.00    -0.273 C  
HETATM   20  O   UNL     1     -11.795  15.478  70.583  1.00  0.00    -0.302 OA 
BRANCH  19  21
HETATM   21  O   UNL     1     -11.130  13.745  69.258  1.00  0.00    -0.251 OA 
BRANCH  21  22
HETATM   22  C   UNL     1     -12.222  13.476  68.374  1.00  0.00    -0.115 C  
BRANCH  22  23
HETATM   23  C   UNL     1     -11.795  12.363  67.395  1.00  0.00    -0.289 C  
BRANCH  23  24
HETATM   24  N   UNL     1     -12.219  12.562  65.987  1.00  0.00    -0.620 NA 
HETATM   25  C   UNL     1     -12.612  13.945  65.676  1.00  0.00    -0.517 C  
HETATM   26  C   UNL     1     -11.461  14.930  65.855  1.00  0.00    -0.276 C  
HETATM   27  C   UNL     1     -10.228  14.514  65.052  1.00  0.00    -0.398 C  
HETATM   28  C   UNL     1      -9.919  13.016  65.118  1.00  0.00    -0.170 C  
HETATM   29  C   UNL     1     -11.174  12.145  65.039  1.00  0.00    -0.322 C  
ENDBRANCH  23  24
ENDBRANCH  22  23
ENDBRANCH  21  22
ENDBRANCH  19  21
ENDBRANCH   5  19
TORSDOF 6
ENDMDL
MODEL      134
REMARK 921   NORMALIZED FREE ENERGY PREDICTED BY IDOCK:   -4.94 KCAL/MOL
REMARK 922        TOTAL FREE ENERGY PREDICTED BY IDOCK:   -7.36 KCAL/MOL
REMARK 923 INTER-LIGAND FREE ENERGY PREDICTED BY IDOCK:   -6.04 KCAL/MOL
REMARK 924 INTRA-LIGAND FREE ENERGY PREDICTED BY IDOCK:   -1.32 KCAL/MOL
REMARK 927      BINDING AFFINITY PREDICTED BY RF-SCORE:    0.00 PKD
ROOT
HETATM    1  C   UNL     1      -5.461  14.972  70.515  1.00  0.00    -0.136 C  
HETATM    2  C   UNL     1      -6.453  15.189  69.413  1.00  0.00    -0.136 C  
HETATM    3  C   UNL     1      -7.004  14.249  68.623  1.00  0.00    -0.105 C  
HETATM    4  O   UNL     1      -8.005  14.486  67.701  1.00  0.00    -0.148 OA 
HETATM    5  C   UNL     1      -9.473  15.997  66.564  1.00  0.00    -0.297 A  
HETATM    6  C   UNL     1      -9.821  17.328  66.244  1.00  0.00    -0.299 A  
HETATM    7  C   UNL     1      -8.445  15.765  67.486  1.00  0.00    -0.168 A  
HETATM    8  C   UNL     1      -7.860  16.850  68.137  1.00  0.00    -0.189 A  
HETATM    9  C   UNL     1      -9.183  18.408  66.852  1.00  0.00    -0.287 A  
HETATM   10  O   UNL     1      -6.377  17.523  69.821  1.00  0.00    -0.233 OA 
HETATM   11  C   UNL     1      -8.217  18.167  67.820  1.00  0.00    -0.245 A  
HETATM   12  C   UNL     1      -6.859  16.596  69.183  1.00  0.00    -0.224 C  
ENDROOT
BRANCH   3  13
HETATM   13  C   UNL     1      -6.563  12.846  68.619  1.00  0.00    -0.091 A  
HETATM   14  C   UNL     1      -6.666  10.613  69.580  1.00  0.00    -0.116 A  
HETATM   15  C   UNL     1      -5.131  11.078  67.775  1.00  0.00    -0.040 A  
HETATM   16  C   UNL     1      -5.570  12.406  67.738  1.00  0.00    -0.099 A  
HETATM   17  C   UNL     1      -7.108  11.938  69.541  1.00  0.00     0.127 A  
HETATM   18  C   UNL     1      -5.676  10.184  68.697  1.00  0.00    -0.038 A  
ENDBRANCH   3  13
BRANCH   5  19
HETATM   19  C   UNL     1     -10.153  14.855  65.882  1.00  0.00    -0.325 C  
HETATM   20  O   UNL     1     -10.274  14.687  64.680  1.00  0.00    -0.298 OA 
BRANCH  19  21
HETATM   21  O   UNL     1     -10.682  14.030  66.824  1.00  0.00    -0.282 OA 
BRANCH  21  22
HETATM   22  C   UNL     1     -12.066  14.282  67.082  1.00  0.00    -0.377 C  
BRANCH  22  23
HETATM   23  C   UNL     1     -12.195  14.917  68.481  1.00  0.00    -0.049 C  
BRANCH  23  24
HETATM   24  N   UNL     1     -11.295  14.355  69.518  1.00  0.00    -0.267 NA 
HETATM   25  C   UNL     1     -10.422  15.356  70.151  1.00  0.00    -0.272 C  
HETATM   26  C   UNL     1     -11.212  16.429  70.894  1.00  0.00    -0.167 C  
HETATM   27  C   UNL     1     -12.178  15.820  71.911  1.00  0.00    -0.538 C  
HETATM   28  C   UNL     1     -12.931  14.590  71.394  1.00  0.00    -0.403 C  
HETATM   29  C   UNL     1     -12.046  13.654  70.570  1.00  0.00    -0.339 C  
ENDBRANCH  23  24
ENDBRANCH  22  23
ENDBRANCH  21  22
ENDBRANCH  19  21
ENDBRANCH   5  19
TORSDOF 6
ENDMDL
MODEL      135
REMARK 921   NORMALIZED FREE ENERGY PREDICTED BY IDOCK:   -4.90 KCAL/MOL
REMARK 922        TOTAL FREE ENERGY PREDICTED BY IDOCK:   -7.31 KCAL/MOL
REMARK 923 INTER-LIGAND FREE ENERGY PREDICTED BY IDOCK:   -5.95 KCAL/MOL
REMARK 924 INTRA-LIGAND FREE ENERGY PREDICTED BY IDOCK:   -1.36 KCAL/MOL
REMARK 927      BINDING AFFINITY PREDICTED BY RF-SCORE:    0.00 PKD
ROOT
HETATM    1  C   UNL     1      -8.459  13.245  67.129  1.00  0.00    -0.182 C  
HETATM    2  C   UNL     1      -8.801  11.800  67.335  1.00  0.00    -0.164 C  
HETATM    3  C   UNL     1      -9.642  11.053  66.596  1.00  0.00    -0.189 C  
HETATM    4  O   UNL     1      -9.830   9.694  66.753  1.00  0.00    -0.186 OA 
HETATM    5  C   UNL     1      -9.378   7.651  67.916  1.00  0.00    -0.146 A  
HETATM    6  C   UNL     1      -8.840   7.003  69.050  1.00  0.00    -0.134 A  
HETATM    7  C   UNL     1      -9.198   9.032  67.772  1.00  0.00    -0.140 A  
HETATM    8  C   UNL     1      -8.409   9.713  68.697  1.00  0.00    -0.114 A  
HETATM    9  C   UNL     1      -8.109   7.706  70.005  1.00  0.00    -0.120 A  
HETATM   10  O   UNL     1      -7.387  11.751  69.238  1.00  0.00    -0.058 OA 
HETATM   11  C   UNL     1      -7.871   9.061  69.815  1.00  0.00    -0.086 A  
HETATM   12  C   UNL     1      -8.132  11.141  68.482  1.00  0.00    -0.146 C  
ENDROOT
BRANCH   3  13
HETATM   13  C   UNL     1     -10.503  11.618  65.547  1.00  0.00    -0.321 A  
HETATM   14  C   UNL     1     -12.555  12.758  64.905  1.00  0.00    -0.541 A  
HETATM   15  C   UNL     1     -11.019  11.996  63.205  1.00  0.00    -0.399 A  
HETATM   16  C   UNL     1     -10.169  11.490  64.194  1.00  0.00    -0.374 A  
HETATM   17  C   UNL     1     -11.704  12.257  65.894  1.00  0.00    -0.451 A  
HETATM   18  C   UNL     1     -12.212  12.626  63.560  1.00  0.00    -0.638 A  
ENDBRANCH   3  13
BRANCH   5  19
HETATM   19  C   UNL     1     -10.180   6.882  66.917  1.00  0.00    -0.240 C  
HETATM   20  O   UNL     1     -11.397   6.817  66.850  1.00  0.00    -0.318 OA 
BRANCH  19  21
HETATM   21  O   UNL     1      -9.333   6.202  66.100  1.00  0.00    -0.158 OA 
BRANCH  21  22
HETATM   22  C   UNL     1      -9.802   4.892  65.767  1.00  0.00    -0.168 C  
BRANCH  22  23
HETATM   23  C   UNL     1      -9.774   4.023  67.041  1.00  0.00    -0.178 C  
BRANCH  23  24
HETATM   24  N   UNL     1      -8.842   2.869  67.001  1.00  0.00    -0.133 NA 
HETATM   25  C   UNL     1      -7.445   3.245  66.735  1.00  0.00    -0.075 C  
HETATM   26  C   UNL     1      -6.868   4.144  67.824  1.00  0.00    -0.051 C  
HETATM   27  C   UNL     1      -7.016   3.520  69.212  1.00  0.00    -0.045 C  
HETATM   28  C   UNL     1      -8.378   2.865  69.458  1.00  0.00    -0.086 C  
HETATM   29  C   UNL     1      -8.890   2.086  68.245  1.00  0.00    -0.109 C  
ENDBRANCH  23  24
ENDBRANCH  22  23
ENDBRANCH  21  22
ENDBRANCH  19  21
ENDBRANCH   5  19
TORSDOF 6
ENDMDL
MODEL      136
REMARK 921   NORMALIZED FREE ENERGY PREDICTED BY IDOCK:   -4.89 KCAL/MOL
REMARK 922        TOTAL FREE ENERGY PREDICTED BY IDOCK:   -7.30 KCAL/MOL
REMARK 923 INTER-LIGAND FREE ENERGY PREDICTED BY IDOCK:   -6.15 KCAL/MOL
REMARK 924 INTRA-LIGAND FREE ENERGY PREDICTED BY IDOCK:   -1.15 KCAL/MOL
REMARK 927      BINDING AFFINITY PREDICTED BY RF-SCORE:    0.00 PKD
ROOT
HETATM    1  C   UNL     1      -7.387   8.723  69.597  1.00  0.00    -0.059 C  
HETATM    2  C   UNL     1      -7.878   9.798  68.675  1.00  0.00    -0.081 C  
HETATM    3  C   UNL     1      -8.770   9.663  67.676  1.00  0.00    -0.126 C  
HETATM    4  O   UNL     1      -9.281  10.709  66.933  1.00  0.00    -0.154 OA 
HETATM    5  C   UNL     1      -9.352  13.041  66.395  1.00  0.00    -0.189 A  
HETATM    6  C   UNL     1      -8.770  14.323  66.509  1.00  0.00    -0.011 A  
HETATM    7  C   UNL     1      -8.817  11.982  67.138  1.00  0.00    -0.188 A  
HETATM    8  C   UNL     1      -7.791  12.240  68.045  1.00  0.00    -0.147 A  
HETATM    9  C   UNL     1      -7.699  14.555  67.371  1.00  0.00    -0.215 A  
HETATM   10  O   UNL     1      -6.456  11.357  69.757  1.00  0.00    -0.123 OA 
HETATM   11  C   UNL     1      -7.225  13.516  68.159  1.00  0.00    -0.117 A  
HETATM   12  C   UNL     1      -7.307  11.147  68.903  1.00  0.00    -0.110 C  
ENDROOT
BRANCH   3  13
HETATM   13  C   UNL     1      -9.278   8.359  67.226  1.00  0.00    -0.165 A  
HETATM   14  C   UNL     1     -11.090   6.739  67.113  1.00  0.00    -0.404 A  
HETATM   15  C   UNL     1      -8.928   6.194  66.186  1.00  0.00    -0.164 A  
HETATM   16  C   UNL     1      -8.442   7.448  66.571  1.00  0.00    -0.128 A  
HETATM   17  C   UNL     1     -10.607   7.993  67.494  1.00  0.00    -0.302 A  
HETATM   18  C   UNL     1     -10.249   5.839  66.459  1.00  0.00    -0.241 A  
ENDBRANCH   3  13
BRANCH   5  19
HETATM   19  C   UNL     1     -10.482  12.808  65.447  1.00  0.00    -0.286 C  
HETATM   20  O   UNL     1     -10.405  12.650  64.239  1.00  0.00    -0.354 OA 
BRANCH  19  21
HETATM   21  O   UNL     1     -11.653  12.851  66.137  1.00  0.00    -0.333 OA 
BRANCH  21  22
HETATM   22  C   UNL     1     -12.058  14.181  66.476  1.00  0.00    -0.454 C  
BRANCH  22  23
HETATM   23  C   UNL     1     -12.401  14.220  67.979  1.00  0.00     0.028 C  
BRANCH  23  24
HETATM   24  N   UNL     1     -11.260  13.973  68.895  1.00  0.00    -0.259 NA 
HETATM   25  C   UNL     1     -10.949  15.110  69.775  1.00  0.00    -0.280 C  
HETATM   26  C   UNL     1     -12.104  15.452  70.711  1.00  0.00    -0.413 C  
HETATM   27  C   UNL     1     -12.557  14.238  71.522  1.00  0.00    -0.432 C  
HETATM   28  C   UNL     1     -12.641  12.943  70.708  1.00  0.00    -0.314 C  
HETATM   29  C   UNL     1     -11.478  12.780  69.728  1.00  0.00    -0.129 C  
ENDBRANCH  23  24
ENDBRANCH  22  23
ENDBRANCH  21  22
ENDBRANCH  19  21
ENDBRANCH   5  19
TORSDOF 6
ENDMDL
MODEL      137
REMARK 921   NORMALIZED FREE ENERGY PREDICTED BY IDOCK:   -4.84 KCAL/MOL
REMARK 922        TOTAL FREE ENERGY PREDICTED BY IDOCK:   -7.22 KCAL/MOL
REMARK 923 INTER-LIGAND FREE ENERGY PREDICTED BY IDOCK:   -6.51 KCAL/MOL
REMARK 924 INTRA-LIGAND FREE ENERGY PREDICTED BY IDOCK:   -0.71 KCAL/MOL
REMARK 927      BINDING AFFINITY PREDICTED BY RF-SCORE:    0.00 PKD
ROOT
HETATM    1  C   UNL     1     -10.415  16.173  65.366  1.00  0.00    -0.396 C  
HETATM    2  C   UNL     1      -9.673  15.167  66.193  1.00  0.00    -0.338 C  
HETATM    3  C   UNL     1      -9.730  13.827  66.081  1.00  0.00    -0.264 C  
HETATM    4  O   UNL     1      -8.934  12.946  66.787  1.00  0.00    -0.218 OA 
HETATM    5  C   UNL     1      -7.249  12.524  68.435  1.00  0.00    -0.111 A  
HETATM    6  C   UNL     1      -6.465  13.004  69.507  1.00  0.00    -0.075 A  
HETATM    7  C   UNL     1      -8.067  13.420  67.735  1.00  0.00    -0.173 A  
HETATM    8  C   UNL     1      -8.011  14.776  68.050  1.00  0.00    -0.138 A  
HETATM    9  C   UNL     1      -6.468  14.352  69.857  1.00  0.00    -0.152 A  
HETATM   10  O   UNL     1      -8.707  16.932  67.448  1.00  0.00    -0.200 OA 
HETATM   11  C   UNL     1      -7.224  15.245  69.110  1.00  0.00    -0.169 A  
HETATM   12  C   UNL     1      -8.788  15.728  67.242  1.00  0.00    -0.195 C  
ENDROOT
BRANCH   3  13
HETATM   13  C   UNL     1     -10.693  13.135  65.212  1.00  0.00    -0.318 A  
HETATM   14  C   UNL     1     -11.144  11.778  63.244  1.00  0.00    -0.370 A  
HETATM   15  C   UNL     1     -12.976  12.603  64.583  1.00  0.00    -0.225 A  
HETATM   16  C   UNL     1     -12.070  13.232  65.443  1.00  0.00    -0.464 A  
HETATM   17  C   UNL     1     -10.237  12.402  64.105  1.00  0.00    -0.377 A  
HETATM   18  C   UNL     1     -12.514  11.879  63.483  1.00  0.00    -0.609 A  
ENDBRANCH   3  13
BRANCH   5  19
HETATM   19  C   UNL     1      -7.251  11.070  68.092  1.00  0.00    -0.083 C  
HETATM   20  O   UNL     1      -6.418  10.473  67.428  1.00  0.00    -0.060 OA 
BRANCH  19  21
HETATM   21  O   UNL     1      -8.376  10.498  68.597  1.00  0.00    -0.117 OA 
BRANCH  21  22
HETATM   22  C   UNL     1      -8.189   9.940  69.901  1.00  0.00    -0.184 C  
BRANCH  22  23
HETATM   23  C   UNL     1      -8.251   8.403  69.789  1.00  0.00    -0.119 C  
BRANCH  23  24
HETATM   24  N   UNL     1      -8.927   7.884  68.575  1.00  0.00    -0.134 NA 
HETATM   25  C   UNL     1      -8.787   6.430  68.394  1.00  0.00    -0.119 C  
HETATM   26  C   UNL     1      -9.421   5.640  69.534  1.00  0.00    -0.174 C  
HETATM   27  C   UNL     1     -10.884   6.028  69.749  1.00  0.00    -0.433 C  
HETATM   28  C   UNL     1     -11.144   7.536  69.679  1.00  0.00    -0.099 C  
HETATM   29  C   UNL     1     -10.358   8.223  68.560  1.00  0.00    -0.199 C  
ENDBRANCH  23  24
ENDBRANCH  22  23
ENDBRANCH  21  22
ENDBRANCH  19  21
ENDBRANCH   5  19
TORSDOF 6
ENDMDL
MODEL      138
REMARK 921   NORMALIZED FREE ENERGY PREDICTED BY IDOCK:   -4.82 KCAL/MOL
REMARK 922        TOTAL FREE ENERGY PREDICTED BY IDOCK:   -7.20 KCAL/MOL
REMARK 923 INTER-LIGAND FREE ENERGY PREDICTED BY IDOCK:   -5.82 KCAL/MOL
REMARK 924 INTRA-LIGAND FREE ENERGY PREDICTED BY IDOCK:   -1.38 KCAL/MOL
REMARK 927      BINDING AFFINITY PREDICTED BY RF-SCORE:    0.00 PKD
ROOT
HETATM    1  C   UNL     1     -11.271  10.959  67.843  1.00  0.00    -0.387 C  
HETATM    2  C   UNL     1     -10.085  10.638  68.702  1.00  0.00    -0.194 C  
HETATM    3  C   UNL     1     -10.084   9.943  69.854  1.00  0.00    -0.257 C  
HETATM    4  O   UNL     1      -8.947   9.571  70.546  1.00  0.00    -0.242 OA 
HETATM    5  C   UNL     1      -6.567   9.587  70.801  1.00  0.00    -0.104 A  
HETATM    6  C   UNL     1      -5.318  10.131  70.427  1.00  0.00    -0.050 A  
HETATM    7  C   UNL     1      -7.717   9.983  70.107  1.00  0.00    -0.143 A  
HETATM    8  C   UNL     1      -7.587  10.825  69.004  1.00  0.00    -0.126 A  
HETATM    9  C   UNL     1      -5.209  11.026  69.365  1.00  0.00    -0.041 A  
HETATM   10  O   UNL     1      -8.692  11.832  67.199  1.00  0.00    -0.156 OA 
HETATM   11  C   UNL     1      -6.344  11.354  68.635  1.00  0.00    -0.053 A  
HETATM   12  C   UNL     1      -8.783  11.151  68.212  1.00  0.00    -0.151 C  
ENDROOT
BRANCH   3  13
HETATM   13  C   UNL     1     -11.316   9.533  70.544  1.00  0.00    -0.343 A  
HETATM   14  C   UNL     1     -13.337  10.130  71.760  1.00  0.00    -0.485 A  
HETATM   15  C   UNL     1     -12.773   7.805  71.429  1.00  0.00    -0.333 A  
HETATM   16  C   UNL     1     -11.618   8.180  70.735  1.00  0.00    -0.249 A  
HETATM   17  C   UNL     1     -12.186  10.505  71.063  1.00  0.00    -0.505 A  
HETATM   18  C   UNL     1     -13.629   8.779  71.944  1.00  0.00    -0.467 A  
ENDBRANCH   3  13
BRANCH   5  19
HETATM   19  C   UNL     1      -6.665   8.648  71.958  1.00  0.00    -0.070 C  
HETATM   20  O   UNL     1      -7.042   8.916  73.088  1.00  0.00    -0.344 OA 
BRANCH  19  21
HETATM   21  O   UNL     1      -6.210   7.425  71.576  1.00  0.00    -0.036 OA 
BRANCH  21  22
HETATM   22  C   UNL     1      -7.067   6.354  71.981  1.00  0.00    -0.082 C  
BRANCH  22  23
HETATM   23  C   UNL     1      -8.201   6.215  70.945  1.00  0.00    -0.126 C  
BRANCH  23  24
HETATM   24  N   UNL     1      -9.040   4.999  71.083  1.00  0.00    -0.139 NA 
HETATM   25  C   UNL     1     -10.152   4.934  70.123  1.00  0.00    -0.261 C  
HETATM   26  C   UNL     1      -9.667   4.882  68.677  1.00  0.00    -0.225 C  
HETATM   27  C   UNL     1      -8.677   3.740  68.450  1.00  0.00    -0.132 C  
HETATM   28  C   UNL     1      -7.642   3.583  69.568  1.00  0.00    -0.051 C  
HETATM   29  C   UNL     1      -8.242   3.770  70.963  1.00  0.00    -0.067 C  
ENDBRANCH  23  24
ENDBRANCH  22  23
ENDBRANCH  21  22
ENDBRANCH  19  21
ENDBRANCH   5  19
TORSDOF 6
ENDMDL
MODEL      139
REMARK 921   NORMALIZED FREE ENERGY PREDICTED BY IDOCK:   -4.80 KCAL/MOL
REMARK 922        TOTAL FREE ENERGY PREDICTED BY IDOCK:   -7.17 KCAL/MOL
REMARK 923 INTER-LIGAND FREE ENERGY PREDICTED BY IDOCK:   -6.12 KCAL/MOL
REMARK 924 INTRA-LIGAND FREE ENERGY PREDICTED BY IDOCK:   -1.05 KCAL/MOL
REMARK 927      BINDING AFFINITY PREDICTED BY RF-SCORE:    0.00 PKD
ROOT
HETATM    1  C   UNL     1     -12.885  10.277  71.370  1.00  0.00    -0.544 C  
HETATM    2  C   UNL     1     -11.480   9.869  71.046  1.00  0.00    -0.466 C  
HETATM    3  C   UNL     1     -10.670  10.420  70.122  1.00  0.00    -0.233 C  
HETATM    4  O   UNL     1      -9.341  10.087  69.944  1.00  0.00    -0.220 OA 
HETATM    5  C   UNL     1      -7.434   8.756  70.513  1.00  0.00    -0.075 A  
HETATM    6  C   UNL     1      -6.908   7.623  71.173  1.00  0.00    -0.049 A  
HETATM    7  C   UNL     1      -8.786   9.077  70.684  1.00  0.00    -0.219 A  
HETATM    8  C   UNL     1      -9.553   8.330  71.577  1.00  0.00    -0.247 A  
HETATM    9  C   UNL     1      -7.702   6.843  72.012  1.00  0.00    -0.094 A  
HETATM   10  O   UNL     1     -11.620   8.144  72.666  1.00  0.00    -0.397 OA 
HETATM   11  C   UNL     1      -9.021   7.212  72.234  1.00  0.00    -0.147 A  
HETATM   12  C   UNL     1     -10.942   8.737  71.836  1.00  0.00    -0.365 C  
ENDROOT
BRANCH   3  13
HETATM   13  C   UNL     1     -11.128  11.424  69.151  1.00  0.00    -0.317 A  
HETATM   14  C   UNL     1     -11.632  12.041  66.851  1.00  0.00    -0.389 A  
HETATM   15  C   UNL     1     -11.808  13.689  68.607  1.00  0.00    -0.409 A  
HETATM   16  C   UNL     1     -11.413  12.734  69.549  1.00  0.00    -0.293 A  
HETATM   17  C   UNL     1     -11.241  11.085  67.792  1.00  0.00    -0.374 A  
HETATM   18  C   UNL     1     -11.914  13.344  67.259  1.00  0.00    -0.393 A  
ENDBRANCH   3  13
BRANCH   5  19
HETATM   19  C   UNL     1      -6.573   9.564  69.599  1.00  0.00    -0.046 C  
HETATM   20  O   UNL     1      -5.762  10.418  69.921  1.00  0.00    -0.042 OA 
BRANCH  19  21
HETATM   21  O   UNL     1      -6.869   9.241  68.312  1.00  0.00    -0.063 OA 
BRANCH  21  22
HETATM   22  C   UNL     1      -5.713   8.929  67.529  1.00  0.00    -0.039 C  
BRANCH  22  23
HETATM   23  C   UNL     1      -6.177   8.283  66.208  1.00  0.00    -0.046 C  
BRANCH  23  24
HETATM   24  N   UNL     1      -7.622   7.958  66.135  1.00  0.00    -0.081 NA 
HETATM   25  C   UNL     1      -8.277   8.437  64.908  1.00  0.00    -0.153 C  
HETATM   26  C   UNL     1      -7.693   7.799  63.651  1.00  0.00    -0.131 C  
HETATM   27  C   UNL     1      -7.717   6.272  63.727  1.00  0.00    -0.107 C  
HETATM   28  C   UNL     1      -7.298   5.710  65.088  1.00  0.00    -0.075 C  
HETATM   29  C   UNL     1      -7.863   6.512  66.262  1.00  0.00    -0.105 C  
ENDBRANCH  23  24
ENDBRANCH  22  23
ENDBRANCH  21  22
ENDBRANCH  19  21
ENDBRANCH   5  19
TORSDOF 6
ENDMDL
MODEL      140
REMARK 921   NORMALIZED FREE ENERGY PREDICTED BY IDOCK:   -4.78 KCAL/MOL
REMARK 922        TOTAL FREE ENERGY PREDICTED BY IDOCK:   -7.15 KCAL/MOL
REMARK 923 INTER-LIGAND FREE ENERGY PREDICTED BY IDOCK:   -5.68 KCAL/MOL
REMARK 924 INTRA-LIGAND FREE ENERGY PREDICTED BY IDOCK:   -1.47 KCAL/MOL
REMARK 927      BINDING AFFINITY PREDICTED BY RF-SCORE:    0.00 PKD
ROOT
HETATM    1  C   UNL     1      -8.341   6.340  66.326  1.00  0.00    -0.122 C  
HETATM    2  C   UNL     1      -8.217   6.473  67.814  1.00  0.00    -0.115 C  
HETATM    3  C   UNL     1      -8.545   7.544  68.561  1.00  0.00    -0.129 C  
HETATM    4  O   UNL     1      -8.525   7.574  69.942  1.00  0.00    -0.135 OA 
HETATM    5  C   UNL     1      -8.072   6.514  72.041  1.00  0.00    -0.107 A  
HETATM    6  C   UNL     1      -7.471   5.450  72.749  1.00  0.00    -0.097 A  
HETATM    7  C   UNL     1      -8.072   6.486  70.640  1.00  0.00    -0.113 A  
HETATM    8  C   UNL     1      -7.570   5.363  69.985  1.00  0.00    -0.069 A  
HETATM    9  C   UNL     1      -6.912   4.363  72.080  1.00  0.00    -0.055 A  
HETATM   10  O   UNL     1      -7.304   4.288  67.920  1.00  0.00    -0.066 OA 
HETATM   11  C   UNL     1      -6.984   4.308  70.695  1.00  0.00    -0.037 A  
HETATM   12  C   UNL     1      -7.672   5.289  68.520  1.00  0.00    -0.080 C  
ENDROOT
BRANCH   3  13
HETATM   13  C   UNL     1      -8.925   8.840  67.981  1.00  0.00    -0.141 A  
HETATM   14  C   UNL     1     -10.579  10.236  66.869  1.00  0.00    -0.282 A  
HETATM   15  C   UNL     1      -8.366  11.101  67.297  1.00  0.00    -0.135 A  
HETATM   16  C   UNL     1      -8.002   9.887  67.889  1.00  0.00    -0.104 A  
HETATM   17  C   UNL     1     -10.218   9.025  67.465  1.00  0.00    -0.302 A  
HETATM   18  C   UNL     1      -9.652  11.274  66.784  1.00  0.00    -0.214 A  
ENDBRANCH   3  13
BRANCH   5  19
HETATM   19  C   UNL     1      -8.643   7.682  72.775  1.00  0.00    -0.131 C  
HETATM   20  O   UNL     1      -8.298   8.849  72.678  1.00  0.00    -0.392 OA 
BRANCH  19  21
HETATM   21  O   UNL     1      -9.599   7.239  73.635  1.00  0.00    -0.219 OA 
BRANCH  21  22
HETATM   22  C   UNL     1     -10.779   6.774  72.975  1.00  0.00    -0.285 C  
BRANCH  22  23
HETATM   23  C   UNL     1     -11.770   7.950  72.857  1.00  0.00    -0.181 C  
BRANCH  23  24
HETATM   24  N   UNL     1     -12.501   8.036  71.569  1.00  0.00    -0.305 NA 
HETATM   25  C   UNL     1     -13.680   8.914  71.614  1.00  0.00    -0.395 C  
HETATM   26  C   UNL     1     -13.314  10.362  71.925  1.00  0.00    -0.469 C  
HETATM   27  C   UNL     1     -12.262  10.903  70.956  1.00  0.00    -0.464 C  
HETATM   28  C   UNL     1     -11.130   9.917  70.653  1.00  0.00    -0.409 C  
HETATM   29  C   UNL     1     -11.625   8.481  70.474  1.00  0.00    -0.132 C  
ENDBRANCH  23  24
ENDBRANCH  22  23
ENDBRANCH  21  22
ENDBRANCH  19  21
ENDBRANCH   5  19
TORSDOF 6
ENDMDL
MODEL      141
REMARK 921   NORMALIZED FREE ENERGY PREDICTED BY IDOCK:   -4.70 KCAL/MOL
REMARK 922        TOTAL FREE ENERGY PREDICTED BY IDOCK:   -7.04 KCAL/MOL
REMARK 923 INTER-LIGAND FREE ENERGY PREDICTED BY IDOCK:   -5.35 KCAL/MOL
REMARK 924 INTRA-LIGAND FREE ENERGY PREDICTED BY IDOCK:   -1.69 KCAL/MOL
REMARK 927      BINDING AFFINITY PREDICTED BY RF-SCORE:    0.00 PKD
ROOT
HETATM    1  C   UNL     1     -10.633   3.772  72.888  1.00  0.00    -0.229 C  
HETATM    2  C   UNL     1     -10.281   4.060  71.460  1.00  0.00    -0.085 C  
HETATM    3  C   UNL     1     -10.389   5.240  70.821  1.00  0.00    -0.239 C  
HETATM    4  O   UNL     1      -9.938   5.483  69.539  1.00  0.00    -0.174 OA 
HETATM    5  C   UNL     1      -8.935   4.716  67.504  1.00  0.00    -0.122 A  
HETATM    6  C   UNL     1      -8.524   3.632  66.697  1.00  0.00    -0.106 A  
HETATM    7  C   UNL     1      -9.408   4.460  68.797  1.00  0.00    -0.151 A  
HETATM    8  C   UNL     1      -9.367   3.157  69.289  1.00  0.00    -0.223 A  
HETATM    9  C   UNL     1      -8.550   2.324  67.176  1.00  0.00    -0.119 A  
HETATM   10  O   UNL     1      -9.671   1.787  71.166  1.00  0.00    -0.134 OA 
HETATM   11  C   UNL     1      -8.949   2.089  68.484  1.00  0.00    -0.171 A  
HETATM   12  C   UNL     1      -9.761   2.909  70.684  1.00  0.00    -0.034 C  
ENDROOT
BRANCH   3  13
HETATM   13  C   UNL     1     -11.051   6.412  71.411  1.00  0.00    -0.328 A  
HETATM   14  C   UNL     1     -13.053   7.764  71.705  1.00  0.00    -0.378 A  
HETATM   15  C   UNL     1     -10.963   8.480  72.679  1.00  0.00    -0.210 A  
HETATM   16  C   UNL     1     -10.328   7.348  72.159  1.00  0.00    -0.232 A  
HETATM   17  C   UNL     1     -12.421   6.630  71.189  1.00  0.00    -0.255 A  
HETATM   18  C   UNL     1     -12.324   8.690  72.449  1.00  0.00    -0.426 A  
ENDBRANCH   3  13
BRANCH   5  19
HETATM   19  C   UNL     1      -8.922   6.108  66.964  1.00  0.00    -0.114 C  
HETATM   20  O   UNL     1      -9.844   6.689  66.414  1.00  0.00    -0.137 OA 
BRANCH  19  21
HETATM   21  O   UNL     1      -7.679   6.634  67.128  1.00  0.00    -0.097 OA 
BRANCH  21  22
HETATM   22  C   UNL     1      -7.627   7.655  68.129  1.00  0.00    -0.114 C  
BRANCH  22  23
HETATM   23  C   UNL     1      -7.852   9.020  67.449  1.00  0.00    -0.100 C  
BRANCH  23  24
HETATM   24  N   UNL     1      -8.274  10.117  68.354  1.00  0.00    -0.109 NA 
HETATM   25  C   UNL     1      -8.924  11.240  67.662  1.00  0.00    -0.142 C  
HETATM   26  C   UNL     1     -10.216  10.823  66.965  1.00  0.00    -0.261 C  
HETATM   27  C   UNL     1     -11.184  10.135  67.928  1.00  0.00    -0.234 C  
HETATM   28  C   UNL     1     -10.514   9.135  68.875  1.00  0.00    -0.239 C  
HETATM   29  C   UNL     1      -9.172   9.634  69.414  1.00  0.00    -0.189 C  
ENDBRANCH  23  24
ENDBRANCH  22  23
ENDBRANCH  21  22
ENDBRANCH  19  21
ENDBRANCH   5  19
TORSDOF 6
ENDMDL
MODEL      142
REMARK 921   NORMALIZED FREE ENERGY PREDICTED BY IDOCK:   -4.69 KCAL/MOL
REMARK 922        TOTAL FREE ENERGY PREDICTED BY IDOCK:   -7.03 KCAL/MOL
REMARK 923 INTER-LIGAND FREE ENERGY PREDICTED BY IDOCK:   -5.86 KCAL/MOL
REMARK 924 INTRA-LIGAND FREE ENERGY PREDICTED BY IDOCK:   -1.17 KCAL/MOL
REMARK 927      BINDING AFFINITY PREDICTED BY RF-SCORE:    0.00 PKD
ROOT
HETATM    1  C   UNL     1      -8.643   4.330  66.385  1.00  0.00    -0.112 C  
HETATM    2  C   UNL     1      -8.848   5.328  67.484  1.00  0.00    -0.105 C  
HETATM    3  C   UNL     1      -8.558   6.642  67.449  1.00  0.00    -0.119 C  
HETATM    4  O   UNL     1      -8.878   7.543  68.446  1.00  0.00    -0.127 OA 
HETATM    5  C   UNL     1      -9.801   8.021  70.603  1.00  0.00    -0.192 A  
HETATM    6  C   UNL     1     -10.268   7.543  71.847  1.00  0.00    -0.221 A  
HETATM    7  C   UNL     1      -9.462   7.100  69.604  1.00  0.00    -0.152 A  
HETATM    8  C   UNL     1      -9.687   5.744  69.827  1.00  0.00    -0.210 A  
HETATM    9  C   UNL     1     -10.427   6.179  72.083  1.00  0.00    -0.237 A  
HETATM   10  O   UNL     1      -9.686   3.601  68.876  1.00  0.00    -0.140 OA 
HETATM   11  C   UNL     1     -10.160   5.278  71.061  1.00  0.00    -0.289 A  
HETATM   12  C   UNL     1      -9.433   4.791  68.736  1.00  0.00    -0.148 C  
ENDROOT
BRANCH   3  13
HETATM   13  C   UNL     1      -7.815   7.269  66.347  1.00  0.00    -0.106 A  
HETATM   14  C   UNL     1      -7.818   8.522  64.261  1.00  0.00    -0.142 A  
HETATM   15  C   UNL     1      -5.735   7.719  65.181  1.00  0.00    -0.037 A  
HETATM   16  C   UNL     1      -6.424   7.152  66.258  1.00  0.00    -0.051 A  
HETATM   17  C   UNL     1      -8.507   7.960  65.339  1.00  0.00    -0.134 A  
HETATM   18  C   UNL     1      -6.431   8.401  64.182  1.00  0.00    -0.067 A  
ENDBRANCH   3  13
BRANCH   5  19
HETATM   19  C   UNL     1      -9.614   9.486  70.379  1.00  0.00    -0.269 C  
HETATM   20  O   UNL     1      -8.585  10.050  70.043  1.00  0.00    -0.190 OA 
BRANCH  19  21
HETATM   21  O   UNL     1     -10.778  10.128  70.664  1.00  0.00    -0.297 OA 
BRANCH  21  22
HETATM   22  C   UNL     1     -11.568  10.405  69.504  1.00  0.00    -0.219 C  
BRANCH  22  23
HETATM   23  C   UNL     1     -11.639  11.934  69.313  1.00  0.00    -0.315 C  
BRANCH  23  24
HETATM   24  N   UNL     1     -10.505  12.532  68.567  1.00  0.00    -0.235 NA 
HETATM   25  C   UNL     1     -10.181  11.829  67.316  1.00  0.00    -0.203 C  
HETATM   26  C   UNL     1     -11.335  11.861  66.318  1.00  0.00    -0.394 C  
HETATM   27  C   UNL     1     -11.806  13.289  66.041  1.00  0.00    -0.440 C  
HETATM   28  C   UNL     1     -11.905  14.165  67.293  1.00  0.00    -0.452 C  
HETATM   29  C   UNL     1     -10.741  13.951  68.262  1.00  0.00    -0.251 C  
ENDBRANCH  23  24
ENDBRANCH  22  23
ENDBRANCH  21  22
ENDBRANCH  19  21
ENDBRANCH   5  19
TORSDOF 6
ENDMDL
MODEL      143
REMARK 921   NORMALIZED FREE ENERGY PREDICTED BY IDOCK:   -4.68 KCAL/MOL
REMARK 922        TOTAL FREE ENERGY PREDICTED BY IDOCK:   -7.01 KCAL/MOL
REMARK 923 INTER-LIGAND FREE ENERGY PREDICTED BY IDOCK:   -6.26 KCAL/MOL
REMARK 924 INTRA-LIGAND FREE ENERGY PREDICTED BY IDOCK:   -0.75 KCAL/MOL
REMARK 927      BINDING AFFINITY PREDICTED BY RF-SCORE:    0.00 PKD
ROOT
HETATM    1  C   UNL     1     -12.033  12.920  69.106  1.00  0.00    -0.308 C  
HETATM    2  C   UNL     1     -11.279  11.760  68.530  1.00  0.00    -0.306 C  
HETATM    3  C   UNL     1     -11.254  10.498  68.998  1.00  0.00    -0.259 C  
HETATM    4  O   UNL     1     -10.640   9.437  68.361  1.00  0.00    -0.218 OA 
HETATM    5  C   UNL     1      -9.326   8.568  66.559  1.00  0.00    -0.260 A  
HETATM    6  C   UNL     1      -8.478   8.816  65.456  1.00  0.00    -0.181 A  
HETATM    7  C   UNL     1      -9.930   9.651  67.210  1.00  0.00    -0.197 A  
HETATM    8  C   UNL     1      -9.759  10.934  66.694  1.00  0.00    -0.222 A  
HETATM    9  C   UNL     1      -8.261  10.111  64.989  1.00  0.00    -0.152 A  
HETATM   10  O   UNL     1     -10.408  13.181  66.843  1.00  0.00    -0.244 OA 
HETATM   11  C   UNL     1      -8.923  11.170  65.594  1.00  0.00    -0.195 A  
HETATM   12  C   UNL     1     -10.483  12.053  67.314  1.00  0.00    -0.218 C  
ENDROOT
BRANCH   3  13
HETATM   13  C   UNL     1     -11.848  10.109  70.285  1.00  0.00    -0.342 A  
HETATM   14  C   UNL     1     -11.814   8.704  72.272  1.00  0.00    -0.436 A  
HETATM   15  C   UNL     1     -13.620  10.270  71.935  1.00  0.00    -0.292 A  
HETATM   16  C   UNL     1     -13.045  10.681  70.728  1.00  0.00    -0.299 A  
HETATM   17  C   UNL     1     -11.236   9.117  71.068  1.00  0.00    -0.380 A  
HETATM   18  C   UNL     1     -13.007   9.281  72.704  1.00  0.00    -0.282 A  
ENDBRANCH   3  13
BRANCH   5  19
HETATM   19  C   UNL     1      -9.525   7.175  67.059  1.00  0.00    -0.155 C  
HETATM   20  O   UNL     1     -10.417   6.404  66.742  1.00  0.00    -0.229 OA 
BRANCH  19  21
HETATM   21  O   UNL     1      -8.572   6.898  67.987  1.00  0.00    -0.123 OA 
BRANCH  21  22
HETATM   22  C   UNL     1      -8.965   5.881  68.913  1.00  0.00    -0.118 C  
BRANCH  22  23
HETATM   23  C   UNL     1      -8.930   6.474  70.336  1.00  0.00    -0.152 C  
BRANCH  23  24
HETATM   24  N   UNL     1      -8.612   5.509  71.417  1.00  0.00    -0.130 NA 
HETATM   25  C   UNL     1      -7.185   5.465  71.772  1.00  0.00    -0.085 C  
HETATM   26  C   UNL     1      -6.680   6.799  72.313  1.00  0.00    -0.059 C  
HETATM   27  C   UNL     1      -7.525   7.292  73.488  1.00  0.00    -0.103 C  
HETATM   28  C   UNL     1      -9.033   7.114  73.288  1.00  0.00    -0.174 C  
HETATM   29  C   UNL     1      -9.392   5.778  72.635  1.00  0.00    -0.140 C  
ENDBRANCH  23  24
ENDBRANCH  22  23
ENDBRANCH  21  22
ENDBRANCH  19  21
ENDBRANCH   5  19
TORSDOF 6
ENDMDL
MODEL      144
REMARK 921   NORMALIZED FREE ENERGY PREDICTED BY IDOCK:   -4.68 KCAL/MOL
REMARK 922        TOTAL FREE ENERGY PREDICTED BY IDOCK:   -7.01 KCAL/MOL
REMARK 923 INTER-LIGAND FREE ENERGY PREDICTED BY IDOCK:   -5.56 KCAL/MOL
REMARK 924 INTRA-LIGAND FREE ENERGY PREDICTED BY IDOCK:   -1.45 KCAL/MOL
REMARK 927      BINDING AFFINITY PREDICTED BY RF-SCORE:    0.00 PKD
ROOT
HETATM    1  C   UNL     1     -14.167   7.824  72.141  1.00  0.00    -0.328 C  
HETATM    2  C   UNL     1     -12.697   7.539  72.068  1.00  0.00    -0.246 C  
HETATM    3  C   UNL     1     -11.720   8.406  71.745  1.00  0.00    -0.310 C  
HETATM    4  O   UNL     1     -10.368   8.127  71.811  1.00  0.00    -0.204 OA 
HETATM    5  C   UNL     1      -8.578   6.594  72.231  1.00  0.00    -0.121 A  
HETATM    6  C   UNL     1      -8.154   5.262  72.437  1.00  0.00    -0.107 A  
HETATM    7  C   UNL     1      -9.949   6.867  72.148  1.00  0.00    -0.162 A  
HETATM    8  C   UNL     1     -10.860   5.836  72.369  1.00  0.00    -0.294 A  
HETATM    9  C   UNL     1      -9.075   4.227  72.591  1.00  0.00    -0.127 A  
HETATM   10  O   UNL     1     -13.119   5.280  72.650  1.00  0.00     0.440 OA 
HETATM   11  C   UNL     1     -10.432   4.519  72.582  1.00  0.00    -0.258 A  
HETATM   12  C   UNL     1     -12.297   6.149  72.390  1.00  0.00    -0.007 C  
ENDROOT
BRANCH   3  13
HETATM   13  C   UNL     1     -11.985   9.759  71.234  1.00  0.00    -0.471 A  
HETATM   14  C   UNL     1     -11.603  11.480  69.557  1.00  0.00    -0.400 A  
HETATM   15  C   UNL     1     -12.992  11.954  71.474  1.00  0.00    -0.427 A  
HETATM   16  C   UNL     1     -12.782  10.657  71.952  1.00  0.00    -0.410 A  
HETATM   17  C   UNL     1     -11.397  10.182  70.031  1.00  0.00    -0.351 A  
HETATM   18  C   UNL     1     -12.400  12.366  70.279  1.00  0.00    -0.264 A  
ENDBRANCH   3  13
BRANCH   5  19
HETATM   19  C   UNL     1      -7.575   7.684  72.044  1.00  0.00    -0.083 C  
HETATM   20  O   UNL     1      -7.464   8.700  72.712  1.00  0.00    -0.327 OA 
BRANCH  19  21
HETATM   21  O   UNL     1      -6.812   7.401  70.954  1.00  0.00    -0.047 OA 
BRANCH  21  22
HETATM   22  C   UNL     1      -7.293   8.014  69.755  1.00  0.00    -0.074 C  
BRANCH  22  23
HETATM   23  C   UNL     1      -7.783   6.905  68.801  1.00  0.00    -0.110 C  
BRANCH  23  24
HETATM   24  N   UNL     1      -8.981   7.247  67.995  1.00  0.00    -0.132 NA 
HETATM   25  C   UNL     1      -8.968   6.672  66.641  1.00  0.00    -0.142 C  
HETATM   26  C   UNL     1      -8.960   5.147  66.658  1.00  0.00    -0.115 C  
HETATM   27  C   UNL     1     -10.116   4.582  67.484  1.00  0.00    -0.096 C  
HETATM   28  C   UNL     1     -10.357   5.321  68.803  1.00  0.00    -0.206 C  
HETATM   29  C   UNL     1     -10.225   6.839  68.667  1.00  0.00    -0.175 C  
ENDBRANCH  23  24
ENDBRANCH  22  23
ENDBRANCH  21  22
ENDBRANCH  19  21
ENDBRANCH   5  19
TORSDOF 6
ENDMDL
MODEL      145
REMARK 921   NORMALIZED FREE ENERGY PREDICTED BY IDOCK:   -4.67 KCAL/MOL
REMARK 922        TOTAL FREE ENERGY PREDICTED BY IDOCK:   -7.00 KCAL/MOL
REMARK 923 INTER-LIGAND FREE ENERGY PREDICTED BY IDOCK:   -8.01 KCAL/MOL
REMARK 924 INTRA-LIGAND FREE ENERGY PREDICTED BY IDOCK:    1.02 KCAL/MOL
REMARK 927      BINDING AFFINITY PREDICTED BY RF-SCORE:    0.00 PKD
ROOT
HETATM    1  C   UNL     1     -13.283  15.319  71.261  1.00  0.00    -0.563 C  
HETATM    2  C   UNL     1     -12.791  13.941  70.934  1.00  0.00    -0.370 C  
HETATM    3  C   UNL     1     -11.945  13.597  69.945  1.00  0.00    -0.348 C  
HETATM    4  O   UNL     1     -11.428  12.330  69.760  1.00  0.00    -0.247 OA 
HETATM    5  C   UNL     1     -11.296  10.023  70.388  1.00  0.00    -0.392 A  
HETATM    6  C   UNL     1     -11.827   8.942  71.126  1.00  0.00    -0.353 A  
HETATM    7  C   UNL     1     -11.838  11.302  70.568  1.00  0.00    -0.324 A  
HETATM    8  C   UNL     1     -12.817  11.493  71.540  1.00  0.00    -0.485 A  
HETATM    9  C   UNL     1     -12.853   9.133  72.049  1.00  0.00    -0.483 A  
HETATM   10  O   UNL     1     -14.113  13.066  72.697  1.00  0.00    -0.643 OA 
HETATM   11  C   UNL     1     -13.332  10.417  72.275  1.00  0.00    -0.255 A  
HETATM   12  C   UNL     1     -13.304  12.855  71.802  1.00  0.00    -0.359 C  
ENDROOT
BRANCH   3  13
HETATM   13  C   UNL     1     -11.503  14.538  68.906  1.00  0.00    -0.327 A  
HETATM   14  C   UNL     1     -10.882  16.797  68.247  1.00  0.00    -0.366 A  
HETATM   15  C   UNL     1     -10.981  15.043  66.590  1.00  0.00    -0.325 A  
HETATM   16  C   UNL     1     -11.363  14.128  67.576  1.00  0.00    -0.343 A  
HETATM   17  C   UNL     1     -11.258  15.881  69.234  1.00  0.00    -0.335 A  
HETATM   18  C   UNL     1     -10.744  16.377  66.925  1.00  0.00    -0.202 A  
ENDBRANCH   3  13
BRANCH   5  19
HETATM   19  C   UNL     1     -10.213   9.793  69.385  1.00  0.00    -0.210 C  
HETATM   20  O   UNL     1      -9.031  10.071  69.507  1.00  0.00    -0.185 OA 
BRANCH  19  21
HETATM   21  O   UNL     1     -10.758   9.260  68.260  1.00  0.00    -0.209 OA 
BRANCH  21  22
HETATM   22  C   UNL     1      -9.788   8.683  67.382  1.00  0.00    -0.192 C  
BRANCH  22  23
HETATM   23  C   UNL     1      -8.571   8.240  68.220  1.00  0.00    -0.133 C  
BRANCH  23  24
HETATM   24  N   UNL     1      -7.764   7.141  67.634  1.00  0.00    -0.110 NA 
HETATM   25  C   UNL     1      -7.232   7.444  66.297  1.00  0.00    -0.078 C  
HETATM   26  C   UNL     1      -6.278   8.634  66.308  1.00  0.00    -0.060 C  
HETATM   27  C   UNL     1      -5.148   8.446  67.320  1.00  0.00    -0.033 C  
HETATM   28  C   UNL     1      -5.605   7.870  68.663  1.00  0.00    -0.028 C  
HETATM   29  C   UNL     1      -6.646   6.760  68.510  1.00  0.00    -0.058 C  
ENDBRANCH  23  24
ENDBRANCH  22  23
ENDBRANCH  21  22
ENDBRANCH  19  21
ENDBRANCH   5  19
TORSDOF 6
ENDMDL
MODEL      146
REMARK 921   NORMALIZED FREE ENERGY PREDICTED BY IDOCK:   -4.67 KCAL/MOL
REMARK 922        TOTAL FREE ENERGY PREDICTED BY IDOCK:   -7.00 KCAL/MOL
REMARK 923 INTER-LIGAND FREE ENERGY PREDICTED BY IDOCK:   -6.06 KCAL/MOL
REMARK 924 INTRA-LIGAND FREE ENERGY PREDICTED BY IDOCK:   -0.93 KCAL/MOL
REMARK 927      BINDING AFFINITY PREDICTED BY RF-SCORE:    0.00 PKD
ROOT
HETATM    1  C   UNL     1      -8.587  13.621  67.003  1.00  0.00    -0.173 C  
HETATM    2  C   UNL     1      -8.857  12.172  67.271  1.00  0.00    -0.186 C  
HETATM    3  C   UNL     1      -9.654  11.351  66.561  1.00  0.00    -0.198 C  
HETATM    4  O   UNL     1      -9.775   9.993  66.778  1.00  0.00    -0.174 OA 
HETATM    5  C   UNL     1      -9.228   8.028  68.032  1.00  0.00    -0.139 A  
HETATM    6  C   UNL     1      -8.666   7.458  69.196  1.00  0.00    -0.136 A  
HETATM    7  C   UNL     1      -9.117   9.409  67.828  1.00  0.00    -0.125 A  
HETATM    8  C   UNL     1      -8.370  10.169  68.726  1.00  0.00    -0.122 A  
HETATM    9  C   UNL     1      -7.978   8.240  70.122  1.00  0.00    -0.106 A  
HETATM   10  O   UNL     1      -7.456  12.278  69.181  1.00  0.00    -0.004 OA 
HETATM   11  C   UNL     1      -7.808   9.594  69.874  1.00  0.00    -0.157 A  
HETATM   12  C   UNL     1      -8.164  11.598  68.449  1.00  0.00    -0.155 C  
ENDROOT
BRANCH   3  13
HETATM   13  C   UNL     1     -10.535  11.825  65.484  1.00  0.00    -0.311 A  
HETATM   14  C   UNL     1     -12.641  12.823  64.783  1.00  0.00    -0.518 A  
HETATM   15  C   UNL     1     -11.050  12.080  63.126  1.00  0.00    -0.265 A  
HETATM   16  C   UNL     1     -10.182  11.662  64.140  1.00  0.00    -0.372 A  
HETATM   17  C   UNL     1     -11.773  12.410  65.797  1.00  0.00    -0.470 A  
HETATM   18  C   UNL     1     -12.279  12.657  63.447  1.00  0.00    -0.610 A  
ENDBRANCH   3  13
BRANCH   5  19
HETATM   19  C   UNL     1      -9.983   7.177  67.065  1.00  0.00    -0.217 C  
HETATM   20  O   UNL     1     -11.185   6.963  67.060  1.00  0.00    -0.369 OA 
BRANCH  19  21
HETATM   21  O   UNL     1      -9.105   6.612  66.194  1.00  0.00    -0.157 OA 
BRANCH  21  22
HETATM   22  C   UNL     1      -9.013   5.191  66.328  1.00  0.00    -0.130 C  
BRANCH  22  23
HETATM   23  C   UNL     1      -9.846   4.538  65.206  1.00  0.00    -0.169 C  
BRANCH  23  24
HETATM   24  N   UNL     1      -9.122   4.308  63.932  1.00  0.00    -0.141 NA 
HETATM   25  C   UNL     1      -8.110   3.243  64.009  1.00  0.00    -0.082 C  
HETATM   26  C   UNL     1      -8.721   1.884  64.334  1.00  0.00    -0.097 C  
HETATM   27  C   UNL     1      -9.835   1.514  63.355  1.00  0.00    -0.116 C  
HETATM   28  C   UNL     1     -10.779   2.673  63.020  1.00  0.00    -0.209 C  
HETATM   29  C   UNL     1     -10.045   4.001  62.829  1.00  0.00    -0.154 C  
ENDBRANCH  23  24
ENDBRANCH  22  23
ENDBRANCH  21  22
ENDBRANCH  19  21
ENDBRANCH   5  19
TORSDOF 6
ENDMDL
MODEL      147
REMARK 921   NORMALIZED FREE ENERGY PREDICTED BY IDOCK:   -4.64 KCAL/MOL
REMARK 922        TOTAL FREE ENERGY PREDICTED BY IDOCK:   -6.96 KCAL/MOL
REMARK 923 INTER-LIGAND FREE ENERGY PREDICTED BY IDOCK:   -6.22 KCAL/MOL
REMARK 924 INTRA-LIGAND FREE ENERGY PREDICTED BY IDOCK:   -0.73 KCAL/MOL
REMARK 927      BINDING AFFINITY PREDICTED BY RF-SCORE:    0.00 PKD
ROOT
HETATM    1  C   UNL     1     -11.745  15.138  64.470  1.00  0.00    -0.331 C  
HETATM    2  C   UNL     1     -10.909  14.027  65.029  1.00  0.00    -0.401 C  
HETATM    3  C   UNL     1     -10.216  14.037  66.183  1.00  0.00    -0.302 C  
HETATM    4  O   UNL     1      -9.558  12.944  66.713  1.00  0.00    -0.232 OA 
HETATM    5  C   UNL     1      -8.864  10.658  66.563  1.00  0.00    -0.160 A  
HETATM    6  C   UNL     1      -8.702   9.496  65.776  1.00  0.00    -0.170 A  
HETATM    7  C   UNL     1      -9.516  11.768  66.012  1.00  0.00    -0.230 A  
HETATM    8  C   UNL     1     -10.074  11.664  64.740  1.00  0.00    -0.304 A  
HETATM    9  C   UNL     1      -9.205   9.427  64.478  1.00  0.00    -0.155 A  
HETATM   10  O   UNL     1     -11.412  12.708  63.124  1.00  0.00    -0.424 OA 
HETATM   11  C   UNL     1      -9.915  10.505  63.968  1.00  0.00    -0.363 A  
HETATM   12  C   UNL     1     -10.852  12.794  64.209  1.00  0.00    -0.390 C  
ENDROOT
BRANCH   3  13
HETATM   13  C   UNL     1     -10.039  15.246  67.001  1.00  0.00    -0.248 A  
HETATM   14  C   UNL     1     -10.893  16.785  68.680  1.00  0.00    -0.336 A  
HETATM   15  C   UNL     1      -8.783  17.236  67.596  1.00  0.00    -0.219 A  
HETATM   16  C   UNL     1      -8.918  16.067  66.840  1.00  0.00    -0.253 A  
HETATM   17  C   UNL     1     -11.026  15.615  67.928  1.00  0.00    -0.319 A  
HETATM   18  C   UNL     1      -9.772  17.596  68.513  1.00  0.00    -0.328 A  
ENDBRANCH   3  13
BRANCH   5  19
HETATM   19  C   UNL     1      -8.295  10.720  67.942  1.00  0.00    -0.117 C  
HETATM   20  O   UNL     1      -7.206  11.168  68.266  1.00  0.00    -0.076 OA 
BRANCH  19  21
HETATM   21  O   UNL     1      -9.168  10.139  68.808  1.00  0.00    -0.149 OA 
BRANCH  21  22
HETATM   22  C   UNL     1      -8.617   9.932  70.111  1.00  0.00    -0.105 C  
BRANCH  22  23
HETATM   23  C   UNL     1      -9.126   8.580  70.650  1.00  0.00    -0.160 C  
BRANCH  23  24
HETATM   24  N   UNL     1      -8.192   7.867  71.555  1.00  0.00    -0.103 NA 
HETATM   25  C   UNL     1      -8.286   6.401  71.468  1.00  0.00    -0.117 C  
HETATM   26  C   UNL     1      -7.923   5.878  70.081  1.00  0.00    -0.101 C  
HETATM   27  C   UNL     1      -6.548   6.370  69.631  1.00  0.00    -0.048 C  
HETATM   28  C   UNL     1      -6.281   7.845  69.943  1.00  0.00    -0.026 C  
HETATM   29  C   UNL     1      -6.796   8.264  71.321  1.00  0.00    -0.059 C  
ENDBRANCH  23  24
ENDBRANCH  22  23
ENDBRANCH  21  22
ENDBRANCH  19  21
ENDBRANCH   5  19
TORSDOF 6
ENDMDL
MODEL      148
REMARK 921   NORMALIZED FREE ENERGY PREDICTED BY IDOCK:   -4.64 KCAL/MOL
REMARK 922        TOTAL FREE ENERGY PREDICTED BY IDOCK:   -6.96 KCAL/MOL
REMARK 923 INTER-LIGAND FREE ENERGY PREDICTED BY IDOCK:   -5.31 KCAL/MOL
REMARK 924 INTRA-LIGAND FREE ENERGY PREDICTED BY IDOCK:   -1.65 KCAL/MOL
REMARK 927      BINDING AFFINITY PREDICTED BY RF-SCORE:    0.00 PKD
ROOT
HETATM    1  C   UNL     1      -7.375  13.304  67.408  1.00  0.00    -0.125 C  
HETATM    2  C   UNL     1      -7.923  12.173  68.225  1.00  0.00    -0.163 C  
HETATM    3  C   UNL     1      -9.199  11.747  68.265  1.00  0.00    -0.188 C  
HETATM    4  O   UNL     1      -9.630  10.623  68.942  1.00  0.00    -0.181 OA 
HETATM    5  C   UNL     1      -9.185   8.756  70.374  1.00  0.00    -0.204 A  
HETATM    6  C   UNL     1      -8.307   8.106  71.270  1.00  0.00    -0.140 A  
HETATM    7  C   UNL     1      -8.747   9.905  69.705  1.00  0.00    -0.204 A  
HETATM    8  C   UNL     1      -7.426  10.320  69.863  1.00  0.00    -0.165 A  
HETATM    9  C   UNL     1      -7.009   8.569  71.471  1.00  0.00    -0.083 A  
HETATM   10  O   UNL     1      -5.765  11.806  69.139  1.00  0.00    -0.054 OA 
HETATM   11  C   UNL     1      -6.559   9.664  70.747  1.00  0.00    -0.099 A  
HETATM   12  C   UNL     1      -6.938  11.461  69.074  1.00  0.00    -0.106 C  
ENDROOT
BRANCH   3  13
HETATM   13  C   UNL     1     -10.305  12.467  67.617  1.00  0.00    -0.223 A  
HETATM   14  C   UNL     1     -11.697  12.849  65.659  1.00  0.00    -0.430 A  
HETATM   15  C   UNL     1     -11.991  14.213  67.630  1.00  0.00    -0.405 A  
HETATM   16  C   UNL     1     -10.968  13.509  68.274  1.00  0.00    -0.280 A  
HETATM   17  C   UNL     1     -10.679  12.142  66.303  1.00  0.00    -0.296 A  
HETATM   18  C   UNL     1     -12.353  13.885  66.322  1.00  0.00    -0.489 A  
ENDBRANCH   3  13
BRANCH   5  19
HETATM   19  C   UNL     1     -10.582   8.259  70.192  1.00  0.00    -0.233 C  
HETATM   20  O   UNL     1     -11.595   8.722  70.690  1.00  0.00    -0.270 OA 
BRANCH  19  21
HETATM   21  O   UNL     1     -10.556   7.148  69.408  1.00  0.00    -0.222 OA 
BRANCH  21  22
HETATM   22  C   UNL     1     -10.861   7.418  68.037  1.00  0.00    -0.061 C  
BRANCH  22  23
HETATM   23  C   UNL     1      -9.700   6.897  67.166  1.00  0.00    -0.154 C  
BRANCH  23  24
HETATM   24  N   UNL     1      -8.615   6.206  67.904  1.00  0.00    -0.115 NA 
HETATM   25  C   UNL     1      -8.379   4.825  67.455  1.00  0.00    -0.104 C  
HETATM   26  C   UNL     1      -7.932   4.757  65.998  1.00  0.00    -0.103 C  
HETATM   27  C   UNL     1      -6.710   5.636  65.737  1.00  0.00    -0.055 C  
HETATM   28  C   UNL     1      -6.775   7.009  66.412  1.00  0.00    -0.053 C  
HETATM   29  C   UNL     1      -7.347   6.947  67.830  1.00  0.00    -0.097 C  
ENDBRANCH  23  24
ENDBRANCH  22  23
ENDBRANCH  21  22
ENDBRANCH  19  21
ENDBRANCH   5  19
TORSDOF 6
ENDMDL
MODEL      149
REMARK 921   NORMALIZED FREE ENERGY PREDICTED BY IDOCK:   -4.64 KCAL/MOL
REMARK 922        TOTAL FREE ENERGY PREDICTED BY IDOCK:   -6.95 KCAL/MOL
REMARK 923 INTER-LIGAND FREE ENERGY PREDICTED BY IDOCK:   -5.88 KCAL/MOL
REMARK 924 INTRA-LIGAND FREE ENERGY PREDICTED BY IDOCK:   -1.07 KCAL/MOL
REMARK 927      BINDING AFFINITY PREDICTED BY RF-SCORE:    0.00 PKD
ROOT
HETATM    1  C   UNL     1      -5.303  14.485  71.497  1.00  0.00    -0.152 C  
HETATM    2  C   UNL     1      -5.742  15.432  70.422  1.00  0.00    -0.127 C  
HETATM    3  C   UNL     1      -6.235  15.111  69.211  1.00  0.00    -0.112 C  
HETATM    4  O   UNL     1      -6.738  16.020  68.302  1.00  0.00    -0.112 OA 
HETATM    5  C   UNL     1      -7.208  18.278  67.658  1.00  0.00    -0.210 A  
HETATM    6  C   UNL     1      -7.016  19.659  67.879  1.00  0.00    -0.290 A  
HETATM    7  C   UNL     1      -6.680  17.361  68.575  1.00  0.00    -0.195 A  
HETATM    8  C   UNL     1      -6.065  17.837  69.731  1.00  0.00    -0.213 A  
HETATM    9  C   UNL     1      -6.340  20.123  69.006  1.00  0.00    -0.360 A  
HETATM   10  O   UNL     1      -5.129  17.261  71.801  1.00  0.00    -0.417 OA 
HETATM   11  C   UNL     1      -5.886  19.210  69.948  1.00  0.00    -0.278 A  
HETATM   12  C   UNL     1      -5.609  16.873  70.744  1.00  0.00     0.018 C  
ENDROOT
BRANCH   3  13
HETATM   13  C   UNL     1      -6.253  13.735  68.693  1.00  0.00    -0.089 A  
HETATM   14  C   UNL     1      -7.283  11.531  68.630  1.00  0.00    -0.102 A  
HETATM   15  C   UNL     1      -5.245  11.944  67.402  1.00  0.00    -0.090 A  
HETATM   16  C   UNL     1      -5.237  13.268  67.854  1.00  0.00    -0.103 A  
HETATM   17  C   UNL     1      -7.278  12.855  69.078  1.00  0.00     0.017 A  
HETATM   18  C   UNL     1      -6.266  11.076  67.792  1.00  0.00    -0.051 A  
ENDBRANCH   3  13
BRANCH   5  19
HETATM   19  C   UNL     1      -7.913  17.801  66.430  1.00  0.00    -0.271 C  
HETATM   20  O   UNL     1      -7.685  18.135  65.279  1.00  0.00    -0.077 OA 
BRANCH  19  21
HETATM   21  O   UNL     1      -8.913  16.956  66.795  1.00  0.00    -0.217 OA 
BRANCH  21  22
HETATM   22  C   UNL     1     -10.025  16.976  65.896  1.00  0.00    -0.217 C  
BRANCH  22  23
HETATM   23  C   UNL     1     -10.873  15.710  66.136  1.00  0.00    -0.264 C  
BRANCH  23  24
HETATM   24  N   UNL     1     -10.714  14.639  65.122  1.00  0.00    -0.385 NA 
HETATM   25  C   UNL     1      -9.856  13.529  65.562  1.00  0.00    -0.143 C  
HETATM   26  C   UNL     1     -10.425  12.802  66.777  1.00  0.00    -0.253 C  
HETATM   27  C   UNL     1     -11.857  12.327  66.535  1.00  0.00    -0.378 C  
HETATM   28  C   UNL     1     -12.742  13.356  65.824  1.00  0.00    -0.383 C  
HETATM   29  C   UNL     1     -12.012  14.092  64.699  1.00  0.00    -0.430 C  
ENDBRANCH  23  24
ENDBRANCH  22  23
ENDBRANCH  21  22
ENDBRANCH  19  21
ENDBRANCH   5  19
TORSDOF 6
ENDMDL
MODEL      150
REMARK 921   NORMALIZED FREE ENERGY PREDICTED BY IDOCK:   -4.60 KCAL/MOL
REMARK 922        TOTAL FREE ENERGY PREDICTED BY IDOCK:   -6.91 KCAL/MOL
REMARK 923 INTER-LIGAND FREE ENERGY PREDICTED BY IDOCK:   -6.02 KCAL/MOL
REMARK 924 INTRA-LIGAND FREE ENERGY PREDICTED BY IDOCK:   -0.89 KCAL/MOL
REMARK 927      BINDING AFFINITY PREDICTED BY RF-SCORE:    0.00 PKD
ROOT
HETATM    1  C   UNL     1      -9.174   5.931  68.816  1.00  0.00    -0.120 C  
HETATM    2  C   UNL     1      -9.203   7.363  68.375  1.00  0.00    -0.138 C  
HETATM    3  C   UNL     1      -9.090   8.453  69.156  1.00  0.00    -0.147 C  
HETATM    4  O   UNL     1      -9.001   9.750  68.686  1.00  0.00    -0.125 OA 
HETATM    5  C   UNL     1      -9.003  11.311  66.871  1.00  0.00    -0.163 A  
HETATM    6  C   UNL     1      -9.260  11.574  65.507  1.00  0.00    -0.156 A  
HETATM    7  C   UNL     1      -9.112   9.997  67.343  1.00  0.00    -0.134 A  
HETATM    8  C   UNL     1      -9.373   8.971  66.438  1.00  0.00    -0.264 A  
HETATM    9  C   UNL     1      -9.586  10.548  64.623  1.00  0.00    -0.349 A  
HETATM   10  O   UNL     1      -9.535   6.652  66.137  1.00  0.00    -0.121 OA 
HETATM   11  C   UNL     1      -9.618   9.239  65.085  1.00  0.00    -0.103 A  
HETATM   12  C   UNL     1      -9.378   7.581  66.919  1.00  0.00    -0.157 C  
ENDROOT
BRANCH   3  13
HETATM   13  C   UNL     1      -9.092   8.391  70.624  1.00  0.00    -0.174 A  
HETATM   14  C   UNL     1     -10.318   8.461  72.725  1.00  0.00    -0.239 A  
HETATM   15  C   UNL     1      -7.910   8.279  72.741  1.00  0.00    -0.181 A  
HETATM   16  C   UNL     1      -7.895   8.296  71.343  1.00  0.00    -0.122 A  
HETATM   17  C   UNL     1     -10.305   8.473  71.328  1.00  0.00    -0.288 A  
HETATM   18  C   UNL     1      -9.120   8.365  73.432  1.00  0.00    -0.145 A  
ENDBRANCH   3  13
BRANCH   5  19
HETATM   19  C   UNL     1      -8.679  12.429  67.808  1.00  0.00    -0.176 C  
HETATM   20  O   UNL     1      -7.579  12.918  68.011  1.00  0.00    -0.111 OA 
BRANCH  19  21
HETATM   21  O   UNL     1      -9.811  12.800  68.462  1.00  0.00    -0.213 OA 
BRANCH  21  22
HETATM   22  C   UNL     1     -10.540  13.830  67.788  1.00  0.00    -0.246 C  
BRANCH  22  23
HETATM   23  C   UNL     1     -10.226  15.177  68.468  1.00  0.00    -0.231 C  
BRANCH  23  24
HETATM   24  N   UNL     1     -10.770  16.375  67.782  1.00  0.00    -0.331 NA 
HETATM   25  C   UNL     1     -10.358  17.648  68.395  1.00  0.00    -0.375 C  
HETATM   26  C   UNL     1      -8.847  17.852  68.347  1.00  0.00    -0.293 C  
HETATM   27  C   UNL     1      -8.301  17.724  66.924  1.00  0.00    -0.257 C  
HETATM   28  C   UNL     1      -8.902  16.561  66.130  1.00  0.00    -0.342 C  
HETATM   29  C   UNL     1     -10.406  16.400  66.357  1.00  0.00    -0.313 C  
ENDBRANCH  23  24
ENDBRANCH  22  23
ENDBRANCH  21  22
ENDBRANCH  19  21
ENDBRANCH   5  19
TORSDOF 6
ENDMDL
MODEL      151
REMARK 921   NORMALIZED FREE ENERGY PREDICTED BY IDOCK:   -4.59 KCAL/MOL
REMARK 922        TOTAL FREE ENERGY PREDICTED BY IDOCK:   -6.88 KCAL/MOL
REMARK 923 INTER-LIGAND FREE ENERGY PREDICTED BY IDOCK:   -6.87 KCAL/MOL
REMARK 924 INTRA-LIGAND FREE ENERGY PREDICTED BY IDOCK:   -0.01 KCAL/MOL
REMARK 927      BINDING AFFINITY PREDICTED BY RF-SCORE:    0.00 PKD
ROOT
HETATM    1  C   UNL     1      -9.286   5.945  66.380  1.00  0.00    -0.171 C  
HETATM    2  C   UNL     1      -9.715   6.911  67.443  1.00  0.00    -0.172 C  
HETATM    3  C   UNL     1      -9.808   8.249  67.331  1.00  0.00    -0.188 C  
HETATM    4  O   UNL     1     -10.324   9.084  68.303  1.00  0.00    -0.198 OA 
HETATM    5  C   UNL     1     -11.247   9.416  70.487  1.00  0.00    -0.329 A  
HETATM    6  C   UNL     1     -11.505   8.902  71.778  1.00  0.00    -0.423 A  
HETATM    7  C   UNL     1     -10.707   8.568  69.512  1.00  0.00    -0.174 A  
HETATM    8  C   UNL     1     -10.532   7.218  69.810  1.00  0.00    -0.236 A  
HETATM    9  C   UNL     1     -11.263   7.565  72.084  1.00  0.00    -0.313 A  
HETATM   10  O   UNL     1      -9.971   5.107  68.960  1.00  0.00    -0.171 OA 
HETATM   11  C   UNL     1     -10.799   6.714  71.090  1.00  0.00    -0.284 A  
HETATM   12  C   UNL     1     -10.069   6.309  68.750  1.00  0.00    -0.161 C  
ENDROOT
BRANCH   3  13
HETATM   13  C   UNL     1      -9.321   8.991  66.159  1.00  0.00    -0.294 A  
HETATM   14  C   UNL     1      -9.710  10.635  64.407  1.00  0.00    -0.368 A  
HETATM   15  C   UNL     1      -7.632   9.406  64.466  1.00  0.00    -0.110 A  
HETATM   16  C   UNL     1      -8.065   8.722  65.606  1.00  0.00    -0.108 A  
HETATM   17  C   UNL     1     -10.141   9.955  65.549  1.00  0.00    -0.297 A  
HETATM   18  C   UNL     1      -8.455  10.360  63.865  1.00  0.00    -0.161 A  
ENDBRANCH   3  13
BRANCH   5  19
HETATM   19  C   UNL     1     -11.490  10.858  70.187  1.00  0.00    -0.319 C  
HETATM   20  O   UNL     1     -12.247  11.612  70.777  1.00  0.00    -0.375 OA 
BRANCH  19  21
HETATM   21  O   UNL     1     -10.765  11.210  69.092  1.00  0.00    -0.213 OA 
BRANCH  21  22
HETATM   22  C   UNL     1     -11.439  12.146  68.245  1.00  0.00    -0.305 C  
BRANCH  22  23
HETATM   23  C   UNL     1     -10.563  13.408  68.115  1.00  0.00    -0.245 C  
BRANCH  23  24
HETATM   24  N   UNL     1      -9.581  13.386  67.002  1.00  0.00    -0.236 NA 
HETATM   25  C   UNL     1      -9.614  14.590  66.159  1.00  0.00    -0.297 C  
HETATM   26  C   UNL     1      -9.257  15.853  66.937  1.00  0.00    -0.247 C  
HETATM   27  C   UNL     1      -7.913  15.719  67.653  1.00  0.00    -0.163 C  
HETATM   28  C   UNL     1      -7.704  14.363  68.334  1.00  0.00    -0.132 C  
HETATM   29  C   UNL     1      -8.208  13.190  67.491  1.00  0.00    -0.183 C  
ENDBRANCH  23  24
ENDBRANCH  22  23
ENDBRANCH  21  22
ENDBRANCH  19  21
ENDBRANCH   5  19
TORSDOF 6
ENDMDL
MODEL      152
REMARK 921   NORMALIZED FREE ENERGY PREDICTED BY IDOCK:   -4.58 KCAL/MOL
REMARK 922        TOTAL FREE ENERGY PREDICTED BY IDOCK:   -6.87 KCAL/MOL
REMARK 923 INTER-LIGAND FREE ENERGY PREDICTED BY IDOCK:   -6.53 KCAL/MOL
REMARK 924 INTRA-LIGAND FREE ENERGY PREDICTED BY IDOCK:   -0.34 KCAL/MOL
REMARK 927      BINDING AFFINITY PREDICTED BY RF-SCORE:    0.00 PKD
ROOT
HETATM    1  C   UNL     1     -12.524   8.726  72.517  1.00  0.00    -0.368 C  
HETATM    2  C   UNL     1     -11.673   8.208  71.398  1.00  0.00    -0.321 C  
HETATM    3  C   UNL     1     -11.172   8.914  70.367  1.00  0.00    -0.230 C  
HETATM    4  O   UNL     1     -10.293   8.415  69.426  1.00  0.00    -0.208 OA 
HETATM    5  C   UNL     1      -9.031   6.596  68.514  1.00  0.00    -0.120 A  
HETATM    6  C   UNL     1      -8.783   5.206  68.466  1.00  0.00    -0.101 A  
HETATM    7  C   UNL     1      -9.938   7.092  69.459  1.00  0.00    -0.164 A  
HETATM    8  C   UNL     1     -10.494   6.217  70.390  1.00  0.00    -0.277 A  
HETATM    9  C   UNL     1      -9.397   4.331  69.360  1.00  0.00    -0.236 A  
HETATM   10  O   UNL     1     -11.808   6.028  72.322  1.00  0.00    -0.319 OA 
HETATM   11  C   UNL     1     -10.235   4.841  70.341  1.00  0.00    -0.261 A  
HETATM   12  C   UNL     1     -11.360   6.760  71.449  1.00  0.00    -0.279 C  
ENDROOT
BRANCH   3  13
HETATM   13  C   UNL     1     -11.547  10.310  70.095  1.00  0.00    -0.376 A  
HETATM   14  C   UNL     1     -11.650  12.192  68.557  1.00  0.00    -0.366 A  
HETATM   15  C   UNL     1     -12.379  12.463  70.843  1.00  0.00    -0.358 A  
HETATM   16  C   UNL     1     -12.066  11.126  71.106  1.00  0.00    -0.302 A  
HETATM   17  C   UNL     1     -11.341  10.855  68.817  1.00  0.00    -0.357 A  
HETATM   18  C   UNL     1     -12.168  12.997  69.571  1.00  0.00    -0.198 A  
ENDBRANCH   3  13
BRANCH   5  19
HETATM   19  C   UNL     1      -8.382   7.513  67.531  1.00  0.00    -0.117 C  
HETATM   20  O   UNL     1      -7.410   8.225  67.726  1.00  0.00    -0.089 OA 
BRANCH  19  21
HETATM   21  O   UNL     1      -9.084   7.482  66.367  1.00  0.00    -0.162 OA 
BRANCH  21  22
HETATM   22  C   UNL     1      -9.774   8.704  66.092  1.00  0.00    -0.222 C  
BRANCH  22  23
HETATM   23  C   UNL     1      -8.950   9.512  65.069  1.00  0.00    -0.213 C  
BRANCH  23  24
HETATM   24  N   UNL     1      -8.617   8.793  63.814  1.00  0.00    -0.106 NA 
HETATM   25  C   UNL     1      -9.077   9.481  62.598  1.00  0.00    -0.199 C  
HETATM   26  C   UNL     1      -8.423  10.848  62.422  1.00  0.00    -0.323 C  
HETATM   27  C   UNL     1      -6.898  10.757  62.459  1.00  0.00    -0.043 C  
HETATM   28  C   UNL     1      -6.356   9.829  63.550  1.00  0.00    -0.116 C  
HETATM   29  C   UNL     1      -7.173   8.543  63.696  1.00  0.00    -0.095 C  
ENDBRANCH  23  24
ENDBRANCH  22  23
ENDBRANCH  21  22
ENDBRANCH  19  21
ENDBRANCH   5  19
TORSDOF 6
ENDMDL
MODEL      153
REMARK 921   NORMALIZED FREE ENERGY PREDICTED BY IDOCK:   -4.56 KCAL/MOL
REMARK 922        TOTAL FREE ENERGY PREDICTED BY IDOCK:   -6.85 KCAL/MOL
REMARK 923 INTER-LIGAND FREE ENERGY PREDICTED BY IDOCK:   -5.74 KCAL/MOL
REMARK 924 INTRA-LIGAND FREE ENERGY PREDICTED BY IDOCK:   -1.11 KCAL/MOL
REMARK 927      BINDING AFFINITY PREDICTED BY RF-SCORE:    0.00 PKD
ROOT
HETATM    1  C   UNL     1      -9.872   3.492  70.920  1.00  0.00    -0.135 C  
HETATM    2  C   UNL     1      -9.317   4.283  69.775  1.00  0.00    -0.231 C  
HETATM    3  C   UNL     1      -9.401   5.615  69.595  1.00  0.00    -0.138 C  
HETATM    4  O   UNL     1      -8.768   6.312  68.585  1.00  0.00    -0.120 OA 
HETATM    5  C   UNL     1      -7.404   6.347  66.617  1.00  0.00    -0.078 A  
HETATM    6  C   UNL     1      -6.797   5.635  65.558  1.00  0.00    -0.056 A  
HETATM    7  C   UNL     1      -8.059   5.633  67.629  1.00  0.00    -0.101 A  
HETATM    8  C   UNL     1      -8.010   4.241  67.618  1.00  0.00    -0.091 A  
HETATM    9  C   UNL     1      -6.812   4.242  65.522  1.00  0.00    -0.057 A  
HETATM   10  O   UNL     1      -8.517   2.278  68.794  1.00  0.00    -0.058 OA 
HETATM   11  C   UNL     1      -7.398   3.543  66.568  1.00  0.00    -0.075 A  
HETATM   12  C   UNL     1      -8.604   3.498  68.739  1.00  0.00    -0.087 C  
ENDROOT
BRANCH   3  13
HETATM   13  C   UNL     1     -10.226   6.487  70.443  1.00  0.00    -0.227 A  
HETATM   14  C   UNL     1     -10.401   8.057  72.294  1.00  0.00    -0.336 A  
HETATM   15  C   UNL     1     -12.392   7.335  71.136  1.00  0.00    -0.381 A  
HETATM   16  C   UNL     1     -11.616   6.531  70.294  1.00  0.00    -0.473 A  
HETATM   17  C   UNL     1      -9.624   7.258  71.451  1.00  0.00    -0.165 A  
HETATM   18  C   UNL     1     -11.786   8.094  72.137  1.00  0.00    -0.418 A  
ENDBRANCH   3  13
BRANCH   5  19
HETATM   19  C   UNL     1      -7.398   7.840  66.624  1.00  0.00    -0.088 C  
HETATM   20  O   UNL     1      -6.655   8.567  67.265  1.00  0.00    -0.057 OA 
BRANCH  19  21
HETATM   21  O   UNL     1      -8.406   8.290  65.830  1.00  0.00    -0.114 OA 
BRANCH  21  22
HETATM   22  C   UNL     1      -7.945   9.064  64.720  1.00  0.00    -0.129 C  
BRANCH  22  23
HETATM   23  C   UNL     1      -8.501  10.496  64.858  1.00  0.00    -0.158 C  
BRANCH  23  24
HETATM   24  N   UNL     1      -9.966  10.590  65.071  1.00  0.00    -0.301 NA 
HETATM   25  C   UNL     1     -10.345  11.396  66.241  1.00  0.00    -0.243 C  
HETATM   26  C   UNL     1      -9.900  12.850  66.113  1.00  0.00    -0.270 C  
HETATM   27  C   UNL     1     -10.406  13.486  64.818  1.00  0.00    -0.405 C  
HETATM   28  C   UNL     1     -10.286  12.579  63.590  1.00  0.00    -0.382 C  
HETATM   29  C   UNL     1     -10.656  11.125  63.887  1.00  0.00    -0.364 C  
ENDBRANCH  23  24
ENDBRANCH  22  23
ENDBRANCH  21  22
ENDBRANCH  19  21
ENDBRANCH   5  19
TORSDOF 6
ENDMDL
MODEL      154
REMARK 921   NORMALIZED FREE ENERGY PREDICTED BY IDOCK:   -4.54 KCAL/MOL
REMARK 922        TOTAL FREE ENERGY PREDICTED BY IDOCK:   -6.82 KCAL/MOL
REMARK 923 INTER-LIGAND FREE ENERGY PREDICTED BY IDOCK:   -4.97 KCAL/MOL
REMARK 924 INTRA-LIGAND FREE ENERGY PREDICTED BY IDOCK:   -1.85 KCAL/MOL
REMARK 927      BINDING AFFINITY PREDICTED BY RF-SCORE:    0.00 PKD
ROOT
HETATM    1  C   UNL     1     -13.109   8.440  71.506  1.00  0.00    -0.316 C  
HETATM    2  C   UNL     1     -11.801   7.830  71.101  1.00  0.00    -0.311 C  
HETATM    3  C   UNL     1     -10.874   8.369  70.286  1.00  0.00    -0.239 C  
HETATM    4  O   UNL     1      -9.631   7.819  70.040  1.00  0.00    -0.161 OA 
HETATM    5  C   UNL     1      -8.036   6.059  70.341  1.00  0.00    -0.107 A  
HETATM    6  C   UNL     1      -7.759   4.745  70.778  1.00  0.00    -0.069 A  
HETATM    7  C   UNL     1      -9.304   6.603  70.579  1.00  0.00    -0.166 A  
HETATM    8  C   UNL     1     -10.226   5.872  71.326  1.00  0.00    -0.262 A  
HETATM    9  C   UNL     1      -8.712   3.997  71.467  1.00  0.00    -0.137 A  
HETATM   10  O   UNL     1     -12.319   5.902  72.380  1.00  0.00    -0.198 OA 
HETATM   11  C   UNL     1      -9.940   4.572  71.763  1.00  0.00    -0.264 A  
HETATM   12  C   UNL     1     -11.516   6.490  71.667  1.00  0.00    -0.297 C  
ENDROOT
BRANCH   3  13
HETATM   13  C   UNL     1     -11.101   9.601  69.519  1.00  0.00    -0.198 A  
HETATM   14  C   UNL     1     -11.274  10.734  67.372  1.00  0.00    -0.315 A  
HETATM   15  C   UNL     1     -11.444  12.002  69.419  1.00  0.00    -0.361 A  
HETATM   16  C   UNL     1     -11.270  10.831  70.164  1.00  0.00    -0.345 A  
HETATM   17  C   UNL     1     -11.105   9.562  68.115  1.00  0.00    -0.052 A  
HETATM   18  C   UNL     1     -11.443  11.954  68.025  1.00  0.00    -0.389 A  
ENDBRANCH   3  13
BRANCH   5  19
HETATM   19  C   UNL     1      -7.009   6.834  69.582  1.00  0.00    -0.063 C  
HETATM   20  O   UNL     1      -6.137   7.549  70.051  1.00  0.00    -0.027 OA 
BRANCH  19  21
HETATM   21  O   UNL     1      -7.224   6.667  68.250  1.00  0.00    -0.080 OA 
BRANCH  21  22
HETATM   22  C   UNL     1      -6.260   7.340  67.435  1.00  0.00    -0.050 C  
BRANCH  22  23
HETATM   23  C   UNL     1      -6.908   8.619  66.866  1.00  0.00    -0.070 C  
BRANCH  23  24
HETATM   24  N   UNL     1      -6.027   9.812  66.826  1.00  0.00    -0.055 NA 
HETATM   25  C   UNL     1      -6.554  10.910  66.001  1.00  0.00    -0.080 C  
HETATM   26  C   UNL     1      -7.878  11.451  66.531  1.00  0.00    -0.105 C  
HETATM   27  C   UNL     1      -7.776  11.865  67.999  1.00  0.00    -0.132 C  
HETATM   28  C   UNL     1      -6.993  10.879  68.871  1.00  0.00    -0.084 C  
HETATM   29  C   UNL     1      -5.747  10.328  68.174  1.00  0.00    -0.037 C  
ENDBRANCH  23  24
ENDBRANCH  22  23
ENDBRANCH  21  22
ENDBRANCH  19  21
ENDBRANCH   5  19
TORSDOF 6
ENDMDL
MODEL      155
REMARK 921   NORMALIZED FREE ENERGY PREDICTED BY IDOCK:   -4.46 KCAL/MOL
REMARK 922        TOTAL FREE ENERGY PREDICTED BY IDOCK:   -6.72 KCAL/MOL
REMARK 923 INTER-LIGAND FREE ENERGY PREDICTED BY IDOCK:   -5.60 KCAL/MOL
REMARK 924 INTRA-LIGAND FREE ENERGY PREDICTED BY IDOCK:   -1.11 KCAL/MOL
REMARK 927      BINDING AFFINITY PREDICTED BY RF-SCORE:    0.00 PKD
ROOT
HETATM    1  C   UNL     1     -14.186   8.495  71.523  1.00  0.00    -0.448 C  
HETATM    2  C   UNL     1     -12.732   8.146  71.619  1.00  0.00    -0.343 C  
HETATM    3  C   UNL     1     -11.687   8.937  71.310  1.00  0.00    -0.306 C  
HETATM    4  O   UNL     1     -10.363   8.611  71.530  1.00  0.00    -0.222 OA 
HETATM    5  C   UNL     1      -8.696   7.057  72.263  1.00  0.00    -0.134 A  
HETATM    6  C   UNL     1      -8.359   5.736  72.634  1.00  0.00    -0.116 A  
HETATM    7  C   UNL     1     -10.038   7.375  72.024  1.00  0.00    -0.182 A  
HETATM    8  C   UNL     1     -11.016   6.409  72.254  1.00  0.00    -0.289 A  
HETATM    9  C   UNL     1      -9.339   4.760  72.797  1.00  0.00    -0.146 A  
HETATM   10  O   UNL     1     -13.316   5.974  72.370  1.00  0.00     0.199 OA 
HETATM   11  C   UNL     1     -10.674   5.104  72.631  1.00  0.00    -0.291 A  
HETATM   12  C   UNL     1     -12.432   6.779  72.108  1.00  0.00    -0.159 C  
ENDROOT
BRANCH   3  13
HETATM   13  C   UNL     1     -11.838  10.242  70.649  1.00  0.00    -0.439 A  
HETATM   14  C   UNL     1     -11.438  11.678  68.727  1.00  0.00    -0.346 A  
HETATM   15  C   UNL     1     -12.529  12.568  70.688  1.00  0.00    -0.323 A  
HETATM   16  C   UNL     1     -12.430  11.321  71.314  1.00  0.00    -0.441 A  
HETATM   17  C   UNL     1     -11.343  10.431  69.349  1.00  0.00    -0.310 A  
HETATM   18  C   UNL     1     -12.031  12.747  69.397  1.00  0.00    -0.321 A  
ENDBRANCH   3  13
BRANCH   5  19
HETATM   19  C   UNL     1      -7.627   8.083  72.070  1.00  0.00    -0.091 C  
HETATM   20  O   UNL     1      -7.326   8.980  72.840  1.00  0.00    -0.324 OA 
BRANCH  19  21
HETATM   21  O   UNL     1      -7.056   7.901  70.850  1.00  0.00    -0.048 OA 
BRANCH  21  22
HETATM   22  C   UNL     1      -5.832   8.623  70.687  1.00  0.00    -0.032 C  
BRANCH  22  23
HETATM   23  C   UNL     1      -5.714   9.061  69.213  1.00  0.00    -0.035 C  
BRANCH  23  24
HETATM   24  N   UNL     1      -6.638   8.379  68.274  1.00  0.00    -0.059 NA 
HETATM   25  C   UNL     1      -7.828   9.174  67.932  1.00  0.00    -0.100 C  
HETATM   26  C   UNL     1      -7.471  10.474  67.217  1.00  0.00    -0.095 C  
HETATM   27  C   UNL     1      -6.603  10.224  65.984  1.00  0.00    -0.109 C  
HETATM   28  C   UNL     1      -5.496   9.189  66.202  1.00  0.00    -0.041 C  
HETATM   29  C   UNL     1      -5.959   7.988  67.029  1.00  0.00    -0.052 C  
ENDBRANCH  23  24
ENDBRANCH  22  23
ENDBRANCH  21  22
ENDBRANCH  19  21
ENDBRANCH   5  19
TORSDOF 6
ENDMDL
MODEL      156
REMARK 921   NORMALIZED FREE ENERGY PREDICTED BY IDOCK:   -4.46 KCAL/MOL
REMARK 922        TOTAL FREE ENERGY PREDICTED BY IDOCK:   -6.71 KCAL/MOL
REMARK 923 INTER-LIGAND FREE ENERGY PREDICTED BY IDOCK:   -4.60 KCAL/MOL
REMARK 924 INTRA-LIGAND FREE ENERGY PREDICTED BY IDOCK:   -2.11 KCAL/MOL
REMARK 927      BINDING AFFINITY PREDICTED BY RF-SCORE:    0.00 PKD
ROOT
HETATM    1  C   UNL     1      -8.427   8.213  72.941  1.00  0.00    -0.259 C  
HETATM    2  C   UNL     1      -8.608   8.003  71.468  1.00  0.00    -0.157 C  
HETATM    3  C   UNL     1      -9.304   7.018  70.870  1.00  0.00    -0.157 C  
HETATM    4  O   UNL     1      -9.541   6.938  69.512  1.00  0.00    -0.149 OA 
HETATM    5  C   UNL     1      -9.242   7.784  67.292  1.00  0.00    -0.162 A  
HETATM    6  C   UNL     1      -8.550   8.648  66.415  1.00  0.00    -0.130 A  
HETATM    7  C   UNL     1      -8.983   7.860  68.667  1.00  0.00    -0.134 A  
HETATM    8  C   UNL     1      -8.125   8.850  69.141  1.00  0.00    -0.117 A  
HETATM    9  C   UNL     1      -7.644   9.591  66.895  1.00  0.00    -0.095 A  
HETATM   10  O   UNL     1      -7.249   9.900  71.045  1.00  0.00    -0.330 OA 
HETATM   11  C   UNL     1      -7.450   9.709  68.264  1.00  0.00    -0.077 A  
HETATM   12  C   UNL     1      -7.941   8.997  70.593  1.00  0.00    -0.141 C  
ENDROOT
BRANCH   3  13
HETATM   13  C   UNL     1      -9.862   5.873  71.603  1.00  0.00    -0.197 A  
HETATM   14  C   UNL     1     -11.610   4.934  73.012  1.00  0.00    -0.284 A  
HETATM   15  C   UNL     1      -9.690   3.594  72.420  1.00  0.00    -0.215 A  
HETATM   16  C   UNL     1      -9.166   4.662  71.685  1.00  0.00    -0.183 A  
HETATM   17  C   UNL     1     -11.090   6.000  72.274  1.00  0.00    -0.324 A  
HETATM   18  C   UNL     1     -10.909   3.731  73.086  1.00  0.00    -0.257 A  
ENDBRANCH   3  13
BRANCH   5  19
HETATM   19  C   UNL     1     -10.192   6.764  66.755  1.00  0.00    -0.202 C  
HETATM   20  O   UNL     1     -11.407   6.761  66.871  1.00  0.00    -0.318 OA 
BRANCH  19  21
HETATM   21  O   UNL     1      -9.482   5.779  66.143  1.00  0.00    -0.159 OA 
BRANCH  21  22
HETATM   22  C   UNL     1      -9.777   4.474  66.650  1.00  0.00    -0.207 C  
BRANCH  22  23
HETATM   23  C   UNL     1      -8.764   4.140  67.763  1.00  0.00    -0.107 C  
BRANCH  23  24
HETATM   24  N   UNL     1      -7.394   3.813  67.295  1.00  0.00    -0.067 NA 
HETATM   25  C   UNL     1      -6.474   4.960  67.307  1.00  0.00    -0.045 C  
HETATM   26  C   UNL     1      -6.258   5.516  68.712  1.00  0.00    -0.033 C  
HETATM   27  C   UNL     1      -5.800   4.432  69.687  1.00  0.00    -0.018 C  
HETATM   28  C   UNL     1      -6.549   3.105  69.539  1.00  0.00    -0.033 C  
HETATM   29  C   UNL     1      -6.797   2.721  68.079  1.00  0.00    -0.048 C  
ENDBRANCH  23  24
ENDBRANCH  22  23
ENDBRANCH  21  22
ENDBRANCH  19  21
ENDBRANCH   5  19
TORSDOF 6
ENDMDL
MODEL      157
REMARK 921   NORMALIZED FREE ENERGY PREDICTED BY IDOCK:   -4.42 KCAL/MOL
REMARK 922        TOTAL FREE ENERGY PREDICTED BY IDOCK:   -6.65 KCAL/MOL
REMARK 923 INTER-LIGAND FREE ENERGY PREDICTED BY IDOCK:   -4.53 KCAL/MOL
REMARK 924 INTRA-LIGAND FREE ENERGY PREDICTED BY IDOCK:   -2.12 KCAL/MOL
REMARK 927      BINDING AFFINITY PREDICTED BY RF-SCORE:    0.00 PKD
ROOT
HETATM    1  C   UNL     1      -9.786   7.585  73.811  1.00  0.00    -0.303 C  
HETATM    2  C   UNL     1      -9.674   6.448  72.840  1.00  0.00    -0.164 C  
HETATM    3  C   UNL     1      -9.273   6.515  71.557  1.00  0.00    -0.144 C  
HETATM    4  O   UNL     1      -9.071   5.421  70.739  1.00  0.00    -0.137 OA 
HETATM    5  C   UNL     1      -9.140   3.056  70.371  1.00  0.00    -0.192 A  
HETATM    6  C   UNL     1      -9.576   1.782  70.797  1.00  0.00    -0.162 A  
HETATM    7  C   UNL     1      -9.363   4.164  71.198  1.00  0.00    -0.150 A  
HETATM    8  C   UNL     1      -9.920   3.966  72.460  1.00  0.00    -0.225 A  
HETATM    9  C   UNL     1     -10.193   1.606  72.034  1.00  0.00    -0.225 A  
HETATM   10  O   UNL     1     -10.473   4.963  74.508  1.00  0.00    -0.273 OA 
HETATM   11  C   UNL     1     -10.342   2.697  72.878  1.00  0.00    -0.239 A  
HETATM   12  C   UNL     1     -10.052   5.115  73.368  1.00  0.00    -0.177 C  
ENDROOT
BRANCH   3  13
HETATM   13  C   UNL     1      -9.042   7.786  70.856  1.00  0.00    -0.150 A  
HETATM   14  C   UNL     1      -7.557   9.628  70.286  1.00  0.00    -0.175 A  
HETATM   15  C   UNL     1      -9.853   9.657  69.539  1.00  0.00    -0.219 A  
HETATM   16  C   UNL     1     -10.077   8.428  70.167  1.00  0.00    -0.193 A  
HETATM   17  C   UNL     1      -7.778   8.397  70.910  1.00  0.00    -0.088 A  
HETATM   18  C   UNL     1      -8.595  10.258  69.602  1.00  0.00    -0.126 A  
ENDBRANCH   3  13
BRANCH   5  19
HETATM   19  C   UNL     1      -8.503   3.227  69.031  1.00  0.00    -0.063 C  
HETATM   20  O   UNL     1      -7.309   3.306  68.792  1.00  0.00    -0.049 OA 
BRANCH  19  21
HETATM   21  O   UNL     1      -9.478   3.339  68.090  1.00  0.00    -0.192 OA 
BRANCH  21  22
HETATM   22  C   UNL     1      -8.969   3.390  66.754  1.00  0.00    -0.154 C  
BRANCH  22  23
HETATM   23  C   UNL     1      -9.111   4.833  66.230  1.00  0.00    -0.122 C  
BRANCH  23  24
HETATM   24  N   UNL     1      -7.900   5.395  65.582  1.00  0.00    -0.098 NA 
HETATM   25  C   UNL     1      -8.153   6.628  64.821  1.00  0.00    -0.099 C  
HETATM   26  C   UNL     1      -8.655   7.764  65.707  1.00  0.00    -0.162 C  
HETATM   27  C   UNL     1      -7.714   8.026  66.882  1.00  0.00    -0.099 C  
HETATM   28  C   UNL     1      -7.194   6.755  67.558  1.00  0.00    -0.090 C  
HETATM   29  C   UNL     1      -6.831   5.655  66.558  1.00  0.00    -0.059 C  
ENDBRANCH  23  24
ENDBRANCH  22  23
ENDBRANCH  21  22
ENDBRANCH  19  21
ENDBRANCH   5  19
TORSDOF 6
ENDMDL
MODEL      158
REMARK 921   NORMALIZED FREE ENERGY PREDICTED BY IDOCK:   -4.36 KCAL/MOL
REMARK 922        TOTAL FREE ENERGY PREDICTED BY IDOCK:   -6.58 KCAL/MOL
REMARK 923 INTER-LIGAND FREE ENERGY PREDICTED BY IDOCK:   -4.91 KCAL/MOL
REMARK 924 INTRA-LIGAND FREE ENERGY PREDICTED BY IDOCK:   -1.67 KCAL/MOL
REMARK 927      BINDING AFFINITY PREDICTED BY RF-SCORE:    0.00 PKD
ROOT
HETATM    1  C   UNL     1      -6.467  14.576  67.479  1.00  0.00    -0.070 C  
HETATM    2  C   UNL     1      -7.196  13.374  67.998  1.00  0.00    -0.123 C  
HETATM    3  C   UNL     1      -8.455  13.001  67.704  1.00  0.00    -0.187 C  
HETATM    4  O   UNL     1      -9.040  11.818  68.114  1.00  0.00    -0.173 OA 
HETATM    5  C   UNL     1      -8.946   9.765  69.341  1.00  0.00    -0.197 A  
HETATM    6  C   UNL     1      -8.294   8.967  70.308  1.00  0.00    -0.167 A  
HETATM    7  C   UNL     1      -8.355  10.971  68.944  1.00  0.00    -0.123 A  
HETATM    8  C   UNL     1      -7.096  11.304  69.438  1.00  0.00    -0.090 A  
HETATM    9  C   UNL     1      -7.065   9.343  70.845  1.00  0.00    -0.098 A  
HETATM   10  O   UNL     1      -5.296  12.799  69.296  1.00  0.00    -0.069 OA 
HETATM   11  C   UNL     1      -6.452  10.502  70.390  1.00  0.00    -0.117 A  
HETATM   12  C   UNL     1      -6.431  12.516  68.935  1.00  0.00    -0.091 C  
ENDROOT
BRANCH   3  13
HETATM   13  C   UNL     1      -9.383  13.846  66.938  1.00  0.00    -0.265 A  
HETATM   14  C   UNL     1     -10.759  14.191  64.961  1.00  0.00    -0.429 A  
HETATM   15  C   UNL     1     -10.565  15.941  66.614  1.00  0.00    -0.305 A  
HETATM   16  C   UNL     1      -9.714  15.133  67.375  1.00  0.00    -0.209 A  
HETATM   17  C   UNL     1      -9.913  13.381  65.723  1.00  0.00    -0.264 A  
HETATM   18  C   UNL     1     -11.084  15.472  65.407  1.00  0.00    -0.303 A  
ENDBRANCH   3  13
BRANCH   5  19
HETATM   19  C   UNL     1     -10.275   9.356  68.796  1.00  0.00    -0.203 C  
HETATM   20  O   UNL     1     -11.366   9.796  69.120  1.00  0.00    -0.124 OA 
BRANCH  19  21
HETATM   21  O   UNL     1     -10.094   8.353  67.896  1.00  0.00    -0.182 OA 
BRANCH  21  22
HETATM   22  C   UNL     1     -10.138   8.799  66.538  1.00  0.00    -0.279 C  
BRANCH  22  23
HETATM   23  C   UNL     1      -8.890   8.265  65.806  1.00  0.00    -0.155 C  
BRANCH  23  24
HETATM   24  N   UNL     1      -8.553   8.959  64.539  1.00  0.00    -0.161 NA 
HETATM   25  C   UNL     1      -8.046  10.327  64.730  1.00  0.00    -0.151 C  
HETATM   26  C   UNL     1      -6.744  10.358  65.523  1.00  0.00    -0.121 C  
HETATM   27  C   UNL     1      -5.677   9.459  64.899  1.00  0.00    -0.063 C  
HETATM   28  C   UNL     1      -6.206   8.102  64.426  1.00  0.00    -0.064 C  
HETATM   29  C   UNL     1      -7.573   8.201  63.746  1.00  0.00    -0.128 C  
ENDBRANCH  23  24
ENDBRANCH  22  23
ENDBRANCH  21  22
ENDBRANCH  19  21
ENDBRANCH   5  19
TORSDOF 6
ENDMDL
MODEL      159
REMARK 921   NORMALIZED FREE ENERGY PREDICTED BY IDOCK:   -4.35 KCAL/MOL
REMARK 922        TOTAL FREE ENERGY PREDICTED BY IDOCK:   -6.57 KCAL/MOL
REMARK 923 INTER-LIGAND FREE ENERGY PREDICTED BY IDOCK:   -5.54 KCAL/MOL
REMARK 924 INTRA-LIGAND FREE ENERGY PREDICTED BY IDOCK:   -1.03 KCAL/MOL
REMARK 927      BINDING AFFINITY PREDICTED BY RF-SCORE:    0.00 PKD
ROOT
HETATM    1  C   UNL     1      -9.519   7.733  73.521  1.00  0.00    -0.346 C  
HETATM    2  C   UNL     1      -9.220   8.262  72.151  1.00  0.00    -0.289 C  
HETATM    3  C   UNL     1     -10.107   8.735  71.255  1.00  0.00    -0.266 C  
HETATM    4  O   UNL     1      -9.769   9.325  70.052  1.00  0.00    -0.181 OA 
HETATM    5  C   UNL     1      -8.117   9.998  68.455  1.00  0.00    -0.103 A  
HETATM    6  C   UNL     1      -6.782   9.927  67.998  1.00  0.00    -0.061 A  
HETATM    7  C   UNL     1      -8.455   9.383  69.667  1.00  0.00    -0.164 A  
HETATM    8  C   UNL     1      -7.449   8.803  70.437  1.00  0.00    -0.072 A  
HETATM    9  C   UNL     1      -5.796   9.286  68.746  1.00  0.00    -0.040 A  
HETATM   10  O   UNL     1      -6.919   7.802  72.489  1.00  0.00    -0.065 OA 
HETATM   11  C   UNL     1      -6.126   8.745  69.981  1.00  0.00    -0.037 A  
HETATM   12  C   UNL     1      -7.791   8.256  71.759  1.00  0.00    -0.118 C  
ENDROOT
BRANCH   3  13
HETATM   13  C   UNL     1     -11.562   8.636  71.438  1.00  0.00    -0.354 A  
HETATM   14  C   UNL     1     -13.686   9.696  71.972  1.00  0.00    -0.396 A  
HETATM   15  C   UNL     1     -13.595   7.317  71.569  1.00  0.00    -0.442 A  
HETATM   16  C   UNL     1     -12.216   7.402  71.352  1.00  0.00    -0.374 A  
HETATM   17  C   UNL     1     -12.309   9.783  71.750  1.00  0.00    -0.470 A  
HETATM   18  C   UNL     1     -14.329   8.462  71.883  1.00  0.00    -0.561 A  
ENDBRANCH   3  13
BRANCH   5  19
HETATM   19  C   UNL     1      -9.163  10.668  67.627  1.00  0.00    -0.146 C  
HETATM   20  O   UNL     1     -10.123  10.138  67.090  1.00  0.00    -0.189 OA 
BRANCH  19  21
HETATM   21  O   UNL     1      -8.855  11.987  67.506  1.00  0.00    -0.159 OA 
BRANCH  21  22
HETATM   22  C   UNL     1      -9.415  12.794  68.546  1.00  0.00    -0.092 C  
BRANCH  22  23
HETATM   23  C   UNL     1      -8.645  14.129  68.598  1.00  0.00    -0.126 C  
BRANCH  23  24
HETATM   24  N   UNL     1      -7.211  14.047  68.228  1.00  0.00    -0.101 NA 
HETATM   25  C   UNL     1      -6.536  15.354  68.179  1.00  0.00    -0.125 C  
HETATM   26  C   UNL     1      -6.525  16.052  69.535  1.00  0.00    -0.187 C  
HETATM   27  C   UNL     1      -5.927  15.165  70.626  1.00  0.00    -0.031 C  
HETATM   28  C   UNL     1      -6.389  13.706  70.565  1.00  0.00     0.066 C  
HETATM   29  C   UNL     1      -6.462  13.165  69.136  1.00  0.00    -0.107 C  
ENDBRANCH  23  24
ENDBRANCH  22  23
ENDBRANCH  21  22
ENDBRANCH  19  21
ENDBRANCH   5  19
TORSDOF 6
ENDMDL
MODEL      160
REMARK 921   NORMALIZED FREE ENERGY PREDICTED BY IDOCK:   -4.34 KCAL/MOL
REMARK 922        TOTAL FREE ENERGY PREDICTED BY IDOCK:   -6.54 KCAL/MOL
REMARK 923 INTER-LIGAND FREE ENERGY PREDICTED BY IDOCK:   -6.24 KCAL/MOL
REMARK 924 INTRA-LIGAND FREE ENERGY PREDICTED BY IDOCK:   -0.30 KCAL/MOL
REMARK 927      BINDING AFFINITY PREDICTED BY RF-SCORE:    0.00 PKD
ROOT
HETATM    1  C   UNL     1      -9.207  16.183  68.407  1.00  0.00    -0.203 C  
HETATM    2  C   UNL     1      -9.321  14.688  68.420  1.00  0.00    -0.201 C  
HETATM    3  C   UNL     1     -10.248  13.952  69.061  1.00  0.00    -0.059 C  
HETATM    4  O   UNL     1     -10.383  12.583  68.943  1.00  0.00    -0.161 OA 
HETATM    5  C   UNL     1      -9.636  10.486  68.062  1.00  0.00    -0.159 A  
HETATM    6  C   UNL     1      -8.627   9.743  67.409  1.00  0.00    -0.128 A  
HETATM    7  C   UNL     1      -9.484  11.871  68.194  1.00  0.00    -0.195 A  
HETATM    8  C   UNL     1      -8.392  12.494  67.591  1.00  0.00    -0.172 A  
HETATM    9  C   UNL     1      -7.505  10.368  66.869  1.00  0.00    -0.107 A  
HETATM   10  O   UNL     1      -7.385  14.542  67.059  1.00  0.00    -0.055 OA 
HETATM   11  C   UNL     1      -7.400  11.751  66.938  1.00  0.00    -0.104 A  
HETATM   12  C   UNL     1      -8.294  13.961  67.638  1.00  0.00    -0.181 C  
ENDROOT
BRANCH   3  13
HETATM   13  C   UNL     1     -11.211  14.528  70.011  1.00  0.00    -0.228 A  
HETATM   14  C   UNL     1     -13.484  14.666  70.869  1.00  0.00    -0.293 A  
HETATM   15  C   UNL     1     -11.767  16.106  71.770  1.00  0.00    -0.568 A  
HETATM   16  C   UNL     1     -10.830  15.539  70.900  1.00  0.00    -0.248 A  
HETATM   17  C   UNL     1     -12.548  14.096  70.003  1.00  0.00    -0.268 A  
HETATM   18  C   UNL     1     -13.094  15.672  71.752  1.00  0.00    -0.546 A  
ENDBRANCH   3  13
BRANCH   5  19
HETATM   19  C   UNL     1     -10.818   9.793  68.657  1.00  0.00    -0.188 C  
HETATM   20  O   UNL     1     -11.772  10.316  69.210  1.00  0.00    -0.181 OA 
BRANCH  19  21
HETATM   21  O   UNL     1     -10.649   8.449  68.537  1.00  0.00    -0.191 OA 
BRANCH  21  22
HETATM   22  C   UNL     1     -11.033   7.726  69.710  1.00  0.00    -0.158 C  
BRANCH  22  23
HETATM   23  C   UNL     1      -9.840   7.708  70.687  1.00  0.00    -0.182 C  
BRANCH  23  24
HETATM   24  N   UNL     1     -10.100   8.315  72.015  1.00  0.00    -0.235 NA 
HETATM   25  C   UNL     1     -11.245   7.723  72.724  1.00  0.00    -0.398 C  
HETATM   26  C   UNL     1     -11.035   6.244  73.031  1.00  0.00    -0.271 C  
HETATM   27  C   UNL     1      -9.732   6.001  73.793  1.00  0.00    -0.173 C  
HETATM   28  C   UNL     1      -8.543   6.808  73.264  1.00  0.00    -0.136 C  
HETATM   29  C   UNL     1      -8.918   8.243  72.888  1.00  0.00    -0.254 C  
ENDBRANCH  23  24
ENDBRANCH  22  23
ENDBRANCH  21  22
ENDBRANCH  19  21
ENDBRANCH   5  19
TORSDOF 6
ENDMDL
MODEL      161
REMARK 921   NORMALIZED FREE ENERGY PREDICTED BY IDOCK:   -4.32 KCAL/MOL
REMARK 922        TOTAL FREE ENERGY PREDICTED BY IDOCK:   -6.53 KCAL/MOL
REMARK 923 INTER-LIGAND FREE ENERGY PREDICTED BY IDOCK:   -5.34 KCAL/MOL
REMARK 924 INTRA-LIGAND FREE ENERGY PREDICTED BY IDOCK:   -1.19 KCAL/MOL
REMARK 927      BINDING AFFINITY PREDICTED BY RF-SCORE:    0.00 PKD
ROOT
HETATM    1  C   UNL     1     -10.132   4.634  66.357  1.00  0.00    -0.289 C  
HETATM    2  C   UNL     1      -9.572   5.913  66.901  1.00  0.00    -0.156 C  
HETATM    3  C   UNL     1      -8.504   6.590  66.440  1.00  0.00    -0.124 C  
HETATM    4  O   UNL     1      -8.100   7.828  66.901  1.00  0.00    -0.112 OA 
HETATM    5  C   UNL     1      -8.354   9.674  68.404  1.00  0.00    -0.117 A  
HETATM    6  C   UNL     1      -8.938  10.202  69.577  1.00  0.00    -0.205 A  
HETATM    7  C   UNL     1      -8.755   8.411  67.953  1.00  0.00    -0.138 A  
HETATM    8  C   UNL     1      -9.790   7.752  68.615  1.00  0.00    -0.174 A  
HETATM    9  C   UNL     1      -9.926   9.505  70.269  1.00  0.00    -0.310 A  
HETATM   10  O   UNL     1     -11.237   5.908  68.590  1.00  0.00    -0.238 OA 
HETATM   11  C   UNL     1     -10.371   8.288  69.772  1.00  0.00    -0.216 A  
HETATM   12  C   UNL     1     -10.284   6.477  68.073  1.00  0.00    -0.164 C  
ENDROOT
BRANCH   3  13
HETATM   13  C   UNL     1      -7.604   6.059  65.406  1.00  0.00    -0.086 A  
HETATM   14  C   UNL     1      -5.526   4.944  64.805  1.00  0.00    -0.013 A  
HETATM   15  C   UNL     1      -7.004   5.752  63.075  1.00  0.00    -0.047 A  
HETATM   16  C   UNL     1      -7.890   6.226  64.047  1.00  0.00    -0.116 A  
HETATM   17  C   UNL     1      -6.413   5.413  65.777  1.00  0.00    -0.040 A  
HETATM   18  C   UNL     1      -5.821   5.115  63.453  1.00  0.00    -0.017 A  
ENDBRANCH   3  13
BRANCH   5  19
HETATM   19  C   UNL     1      -7.279  10.427  67.692  1.00  0.00    -0.086 C  
HETATM   20  O   UNL     1      -6.094  10.137  67.637  1.00  0.00    -0.056 OA 
BRANCH  19  21
HETATM   21  O   UNL     1      -7.815  11.547  67.140  1.00  0.00    -0.144 OA 
BRANCH  21  22
HETATM   22  C   UNL     1      -8.438  11.309  65.874  1.00  0.00    -0.060 C  
BRANCH  22  23
HETATM   23  C   UNL     1      -9.826  11.983  65.877  1.00  0.00    -0.238 C  
BRANCH  23  24
HETATM   24  N   UNL     1     -10.055  12.965  64.788  1.00  0.00    -0.259 NA 
HETATM   25  C   UNL     1     -10.334  12.347  63.483  1.00  0.00    -0.362 C  
HETATM   26  C   UNL     1     -11.609  11.510  63.497  1.00  0.00    -0.294 C  
HETATM   27  C   UNL     1     -12.811  12.315  63.992  1.00  0.00    -0.387 C  
HETATM   28  C   UNL     1     -12.510  13.199  65.206  1.00  0.00    -0.550 C  
HETATM   29  C   UNL     1     -11.149  13.892  65.113  1.00  0.00    -0.334 C  
ENDBRANCH  23  24
ENDBRANCH  22  23
ENDBRANCH  21  22
ENDBRANCH  19  21
ENDBRANCH   5  19
TORSDOF 6
ENDMDL
MODEL      162
REMARK 921   NORMALIZED FREE ENERGY PREDICTED BY IDOCK:   -4.32 KCAL/MOL
REMARK 922        TOTAL FREE ENERGY PREDICTED BY IDOCK:   -6.52 KCAL/MOL
REMARK 923 INTER-LIGAND FREE ENERGY PREDICTED BY IDOCK:   -5.82 KCAL/MOL
REMARK 924 INTRA-LIGAND FREE ENERGY PREDICTED BY IDOCK:   -0.70 KCAL/MOL
REMARK 927      BINDING AFFINITY PREDICTED BY RF-SCORE:    0.00 PKD
ROOT
HETATM    1  C   UNL     1      -9.046  15.476  66.098  1.00  0.00    -0.359 C  
HETATM    2  C   UNL     1      -8.734  14.164  66.751  1.00  0.00    -0.148 C  
HETATM    3  C   UNL     1      -9.295  12.971  66.480  1.00  0.00    -0.217 C  
HETATM    4  O   UNL     1      -8.887  11.769  67.025  1.00  0.00    -0.169 OA 
HETATM    5  C   UNL     1      -7.475  10.529  68.509  1.00  0.00    -0.091 A  
HETATM    6  C   UNL     1      -6.560  10.531  69.585  1.00  0.00    -0.098 A  
HETATM    7  C   UNL     1      -7.898  11.752  67.973  1.00  0.00    -0.134 A  
HETATM    8  C   UNL     1      -7.330  12.932  68.448  1.00  0.00    -0.119 A  
HETATM    9  C   UNL     1      -6.049  11.722  70.097  1.00  0.00    -0.147 A  
HETATM   10  O   UNL     1      -7.163  15.252  68.155  1.00  0.00    -0.108 OA 
HETATM   11  C   UNL     1      -6.416  12.925  69.509  1.00  0.00    -0.075 A  
HETATM   12  C   UNL     1      -7.695  14.205  67.808  1.00  0.00    -0.168 C  
ENDROOT
BRANCH   3  13
HETATM   13  C   UNL     1     -10.455  12.814  65.590  1.00  0.00    -0.297 A  
HETATM   14  C   UNL     1     -12.859  12.934  65.238  1.00  0.00    -0.219 A  
HETATM   15  C   UNL     1     -11.422  12.135  63.470  1.00  0.00    -0.544 A  
HETATM   16  C   UNL     1     -10.304  12.318  64.291  1.00  0.00    -0.375 A  
HETATM   17  C   UNL     1     -11.743  13.122  66.057  1.00  0.00    -0.424 A  
HETATM   18  C   UNL     1     -12.698  12.440  63.944  1.00  0.00    -0.457 A  
ENDBRANCH   3  13
BRANCH   5  19
HETATM   19  C   UNL     1      -8.030   9.242  67.992  1.00  0.00    -0.100 C  
HETATM   20  O   UNL     1      -9.148   9.056  67.538  1.00  0.00    -0.131 OA 
BRANCH  19  21
HETATM   21  O   UNL     1      -7.100   8.264  68.153  1.00  0.00    -0.078 OA 
BRANCH  21  22
HETATM   22  C   UNL     1      -7.399   7.075  67.416  1.00  0.00    -0.092 C  
BRANCH  22  23
HETATM   23  C   UNL     1      -7.933   6.012  68.398  1.00  0.00    -0.107 C  
BRANCH  23  24
HETATM   24  N   UNL     1      -9.344   5.605  68.186  1.00  0.00    -0.110 NA 
HETATM   25  C   UNL     1      -9.535   4.149  68.101  1.00  0.00    -0.158 C  
HETATM   26  C   UNL     1      -9.138   3.436  69.389  1.00  0.00    -0.199 C  
HETATM   27  C   UNL     1      -9.860   4.015  70.606  1.00  0.00    -0.229 C  
HETATM   28  C   UNL     1      -9.931   5.545  70.616  1.00  0.00    -0.270 C  
HETATM   29  C   UNL     1     -10.227   6.135  69.236  1.00  0.00    -0.201 C  
ENDBRANCH  23  24
ENDBRANCH  22  23
ENDBRANCH  21  22
ENDBRANCH  19  21
ENDBRANCH   5  19
TORSDOF 6
ENDMDL
MODEL      163
REMARK 921   NORMALIZED FREE ENERGY PREDICTED BY IDOCK:   -4.26 KCAL/MOL
REMARK 922        TOTAL FREE ENERGY PREDICTED BY IDOCK:   -6.45 KCAL/MOL
REMARK 923 INTER-LIGAND FREE ENERGY PREDICTED BY IDOCK:   -5.49 KCAL/MOL
REMARK 924 INTRA-LIGAND FREE ENERGY PREDICTED BY IDOCK:   -0.96 KCAL/MOL
REMARK 927      BINDING AFFINITY PREDICTED BY RF-SCORE:    0.00 PKD
ROOT
HETATM    1  C   UNL     1      -7.979   5.362  70.926  1.00  0.00    -0.104 C  
HETATM    2  C   UNL     1      -7.704   6.747  70.422  1.00  0.00    -0.100 C  
HETATM    3  C   UNL     1      -8.190   7.311  69.300  1.00  0.00    -0.131 C  
HETATM    4  O   UNL     1      -8.003   8.632  68.941  1.00  0.00    -0.109 OA 
HETATM    5  C   UNL     1      -7.039  10.784  69.352  1.00  0.00    -0.122 A  
HETATM    6  C   UNL     1      -6.109  11.572  70.066  1.00  0.00    -0.151 A  
HETATM    7  C   UNL     1      -7.210   9.441  69.711  1.00  0.00    -0.076 A  
HETATM    8  C   UNL     1      -6.533   8.945  70.823  1.00  0.00    -0.052 A  
HETATM    9  C   UNL     1      -5.387  11.046  71.136  1.00  0.00    -0.067 A  
HETATM   10  O   UNL     1      -6.272   7.123  72.274  1.00  0.00    -0.044 OA 
HETATM   11  C   UNL     1      -5.618   9.736  71.531  1.00  0.00    -0.055 A  
HETATM   12  C   UNL     1      -6.798   7.566  71.261  1.00  0.00    -0.050 C  
ENDROOT
BRANCH   3  13
HETATM   13  C   UNL     1      -8.949   6.560  68.290  1.00  0.00    -0.121 A  
HETATM   14  C   UNL     1      -8.990   4.959  66.458  1.00  0.00    -0.112 A  
HETATM   15  C   UNL     1     -11.022   6.083  67.120  1.00  0.00    -0.360 A  
HETATM   16  C   UNL     1     -10.320   6.775  68.114  1.00  0.00    -0.219 A  
HETATM   17  C   UNL     1      -8.289   5.646  67.453  1.00  0.00    -0.100 A  
HETATM   18  C   UNL     1     -10.357   5.179  66.291  1.00  0.00    -0.313 A  
ENDBRANCH   3  13
BRANCH   5  19
HETATM   19  C   UNL     1      -7.784  11.361  68.194  1.00  0.00    -0.118 C  
HETATM   20  O   UNL     1      -7.436  11.356  67.024  1.00  0.00    -0.132 OA 
BRANCH  19  21
HETATM   21  O   UNL     1      -8.917  11.958  68.650  1.00  0.00    -0.142 OA 
BRANCH  21  22
HETATM   22  C   UNL     1      -9.255  13.149  67.932  1.00  0.00    -0.207 C  
BRANCH  22  23
HETATM   23  C   UNL     1     -10.517  12.871  67.091  1.00  0.00    -0.238 C  
BRANCH  23  24
HETATM   24  N   UNL     1     -11.027  14.028  66.313  1.00  0.00    -0.298 NA 
HETATM   25  C   UNL     1     -10.330  14.235  65.034  1.00  0.00    -0.421 C  
HETATM   26  C   UNL     1     -10.497  13.053  64.084  1.00  0.00    -0.395 C  
HETATM   27  C   UNL     1     -11.970  12.708  63.860  1.00  0.00    -0.558 C  
HETATM   28  C   UNL     1     -12.817  12.740  65.135  1.00  0.00    -0.237 C  
HETATM   29  C   UNL     1     -12.469  13.915  66.051  1.00  0.00    -0.461 C  
ENDBRANCH  23  24
ENDBRANCH  22  23
ENDBRANCH  21  22
ENDBRANCH  19  21
ENDBRANCH   5  19
TORSDOF 6
ENDMDL
MODEL      164
REMARK 921   NORMALIZED FREE ENERGY PREDICTED BY IDOCK:   -4.25 KCAL/MOL
REMARK 922        TOTAL FREE ENERGY PREDICTED BY IDOCK:   -6.43 KCAL/MOL
REMARK 923 INTER-LIGAND FREE ENERGY PREDICTED BY IDOCK:   -6.03 KCAL/MOL
REMARK 924 INTRA-LIGAND FREE ENERGY PREDICTED BY IDOCK:   -0.39 KCAL/MOL
REMARK 927      BINDING AFFINITY PREDICTED BY RF-SCORE:    0.00 PKD
ROOT
HETATM    1  C   UNL     1      -7.541   8.112  72.835  1.00  0.00    -0.181 C  
HETATM    2  C   UNL     1      -7.628   8.655  71.441  1.00  0.00    -0.136 C  
HETATM    3  C   UNL     1      -8.733   9.094  70.810  1.00  0.00    -0.236 C  
HETATM    4  O   UNL     1      -8.741   9.699  69.568  1.00  0.00    -0.155 OA 
HETATM    5  C   UNL     1      -7.586  10.440  67.606  1.00  0.00    -0.089 A  
HETATM    6  C   UNL     1      -6.413  10.423  66.819  1.00  0.00    -0.076 A  
HETATM    7  C   UNL     1      -7.576   9.810  68.857  1.00  0.00    -0.081 A  
HETATM    8  C   UNL     1      -6.383   9.269  69.334  1.00  0.00    -0.044 A  
HETATM    9  C   UNL     1      -5.244   9.820  67.279  1.00  0.00    -0.035 A  
HETATM   10  O   UNL     1      -5.302   8.287  71.166  1.00  0.00    -0.029 OA 
HETATM   11  C   UNL     1      -5.222   9.264  68.550  1.00  0.00    -0.034 A  
HETATM   12  C   UNL     1      -6.349   8.706  70.692  1.00  0.00    -0.039 C  
ENDROOT
BRANCH   3  13
HETATM   13  C   UNL     1     -10.086   8.937  71.363  1.00  0.00    -0.379 A  
HETATM   14  C   UNL     1     -11.671   7.663  72.700  1.00  0.00    -0.323 A  
HETATM   15  C   UNL     1     -12.403   9.643  71.527  1.00  0.00    -0.477 A  
HETATM   16  C   UNL     1     -11.110   9.829  71.027  1.00  0.00    -0.431 A  
HETATM   17  C   UNL     1     -10.378   7.851  72.204  1.00  0.00    -0.297 A  
HETATM   18  C   UNL     1     -12.684   8.559  72.360  1.00  0.00    -0.394 A  
ENDBRANCH   3  13
BRANCH   5  19
HETATM   19  C   UNL     1      -8.836  11.069  67.085  1.00  0.00    -0.140 C  
HETATM   20  O   UNL     1      -9.837  10.492  66.690  1.00  0.00    -0.186 OA 
BRANCH  19  21
HETATM   21  O   UNL     1      -8.675  12.419  67.062  1.00  0.00    -0.196 OA 
BRANCH  21  22
HETATM   22  C   UNL     1      -9.502  13.102  68.009  1.00  0.00    -0.220 C  
BRANCH  22  23
HETATM   23  C   UNL     1      -9.901  14.468  67.416  1.00  0.00    -0.227 C  
BRANCH  23  24
HETATM   24  N   UNL     1      -8.957  15.578  67.691  1.00  0.00    -0.182 NA 
HETATM   25  C   UNL     1      -8.692  16.435  66.525  1.00  0.00    -0.289 C  
HETATM   26  C   UNL     1      -9.949  17.138  66.024  1.00  0.00    -0.270 C  
HETATM   27  C   UNL     1     -10.642  17.924  67.137  1.00  0.00    -0.315 C  
HETATM   28  C   UNL     1     -10.710  17.180  68.474  1.00  0.00    -0.326 C  
HETATM   29  C   UNL     1      -9.420  16.425  68.801  1.00  0.00    -0.247 C  
ENDBRANCH  23  24
ENDBRANCH  22  23
ENDBRANCH  21  22
ENDBRANCH  19  21
ENDBRANCH   5  19
TORSDOF 6
ENDMDL
MODEL      165
REMARK 921   NORMALIZED FREE ENERGY PREDICTED BY IDOCK:   -4.21 KCAL/MOL
REMARK 922        TOTAL FREE ENERGY PREDICTED BY IDOCK:   -6.37 KCAL/MOL
REMARK 923 INTER-LIGAND FREE ENERGY PREDICTED BY IDOCK:   -5.82 KCAL/MOL
REMARK 924 INTRA-LIGAND FREE ENERGY PREDICTED BY IDOCK:   -0.55 KCAL/MOL
REMARK 927      BINDING AFFINITY PREDICTED BY RF-SCORE:    0.00 PKD
ROOT
HETATM    1  C   UNL     1      -5.438  13.915  70.848  1.00  0.00    -0.170 C  
HETATM    2  C   UNL     1      -5.909  15.062  70.006  1.00  0.00    -0.135 C  
HETATM    3  C   UNL     1      -6.494  14.991  68.796  1.00  0.00    -0.082 C  
HETATM    4  O   UNL     1      -7.020  16.071  68.113  1.00  0.00    -0.115 OA 
HETATM    5  C   UNL     1      -7.442  18.422  67.944  1.00  0.00    -0.245 A  
HETATM    6  C   UNL     1      -7.181  19.730  68.408  1.00  0.00    -0.352 A  
HETATM    7  C   UNL     1      -6.891  17.333  68.630  1.00  0.00    -0.207 A  
HETATM    8  C   UNL     1      -6.183  17.563  69.808  1.00  0.00    -0.183 A  
HETATM    9  C   UNL     1      -6.415  19.951  69.551  1.00  0.00    -0.389 A  
HETATM   10  O   UNL     1      -5.135  16.576  71.658  1.00  0.00    -0.306 OA 
HETATM   11  C   UNL     1      -5.935  18.863  70.267  1.00  0.00    -0.163 A  
HETATM   12  C   UNL     1      -5.699  16.411  70.585  1.00  0.00     0.029 C  
ENDROOT
BRANCH   3  13
HETATM   13  C   UNL     1      -6.601  13.741  68.030  1.00  0.00    -0.142 A  
HETATM   14  C   UNL     1      -5.524  11.894  66.868  1.00  0.00    -0.096 A  
HETATM   15  C   UNL     1      -7.932  12.070  66.878  1.00  0.00    -0.112 A  
HETATM   16  C   UNL     1      -7.848  13.238  67.642  1.00  0.00    -0.168 A  
HETATM   17  C   UNL     1      -5.439  13.059  67.636  1.00  0.00    -0.093 A  
HETATM   18  C   UNL     1      -6.771  11.401  66.488  1.00  0.00    -0.070 A  
ENDBRANCH   3  13
BRANCH   5  19
HETATM   19  C   UNL     1      -8.245  18.208  66.703  1.00  0.00    -0.262 C  
HETATM   20  O   UNL     1      -8.517  19.041  65.853  1.00  0.00    -0.464 OA 
BRANCH  19  21
HETATM   21  O   UNL     1      -8.690  16.923  66.680  1.00  0.00    -0.213 OA 
BRANCH  21  22
HETATM   22  C   UNL     1     -10.115  16.819  66.735  1.00  0.00    -0.294 C  
BRANCH  22  23
HETATM   23  C   UNL     1     -10.505  16.135  68.061  1.00  0.00    -0.281 C  
BRANCH  23  24
HETATM   24  N   UNL     1     -11.893  15.614  68.121  1.00  0.00    -0.201 NA 
HETATM   25  C   UNL     1     -12.014  14.203  67.723  1.00  0.00    -0.354 C  
HETATM   26  C   UNL     1     -11.233  13.271  68.644  1.00  0.00    -0.311 C  
HETATM   27  C   UNL     1     -11.622  13.465  70.110  1.00  0.00    -0.171 C  
HETATM   28  C   UNL     1     -11.778  14.931  70.524  1.00  0.00    -0.344 C  
HETATM   29  C   UNL     1     -12.479  15.777  69.460  1.00  0.00     0.074 C  
ENDBRANCH  23  24
ENDBRANCH  22  23
ENDBRANCH  21  22
ENDBRANCH  19  21
ENDBRANCH   5  19
TORSDOF 6
ENDMDL
MODEL      166
REMARK 921   NORMALIZED FREE ENERGY PREDICTED BY IDOCK:   -4.20 KCAL/MOL
REMARK 922        TOTAL FREE ENERGY PREDICTED BY IDOCK:   -6.36 KCAL/MOL
REMARK 923 INTER-LIGAND FREE ENERGY PREDICTED BY IDOCK:   -5.02 KCAL/MOL
REMARK 924 INTRA-LIGAND FREE ENERGY PREDICTED BY IDOCK:   -1.34 KCAL/MOL
REMARK 927      BINDING AFFINITY PREDICTED BY RF-SCORE:    0.00 PKD
ROOT
HETATM    1  C   UNL     1      -5.805  13.337  69.900  1.00  0.00    -0.130 C  
HETATM    2  C   UNL     1      -6.878  12.966  68.922  1.00  0.00    -0.095 C  
HETATM    3  C   UNL     1      -7.519  13.790  68.072  1.00  0.00    -0.139 C  
HETATM    4  O   UNL     1      -8.415  13.378  67.105  1.00  0.00    -0.199 OA 
HETATM    5  C   UNL     1      -9.660  11.641  66.024  1.00  0.00    -0.249 A  
HETATM    6  C   UNL     1     -10.125  10.308  66.032  1.00  0.00    -0.311 A  
HETATM    7  C   UNL     1      -8.765  12.056  67.019  1.00  0.00    -0.188 A  
HETATM    8  C   UNL     1      -8.282  11.119  67.929  1.00  0.00    -0.121 A  
HETATM    9  C   UNL     1      -9.685   9.395  66.989  1.00  0.00    -0.233 A  
HETATM   10  O   UNL     1      -6.764  10.719  69.670  1.00  0.00    -0.092 OA 
HETATM   11  C   UNL     1      -8.742   9.796  67.925  1.00  0.00    -0.125 A  
HETATM   12  C   UNL     1      -7.260  11.533  68.903  1.00  0.00    -0.117 C  
ENDROOT
BRANCH   3  13
HETATM   13  C   UNL     1      -7.370  15.252  68.108  1.00  0.00    -0.119 A  
HETATM   14  C   UNL     1      -7.163  17.369  66.927  1.00  0.00    -0.231 A  
HETATM   15  C   UNL     1      -7.018  17.315  69.336  1.00  0.00    -0.123 A  
HETATM   16  C   UNL     1      -7.201  15.929  69.321  1.00  0.00    -0.217 A  
HETATM   17  C   UNL     1      -7.350  15.984  66.910  1.00  0.00    -0.236 A  
HETATM   18  C   UNL     1      -6.996  18.034  68.140  1.00  0.00    -0.224 A  
ENDBRANCH   3  13
BRANCH   5  19
HETATM   19  C   UNL     1     -10.163  12.610  65.005  1.00  0.00    -0.273 C  
HETATM   20  O   UNL     1      -9.671  12.845  63.912  1.00  0.00    -0.152 OA 
BRANCH  19  21
HETATM   21  O   UNL     1     -11.251  13.253  65.505  1.00  0.00    -0.287 OA 
BRANCH  21  22
HETATM   22  C   UNL     1     -11.168  14.676  65.388  1.00  0.00    -0.347 C  
BRANCH  22  23
HETATM   23  C   UNL     1     -10.824  15.262  66.773  1.00  0.00    -0.312 C  
BRANCH  23  24
HETATM   24  N   UNL     1     -11.961  15.354  67.722  1.00  0.00    -0.030 NA 
HETATM   25  C   UNL     1     -12.385  14.055  68.267  1.00  0.00     0.023 C  
HETATM   26  C   UNL     1     -11.284  13.379  69.078  1.00  0.00    -0.323 C  
HETATM   27  C   UNL     1     -10.751  14.291  70.183  1.00  0.00     0.297 C  
HETATM   28  C   UNL     1     -10.540  15.743  69.743  1.00  0.00    -0.312 C  
HETATM   29  C   UNL     1     -11.663  16.260  68.842  1.00  0.00    -0.160 C  
ENDBRANCH  23  24
ENDBRANCH  22  23
ENDBRANCH  21  22
ENDBRANCH  19  21
ENDBRANCH   5  19
TORSDOF 6
ENDMDL
MODEL      167
REMARK 921   NORMALIZED FREE ENERGY PREDICTED BY IDOCK:   -4.19 KCAL/MOL
REMARK 922        TOTAL FREE ENERGY PREDICTED BY IDOCK:   -6.35 KCAL/MOL
REMARK 923 INTER-LIGAND FREE ENERGY PREDICTED BY IDOCK:   -5.14 KCAL/MOL
REMARK 924 INTRA-LIGAND FREE ENERGY PREDICTED BY IDOCK:   -1.21 KCAL/MOL
REMARK 927      BINDING AFFINITY PREDICTED BY RF-SCORE:    0.00 PKD
ROOT
HETATM    1  C   UNL     1      -6.513  14.608  67.591  1.00  0.00    -0.157 C  
HETATM    2  C   UNL     1      -7.128  13.338  68.095  1.00  0.00    -0.111 C  
HETATM    3  C   UNL     1      -8.351  12.858  67.799  1.00  0.00    -0.178 C  
HETATM    4  O   UNL     1      -8.825  11.622  68.194  1.00  0.00    -0.151 OA 
HETATM    5  C   UNL     1      -8.542   9.568  69.391  1.00  0.00    -0.159 A  
HETATM    6  C   UNL     1      -7.817   8.818  70.344  1.00  0.00    -0.098 A  
HETATM    7  C   UNL     1      -8.063  10.827  69.009  1.00  0.00    -0.140 A  
HETATM    8  C   UNL     1      -6.837  11.265  69.504  1.00  0.00    -0.115 A  
HETATM    9  C   UNL     1      -6.624   9.296  70.883  1.00  0.00    -0.089 A  
HETATM   10  O   UNL     1      -5.180  12.918  69.379  1.00  0.00    -0.073 OA 
HETATM   11  C   UNL     1      -6.120  10.512  70.443  1.00  0.00    -0.125 A  
HETATM   12  C   UNL     1      -6.286  12.539  69.017  1.00  0.00    -0.087 C  
ENDROOT
BRANCH   3  13
HETATM   13  C   UNL     1      -9.353  13.626  67.048  1.00  0.00    -0.249 A  
HETATM   14  C   UNL     1     -11.032  15.387  66.985  1.00  0.00    -0.306 A  
HETATM   15  C   UNL     1     -10.654  14.013  65.035  1.00  0.00    -0.426 A  
HETATM   16  C   UNL     1      -9.668  13.299  65.724  1.00  0.00    -0.149 A  
HETATM   17  C   UNL     1     -10.044  14.677  67.673  1.00  0.00    -0.228 A  
HETATM   18  C   UNL     1     -11.338  15.053  65.666  1.00  0.00    -0.297 A  
ENDBRANCH   3  13
BRANCH   5  19
HETATM   19  C   UNL     1      -9.831   9.049  68.844  1.00  0.00    -0.175 C  
HETATM   20  O   UNL     1     -10.047   8.685  67.699  1.00  0.00    -0.185 OA 
BRANCH  19  21
HETATM   21  O   UNL     1     -10.774   9.090  69.822  1.00  0.00    -0.225 OA 
BRANCH  21  22
HETATM   22  C   UNL     1     -11.334   7.808  70.119  1.00  0.00    -0.110 C  
BRANCH  22  23
HETATM   23  C   UNL     1     -10.934   7.421  71.558  1.00  0.00    -0.230 C  
BRANCH  23  24
HETATM   24  N   UNL     1     -10.989   5.969  71.861  1.00  0.00    -0.253 NA 
HETATM   25  C   UNL     1     -10.274   5.132  70.885  1.00  0.00    -0.229 C  
HETATM   26  C   UNL     1      -8.781   5.441  70.839  1.00  0.00    -0.140 C  
HETATM   27  C   UNL     1      -8.138   5.344  72.222  1.00  0.00    -0.107 C  
HETATM   28  C   UNL     1      -8.974   5.970  73.342  1.00  0.00    -0.129 C  
HETATM   29  C   UNL     1     -10.469   5.674  73.205  1.00  0.00    -0.221 C  
ENDBRANCH  23  24
ENDBRANCH  22  23
ENDBRANCH  21  22
ENDBRANCH  19  21
ENDBRANCH   5  19
TORSDOF 6
ENDMDL
MODEL      168
REMARK 921   NORMALIZED FREE ENERGY PREDICTED BY IDOCK:   -4.15 KCAL/MOL
REMARK 922        TOTAL FREE ENERGY PREDICTED BY IDOCK:   -6.30 KCAL/MOL
REMARK 923 INTER-LIGAND FREE ENERGY PREDICTED BY IDOCK:   -4.45 KCAL/MOL
REMARK 924 INTRA-LIGAND FREE ENERGY PREDICTED BY IDOCK:   -1.85 KCAL/MOL
REMARK 927      BINDING AFFINITY PREDICTED BY RF-SCORE:    0.00 PKD
ROOT
HETATM    1  C   UNL     1     -10.957   6.791  72.936  1.00  0.00    -0.297 C  
HETATM    2  C   UNL     1     -10.238   6.714  71.623  1.00  0.00    -0.212 C  
HETATM    3  C   UNL     1      -8.906   6.688  71.430  1.00  0.00    -0.139 C  
HETATM    4  O   UNL     1      -8.293   6.494  70.207  1.00  0.00    -0.123 OA 
HETATM    5  C   UNL     1      -8.429   6.182  67.837  1.00  0.00    -0.116 A  
HETATM    6  C   UNL     1      -9.206   6.226  66.658  1.00  0.00    -0.158 A  
HETATM    7  C   UNL     1      -9.054   6.396  69.072  1.00  0.00    -0.130 A  
HETATM    8  C   UNL     1     -10.439   6.549  69.114  1.00  0.00    -0.260 A  
HETATM    9  C   UNL     1     -10.581   6.445  66.707  1.00  0.00    -0.328 A  
HETATM   10  O   UNL     1     -12.323   6.729  70.496  1.00  0.00    -0.326 OA 
HETATM   11  C   UNL     1     -11.203   6.582  67.940  1.00  0.00    -0.257 A  
HETATM   12  C   UNL     1     -11.103   6.664  70.421  1.00  0.00    -0.322 C  
ENDROOT
BRANCH   3  13
HETATM   13  C   UNL     1      -7.935   6.910  72.511  1.00  0.00    -0.099 A  
HETATM   14  C   UNL     1      -6.546   8.435  73.802  1.00  0.00    -0.139 A  
HETATM   15  C   UNL     1      -6.439   6.060  74.223  1.00  0.00    -0.075 A  
HETATM   16  C   UNL     1      -7.393   5.836  73.225  1.00  0.00    -0.094 A  
HETATM   17  C   UNL     1      -7.502   8.213  72.808  1.00  0.00    -0.163 A  
HETATM   18  C   UNL     1      -6.013   7.358  74.509  1.00  0.00    -0.081 A  
ENDBRANCH   3  13
BRANCH   5  19
HETATM   19  C   UNL     1      -6.953   5.970  67.761  1.00  0.00    -0.069 C  
HETATM   20  O   UNL     1      -6.318   5.056  68.262  1.00  0.00    -0.033 OA 
BRANCH  19  21
HETATM   21  O   UNL     1      -6.393   7.003  67.078  1.00  0.00    -0.044 OA 
BRANCH  21  22
HETATM   22  C   UNL     1      -6.084   8.126  67.907  1.00  0.00    -0.047 C  
BRANCH  22  23
HETATM   23  C   UNL     1      -6.670   9.394  67.253  1.00  0.00    -0.075 C  
BRANCH  23  24
HETATM   24  N   UNL     1      -6.861  10.548  68.166  1.00  0.00    -0.071 NA 
HETATM   25  C   UNL     1      -7.298  11.776  67.485  1.00  0.00    -0.127 C  
HETATM   26  C   UNL     1      -8.656  11.614  66.809  1.00  0.00    -0.180 C  
HETATM   27  C   UNL     1      -9.721  11.119  67.788  1.00  0.00    -0.183 C  
HETATM   28  C   UNL     1      -9.238  10.007  68.723  1.00  0.00    -0.159 C  
HETATM   29  C   UNL     1      -7.817  10.240  69.240  1.00  0.00    -0.142 C  
ENDBRANCH  23  24
ENDBRANCH  22  23
ENDBRANCH  21  22
ENDBRANCH  19  21
ENDBRANCH   5  19
TORSDOF 6
ENDMDL
MODEL      169
REMARK 921   NORMALIZED FREE ENERGY PREDICTED BY IDOCK:   -4.15 KCAL/MOL
REMARK 922        TOTAL FREE ENERGY PREDICTED BY IDOCK:   -6.30 KCAL/MOL
REMARK 923 INTER-LIGAND FREE ENERGY PREDICTED BY IDOCK:   -5.75 KCAL/MOL
REMARK 924 INTRA-LIGAND FREE ENERGY PREDICTED BY IDOCK:   -0.55 KCAL/MOL
REMARK 927      BINDING AFFINITY PREDICTED BY RF-SCORE:    0.00 PKD
ROOT
HETATM    1  C   UNL     1      -6.648  20.509  68.680  1.00  0.00    -0.247 C  
HETATM    2  C   UNL     1      -6.851  19.028  68.784  1.00  0.00    -0.332 C  
HETATM    3  C   UNL     1      -7.754  18.286  68.117  1.00  0.00    -0.279 C  
HETATM    4  O   UNL     1      -7.821  16.906  68.158  1.00  0.00    -0.178 OA 
HETATM    5  C   UNL     1      -7.039  14.808  69.005  1.00  0.00    -0.127 A  
HETATM    6  C   UNL     1      -6.271  14.104  69.959  1.00  0.00    -0.151 A  
HETATM    7  C   UNL     1      -6.980  16.207  68.982  1.00  0.00    -0.178 A  
HETATM    8  C   UNL     1      -6.091  16.862  69.832  1.00  0.00    -0.190 A  
HETATM    9  C   UNL     1      -5.436  14.774  70.851  1.00  0.00    -0.145 A  
HETATM   10  O   UNL     1      -5.131  18.920  70.413  1.00  0.00    -0.185 OA 
HETATM   11  C   UNL     1      -5.327  16.156  70.770  1.00  0.00    -0.117 A  
HETATM   12  C   UNL     1      -5.952  18.323  69.729  1.00  0.00    -0.236 C  
ENDROOT
BRANCH   3  13
HETATM   13  C   UNL     1      -8.819  18.872  67.290  1.00  0.00    -0.297 A  
HETATM   14  C   UNL     1     -11.137  18.875  66.548  1.00  0.00     0.144 A  
HETATM   15  C   UNL     1      -9.560  20.429  65.583  1.00  0.00     0.099 A  
HETATM   16  C   UNL     1      -8.545  19.909  66.393  1.00  0.00    -0.386 A  
HETATM   17  C   UNL     1     -10.125  18.359  67.362  1.00  0.00    -0.369 A  
HETATM   18  C   UNL     1     -10.854  19.910  65.658  1.00  0.00    -0.299 A  
ENDBRANCH   3  13
BRANCH   5  19
HETATM   19  C   UNL     1      -7.947  14.072  68.076  1.00  0.00    -0.152 C  
HETATM   20  O   UNL     1      -9.166  14.024  68.128  1.00  0.00    -0.184 OA 
BRANCH  19  21
HETATM   21  O   UNL     1      -7.196  13.399  67.165  1.00  0.00    -0.075 OA 
BRANCH  21  22
HETATM   22  C   UNL     1      -7.326  11.978  67.267  1.00  0.00    -0.151 C  
BRANCH  22  23
HETATM   23  C   UNL     1      -7.980  11.452  65.973  1.00  0.00     0.095 C  
BRANCH  23  24
HETATM   24  N   UNL     1      -9.216  10.655  66.168  1.00  0.00    -0.167 NA 
HETATM   25  C   UNL     1     -10.441  11.467  66.234  1.00  0.00    -0.251 C  
HETATM   26  C   UNL     1     -10.699  12.235  64.941  1.00  0.00    -0.335 C  
HETATM   27  C   UNL     1     -10.718  11.309  63.725  1.00  0.00    -0.448 C  
HETATM   28  C   UNL     1      -9.612  10.250  63.732  1.00  0.00    -0.344 C  
HETATM   29  C   UNL     1      -9.382   9.640  65.116  1.00  0.00    -0.259 C  
ENDBRANCH  23  24
ENDBRANCH  22  23
ENDBRANCH  21  22
ENDBRANCH  19  21
ENDBRANCH   5  19
TORSDOF 6
ENDMDL
MODEL      170
REMARK 921   NORMALIZED FREE ENERGY PREDICTED BY IDOCK:   -4.13 KCAL/MOL
REMARK 922        TOTAL FREE ENERGY PREDICTED BY IDOCK:   -6.27 KCAL/MOL
REMARK 923 INTER-LIGAND FREE ENERGY PREDICTED BY IDOCK:   -4.86 KCAL/MOL
REMARK 924 INTRA-LIGAND FREE ENERGY PREDICTED BY IDOCK:   -1.41 KCAL/MOL
REMARK 927      BINDING AFFINITY PREDICTED BY RF-SCORE:    0.00 PKD
ROOT
HETATM    1  C   UNL     1      -7.692   3.332  69.694  1.00  0.00    -0.044 C  
HETATM    2  C   UNL     1      -8.084   4.755  69.430  1.00  0.00    -0.070 C  
HETATM    3  C   UNL     1      -8.158   5.365  68.232  1.00  0.00    -0.095 C  
HETATM    4  O   UNL     1      -8.641   6.643  68.031  1.00  0.00    -0.119 OA 
HETATM    5  C   UNL     1      -9.515   8.699  68.894  1.00  0.00    -0.146 A  
HETATM    6  C   UNL     1      -9.755   9.533  70.008  1.00  0.00    -0.271 A  
HETATM    7  C   UNL     1      -9.008   7.410  69.105  1.00  0.00    -0.135 A  
HETATM    8  C   UNL     1      -8.848   6.950  70.411  1.00  0.00    -0.152 A  
HETATM    9  C   UNL     1      -9.528   9.085  71.308  1.00  0.00    -0.339 A  
HETATM   10  O   UNL     1      -8.338   5.104  71.761  1.00  0.00    -0.114 OA 
HETATM   11  C   UNL     1      -9.097   7.781  71.511  1.00  0.00    -0.158 A  
HETATM   12  C   UNL     1      -8.421   5.560  70.628  1.00  0.00    -0.121 C  
ENDROOT
BRANCH   3  13
HETATM   13  C   UNL     1      -7.683   4.746  66.986  1.00  0.00    -0.091 A  
HETATM   14  C   UNL     1      -5.897   4.375  65.376  1.00  0.00    -0.022 A  
HETATM   15  C   UNL     1      -8.097   3.470  64.964  1.00  0.00    -0.090 A  
HETATM   16  C   UNL     1      -8.553   4.018  66.167  1.00  0.00    -0.110 A  
HETATM   17  C   UNL     1      -6.350   4.919  66.581  1.00  0.00    -0.040 A  
HETATM   18  C   UNL     1      -6.771   3.651  64.567  1.00  0.00    -0.044 A  
ENDBRANCH   3  13
BRANCH   5  19
HETATM   19  C   UNL     1      -9.741   9.207  67.508  1.00  0.00    -0.160 C  
HETATM   20  O   UNL     1     -10.645   8.892  66.751  1.00  0.00    -0.243 OA 
BRANCH  19  21
HETATM   21  O   UNL     1      -8.733  10.058  67.179  1.00  0.00    -0.128 OA 
BRANCH  21  22
HETATM   22  C   UNL     1      -9.127  11.062  66.240  1.00  0.00    -0.182 C  
BRANCH  22  23
HETATM   23  C   UNL     1      -9.296  12.398  66.992  1.00  0.00    -0.204 C  
BRANCH  23  24
HETATM   24  N   UNL     1     -10.540  13.145  66.685  1.00  0.00    -0.277 NA 
HETATM   25  C   UNL     1     -11.767  12.355  66.871  1.00  0.00    -0.362 C  
HETATM   26  C   UNL     1     -11.955  11.908  68.318  1.00  0.00    -0.235 C  
HETATM   27  C   UNL     1     -11.908  13.089  69.287  1.00  0.00    -0.370 C  
HETATM   28  C   UNL     1     -10.803  14.104  68.979  1.00  0.00    -0.273 C  
HETATM   29  C   UNL     1     -10.647  14.376  67.482  1.00  0.00    -0.265 C  
ENDBRANCH  23  24
ENDBRANCH  22  23
ENDBRANCH  21  22
ENDBRANCH  19  21
ENDBRANCH   5  19
TORSDOF 6
ENDMDL
MODEL      171
REMARK 921   NORMALIZED FREE ENERGY PREDICTED BY IDOCK:   -4.13 KCAL/MOL
REMARK 922        TOTAL FREE ENERGY PREDICTED BY IDOCK:   -6.27 KCAL/MOL
REMARK 923 INTER-LIGAND FREE ENERGY PREDICTED BY IDOCK:   -6.48 KCAL/MOL
REMARK 924 INTRA-LIGAND FREE ENERGY PREDICTED BY IDOCK:    0.21 KCAL/MOL
REMARK 927      BINDING AFFINITY PREDICTED BY RF-SCORE:    0.00 PKD
ROOT
HETATM    1  C   UNL     1     -12.705  13.550  70.040  1.00  0.00    -0.005 C  
HETATM    2  C   UNL     1     -12.029  12.213  70.034  1.00  0.00    -0.391 C  
HETATM    3  C   UNL     1     -11.058  11.800  69.198  1.00  0.00    -0.238 C  
HETATM    4  O   UNL     1     -10.382  10.600  69.310  1.00  0.00    -0.207 OA 
HETATM    5  C   UNL     1     -10.044   8.495  70.400  1.00  0.00    -0.208 A  
HETATM    6  C   UNL     1     -10.515   7.516  71.302  1.00  0.00    -0.220 A  
HETATM    7  C   UNL     1     -10.745   9.702  70.278  1.00  0.00    -0.281 A  
HETATM    8  C   UNL     1     -11.828   9.945  71.121  1.00  0.00    -0.472 A  
HETATM    9  C   UNL     1     -11.639   7.743  72.093  1.00  0.00    -0.367 A  
HETATM   10  O   UNL     1     -13.402  11.525  71.841  1.00  0.00    -0.443 OA 
HETATM   11  C   UNL     1     -12.283   8.971  72.020  1.00  0.00    -0.446 A  
HETATM   12  C   UNL     1     -12.493  11.255  71.067  1.00  0.00    -0.400 C  
ENDROOT
BRANCH   3  13
HETATM   13  C   UNL     1     -10.631  12.573  68.023  1.00  0.00    -0.237 A  
HETATM   14  C   UNL     1      -9.013  14.044  66.955  1.00  0.00    -0.248 A  
HETATM   15  C   UNL     1     -11.042  13.441  65.794  1.00  0.00    -0.295 A  
HETATM   16  C   UNL     1     -11.444  12.668  66.888  1.00  0.00    -0.402 A  
HETATM   17  C   UNL     1      -9.410  13.268  68.047  1.00  0.00    -0.218 A  
HETATM   18  C   UNL     1      -9.830  14.131  65.829  1.00  0.00    -0.297 A  
ENDBRANCH   3  13
BRANCH   5  19
HETATM   19  C   UNL     1      -8.852   8.222  69.543  1.00  0.00    -0.149 C  
HETATM   20  O   UNL     1      -8.354   8.972  68.719  1.00  0.00    -0.119 OA 
BRANCH  19  21
HETATM   21  O   UNL     1      -8.417   6.956  69.782  1.00  0.00    -0.131 OA 
BRANCH  21  22
HETATM   22  C   UNL     1      -9.259   5.953  69.207  1.00  0.00    -0.122 C  
BRANCH  22  23
HETATM   23  C   UNL     1      -8.997   5.906  67.688  1.00  0.00    -0.107 C  
BRANCH  23  24
HETATM   24  N   UNL     1      -9.070   4.557  67.074  1.00  0.00    -0.120 NA 
HETATM   25  C   UNL     1      -8.798   4.548  65.629  1.00  0.00    -0.127 C  
HETATM   26  C   UNL     1      -7.385   5.024  65.302  1.00  0.00    -0.072 C  
HETATM   27  C   UNL     1      -6.327   4.229  66.066  1.00  0.00    -0.033 C  
HETATM   28  C   UNL     1      -6.683   3.968  67.533  1.00  0.00    -0.047 C  
HETATM   29  C   UNL     1      -8.157   3.609  67.731  1.00  0.00    -0.084 C  
ENDBRANCH  23  24
ENDBRANCH  22  23
ENDBRANCH  21  22
ENDBRANCH  19  21
ENDBRANCH   5  19
TORSDOF 6
ENDMDL
MODEL      172
REMARK 921   NORMALIZED FREE ENERGY PREDICTED BY IDOCK:   -4.10 KCAL/MOL
REMARK 922        TOTAL FREE ENERGY PREDICTED BY IDOCK:   -6.23 KCAL/MOL
REMARK 923 INTER-LIGAND FREE ENERGY PREDICTED BY IDOCK:   -5.25 KCAL/MOL
REMARK 924 INTRA-LIGAND FREE ENERGY PREDICTED BY IDOCK:   -0.98 KCAL/MOL
REMARK 927      BINDING AFFINITY PREDICTED BY RF-SCORE:    0.00 PKD
ROOT
HETATM    1  C   UNL     1      -7.191   4.688  71.365  1.00  0.00    -0.056 C  
HETATM    2  C   UNL     1      -7.602   5.754  70.395  1.00  0.00    -0.090 C  
HETATM    3  C   UNL     1      -8.142   5.575  69.175  1.00  0.00    -0.095 C  
HETATM    4  O   UNL     1      -8.616   6.591  68.369  1.00  0.00    -0.119 OA 
HETATM    5  C   UNL     1      -8.975   8.921  67.951  1.00  0.00    -0.142 A  
HETATM    6  C   UNL     1      -8.700  10.264  68.294  1.00  0.00    -0.126 A  
HETATM    7  C   UNL     1      -8.476   7.896  68.764  1.00  0.00    -0.128 A  
HETATM    8  C   UNL     1      -7.807   8.227  69.940  1.00  0.00    -0.102 A  
HETATM    9  C   UNL     1      -7.972  10.582  69.439  1.00  0.00    -0.146 A  
HETATM   10  O   UNL     1      -6.854   7.410  71.919  1.00  0.00    -0.057 OA 
HETATM   11  C   UNL     1      -7.547   9.562  70.278  1.00  0.00    -0.162 A  
HETATM   12  C   UNL     1      -7.382   7.149  70.846  1.00  0.00    -0.075 C  
ENDROOT
BRANCH   3  13
HETATM   13  C   UNL     1      -8.250   4.257  68.533  1.00  0.00    -0.087 A  
HETATM   14  C   UNL     1      -7.415   2.632  66.926  1.00  0.00    -0.070 A  
HETATM   15  C   UNL     1      -9.429   2.166  68.173  1.00  0.00    -0.221 A  
HETATM   16  C   UNL     1      -9.317   3.400  68.823  1.00  0.00    -0.234 A  
HETATM   17  C   UNL     1      -7.299   3.862  67.578  1.00  0.00    -0.067 A  
HETATM   18  C   UNL     1      -8.481   1.784  67.223  1.00  0.00    -0.095 A  
ENDBRANCH   3  13
BRANCH   5  19
HETATM   19  C   UNL     1      -9.736   8.601  66.707  1.00  0.00    -0.233 C  
HETATM   20  O   UNL     1     -10.720   7.885  66.614  1.00  0.00    -0.223 OA 
BRANCH  19  21
HETATM   21  O   UNL     1      -9.123   9.196  65.649  1.00  0.00    -0.191 OA 
BRANCH  21  22
HETATM   22  C   UNL     1     -10.029   9.905  64.799  1.00  0.00    -0.062 C  
BRANCH  22  23
HETATM   23  C   UNL     1      -9.920  11.410  65.114  1.00  0.00    -0.264 C  
BRANCH  23  24
HETATM   24  N   UNL     1     -11.054  11.980  65.883  1.00  0.00    -0.313 NA 
HETATM   25  C   UNL     1     -10.679  13.119  66.735  1.00  0.00    -0.267 C  
HETATM   26  C   UNL     1     -10.153  14.301  65.926  1.00  0.00    -0.344 C  
HETATM   27  C   UNL     1     -11.140  14.728  64.840  1.00  0.00    -0.416 C  
HETATM   28  C   UNL     1     -11.779  13.559  64.085  1.00  0.00    -0.453 C  
HETATM   29  C   UNL     1     -12.156  12.395  65.002  1.00  0.00    -0.407 C  
ENDBRANCH  23  24
ENDBRANCH  22  23
ENDBRANCH  21  22
ENDBRANCH  19  21
ENDBRANCH   5  19
TORSDOF 6
ENDMDL
MODEL      173
REMARK 921   NORMALIZED FREE ENERGY PREDICTED BY IDOCK:   -4.07 KCAL/MOL
REMARK 922        TOTAL FREE ENERGY PREDICTED BY IDOCK:   -6.19 KCAL/MOL
REMARK 923 INTER-LIGAND FREE ENERGY PREDICTED BY IDOCK:   -5.70 KCAL/MOL
REMARK 924 INTRA-LIGAND FREE ENERGY PREDICTED BY IDOCK:   -0.49 KCAL/MOL
REMARK 927      BINDING AFFINITY PREDICTED BY RF-SCORE:    0.00 PKD
ROOT
HETATM    1  C   UNL     1      -8.820  14.220  66.745  1.00  0.00    -0.207 C  
HETATM    2  C   UNL     1      -8.815  12.780  67.160  1.00  0.00    -0.202 C  
HETATM    3  C   UNL     1      -9.502  11.771  66.593  1.00  0.00    -0.205 C  
HETATM    4  O   UNL     1      -9.370  10.440  66.937  1.00  0.00    -0.159 OA 
HETATM    5  C   UNL     1      -8.406   8.730  68.308  1.00  0.00    -0.126 A  
HETATM    6  C   UNL     1      -7.676   8.382  69.466  1.00  0.00    -0.096 A  
HETATM    7  C   UNL     1      -8.551  10.082  67.976  1.00  0.00    -0.121 A  
HETATM    8  C   UNL     1      -7.890  11.043  68.738  1.00  0.00    -0.138 A  
HETATM    9  C   UNL     1      -7.074   9.356  70.260  1.00  0.00    -0.097 A  
HETATM   10  O   UNL     1      -7.328  13.310  68.930  1.00  0.00    -0.094 OA 
HETATM   11  C   UNL     1      -7.160  10.688  69.881  1.00  0.00    -0.133 A  
HETATM   12  C   UNL     1      -7.954  12.452  68.322  1.00  0.00    -0.160 C  
ENDROOT
BRANCH   3  13
HETATM   13  C   UNL     1     -10.523  11.981  65.556  1.00  0.00    -0.307 A  
HETATM   14  C   UNL     1     -11.172  11.930  63.212  1.00  0.00    -0.382 A  
HETATM   15  C   UNL     1     -12.725  12.741  64.874  1.00  0.00    -0.479 A  
HETATM   16  C   UNL     1     -11.778  12.509  65.877  1.00  0.00    -0.480 A  
HETATM   17  C   UNL     1     -10.228  11.693  64.214  1.00  0.00    -0.357 A  
HETATM   18  C   UNL     1     -12.421  12.455  63.542  1.00  0.00    -0.605 A  
ENDBRANCH   3  13
BRANCH   5  19
HETATM   19  C   UNL     1      -9.065   7.672  67.484  1.00  0.00    -0.125 C  
HETATM   20  O   UNL     1      -8.894   7.458  66.295  1.00  0.00    -0.148 OA 
BRANCH  19  21
HETATM   21  O   UNL     1      -9.950   6.994  68.262  1.00  0.00    -0.145 OA 
BRANCH  21  22
HETATM   22  C   UNL     1      -9.602   5.619  68.446  1.00  0.00    -0.126 C  
BRANCH  22  23
HETATM   23  C   UNL     1      -9.915   4.855  67.144  1.00  0.00    -0.197 C  
BRANCH  23  24
HETATM   24  N   UNL     1      -9.156   3.596  66.949  1.00  0.00    -0.152 NA 
HETATM   25  C   UNL     1      -9.109   3.142  65.551  1.00  0.00    -0.151 C  
HETATM   26  C   UNL     1      -8.402   4.141  64.640  1.00  0.00    -0.104 C  
HETATM   27  C   UNL     1      -7.005   4.487  65.153  1.00  0.00    -0.062 C  
HETATM   28  C   UNL     1      -6.935   4.710  66.666  1.00  0.00    -0.063 C  
HETATM   29  C   UNL     1      -7.779   3.707  67.454  1.00  0.00    -0.078 C  
ENDBRANCH  23  24
ENDBRANCH  22  23
ENDBRANCH  21  22
ENDBRANCH  19  21
ENDBRANCH   5  19
TORSDOF 6
ENDMDL
MODEL      174
REMARK 921   NORMALIZED FREE ENERGY PREDICTED BY IDOCK:   -4.00 KCAL/MOL
REMARK 922        TOTAL FREE ENERGY PREDICTED BY IDOCK:   -6.09 KCAL/MOL
REMARK 923 INTER-LIGAND FREE ENERGY PREDICTED BY IDOCK:   -5.32 KCAL/MOL
REMARK 924 INTRA-LIGAND FREE ENERGY PREDICTED BY IDOCK:   -0.77 KCAL/MOL
REMARK 927      BINDING AFFINITY PREDICTED BY RF-SCORE:    0.00 PKD
ROOT
HETATM    1  C   UNL     1     -10.656   5.097  66.388  1.00  0.00    -0.336 C  
HETATM    2  C   UNL     1      -9.928   6.179  67.126  1.00  0.00    -0.188 C  
HETATM    3  C   UNL     1      -8.928   6.948  66.656  1.00  0.00    -0.145 C  
HETATM    4  O   UNL     1      -8.371   8.014  67.337  1.00  0.00    -0.120 OA 
HETATM    5  C   UNL     1      -8.226   9.389  69.291  1.00  0.00    -0.111 A  
HETATM    6  C   UNL     1      -8.546   9.587  70.653  1.00  0.00    -0.178 A  
HETATM    7  C   UNL     1      -8.780   8.297  68.613  1.00  0.00    -0.133 A  
HETATM    8  C   UNL     1      -9.709   7.491  69.270  1.00  0.00    -0.163 A  
HETATM    9  C   UNL     1      -9.425   8.735  71.319  1.00  0.00    -0.320 A  
HETATM   10  O   UNL     1     -11.240   5.731  69.049  1.00  0.00    -0.236 OA 
HETATM   11  C   UNL     1     -10.027   7.699  70.618  1.00  0.00    -0.183 A  
HETATM   12  C   UNL     1     -10.370   6.412  68.522  1.00  0.00    -0.197 C  
ENDROOT
BRANCH   3  13
HETATM   13  C   UNL     1      -8.273   6.709  65.362  1.00  0.00    -0.138 A  
HETATM   14  C   UNL     1      -7.632   7.511  63.156  1.00  0.00    -0.115 A  
HETATM   15  C   UNL     1      -7.164   5.229  63.791  1.00  0.00    -0.050 A  
HETATM   16  C   UNL     1      -7.747   5.453  65.042  1.00  0.00    -0.087 A  
HETATM   17  C   UNL     1      -8.210   7.738  64.408  1.00  0.00    -0.041 A  
HETATM   18  C   UNL     1      -7.110   6.256  62.848  1.00  0.00    -0.048 A  
ENDBRANCH   3  13
BRANCH   5  19
HETATM   19  C   UNL     1      -7.263  10.299  68.603  1.00  0.00    -0.081 C  
HETATM   20  O   UNL     1      -6.072  10.421  68.841  1.00  0.00    -0.041 OA 
BRANCH  19  21
HETATM   21  O   UNL     1      -7.934  11.036  67.678  1.00  0.00    -0.111 OA 
BRANCH  21  22
HETATM   22  C   UNL     1      -7.903  12.441  67.945  1.00  0.00    -0.145 C  
BRANCH  22  23
HETATM   23  C   UNL     1      -8.833  13.151  66.940  1.00  0.00    -0.179 C  
BRANCH  23  24
HETATM   24  N   UNL     1      -9.528  14.354  67.462  1.00  0.00    -0.204 NA 
HETATM   25  C   UNL     1      -9.998  15.269  66.410  1.00  0.00    -0.275 C  
HETATM   26  C   UNL     1     -11.029  14.619  65.493  1.00  0.00    -0.344 C  
HETATM   27  C   UNL     1     -12.203  14.037  66.281  1.00  0.00    -0.493 C  
HETATM   28  C   UNL     1     -11.789  13.291  67.553  1.00  0.00    -0.403 C  
HETATM   29  C   UNL     1     -10.668  13.996  68.319  1.00  0.00    -0.254 C  
ENDBRANCH  23  24
ENDBRANCH  22  23
ENDBRANCH  21  22
ENDBRANCH  19  21
ENDBRANCH   5  19
TORSDOF 6
ENDMDL
MODEL      175
REMARK 921   NORMALIZED FREE ENERGY PREDICTED BY IDOCK:   -3.99 KCAL/MOL
REMARK 922        TOTAL FREE ENERGY PREDICTED BY IDOCK:   -6.07 KCAL/MOL
REMARK 923 INTER-LIGAND FREE ENERGY PREDICTED BY IDOCK:   -5.81 KCAL/MOL
REMARK 924 INTRA-LIGAND FREE ENERGY PREDICTED BY IDOCK:   -0.26 KCAL/MOL
REMARK 927      BINDING AFFINITY PREDICTED BY RF-SCORE:    0.00 PKD
ROOT
HETATM    1  C   UNL     1      -6.330   6.029  69.786  1.00  0.00    -0.037 C  
HETATM    2  C   UNL     1      -7.036   7.185  69.145  1.00  0.00    -0.083 C  
HETATM    3  C   UNL     1      -8.048   7.125  68.259  1.00  0.00    -0.124 C  
HETATM    4  O   UNL     1      -8.746   8.221  67.789  1.00  0.00    -0.133 OA 
HETATM    5  C   UNL     1      -9.087  10.589  67.698  1.00  0.00    -0.146 A  
HETATM    6  C   UNL     1      -8.604  11.888  67.969  1.00  0.00    -0.168 A  
HETATM    7  C   UNL     1      -8.365   9.483  68.162  1.00  0.00    -0.118 A  
HETATM    8  C   UNL     1      -7.245   9.693  68.964  1.00  0.00    -0.071 A  
HETATM    9  C   UNL     1      -7.444  12.085  68.716  1.00  0.00    -0.086 A  
HETATM   10  O   UNL     1      -5.609   8.682  70.304  1.00  0.00    -0.024 OA 
HETATM   11  C   UNL     1      -6.777  10.985  69.236  1.00  0.00    -0.099 A  
HETATM   12  C   UNL     1      -6.553   8.530  69.540  1.00  0.00    -0.040 C  
ENDROOT
BRANCH   3  13
HETATM   13  C   UNL     1      -8.504   5.869  67.647  1.00  0.00    -0.103 A  
HETATM   14  C   UNL     1      -9.517   3.669  67.879  1.00  0.00    -0.224 A  
HETATM   15  C   UNL     1      -8.696   4.395  65.728  1.00  0.00    -0.120 A  
HETATM   16  C   UNL     1      -8.294   5.612  66.288  1.00  0.00    -0.114 A  
HETATM   17  C   UNL     1      -9.120   4.886  68.439  1.00  0.00    -0.141 A  
HETATM   18  C   UNL     1      -9.304   3.423  66.524  1.00  0.00    -0.173 A  
ENDBRANCH   3  13
BRANCH   5  19
HETATM   19  C   UNL     1     -10.319  10.399  66.874  1.00  0.00    -0.240 C  
HETATM   20  O   UNL     1     -11.471  10.604  67.221  1.00  0.00    -0.412 OA 
BRANCH  19  21
HETATM   21  O   UNL     1      -9.966   9.897  65.661  1.00  0.00    -0.284 OA 
BRANCH  21  22
HETATM   22  C   UNL     1     -10.383  10.720  64.568  1.00  0.00    -0.331 C  
BRANCH  22  23
HETATM   23  C   UNL     1      -9.919  12.166  64.837  1.00  0.00    -0.212 C  
BRANCH  23  24
HETATM   24  N   UNL     1     -10.576  13.207  64.010  1.00  0.00    -0.359 NA 
HETATM   25  C   UNL     1     -11.953  12.871  63.618  1.00  0.00    -0.541 C  
HETATM   26  C   UNL     1     -12.879  12.722  64.822  1.00  0.00    -0.374 C  
HETATM   27  C   UNL     1     -12.848  13.959  65.719  1.00  0.00    -0.437 C  
HETATM   28  C   UNL     1     -11.444  14.526  65.948  1.00  0.00    -0.345 C  
HETATM   29  C   UNL     1     -10.584  14.514  64.683  1.00  0.00    -0.272 C  
ENDBRANCH  23  24
ENDBRANCH  22  23
ENDBRANCH  21  22
ENDBRANCH  19  21
ENDBRANCH   5  19
TORSDOF 6
ENDMDL
MODEL      176
REMARK 921   NORMALIZED FREE ENERGY PREDICTED BY IDOCK:   -3.94 KCAL/MOL
REMARK 922        TOTAL FREE ENERGY PREDICTED BY IDOCK:   -6.01 KCAL/MOL
REMARK 923 INTER-LIGAND FREE ENERGY PREDICTED BY IDOCK:   -5.51 KCAL/MOL
REMARK 924 INTRA-LIGAND FREE ENERGY PREDICTED BY IDOCK:   -0.50 KCAL/MOL
REMARK 927      BINDING AFFINITY PREDICTED BY RF-SCORE:    0.00 PKD
ROOT
HETATM    1  C   UNL     1      -8.989  16.821  68.483  1.00  0.00    -0.244 C  
HETATM    2  C   UNL     1      -8.870  15.328  68.417  1.00  0.00    -0.179 C  
HETATM    3  C   UNL     1      -9.716  14.424  68.946  1.00  0.00    -0.144 C  
HETATM    4  O   UNL     1      -9.627  13.059  68.754  1.00  0.00    -0.070 OA 
HETATM    5  C   UNL     1      -8.500  11.154  67.841  1.00  0.00    -0.131 A  
HETATM    6  C   UNL     1      -7.343  10.613  67.239  1.00  0.00    -0.092 A  
HETATM    7  C   UNL     1      -8.575  12.537  68.048  1.00  0.00    -0.185 A  
HETATM    8  C   UNL     1      -7.552  13.352  67.567  1.00  0.00    -0.176 A  
HETATM    9  C   UNL     1      -6.295  11.431  66.822  1.00  0.00    -0.142 A  
HETATM   10  O   UNL     1      -6.839  15.557  67.215  1.00  0.00    -0.188 OA 
HETATM   11  C   UNL     1      -6.412  12.807  66.963  1.00  0.00     0.256 A  
HETATM   12  C   UNL     1      -7.687  14.811  67.689  1.00  0.00    -0.182 C  
ENDROOT
BRANCH   3  13
HETATM   13  C   UNL     1     -10.825  14.791  69.839  1.00  0.00    -0.185 A  
HETATM   14  C   UNL     1     -13.140  14.512  70.533  1.00  0.00    -0.226 A  
HETATM   15  C   UNL     1     -11.757  16.180  71.597  1.00  0.00    -0.558 A  
HETATM   16  C   UNL     1     -10.681  15.814  70.782  1.00  0.00    -0.124 A  
HETATM   17  C   UNL     1     -12.065  14.142  69.721  1.00  0.00    -0.409 A  
HETATM   18  C   UNL     1     -12.987  15.532  71.470  1.00  0.00    -0.545 A  
ENDBRANCH   3  13
BRANCH   5  19
HETATM   19  C   UNL     1      -9.601  10.257  68.303  1.00  0.00    -0.142 C  
HETATM   20  O   UNL     1      -9.755   9.807  69.427  1.00  0.00    -0.179 OA 
BRANCH  19  21
HETATM   21  O   UNL     1     -10.404   9.961  67.247  1.00  0.00    -0.214 OA 
BRANCH  21  22
HETATM   22  C   UNL     1     -10.651   8.560  67.102  1.00  0.00    -0.243 C  
BRANCH  22  23
HETATM   23  C   UNL     1      -9.420   7.911  66.438  1.00  0.00    -0.192 C  
BRANCH  23  24
HETATM   24  N   UNL     1      -8.836   6.762  67.173  1.00  0.00    -0.118 NA 
HETATM   25  C   UNL     1      -9.832   5.771  67.611  1.00  0.00    -0.126 C  
HETATM   26  C   UNL     1     -10.560   5.124  66.437  1.00  0.00    -0.336 C  
HETATM   27  C   UNL     1      -9.585   4.516  65.429  1.00  0.00    -0.185 C  
HETATM   28  C   UNL     1      -8.369   5.397  65.131  1.00  0.00    -0.144 C  
HETATM   29  C   UNL     1      -7.805   6.075  66.381  1.00  0.00    -0.104 C  
ENDBRANCH  23  24
ENDBRANCH  22  23
ENDBRANCH  21  22
ENDBRANCH  19  21
ENDBRANCH   5  19
TORSDOF 6
ENDMDL
MODEL      177
REMARK 921   NORMALIZED FREE ENERGY PREDICTED BY IDOCK:   -3.89 KCAL/MOL
REMARK 922        TOTAL FREE ENERGY PREDICTED BY IDOCK:   -5.94 KCAL/MOL
REMARK 923 INTER-LIGAND FREE ENERGY PREDICTED BY IDOCK:   -5.46 KCAL/MOL
REMARK 924 INTRA-LIGAND FREE ENERGY PREDICTED BY IDOCK:   -0.48 KCAL/MOL
REMARK 927      BINDING AFFINITY PREDICTED BY RF-SCORE:    0.00 PKD
ROOT
HETATM    1  C   UNL     1      -6.934   7.838  72.379  1.00  0.00    -0.071 C  
HETATM    2  C   UNL     1      -7.575   7.705  71.030  1.00  0.00    -0.083 C  
HETATM    3  C   UNL     1      -7.497   8.576  70.007  1.00  0.00    -0.060 C  
HETATM    4  O   UNL     1      -8.006   8.350  68.743  1.00  0.00    -0.115 OA 
HETATM    5  C   UNL     1      -9.213   6.974  67.200  1.00  0.00    -0.153 A  
HETATM    6  C   UNL     1     -10.063   5.867  66.982  1.00  0.00    -0.221 A  
HETATM    7  C   UNL     1      -8.716   7.206  68.488  1.00  0.00    -0.126 A  
HETATM    8  C   UNL     1      -8.990   6.286  69.498  1.00  0.00    -0.134 A  
HETATM    9  C   UNL     1     -10.386   4.989  68.016  1.00  0.00    -0.096 A  
HETATM   10  O   UNL     1      -8.542   5.649  71.708  1.00  0.00    -0.133 OA 
HETATM   11  C   UNL     1      -9.827   5.186  69.271  1.00  0.00    -0.260 A  
HETATM   12  C   UNL     1      -8.376   6.476  70.821  1.00  0.00    -0.130 C  
ENDROOT
BRANCH   3  13
HETATM   13  C   UNL     1      -6.890   9.909  70.134  1.00  0.00    -0.125 A  
HETATM   14  C   UNL     1      -6.720  12.217  69.381  1.00  0.00    -0.056 A  
HETATM   15  C   UNL     1      -5.256  11.407  71.123  1.00  0.00    -0.096 A  
HETATM   16  C   UNL     1      -5.852  10.144  71.042  1.00  0.00    -0.059 A  
HETATM   17  C   UNL     1      -7.319  10.957  69.303  1.00  0.00    -0.125 A  
HETATM   18  C   UNL     1      -5.687  12.441  70.291  1.00  0.00    -0.166 A  
ENDBRANCH   3  13
BRANCH   5  19
HETATM   19  C   UNL     1      -8.900   7.916  66.085  1.00  0.00    -0.166 C  
HETATM   20  O   UNL     1      -7.853   7.991  65.462  1.00  0.00    -0.094 OA 
BRANCH  19  21
HETATM   21  O   UNL     1      -9.963   8.741  65.891  1.00  0.00    -0.213 OA 
BRANCH  21  22
HETATM   22  C   UNL     1      -9.690  10.102  66.238  1.00  0.00    -0.218 C  
BRANCH  22  23
HETATM   23  C   UNL     1     -10.568  11.016  65.360  1.00  0.00    -0.202 C  
BRANCH  23  24
HETATM   24  N   UNL     1     -10.093  12.416  65.230  1.00  0.00    -0.277 NA 
HETATM   25  C   UNL     1     -10.552  13.086  64.004  1.00  0.00    -0.344 C  
HETATM   26  C   UNL     1     -12.071  13.207  63.942  1.00  0.00    -0.536 C  
HETATM   27  C   UNL     1     -12.638  13.890  65.186  1.00  0.00    -0.466 C  
HETATM   28  C   UNL     1     -12.000  13.422  66.498  1.00  0.00    -0.452 C  
HETATM   29  C   UNL     1     -10.485  13.234  66.388  1.00  0.00    -0.284 C  
ENDBRANCH  23  24
ENDBRANCH  22  23
ENDBRANCH  21  22
ENDBRANCH  19  21
ENDBRANCH   5  19
TORSDOF 6
ENDMDL
MODEL      178
REMARK 921   NORMALIZED FREE ENERGY PREDICTED BY IDOCK:   -3.88 KCAL/MOL
REMARK 922        TOTAL FREE ENERGY PREDICTED BY IDOCK:   -5.93 KCAL/MOL
REMARK 923 INTER-LIGAND FREE ENERGY PREDICTED BY IDOCK:   -4.83 KCAL/MOL
REMARK 924 INTRA-LIGAND FREE ENERGY PREDICTED BY IDOCK:   -1.10 KCAL/MOL
REMARK 927      BINDING AFFINITY PREDICTED BY RF-SCORE:    0.00 PKD
ROOT
HETATM    1  C   UNL     1      -5.397   9.023  72.089  1.00  0.00    -0.060 C  
HETATM    2  C   UNL     1      -6.340   8.978  70.925  1.00  0.00    -0.060 C  
HETATM    3  C   UNL     1      -6.901   7.883  70.380  1.00  0.00    -0.041 C  
HETATM    4  O   UNL     1      -7.859   7.904  69.384  1.00  0.00    -0.109 OA 
HETATM    5  C   UNL     1      -9.222   9.115  67.833  1.00  0.00    -0.144 A  
HETATM    6  C   UNL     1      -9.502  10.329  67.166  1.00  0.00    -0.184 A  
HETATM    7  C   UNL     1      -8.237   9.098  68.828  1.00  0.00    -0.109 A  
HETATM    8  C   UNL     1      -7.631  10.295  69.204  1.00  0.00    -0.111 A  
HETATM    9  C   UNL     1      -8.842  11.508  67.504  1.00  0.00    -0.155 A  
HETATM   10  O   UNL     1      -6.181  11.335  70.723  1.00  0.00    -0.352 OA 
HETATM   11  C   UNL     1      -7.922  11.496  68.543  1.00  0.00    -0.143 A  
HETATM   12  C   UNL     1      -6.678  10.290  70.324  1.00  0.00    -0.142 C  
ENDROOT
BRANCH   3  13
HETATM   13  C   UNL     1      -6.519   6.515  70.757  1.00  0.00    -0.052 A  
HETATM   14  C   UNL     1      -5.183   4.522  70.348  1.00  0.00     0.000 A  
HETATM   15  C   UNL     1      -6.818   4.533  72.125  1.00  0.00    -0.050 A  
HETATM   16  C   UNL     1      -7.164   5.850  71.805  1.00  0.00    -0.091 A  
HETATM   17  C   UNL     1      -5.524   5.839  70.030  1.00  0.00    -0.009 A  
HETATM   18  C   UNL     1      -5.831   3.868  71.396  1.00  0.00    -0.013 A  
ENDBRANCH   3  13
BRANCH   5  19
HETATM   19  C   UNL     1      -9.924   7.857  67.438  1.00  0.00    -0.198 C  
HETATM   20  O   UNL     1     -10.658   7.699  66.476  1.00  0.00    -0.174 OA 
BRANCH  19  21
HETATM   21  O   UNL     1      -9.662   6.896  68.363  1.00  0.00    -0.136 OA 
BRANCH  21  22
HETATM   22  C   UNL     1     -10.828   6.179  68.776  1.00  0.00    -0.336 C  
BRANCH  22  23
HETATM   23  C   UNL     1     -10.682   5.826  70.270  1.00  0.00    -0.309 C  
BRANCH  23  24
HETATM   24  N   UNL     1     -11.756   6.345  71.152  1.00  0.00    -0.326 NA 
HETATM   25  C   UNL     1     -11.670   5.863  72.539  1.00  0.00    -0.236 C  
HETATM   26  C   UNL     1     -10.384   6.306  73.229  1.00  0.00    -0.248 C  
HETATM   27  C   UNL     1     -10.196   7.822  73.161  1.00  0.00    -0.398 C  
HETATM   28  C   UNL     1     -10.535   8.430  71.797  1.00  0.00    -0.353 C  
HETATM   29  C   UNL     1     -11.786   7.816  71.166  1.00  0.00    -0.291 C  
ENDBRANCH  23  24
ENDBRANCH  22  23
ENDBRANCH  21  22
ENDBRANCH  19  21
ENDBRANCH   5  19
TORSDOF 6
ENDMDL
MODEL      179
REMARK 921   NORMALIZED FREE ENERGY PREDICTED BY IDOCK:   -3.85 KCAL/MOL
REMARK 922        TOTAL FREE ENERGY PREDICTED BY IDOCK:   -5.89 KCAL/MOL
REMARK 923 INTER-LIGAND FREE ENERGY PREDICTED BY IDOCK:   -4.68 KCAL/MOL
REMARK 924 INTRA-LIGAND FREE ENERGY PREDICTED BY IDOCK:   -1.21 KCAL/MOL
REMARK 927      BINDING AFFINITY PREDICTED BY RF-SCORE:    0.00 PKD
ROOT
HETATM    1  C   UNL     1      -5.408   9.034  71.608  1.00  0.00    -0.049 C  
HETATM    2  C   UNL     1      -6.230   8.204  70.669  1.00  0.00    -0.036 C  
HETATM    3  C   UNL     1      -6.802   7.014  70.930  1.00  0.00    -0.054 C  
HETATM    4  O   UNL     1      -7.651   6.345  70.069  1.00  0.00    -0.091 OA 
HETATM    5  C   UNL     1      -8.771   6.182  67.959  1.00  0.00    -0.113 A  
HETATM    6  C   UNL     1      -8.904   6.633  66.627  1.00  0.00    -0.140 A  
HETATM    7  C   UNL     1      -7.894   6.854  68.821  1.00  0.00    -0.118 A  
HETATM    8  C   UNL     1      -7.254   8.007  68.372  1.00  0.00    -0.089 A  
HETATM    9  C   UNL     1      -8.207   7.749  66.169  1.00  0.00    -0.123 A  
HETATM   10  O   UNL     1      -5.901   9.825  68.970  1.00  0.00    -0.036 OA 
HETATM   11  C   UNL     1      -7.399   8.453  67.051  1.00  0.00    -0.084 A  
HETATM   12  C   UNL     1      -6.421   8.771  69.312  1.00  0.00    -0.042 C  
ENDROOT
BRANCH   3  13
HETATM   13  C   UNL     1      -6.547   6.256  72.163  1.00  0.00    -0.059 A  
HETATM   14  C   UNL     1      -5.205   4.643  73.395  1.00  0.00    -0.008 A  
HETATM   15  C   UNL     1      -7.193   5.573  74.401  1.00  0.00    -0.085 A  
HETATM   16  C   UNL     1      -7.426   6.332  73.249  1.00  0.00    -0.091 A  
HETATM   17  C   UNL     1      -5.434   5.404  72.246  1.00  0.00    -0.017 A  
HETATM   18  C   UNL     1      -6.086   4.727  74.472  1.00  0.00    -0.051 A  
ENDBRANCH   3  13
BRANCH   5  19
HETATM   19  C   UNL     1      -9.508   4.968  68.423  1.00  0.00    -0.134 C  
HETATM   20  O   UNL     1      -9.492   3.861  67.910  1.00  0.00    -0.172 OA 
BRANCH  19  21
HETATM   21  O   UNL     1     -10.266   5.298  69.503  1.00  0.00    -0.231 OA 
BRANCH  21  22
HETATM   22  C   UNL     1     -11.230   6.318  69.225  1.00  0.00    -0.389 C  
BRANCH  22  23
HETATM   23  C   UNL     1     -11.851   6.781  70.558  1.00  0.00    -0.362 C  
BRANCH  23  24
HETATM   24  N   UNL     1     -10.943   7.548  71.447  1.00  0.00    -0.230 NA 
HETATM   25  C   UNL     1     -10.358   8.739  70.812  1.00  0.00    -0.213 C  
HETATM   26  C   UNL     1     -11.418   9.757  70.402  1.00  0.00    -0.347 C  
HETATM   27  C   UNL     1     -12.316  10.145  71.577  1.00  0.00    -0.505 C  
HETATM   28  C   UNL     1     -12.746   8.962  72.449  1.00  0.00    -0.436 C  
HETATM   29  C   UNL     1     -11.616   7.959  72.688  1.00  0.00    -0.377 C  
ENDBRANCH  23  24
ENDBRANCH  22  23
ENDBRANCH  21  22
ENDBRANCH  19  21
ENDBRANCH   5  19
TORSDOF 6
ENDMDL
MODEL      180
REMARK 921   NORMALIZED FREE ENERGY PREDICTED BY IDOCK:   -3.85 KCAL/MOL
REMARK 922        TOTAL FREE ENERGY PREDICTED BY IDOCK:   -5.89 KCAL/MOL
REMARK 923 INTER-LIGAND FREE ENERGY PREDICTED BY IDOCK:   -5.95 KCAL/MOL
REMARK 924 INTRA-LIGAND FREE ENERGY PREDICTED BY IDOCK:    0.06 KCAL/MOL
REMARK 927      BINDING AFFINITY PREDICTED BY RF-SCORE:    0.00 PKD
ROOT
HETATM    1  C   UNL     1     -10.657  17.957  70.378  1.00  0.00     1.566 C  
HETATM    2  C   UNL     1     -10.797  16.872  69.353  1.00  0.00    -0.186 C  
HETATM    3  C   UNL     1     -11.488  15.723  69.479  1.00  0.00    -0.353 C  
HETATM    4  O   UNL     1     -11.686  14.811  68.461  1.00  0.00    -0.306 OA 
HETATM    5  C   UNL     1     -11.310  14.089  66.210  1.00  0.00    -0.336 A  
HETATM    6  C   UNL     1     -10.581  14.222  65.007  1.00  0.00    -0.444 A  
HETATM    7  C   UNL     1     -11.090  15.008  67.243  1.00  0.00    -0.334 A  
HETATM    8  C   UNL     1     -10.234  16.085  67.023  1.00  0.00    -0.282 A  
HETATM    9  C   UNL     1      -9.676  15.266  64.823  1.00  0.00     0.713 A  
HETATM   10  O   UNL     1      -9.400  18.100  67.882  1.00  0.00    -0.263 OA 
HETATM   11  C   UNL     1      -9.521  16.214  65.824  1.00  0.00    -0.254 A  
HETATM   12  C   UNL     1     -10.091  17.107  68.071  1.00  0.00    -0.311 C  
ENDROOT
BRANCH   3  13
HETATM   13  C   UNL     1     -12.083  15.281  70.749  1.00  0.00    -0.399 A  
HETATM   14  C   UNL     1     -12.194  15.424  73.175  1.00  0.00    -0.567 A  
HETATM   15  C   UNL     1     -13.553  13.810  72.000  1.00  0.00    -0.569 A  
HETATM   16  C   UNL     1     -13.026  14.249  70.781  1.00  0.00    -0.368 A  
HETATM   17  C   UNL     1     -11.671  15.866  71.957  1.00  0.00    -0.588 A  
HETATM   18  C   UNL     1     -13.134  14.395  73.196  1.00  0.00    -0.490 A  
ENDBRANCH   3  13
BRANCH   5  19
HETATM   19  C   UNL     1     -12.256  12.949  66.396  1.00  0.00    -0.231 C  
HETATM   20  O   UNL     1     -13.208  12.664  65.688  1.00  0.00     0.041 OA 
BRANCH  19  21
HETATM   21  O   UNL     1     -11.928  12.284  67.536  1.00  0.00    -0.513 OA 
BRANCH  21  22
HETATM   22  C   UNL     1     -10.803  11.415  67.377  1.00  0.00    -0.254 C  
BRANCH  22  23
HETATM   23  C   UNL     1     -11.149  10.047  67.999  1.00  0.00    -0.201 C  
BRANCH  23  24
HETATM   24  N   UNL     1     -10.658   9.839  69.384  1.00  0.00    -0.217 NA 
HETATM   25  C   UNL     1     -10.724   8.439  69.832  1.00  0.00    -0.227 C  
HETATM   26  C   UNL     1      -9.846   7.519  68.989  1.00  0.00    -0.170 C  
HETATM   27  C   UNL     1      -8.400   8.011  68.930  1.00  0.00    -0.126 C  
HETATM   28  C   UNL     1      -8.265   9.524  68.733  1.00  0.00    -0.112 C  
HETATM   29  C   UNL     1      -9.280  10.323  69.552  1.00  0.00    -0.170 C  
ENDBRANCH  23  24
ENDBRANCH  22  23
ENDBRANCH  21  22
ENDBRANCH  19  21
ENDBRANCH   5  19
TORSDOF 6
ENDMDL
MODEL      181
REMARK 921   NORMALIZED FREE ENERGY PREDICTED BY IDOCK:   -3.84 KCAL/MOL
REMARK 922        TOTAL FREE ENERGY PREDICTED BY IDOCK:   -5.88 KCAL/MOL
REMARK 923 INTER-LIGAND FREE ENERGY PREDICTED BY IDOCK:   -5.37 KCAL/MOL
REMARK 924 INTRA-LIGAND FREE ENERGY PREDICTED BY IDOCK:   -0.51 KCAL/MOL
REMARK 927      BINDING AFFINITY PREDICTED BY RF-SCORE:    0.00 PKD
ROOT
HETATM    1  C   UNL     1      -7.409   9.051  62.608  1.00  0.00    -0.098 C  
HETATM    2  C   UNL     1      -8.121   8.876  63.915  1.00  0.00    -0.163 C  
HETATM    3  C   UNL     1      -8.040   7.820  64.746  1.00  0.00    -0.131 C  
HETATM    4  O   UNL     1      -8.621   7.760  65.998  1.00  0.00    -0.137 OA 
HETATM    5  C   UNL     1      -9.981   8.733  67.711  1.00  0.00    -0.243 A  
HETATM    6  C   UNL     1     -10.906   9.730  68.095  1.00  0.00    -0.264 A  
HETATM    7  C   UNL     1      -9.410   8.792  66.434  1.00  0.00    -0.204 A  
HETATM    8  C   UNL     1      -9.691   9.883  65.614  1.00  0.00    -0.346 A  
HETATM    9  C   UNL     1     -11.230  10.782  67.241  1.00  0.00    -0.272 A  
HETATM   10  O   UNL     1      -9.176  10.977  63.606  1.00  0.00    -0.213 OA 
HETATM   11  C   UNL     1     -10.602  10.872  66.007  1.00  0.00    -0.254 A  
HETATM   12  C   UNL     1      -9.004   9.997  64.319  1.00  0.00    -0.236 C  
ENDROOT
BRANCH   3  13
HETATM   13  C   UNL     1      -7.349   6.572  64.391  1.00  0.00    -0.079 A  
HETATM   14  C   UNL     1      -7.446   4.272  63.605  1.00  0.00    -0.055 A  
HETATM   15  C   UNL     1      -5.331   5.228  64.271  1.00  0.00    -0.010 A  
HETATM   16  C   UNL     1      -5.969   6.436  64.575  1.00  0.00    -0.023 A  
HETATM   17  C   UNL     1      -8.083   5.479  63.903  1.00  0.00    -0.122 A  
HETATM   18  C   UNL     1      -6.070   4.146  63.790  1.00  0.00    -0.018 A  
ENDBRANCH   3  13
BRANCH   5  19
HETATM   19  C   UNL     1      -9.666   7.601  68.632  1.00  0.00    -0.155 C  
HETATM   20  O   UNL     1      -8.728   7.529  69.410  1.00  0.00    -0.136 OA 
BRANCH  19  21
HETATM   21  O   UNL     1     -10.571   6.606  68.435  1.00  0.00    -0.200 OA 
BRANCH  21  22
HETATM   22  C   UNL     1     -10.905   5.902  69.635  1.00  0.00    -0.374 C  
BRANCH  22  23
HETATM   23  C   UNL     1     -11.663   6.864  70.572  1.00  0.00    -0.350 C  
BRANCH  23  24
HETATM   24  N   UNL     1     -11.868   6.371  71.956  1.00  0.00    -0.329 NA 
HETATM   25  C   UNL     1     -11.056   5.190  72.290  1.00  0.00    -0.107 C  
HETATM   26  C   UNL     1      -9.559   5.476  72.220  1.00  0.00    -0.173 C  
HETATM   27  C   UNL     1      -9.169   6.674  73.084  1.00  0.00    -0.142 C  
HETATM   28  C   UNL     1     -10.138   7.855  72.985  1.00  0.00    -0.384 C  
HETATM   29  C   UNL     1     -11.605   7.420  72.953  1.00  0.00    -0.152 C  
ENDBRANCH  23  24
ENDBRANCH  22  23
ENDBRANCH  21  22
ENDBRANCH  19  21
ENDBRANCH   5  19
TORSDOF 6
ENDMDL
MODEL      182
REMARK 921   NORMALIZED FREE ENERGY PREDICTED BY IDOCK:   -3.84 KCAL/MOL
REMARK 922        TOTAL FREE ENERGY PREDICTED BY IDOCK:   -5.87 KCAL/MOL
REMARK 923 INTER-LIGAND FREE ENERGY PREDICTED BY IDOCK:   -4.86 KCAL/MOL
REMARK 924 INTRA-LIGAND FREE ENERGY PREDICTED BY IDOCK:   -1.01 KCAL/MOL
REMARK 927      BINDING AFFINITY PREDICTED BY RF-SCORE:    0.00 PKD
ROOT
HETATM    1  C   UNL     1     -10.535   7.517  73.624  1.00  0.00    -0.285 C  
HETATM    2  C   UNL     1     -10.223   6.384  72.693  1.00  0.00    -0.200 C  
HETATM    3  C   UNL     1      -9.765   6.476  71.431  1.00  0.00    -0.172 C  
HETATM    4  O   UNL     1      -9.378   5.401  70.655  1.00  0.00    -0.153 OA 
HETATM    5  C   UNL     1      -9.116   3.040  70.352  1.00  0.00    -0.192 A  
HETATM    6  C   UNL     1      -9.405   1.729  70.791  1.00  0.00    -0.185 A  
HETATM    7  C   UNL     1      -9.527   4.126  71.135  1.00  0.00    -0.163 A  
HETATM    8  C   UNL     1     -10.121   3.884  72.372  1.00  0.00    -0.237 A  
HETATM    9  C   UNL     1     -10.059   1.500  72.000  1.00  0.00    -0.216 A  
HETATM   10  O   UNL     1     -10.910   4.843  74.359  1.00  0.00    -0.346 OA 
HETATM   11  C   UNL     1     -10.396   2.580  72.804  1.00  0.00    -0.239 A  
HETATM   12  C   UNL     1     -10.451   5.025  73.239  1.00  0.00    -0.213 C  
ENDROOT
BRANCH   3  13
HETATM   13  C   UNL     1      -9.664   7.751  70.706  1.00  0.00    -0.175 A  
HETATM   14  C   UNL     1     -10.724   9.514  69.406  1.00  0.00    -0.244 A  
HETATM   15  C   UNL     1      -8.343   9.577  69.804  1.00  0.00    -0.170 A  
HETATM   16  C   UNL     1      -8.430   8.385  70.531  1.00  0.00    -0.133 A  
HETATM   17  C   UNL     1     -10.812   8.326  70.137  1.00  0.00    -0.237 A  
HETATM   18  C   UNL     1      -9.489  10.139  69.239  1.00  0.00    -0.231 A  
ENDBRANCH   3  13
BRANCH   5  19
HETATM   19  C   UNL     1      -8.436   3.265  69.042  1.00  0.00    -0.063 C  
HETATM   20  O   UNL     1      -7.235   3.374  68.849  1.00  0.00    -0.049 OA 
BRANCH  19  21
HETATM   21  O   UNL     1      -9.378   3.387  68.069  1.00  0.00    -0.172 OA 
BRANCH  21  22
HETATM   22  C   UNL     1      -9.074   2.635  66.891  1.00  0.00    -0.139 C  
BRANCH  22  23
HETATM   23  C   UNL     1      -8.948   3.612  65.705  1.00  0.00    -0.137 C  
BRANCH  23  24
HETATM   24  N   UNL     1      -8.074   3.154  64.597  1.00  0.00    -0.086 NA 
HETATM   25  C   UNL     1      -8.765   3.049  63.302  1.00  0.00    -0.089 C  
HETATM   26  C   UNL     1      -9.297   4.394  62.818  1.00  0.00    -0.121 C  
HETATM   27  C   UNL     1      -8.198   5.456  62.771  1.00  0.00    -0.113 C  
HETATM   28  C   UNL     1      -7.265   5.440  63.984  1.00  0.00    -0.051 C  
HETATM   29  C   UNL     1      -6.899   4.024  64.434  1.00  0.00    -0.045 C  
ENDBRANCH  23  24
ENDBRANCH  22  23
ENDBRANCH  21  22
ENDBRANCH  19  21
ENDBRANCH   5  19
TORSDOF 6
ENDMDL
MODEL      183
REMARK 921   NORMALIZED FREE ENERGY PREDICTED BY IDOCK:   -3.83 KCAL/MOL
REMARK 922        TOTAL FREE ENERGY PREDICTED BY IDOCK:   -5.86 KCAL/MOL
REMARK 923 INTER-LIGAND FREE ENERGY PREDICTED BY IDOCK:   -4.36 KCAL/MOL
REMARK 924 INTRA-LIGAND FREE ENERGY PREDICTED BY IDOCK:   -1.50 KCAL/MOL
REMARK 927      BINDING AFFINITY PREDICTED BY RF-SCORE:    0.00 PKD
ROOT
HETATM    1  C   UNL     1      -6.972   6.209  68.588  1.00  0.00    -0.076 C  
HETATM    2  C   UNL     1      -7.382   7.494  67.935  1.00  0.00    -0.099 C  
HETATM    3  C   UNL     1      -8.287   7.649  66.950  1.00  0.00    -0.124 C  
HETATM    4  O   UNL     1      -8.718   8.868  66.464  1.00  0.00    -0.122 OA 
HETATM    5  C   UNL     1      -8.610  11.260  66.451  1.00  0.00    -0.174 A  
HETATM    6  C   UNL     1      -7.929  12.438  66.830  1.00  0.00    -0.041 A  
HETATM    7  C   UNL     1      -8.156  10.026  66.933  1.00  0.00    -0.117 A  
HETATM    8  C   UNL     1      -7.108  10.001  67.852  1.00  0.00    -0.085 A  
HETATM    9  C   UNL     1      -6.839  12.394  67.698  1.00  0.00    -0.132 A  
HETATM   10  O   UNL     1      -5.838   8.666  69.300  1.00  0.00    -0.037 OA 
HETATM   11  C   UNL     1      -6.444  11.175  68.230  1.00  0.00    -0.057 A  
HETATM   12  C   UNL     1      -6.707   8.713  68.439  1.00  0.00    -0.064 C  
ENDROOT
BRANCH   3  13
HETATM   13  C   UNL     1      -8.896   6.517  66.237  1.00  0.00    -0.154 A  
HETATM   14  C   UNL     1     -10.752   4.967  65.958  1.00  0.00    -0.241 A  
HETATM   15  C   UNL     1      -8.777   4.740  64.588  1.00  0.00    -0.153 A  
HETATM   16  C   UNL     1      -8.200   5.841  65.229  1.00  0.00    -0.139 A  
HETATM   17  C   UNL     1     -10.179   6.070  66.596  1.00  0.00    -0.246 A  
HETATM   18  C   UNL     1     -10.050   4.301  64.954  1.00  0.00    -0.184 A  
ENDBRANCH   3  13
BRANCH   5  19
HETATM   19  C   UNL     1      -9.759  11.325  65.500  1.00  0.00    -0.229 C  
HETATM   20  O   UNL     1      -9.739  11.746  64.354  1.00  0.00    -0.223 OA 
BRANCH  19  21
HETATM   21  O   UNL     1     -10.880  10.885  66.131  1.00  0.00    -0.202 OA 
BRANCH  21  22
HETATM   22  C   UNL     1     -11.677  11.944  66.669  1.00  0.00    -0.186 C  
BRANCH  22  23
HETATM   23  C   UNL     1     -12.270  11.476  68.013  1.00  0.00     0.357 C  
BRANCH  23  24
HETATM   24  N   UNL     1     -11.593  12.005  69.223  1.00  0.00    -0.298 NA 
HETATM   25  C   UNL     1     -12.372  11.836  70.460  1.00  0.00    -0.299 C  
HETATM   26  C   UNL     1     -12.622  10.368  70.792  1.00  0.00    -0.462 C  
HETATM   27  C   UNL     1     -11.320   9.569  70.848  1.00  0.00    -0.410 C  
HETATM   28  C   UNL     1     -10.337   9.901  69.721  1.00  0.00    -0.278 C  
HETATM   29  C   UNL     1     -10.268  11.399  69.415  1.00  0.00     0.116 C  
ENDBRANCH  23  24
ENDBRANCH  22  23
ENDBRANCH  21  22
ENDBRANCH  19  21
ENDBRANCH   5  19
TORSDOF 6
ENDMDL
MODEL      184
REMARK 921   NORMALIZED FREE ENERGY PREDICTED BY IDOCK:   -3.83 KCAL/MOL
REMARK 922        TOTAL FREE ENERGY PREDICTED BY IDOCK:   -5.86 KCAL/MOL
REMARK 923 INTER-LIGAND FREE ENERGY PREDICTED BY IDOCK:   -4.70 KCAL/MOL
REMARK 924 INTRA-LIGAND FREE ENERGY PREDICTED BY IDOCK:   -1.16 KCAL/MOL
REMARK 927      BINDING AFFINITY PREDICTED BY RF-SCORE:    0.00 PKD
ROOT
HETATM    1  C   UNL     1      -8.713   4.742  71.038  1.00  0.00    -0.138 C  
HETATM    2  C   UNL     1      -8.161   6.078  70.641  1.00  0.00    -0.120 C  
HETATM    3  C   UNL     1      -8.330   6.706  69.463  1.00  0.00    -0.131 C  
HETATM    4  O   UNL     1      -7.903   7.991  69.189  1.00  0.00    -0.104 OA 
HETATM    5  C   UNL     1      -6.768   9.993  69.850  1.00  0.00    -0.099 A  
HETATM    6  C   UNL     1      -5.907  10.646  70.760  1.00  0.00    -0.084 A  
HETATM    7  C   UNL     1      -7.183   8.684  70.126  1.00  0.00    -0.052 A  
HETATM    8  C   UNL     1      -6.817   8.097  71.336  1.00  0.00    -0.057 A  
HETATM    9  C   UNL     1      -5.493  10.024  71.936  1.00  0.00     0.058 A  
HETATM   10  O   UNL     1      -7.099   6.253  72.754  1.00  0.00    -0.074 OA 
HETATM   11  C   UNL     1      -5.970   8.756  72.237  1.00  0.00    -0.076 A  
HETATM   12  C   UNL     1      -7.345   6.766  71.670  1.00  0.00    -0.085 C  
ENDROOT
BRANCH   3  13
HETATM   13  C   UNL     1      -8.961   6.068  68.298  1.00  0.00    -0.113 A  
HETATM   14  C   UNL     1      -8.809   4.558  66.396  1.00  0.00    -0.113 A  
HETATM   15  C   UNL     1     -10.833   5.820  66.773  1.00  0.00    -0.327 A  
HETATM   16  C   UNL     1     -10.261   6.405  67.908  1.00  0.00    -0.200 A  
HETATM   17  C   UNL     1      -8.239   5.138  67.532  1.00  0.00    -0.103 A  
HETATM   18  C   UNL     1     -10.106   4.900  66.016  1.00  0.00    -0.264 A  
ENDBRANCH   3  13
BRANCH   5  19
HETATM   19  C   UNL     1      -7.180  10.668  68.583  1.00  0.00    -0.090 C  
HETATM   20  O   UNL     1      -6.592  10.639  67.514  1.00  0.00    -0.063 OA 
BRANCH  19  21
HETATM   21  O   UNL     1      -8.311  11.386  68.813  1.00  0.00    -0.150 OA 
BRANCH  21  22
HETATM   22  C   UNL     1      -8.901  11.905  67.617  1.00  0.00    -0.169 C  
BRANCH  22  23
HETATM   23  C   UNL     1      -9.797  13.102  67.994  1.00  0.00    -0.231 C  
BRANCH  23  24
HETATM   24  N   UNL     1     -11.232  12.954  67.644  1.00  0.00    -0.263 NA 
HETATM   25  C   UNL     1     -11.901  11.847  68.344  1.00  0.00    -0.289 C  
HETATM   26  C   UNL     1     -11.911  12.039  69.858  1.00  0.00    -0.405 C  
HETATM   27  C   UNL     1     -12.513  13.386  70.256  1.00  0.00    -0.285 C  
HETATM   28  C   UNL     1     -12.056  14.555  69.380  1.00  0.00    -0.328 C  
HETATM   29  C   UNL     1     -11.984  14.193  67.895  1.00  0.00    -0.343 C  
ENDBRANCH  23  24
ENDBRANCH  22  23
ENDBRANCH  21  22
ENDBRANCH  19  21
ENDBRANCH   5  19
TORSDOF 6
ENDMDL
MODEL      185
REMARK 921   NORMALIZED FREE ENERGY PREDICTED BY IDOCK:   -3.81 KCAL/MOL
REMARK 922        TOTAL FREE ENERGY PREDICTED BY IDOCK:   -5.84 KCAL/MOL
REMARK 923 INTER-LIGAND FREE ENERGY PREDICTED BY IDOCK:   -5.29 KCAL/MOL
REMARK 924 INTRA-LIGAND FREE ENERGY PREDICTED BY IDOCK:   -0.55 KCAL/MOL
REMARK 927      BINDING AFFINITY PREDICTED BY RF-SCORE:    0.00 PKD
ROOT
HETATM    1  C   UNL     1      -5.687  13.027  67.338  1.00  0.00    -0.009 C  
HETATM    2  C   UNL     1      -7.024  13.603  67.694  1.00  0.00    -0.183 C  
HETATM    3  C   UNL     1      -8.114  12.926  68.101  1.00  0.00    -0.158 C  
HETATM    4  O   UNL     1      -9.287  13.513  68.534  1.00  0.00    -0.185 OA 
HETATM    5  C   UNL     1     -10.608  15.467  68.947  1.00  0.00    -0.240 A  
HETATM    6  C   UNL     1     -10.797  16.855  68.764  1.00  0.00    -0.289 A  
HETATM    7  C   UNL     1      -9.424  14.876  68.489  1.00  0.00    -0.210 A  
HETATM    8  C   UNL     1      -8.423  15.686  67.956  1.00  0.00    -0.146 A  
HETATM    9  C   UNL     1      -9.816  17.646  68.169  1.00  0.00    -0.318 A  
HETATM   10  O   UNL     1      -6.215  15.770  67.173  1.00  0.00    -0.309 OA 
HETATM   11  C   UNL     1      -8.615  17.063  67.787  1.00  0.00    -0.213 A  
HETATM   12  C   UNL     1      -7.139  15.076  67.579  1.00  0.00    -0.197 C  
ENDROOT
BRANCH   3  13
HETATM   13  C   UNL     1      -8.197  11.458  68.089  1.00  0.00    -0.143 A  
HETATM   14  C   UNL     1      -8.818   9.402  66.945  1.00  0.00    -0.141 A  
HETATM   15  C   UNL     1      -7.957   9.313  69.199  1.00  0.00    -0.097 A  
HETATM   16  C   UNL     1      -7.833  10.707  69.211  1.00  0.00    -0.140 A  
HETATM   17  C   UNL     1      -8.691  10.793  66.954  1.00  0.00    -0.141 A  
HETATM   18  C   UNL     1      -8.452   8.662  68.069  1.00  0.00    -0.127 A  
ENDBRANCH   3  13
BRANCH   5  19
HETATM   19  C   UNL     1     -11.682  14.634  69.564  1.00  0.00    -0.324 C  
HETATM   20  O   UNL     1     -12.841  14.962  69.760  1.00  0.00    -0.100 OA 
BRANCH  19  21
HETATM   21  O   UNL     1     -11.154  13.438  69.938  1.00  0.00     0.010 OA 
BRANCH  21  22
HETATM   22  C   UNL     1     -12.128  12.394  70.023  1.00  0.00    -0.263 C  
BRANCH  22  23
HETATM   23  C   UNL     1     -11.394  11.057  70.253  1.00  0.00    -0.203 C  
BRANCH  23  24
HETATM   24  N   UNL     1     -12.156   9.842  69.872  1.00  0.00     0.032 NA 
HETATM   25  C   UNL     1     -11.401   8.591  70.045  1.00  0.00    -0.007 C  
HETATM   26  C   UNL     1     -11.017   8.342  71.500  1.00  0.00    -0.312 C  
HETATM   27  C   UNL     1     -12.235   8.383  72.424  1.00  0.00    -0.430 C  
HETATM   28  C   UNL     1     -13.211   9.521  72.116  1.00  0.00    -0.539 C  
HETATM   29  C   UNL     1     -13.420   9.736  70.616  1.00  0.00     0.094 C  
ENDBRANCH  23  24
ENDBRANCH  22  23
ENDBRANCH  21  22
ENDBRANCH  19  21
ENDBRANCH   5  19
TORSDOF 6
ENDMDL
MODEL      186
REMARK 921   NORMALIZED FREE ENERGY PREDICTED BY IDOCK:   -3.79 KCAL/MOL
REMARK 922        TOTAL FREE ENERGY PREDICTED BY IDOCK:   -5.81 KCAL/MOL
REMARK 923 INTER-LIGAND FREE ENERGY PREDICTED BY IDOCK:   -4.63 KCAL/MOL
REMARK 924 INTRA-LIGAND FREE ENERGY PREDICTED BY IDOCK:   -1.18 KCAL/MOL
REMARK 927      BINDING AFFINITY PREDICTED BY RF-SCORE:    0.00 PKD
ROOT
HETATM    1  C   UNL     1      -9.123   8.307  72.647  1.00  0.00    -0.327 C  
HETATM    2  C   UNL     1      -9.084   7.815  71.232  1.00  0.00    -0.153 C  
HETATM    3  C   UNL     1      -9.500   6.618  70.779  1.00  0.00    -0.168 C  
HETATM    4  O   UNL     1      -9.555   6.258  69.447  1.00  0.00    -0.141 OA 
HETATM    5  C   UNL     1      -9.164   6.757  67.138  1.00  0.00    -0.145 A  
HETATM    6  C   UNL     1      -8.553   7.585  66.170  1.00  0.00    -0.159 A  
HETATM    7  C   UNL     1      -9.089   7.119  68.489  1.00  0.00    -0.132 A  
HETATM    8  C   UNL     1      -8.502   8.335  68.833  1.00  0.00    -0.128 A  
HETATM    9  C   UNL     1      -7.909   8.766  66.533  1.00  0.00    -0.103 A  
HETATM   10  O   UNL     1      -8.077   9.855  70.565  1.00  0.00    -0.230 OA 
HETATM   11  C   UNL     1      -7.906   9.154  67.866  1.00  0.00    -0.100 A  
HETATM   12  C   UNL     1      -8.523   8.763  70.240  1.00  0.00    -0.149 C  
ENDROOT
BRANCH   3  13
HETATM   13  C   UNL     1      -9.909   5.522  71.670  1.00  0.00    -0.221 A  
HETATM   14  C   UNL     1     -11.481   4.609  73.288  1.00  0.00    -0.346 A  
HETATM   15  C   UNL     1      -9.484   3.376  72.722  1.00  0.00    -0.153 A  
HETATM   16  C   UNL     1      -9.102   4.392  71.839  1.00  0.00    -0.163 A  
HETATM   17  C   UNL     1     -11.103   5.622  72.402  1.00  0.00    -0.324 A  
HETATM   18  C   UNL     1     -10.671   3.487  73.448  1.00  0.00    -0.303 A  
ENDBRANCH   3  13
BRANCH   5  19
HETATM   19  C   UNL     1      -9.828   5.482  66.730  1.00  0.00    -0.167 C  
HETATM   20  O   UNL     1     -11.004   5.328  66.445  1.00  0.00    -0.235 OA 
BRANCH  19  21
HETATM   21  O   UNL     1      -8.916   4.475  66.777  1.00  0.00    -0.111 OA 
BRANCH  21  22
HETATM   22  C   UNL     1      -9.398   3.252  66.213  1.00  0.00    -0.123 C  
BRANCH  22  23
HETATM   23  C   UNL     1      -8.420   2.803  65.108  1.00  0.00    -0.097 C  
BRANCH  23  24
HETATM   24  N   UNL     1      -8.941   2.905  63.723  1.00  0.00    -0.096 NA 
HETATM   25  C   UNL     1      -9.231   4.284  63.299  1.00  0.00    -0.139 C  
HETATM   26  C   UNL     1      -7.983   5.162  63.288  1.00  0.00    -0.090 C  
HETATM   27  C   UNL     1      -6.865   4.551  62.444  1.00  0.00    -0.031 C  
HETATM   28  C   UNL     1      -6.689   3.043  62.643  1.00  0.00    -0.030 C  
HETATM   29  C   UNL     1      -8.021   2.297  62.749  1.00  0.00    -0.067 C  
ENDBRANCH  23  24
ENDBRANCH  22  23
ENDBRANCH  21  22
ENDBRANCH  19  21
ENDBRANCH   5  19
TORSDOF 6
ENDMDL
MODEL      187
REMARK 921   NORMALIZED FREE ENERGY PREDICTED BY IDOCK:   -3.75 KCAL/MOL
REMARK 922        TOTAL FREE ENERGY PREDICTED BY IDOCK:   -5.75 KCAL/MOL
REMARK 923 INTER-LIGAND FREE ENERGY PREDICTED BY IDOCK:   -5.24 KCAL/MOL
REMARK 924 INTRA-LIGAND FREE ENERGY PREDICTED BY IDOCK:   -0.52 KCAL/MOL
REMARK 927      BINDING AFFINITY PREDICTED BY RF-SCORE:    0.00 PKD
ROOT
HETATM    1  C   UNL     1      -6.963   6.341  68.729  1.00  0.00    -0.076 C  
HETATM    2  C   UNL     1      -7.420   7.612  68.078  1.00  0.00    -0.104 C  
HETATM    3  C   UNL     1      -8.349   7.737  67.112  1.00  0.00    -0.118 C  
HETATM    4  O   UNL     1      -8.822   8.942  66.629  1.00  0.00    -0.123 OA 
HETATM    5  C   UNL     1      -8.778  11.336  66.603  1.00  0.00    -0.174 A  
HETATM    6  C   UNL     1      -8.121  12.533  66.963  1.00  0.00    -0.105 A  
HETATM    7  C   UNL     1      -8.281  10.117  67.081  1.00  0.00    -0.121 A  
HETATM    8  C   UNL     1      -7.215  10.124  67.978  1.00  0.00    -0.085 A  
HETATM    9  C   UNL     1      -7.014  12.523  67.808  1.00  0.00    -0.121 A  
HETATM   10  O   UNL     1      -5.880   8.831  69.406  1.00  0.00    -0.034 OA 
HETATM   11  C   UNL     1      -6.575  11.318  68.337  1.00  0.00    -0.059 A  
HETATM   12  C   UNL     1      -6.768   8.851  68.563  1.00  0.00    -0.060 C  
ENDROOT
BRANCH   3  13
HETATM   13  C   UNL     1      -8.942   6.586  66.417  1.00  0.00    -0.158 A  
HETATM   14  C   UNL     1     -10.739   4.958  66.212  1.00  0.00    -0.217 A  
HETATM   15  C   UNL     1      -8.826   4.831  64.744  1.00  0.00    -0.153 A  
HETATM   16  C   UNL     1      -8.268   5.951  65.368  1.00  0.00    -0.139 A  
HETATM   17  C   UNL     1     -10.184   6.079  66.833  1.00  0.00    -0.261 A  
HETATM   18  C   UNL     1     -10.059   4.333  65.167  1.00  0.00    -0.221 A  
ENDBRANCH   3  13
BRANCH   5  19
HETATM   19  C   UNL     1      -9.948  11.366  65.675  1.00  0.00    -0.240 C  
HETATM   20  O   UNL     1     -10.186  10.582  64.770  1.00  0.00    -0.341 OA 
BRANCH  19  21
HETATM   21  O   UNL     1     -10.708  12.458  65.958  1.00  0.00    -0.251 OA 
BRANCH  21  22
HETATM   22  C   UNL     1     -10.633  13.472  64.953  1.00  0.00    -0.397 C  
BRANCH  22  23
HETATM   23  C   UNL     1     -10.875  14.841  65.620  1.00  0.00    -0.339 C  
BRANCH  23  24
HETATM   24  N   UNL     1      -9.722  15.391  66.374  1.00  0.00    -0.268 NA 
HETATM   25  C   UNL     1      -9.316  16.737  65.939  1.00  0.00    -0.127 C  
HETATM   26  C   UNL     1     -10.418  17.771  66.149  1.00  0.00    -0.301 C  
HETATM   27  C   UNL     1     -10.914  17.786  67.594  1.00  0.00    -0.100 C  
HETATM   28  C   UNL     1     -11.101  16.393  68.203  1.00  0.00    -0.320 C  
HETATM   29  C   UNL     1      -9.982  15.423  67.821  1.00  0.00    -0.225 C  
ENDBRANCH  23  24
ENDBRANCH  22  23
ENDBRANCH  21  22
ENDBRANCH  19  21
ENDBRANCH   5  19
TORSDOF 6
ENDMDL
MODEL      188
REMARK 921   NORMALIZED FREE ENERGY PREDICTED BY IDOCK:   -3.72 KCAL/MOL
REMARK 922        TOTAL FREE ENERGY PREDICTED BY IDOCK:   -5.71 KCAL/MOL
REMARK 923 INTER-LIGAND FREE ENERGY PREDICTED BY IDOCK:   -4.09 KCAL/MOL
REMARK 924 INTRA-LIGAND FREE ENERGY PREDICTED BY IDOCK:   -1.62 KCAL/MOL
REMARK 927      BINDING AFFINITY PREDICTED BY RF-SCORE:    0.00 PKD
ROOT
HETATM    1  C   UNL     1     -10.409   6.950  71.213  1.00  0.00    -0.221 C  
HETATM    2  C   UNL     1     -10.020   7.879  70.103  1.00  0.00    -0.190 C  
HETATM    3  C   UNL     1      -8.951   7.768  69.293  1.00  0.00    -0.139 C  
HETATM    4  O   UNL     1      -8.702   8.583  68.206  1.00  0.00    -0.140 OA 
HETATM    5  C   UNL     1      -9.286  10.452  66.828  1.00  0.00    -0.181 A  
HETATM    6  C   UNL     1     -10.059  11.620  66.645  1.00  0.00    -0.238 A  
HETATM    7  C   UNL     1      -9.532   9.640  67.942  1.00  0.00    -0.131 A  
HETATM    8  C   UNL     1     -10.597   9.951  68.785  1.00  0.00    -0.246 A  
HETATM    9  C   UNL     1     -11.078  11.958  67.533  1.00  0.00    -0.332 A  
HETATM   10  O   UNL     1     -11.891   9.245  70.607  1.00  0.00    -0.267 OA 
HETATM   11  C   UNL     1     -11.365  11.107  68.592  1.00  0.00    -0.342 A  
HETATM   12  C   UNL     1     -10.921   9.037  69.890  1.00  0.00    -0.193 C  
ENDROOT
BRANCH   3  13
HETATM   13  C   UNL     1      -7.885   6.778  69.503  1.00  0.00    -0.113 A  
HETATM   14  C   UNL     1      -6.901   4.614  68.987  1.00  0.00    -0.050 A  
HETATM   15  C   UNL     1      -5.907   6.014  70.684  1.00  0.00    -0.022 A  
HETATM   16  C   UNL     1      -6.891   6.984  70.466  1.00  0.00    -0.057 A  
HETATM   17  C   UNL     1      -7.881   5.584  68.765  1.00  0.00    -0.095 A  
HETATM   18  C   UNL     1      -5.914   4.829  69.947  1.00  0.00    -0.017 A  
ENDBRANCH   3  13
BRANCH   5  19
HETATM   19  C   UNL     1      -8.182  10.122  65.878  1.00  0.00    -0.138 C  
HETATM   20  O   UNL     1      -6.983  10.194  66.095  1.00  0.00    -0.100 OA 
BRANCH  19  21
HETATM   21  O   UNL     1      -8.720   9.769  64.680  1.00  0.00    -0.165 OA 
BRANCH  21  22
HETATM   22  C   UNL     1      -7.737   9.555  63.662  1.00  0.00    -0.125 C  
BRANCH  22  23
HETATM   23  C   UNL     1      -8.016   8.195  62.991  1.00  0.00    -0.154 C  
BRANCH  23  24
HETATM   24  N   UNL     1      -6.895   7.225  63.037  1.00  0.00    -0.053 NA 
HETATM   25  C   UNL     1      -6.269   7.104  64.362  1.00  0.00    -0.037 C  
HETATM   26  C   UNL     1      -7.242   6.590  65.419  1.00  0.00    -0.073 C  
HETATM   27  C   UNL     1      -7.896   5.274  64.997  1.00  0.00    -0.098 C  
HETATM   28  C   UNL     1      -8.332   5.238  63.529  1.00  0.00    -0.118 C  
HETATM   29  C   UNL     1      -7.313   5.887  62.590  1.00  0.00    -0.054 C  
ENDBRANCH  23  24
ENDBRANCH  22  23
ENDBRANCH  21  22
ENDBRANCH  19  21
ENDBRANCH   5  19
TORSDOF 6
ENDMDL
MODEL      189
REMARK 921   NORMALIZED FREE ENERGY PREDICTED BY IDOCK:   -3.68 KCAL/MOL
REMARK 922        TOTAL FREE ENERGY PREDICTED BY IDOCK:   -5.66 KCAL/MOL
REMARK 923 INTER-LIGAND FREE ENERGY PREDICTED BY IDOCK:   -5.73 KCAL/MOL
REMARK 924 INTRA-LIGAND FREE ENERGY PREDICTED BY IDOCK:    0.08 KCAL/MOL
REMARK 927      BINDING AFFINITY PREDICTED BY RF-SCORE:    0.00 PKD
ROOT
HETATM    1  C   UNL     1     -11.842  14.872  67.856  1.00  0.00    -0.286 C  
HETATM    2  C   UNL     1     -10.389  14.861  68.224  1.00  0.00    -0.232 C  
HETATM    3  C   UNL     1      -9.590  15.930  68.397  1.00  0.00    -0.208 C  
HETATM    4  O   UNL     1      -8.287  15.870  68.854  1.00  0.00    -0.194 OA 
HETATM    5  C   UNL     1      -6.387  14.600  69.567  1.00  0.00    -0.127 A  
HETATM    6  C   UNL     1      -5.743  13.347  69.666  1.00  0.00    -0.105 A  
HETATM    7  C   UNL     1      -7.701  14.654  69.086  1.00  0.00    -0.113 A  
HETATM    8  C   UNL     1      -8.372  13.464  68.812  1.00  0.00     0.086 A  
HETATM    9  C   UNL     1      -6.402  12.168  69.325  1.00  0.00    -0.103 A  
HETATM   10  O   UNL     1     -10.423  12.490  68.231  1.00  0.00    -0.221 OA 
HETATM   11  C   UNL     1      -7.729  12.224  68.920  1.00  0.00     0.059 A  
HETATM   12  C   UNL     1      -9.786  13.520  68.412  1.00  0.00    -0.225 C  
ENDROOT
BRANCH   3  13
HETATM   13  C   UNL     1     -10.004  17.302  68.071  1.00  0.00    -0.304 A  
HETATM   14  C   UNL     1     -10.625  18.967  66.409  1.00  0.00    -0.460 A  
HETATM   15  C   UNL     1     -10.448  19.595  68.733  1.00  0.00    -0.180 A  
HETATM   16  C   UNL     1     -10.092  18.283  69.065  1.00  0.00    -0.283 A  
HETATM   17  C   UNL     1     -10.274  17.655  66.739  1.00  0.00    -0.335 A  
HETATM   18  C   UNL     1     -10.710  19.937  67.406  1.00  0.00    -0.447 A  
ENDBRANCH   3  13
BRANCH   5  19
HETATM   19  C   UNL     1      -5.655  15.855  69.914  1.00  0.00    -0.147 C  
HETATM   20  O   UNL     1      -5.566  16.370  71.017  1.00  0.00    -0.011 OA 
BRANCH  19  21
HETATM   21  O   UNL     1      -5.128  16.387  68.779  1.00  0.00    -0.109 OA 
BRANCH  21  22
HETATM   22  C   UNL     1      -5.725  15.873  67.585  1.00  0.00    -0.140 C  
BRANCH  22  23
HETATM   23  C   UNL     1      -6.165  17.062  66.707  1.00  0.00    -0.210 C  
BRANCH  23  24
HETATM   24  N   UNL     1      -5.277  18.250  66.758  1.00  0.00    -0.133 NA 
HETATM   25  C   UNL     1      -5.453  19.170  65.624  1.00  0.00    -0.157 C  
HETATM   26  C   UNL     1      -6.857  19.764  65.571  1.00  0.00    -0.325 C  
HETATM   27  C   UNL     1      -7.239  20.436  66.889  1.00  0.00    -0.333 C  
HETATM   28  C   UNL     1      -6.834  19.641  68.133  1.00  0.00    -0.314 C  
HETATM   29  C   UNL     1      -5.448  19.005  68.008  1.00  0.00    -0.178 C  
ENDBRANCH  23  24
ENDBRANCH  22  23
ENDBRANCH  21  22
ENDBRANCH  19  21
ENDBRANCH   5  19
TORSDOF 6
ENDMDL
MODEL      190
REMARK 921   NORMALIZED FREE ENERGY PREDICTED BY IDOCK:   -3.62 KCAL/MOL
REMARK 922        TOTAL FREE ENERGY PREDICTED BY IDOCK:   -5.58 KCAL/MOL
REMARK 923 INTER-LIGAND FREE ENERGY PREDICTED BY IDOCK:   -5.16 KCAL/MOL
REMARK 924 INTRA-LIGAND FREE ENERGY PREDICTED BY IDOCK:   -0.43 KCAL/MOL
REMARK 927      BINDING AFFINITY PREDICTED BY RF-SCORE:    0.00 PKD
ROOT
HETATM    1  C   UNL     1      -7.949   3.912  68.680  1.00  0.00    -0.068 C  
HETATM    2  C   UNL     1      -8.087   5.356  68.305  1.00  0.00    -0.095 C  
HETATM    3  C   UNL     1      -8.649   5.852  67.187  1.00  0.00    -0.106 C  
HETATM    4  O   UNL     1      -8.861   7.196  66.944  1.00  0.00    -0.121 OA 
HETATM    5  C   UNL     1      -8.647   9.489  67.598  1.00  0.00    -0.122 A  
HETATM    6  C   UNL     1      -8.058  10.449  68.450  1.00  0.00    -0.112 A  
HETATM    7  C   UNL     1      -8.413   8.130  67.840  1.00  0.00    -0.132 A  
HETATM    8  C   UNL     1      -7.690   7.757  68.971  1.00  0.00    -0.109 A  
HETATM    9  C   UNL     1      -7.281  10.067  69.541  1.00  0.00    -0.105 A  
HETATM   10  O   UNL     1      -6.970   5.969  70.305  1.00  0.00    -0.058 OA 
HETATM   11  C   UNL     1      -7.117   8.716  69.817  1.00  0.00    -0.051 A  
HETATM   12  C   UNL     1      -7.540   6.328  69.282  1.00  0.00    -0.099 C  
ENDROOT
BRANCH   3  13
HETATM   13  C   UNL     1      -9.068   5.008  66.059  1.00  0.00    -0.146 A  
HETATM   14  C   UNL     1      -8.487   3.669  64.112  1.00  0.00    -0.090 A  
HETATM   15  C   UNL     1     -10.807   4.029  64.677  1.00  0.00    -0.122 A  
HETATM   16  C   UNL     1     -10.423   4.800  65.779  1.00  0.00    -0.275 A  
HETATM   17  C   UNL     1      -8.102   4.435  65.215  1.00  0.00    -0.102 A  
HETATM   18  C   UNL     1      -9.840   3.466  63.843  1.00  0.00    -0.166 A  
ENDBRANCH   3  13
BRANCH   5  19
HETATM   19  C   UNL     1      -9.456   9.920  66.419  1.00  0.00    -0.183 C  
HETATM   20  O   UNL     1     -10.159   9.213  65.715  1.00  0.00    -0.229 OA 
BRANCH  19  21
HETATM   21  O   UNL     1      -9.249  11.247  66.203  1.00  0.00    -0.194 OA 
BRANCH  21  22
HETATM   22  C   UNL     1     -10.462  12.003  66.140  1.00  0.00    -0.236 C  
BRANCH  22  23
HETATM   23  C   UNL     1     -10.220  13.372  66.809  1.00  0.00    -0.259 C  
BRANCH  23  24
HETATM   24  N   UNL     1     -11.435  14.194  67.028  1.00  0.00    -0.335 NA 
HETATM   25  C   UNL     1     -11.153  15.551  67.520  1.00  0.00    -0.305 C  
HETATM   26  C   UNL     1     -10.331  16.368  66.528  1.00  0.00    -0.306 C  
HETATM   27  C   UNL     1     -10.986  16.409  65.147  1.00  0.00    -0.242 C  
HETATM   28  C   UNL     1     -11.550  15.062  64.686  1.00  0.00    -0.386 C  
HETATM   29  C   UNL     1     -12.251  14.295  65.809  1.00  0.00    -0.403 C  
ENDBRANCH  23  24
ENDBRANCH  22  23
ENDBRANCH  21  22
ENDBRANCH  19  21
ENDBRANCH   5  19
TORSDOF 6
ENDMDL
MODEL      191
REMARK 921   NORMALIZED FREE ENERGY PREDICTED BY IDOCK:   -3.58 KCAL/MOL
REMARK 922        TOTAL FREE ENERGY PREDICTED BY IDOCK:   -5.52 KCAL/MOL
REMARK 923 INTER-LIGAND FREE ENERGY PREDICTED BY IDOCK:   -5.46 KCAL/MOL
REMARK 924 INTRA-LIGAND FREE ENERGY PREDICTED BY IDOCK:   -0.06 KCAL/MOL
REMARK 927      BINDING AFFINITY PREDICTED BY RF-SCORE:    0.00 PKD
ROOT
HETATM    1  C   UNL     1      -5.673  12.945  67.588  1.00  0.00    -0.130 C  
HETATM    2  C   UNL     1      -7.119  12.687  67.885  1.00  0.00    -0.113 C  
HETATM    3  C   UNL     1      -7.647  11.576  68.433  1.00  0.00    -0.125 C  
HETATM    4  O   UNL     1      -8.972  11.435  68.798  1.00  0.00    -0.159 OA 
HETATM    5  C   UNL     1     -11.201  12.299  68.922  1.00  0.00    -0.323 A  
HETATM    6  C   UNL     1     -12.140  13.274  68.517  1.00  0.00    -0.256 A  
HETATM    7  C   UNL     1      -9.864  12.440  68.532  1.00  0.00    -0.151 A  
HETATM    8  C   UNL     1      -9.476  13.587  67.842  1.00  0.00    -0.215 A  
HETATM    9  C   UNL     1     -11.753  14.383  67.769  1.00  0.00    -0.407 A  
HETATM   10  O   UNL     1      -7.669  14.811  66.987  1.00  0.00    -0.168 OA 
HETATM   11  C   UNL     1     -10.412  14.553  67.452  1.00  0.00    -0.264 A  
HETATM   12  C   UNL     1      -8.052  13.783  67.531  1.00  0.00    -0.185 C  
ENDROOT
BRANCH   3  13
HETATM   13  C   UNL     1      -6.870  10.351  68.667  1.00  0.00    -0.058 A  
HETATM   14  C   UNL     1      -6.026   8.216  67.859  1.00  0.00    -0.043 A  
HETATM   15  C   UNL     1      -5.606   8.893  70.139  1.00  0.00    -0.027 A  
HETATM   16  C   UNL     1      -6.307  10.083  69.919  1.00  0.00    -0.066 A  
HETATM   17  C   UNL     1      -6.723   9.406  67.637  1.00  0.00    -0.068 A  
HETATM   18  C   UNL     1      -5.468   7.959  69.111  1.00  0.00    -0.026 A  
ENDBRANCH   3  13
BRANCH   5  19
HETATM   19  C   UNL     1     -11.642  11.104  69.702  1.00  0.00    -0.326 C  
HETATM   20  O   UNL     1     -12.761  10.887  70.139  1.00  0.00    -0.278 OA 
BRANCH  19  21
HETATM   21  O   UNL     1     -10.571  10.292  69.909  1.00  0.00    -0.258 OA 
BRANCH  21  22
HETATM   22  C   UNL     1     -10.857   8.911  69.673  1.00  0.00    -0.178 C  
BRANCH  22  23
HETATM   23  C   UNL     1      -9.712   8.065  70.264  1.00  0.00    -0.175 C  
BRANCH  23  24
HETATM   24  N   UNL     1      -9.822   6.603  70.039  1.00  0.00    -0.165 NA 
HETATM   25  C   UNL     1      -8.943   5.802  70.904  1.00  0.00    -0.145 C  
HETATM   26  C   UNL     1      -9.275   5.971  72.384  1.00  0.00    -0.143 C  
HETATM   27  C   UNL     1     -10.747   5.678  72.673  1.00  0.00    -0.285 C  
HETATM   28  C   UNL     1     -11.713   6.267  71.641  1.00  0.00    -0.342 C  
HETATM   29  C   UNL     1     -11.204   6.129  70.204  1.00  0.00    -0.382 C  
ENDBRANCH  23  24
ENDBRANCH  22  23
ENDBRANCH  21  22
ENDBRANCH  19  21
ENDBRANCH   5  19
TORSDOF 6
ENDMDL
MODEL      192
REMARK 921   NORMALIZED FREE ENERGY PREDICTED BY IDOCK:   -3.57 KCAL/MOL
REMARK 922        TOTAL FREE ENERGY PREDICTED BY IDOCK:   -5.50 KCAL/MOL
REMARK 923 INTER-LIGAND FREE ENERGY PREDICTED BY IDOCK:   -5.05 KCAL/MOL
REMARK 924 INTRA-LIGAND FREE ENERGY PREDICTED BY IDOCK:   -0.45 KCAL/MOL
REMARK 927      BINDING AFFINITY PREDICTED BY RF-SCORE:    0.00 PKD
ROOT
HETATM    1  C   UNL     1      -6.321   9.089  71.577  1.00  0.00    -0.079 C  
HETATM    2  C   UNL     1      -6.952   8.487  70.357  1.00  0.00    -0.038 C  
HETATM    3  C   UNL     1      -8.100   7.788  70.301  1.00  0.00    -0.113 C  
HETATM    4  O   UNL     1      -8.702   7.358  69.134  1.00  0.00    -0.136 OA 
HETATM    5  C   UNL     1      -8.705   7.147  66.749  1.00  0.00    -0.128 A  
HETATM    6  C   UNL     1      -7.996   7.236  65.530  1.00  0.00    -0.122 A  
HETATM    7  C   UNL     1      -8.082   7.568  67.930  1.00  0.00    -0.119 A  
HETATM    8  C   UNL     1      -6.820   8.155  67.860  1.00  0.00    -0.073 A  
HETATM    9  C   UNL     1      -6.708   7.764  65.480  1.00  0.00    -0.045 A  
HETATM   10  O   UNL     1      -5.141   9.279  69.047  1.00  0.00    -0.036 OA 
HETATM   11  C   UNL     1      -6.128   8.248  66.645  1.00  0.00    -0.053 A  
HETATM   12  C   UNL     1      -6.216   8.695  69.087  1.00  0.00    -0.043 C  
ENDROOT
BRANCH   3  13
HETATM   13  C   UNL     1      -8.835   7.356  71.499  1.00  0.00    -0.131 A  
HETATM   14  C   UNL     1     -10.504   7.805  73.211  1.00  0.00    -0.358 A  
HETATM   15  C   UNL     1      -9.207   5.770  73.298  1.00  0.00    -0.135 A  
HETATM   16  C   UNL     1      -8.528   6.149  72.135  1.00  0.00    -0.116 A  
HETATM   17  C   UNL     1      -9.830   8.182  72.047  1.00  0.00    -0.298 A  
HETATM   18  C   UNL     1     -10.192   6.599  73.837  1.00  0.00    -0.379 A  
ENDBRANCH   3  13
BRANCH   5  19
HETATM   19  C   UNL     1     -10.075   6.555  66.784  1.00  0.00    -0.176 C  
HETATM   20  O   UNL     1     -10.374   5.387  66.590  1.00  0.00    -0.220 OA 
BRANCH  19  21
HETATM   21  O   UNL     1     -10.978   7.544  67.017  1.00  0.00    -0.306 OA 
BRANCH  21  22
HETATM   22  C   UNL     1     -10.526   8.832  66.591  1.00  0.00    -0.170 C  
BRANCH  22  23
HETATM   23  C   UNL     1     -11.049   9.889  67.585  1.00  0.00    -0.101 C  
BRANCH  23  24
HETATM   24  N   UNL     1     -10.173  11.072  67.772  1.00  0.00    -0.179 NA 
HETATM   25  C   UNL     1      -9.629  11.610  66.515  1.00  0.00    -0.209 C  
HETATM   26  C   UNL     1     -10.723  12.108  65.575  1.00  0.00    -0.321 C  
HETATM   27  C   UNL     1     -11.639  13.123  66.258  1.00  0.00    -0.399 C  
HETATM   28  C   UNL     1     -12.029  12.745  67.690  1.00  0.00    -0.331 C  
HETATM   29  C   UNL     1     -10.865  12.154  68.487  1.00  0.00    -0.236 C  
ENDBRANCH  23  24
ENDBRANCH  22  23
ENDBRANCH  21  22
ENDBRANCH  19  21
ENDBRANCH   5  19
TORSDOF 6
ENDMDL
MODEL      193
REMARK 921   NORMALIZED FREE ENERGY PREDICTED BY IDOCK:   -3.50 KCAL/MOL
REMARK 922        TOTAL FREE ENERGY PREDICTED BY IDOCK:   -5.42 KCAL/MOL
REMARK 923 INTER-LIGAND FREE ENERGY PREDICTED BY IDOCK:   -5.13 KCAL/MOL
REMARK 924 INTRA-LIGAND FREE ENERGY PREDICTED BY IDOCK:   -0.29 KCAL/MOL
REMARK 927      BINDING AFFINITY PREDICTED BY RF-SCORE:    0.00 PKD
ROOT
HETATM    1  C   UNL     1      -6.647  19.907  69.187  1.00  0.00    -0.368 C  
HETATM    2  C   UNL     1      -6.888  18.430  69.105  1.00  0.00    -0.260 C  
HETATM    3  C   UNL     1      -7.792  17.799  68.333  1.00  0.00    -0.284 C  
HETATM    4  O   UNL     1      -7.893  16.427  68.203  1.00  0.00    -0.151 OA 
HETATM    5  C   UNL     1      -7.182  14.222  68.805  1.00  0.00    -0.129 A  
HETATM    6  C   UNL     1      -6.455  13.387  69.683  1.00  0.00    -0.056 A  
HETATM    7  C   UNL     1      -7.089  15.611  68.954  1.00  0.00    -0.138 A  
HETATM    8  C   UNL     1      -6.206  16.134  69.897  1.00  0.00    -0.154 A  
HETATM    9  C   UNL     1      -5.626  13.921  70.667  1.00  0.00    -0.161 A  
HETATM   10  O   UNL     1      -5.211  18.080  70.745  1.00  0.00    -0.256 OA 
HETATM   11  C   UNL     1      -5.482  15.299  70.758  1.00  0.00    -0.111 A  
HETATM   12  C   UNL     1      -6.029  17.592  69.975  1.00  0.00    -0.188 C  
ENDROOT
BRANCH   3  13
HETATM   13  C   UNL     1      -8.822  18.509  67.561  1.00  0.00    -0.276 A  
HETATM   14  C   UNL     1     -11.159  18.795  66.948  1.00  0.00     0.055 A  
HETATM   15  C   UNL     1      -9.461  20.142  65.883  1.00  0.00    -0.241 A  
HETATM   16  C   UNL     1      -8.474  19.504  66.640  1.00  0.00    -0.352 A  
HETATM   17  C   UNL     1     -10.174  18.160  67.708  1.00  0.00    -0.395 A  
HETATM   18  C   UNL     1     -10.802  19.786  66.034  1.00  0.00    -0.390 A  
ENDBRANCH   3  13
BRANCH   5  19
HETATM   19  C   UNL     1      -8.084  13.629  67.773  1.00  0.00    -0.173 C  
HETATM   20  O   UNL     1      -9.235  13.955  67.532  1.00  0.00    -0.190 OA 
BRANCH  19  21
HETATM   21  O   UNL     1      -7.437  12.604  67.157  1.00  0.00    -0.134 OA 
BRANCH  21  22
HETATM   22  C   UNL     1      -8.315  11.557  66.734  1.00  0.00    -0.165 C  
BRANCH  22  23
HETATM   23  C   UNL     1      -8.314  10.452  67.809  1.00  0.00    -0.114 C  
BRANCH  23  24
HETATM   24  N   UNL     1      -8.474   9.069  67.297  1.00  0.00    -0.114 NA 
HETATM   25  C   UNL     1      -7.854   8.848  65.981  1.00  0.00    -0.102 C  
HETATM   26  C   UNL     1      -6.343   9.056  66.010  1.00  0.00    -0.064 C  
HETATM   27  C   UNL     1      -5.672   8.200  67.084  1.00  0.00    -0.038 C  
HETATM   28  C   UNL     1      -6.426   8.171  68.417  1.00  0.00    -0.058 C  
HETATM   29  C   UNL     1      -7.943   8.073  68.240  1.00  0.00    -0.128 C  
ENDBRANCH  23  24
ENDBRANCH  22  23
ENDBRANCH  21  22
ENDBRANCH  19  21
ENDBRANCH   5  19
TORSDOF 6
ENDMDL
MODEL      194
REMARK 921   NORMALIZED FREE ENERGY PREDICTED BY IDOCK:   -3.40 KCAL/MOL
REMARK 922        TOTAL FREE ENERGY PREDICTED BY IDOCK:   -5.27 KCAL/MOL
REMARK 923 INTER-LIGAND FREE ENERGY PREDICTED BY IDOCK:   -4.91 KCAL/MOL
REMARK 924 INTRA-LIGAND FREE ENERGY PREDICTED BY IDOCK:   -0.36 KCAL/MOL
REMARK 927      BINDING AFFINITY PREDICTED BY RF-SCORE:    0.00 PKD
ROOT
HETATM    1  C   UNL     1     -12.286  10.068  71.356  1.00  0.00    -0.510 C  
HETATM    2  C   UNL     1     -11.087   9.216  71.066  1.00  0.00    -0.374 C  
HETATM    3  C   UNL     1     -10.073   9.503  70.229  1.00  0.00    -0.262 C  
HETATM    4  O   UNL     1      -8.931   8.739  70.088  1.00  0.00    -0.150 OA 
HETATM    5  C   UNL     1      -7.645   6.795  70.638  1.00  0.00    -0.095 A  
HETATM    6  C   UNL     1      -7.591   5.513  71.228  1.00  0.00    -0.099 A  
HETATM    7  C   UNL     1      -8.813   7.557  70.770  1.00  0.00    -0.148 A  
HETATM    8  C   UNL     1      -9.852   7.072  71.562  1.00  0.00    -0.176 A  
HETATM    9  C   UNL     1      -8.663   5.011  71.963  1.00  0.00    -0.135 A  
HETATM   10  O   UNL     1     -11.930   7.555  72.534  1.00  0.00    -0.260 OA 
HETATM   11  C   UNL     1      -9.787   5.803  72.152  1.00  0.00    -0.181 A  
HETATM   12  C   UNL     1     -11.031   7.922  71.788  1.00  0.00    -0.243 C  
ENDROOT
BRANCH   3  13
HETATM   13  C   UNL     1     -10.086  10.659  69.321  1.00  0.00    -0.227 A  
HETATM   14  C   UNL     1     -11.088  12.762  68.617  1.00  0.00    -0.304 A  
HETATM   15  C   UNL     1      -9.247  11.827  67.366  1.00  0.00    -0.174 A  
HETATM   16  C   UNL     1      -9.195  10.741  68.246  1.00  0.00    -0.157 A  
HETATM   17  C   UNL     1     -11.034  11.680  69.500  1.00  0.00    -0.159 A  
HETATM   18  C   UNL     1     -10.195  12.834  67.550  1.00  0.00    -0.216 A  
ENDBRANCH   3  13
BRANCH   5  19
HETATM   19  C   UNL     1      -6.495   7.305  69.834  1.00  0.00    -0.035 C  
HETATM   20  O   UNL     1      -5.504   7.880  70.255  1.00  0.00    -0.023 OA 
BRANCH  19  21
HETATM   21  O   UNL     1      -6.742   7.077  68.516  1.00  0.00    -0.058 OA 
BRANCH  21  22
HETATM   22  C   UNL     1      -6.159   5.862  68.035  1.00  0.00    -0.021 C  
BRANCH  22  23
HETATM   23  C   UNL     1      -6.957   5.391  66.803  1.00  0.00    -0.065 C  
BRANCH  23  24
HETATM   24  N   UNL     1      -8.213   6.136  66.538  1.00  0.00    -0.109 NA 
HETATM   25  C   UNL     1      -8.485   6.350  65.109  1.00  0.00    -0.068 C  
HETATM   26  C   UNL     1      -8.670   5.039  64.351  1.00  0.00    -0.119 C  
HETATM   27  C   UNL     1      -9.745   4.160  64.990  1.00  0.00    -0.196 C  
HETATM   28  C   UNL     1      -9.680   4.112  66.519  1.00  0.00    -0.228 C  
HETATM   29  C   UNL     1      -9.377   5.474  67.145  1.00  0.00    -0.115 C  
ENDBRANCH  23  24
ENDBRANCH  22  23
ENDBRANCH  21  22
ENDBRANCH  19  21
ENDBRANCH   5  19
TORSDOF 6
ENDMDL
MODEL      195
REMARK 921   NORMALIZED FREE ENERGY PREDICTED BY IDOCK:   -3.35 KCAL/MOL
REMARK 922        TOTAL FREE ENERGY PREDICTED BY IDOCK:   -5.21 KCAL/MOL
REMARK 923 INTER-LIGAND FREE ENERGY PREDICTED BY IDOCK:   -4.24 KCAL/MOL
REMARK 924 INTRA-LIGAND FREE ENERGY PREDICTED BY IDOCK:   -0.97 KCAL/MOL
REMARK 927      BINDING AFFINITY PREDICTED BY RF-SCORE:    0.00 PKD
ROOT
HETATM    1  C   UNL     1     -11.444   9.500  70.350  1.00  0.00    -0.297 C  
HETATM    2  C   UNL     1     -10.521   8.371  70.003  1.00  0.00    -0.224 C  
HETATM    3  C   UNL     1      -9.435   8.428  69.209  1.00  0.00    -0.155 C  
HETATM    4  O   UNL     1      -8.547   7.388  69.018  1.00  0.00    -0.132 OA 
HETATM    5  C   UNL     1      -7.876   5.124  69.413  1.00  0.00    -0.080 A  
HETATM    6  C   UNL     1      -8.204   3.835  69.890  1.00  0.00    -0.069 A  
HETATM    7  C   UNL     1      -8.789   6.169  69.595  1.00  0.00    -0.134 A  
HETATM    8  C   UNL     1      -9.951   5.935  70.328  1.00  0.00    -0.247 A  
HETATM    9  C   UNL     1      -9.400   3.597  70.564  1.00  0.00    -0.231 A  
HETATM   10  O   UNL     1     -11.848   6.902  71.309  1.00  0.00    -0.302 OA 
HETATM   11  C   UNL     1     -10.265   4.655  70.805  1.00  0.00    -0.214 A  
HETATM   12  C   UNL     1     -10.855   7.061  70.610  1.00  0.00    -0.246 C  
ENDROOT
BRANCH   3  13
HETATM   13  C   UNL     1      -9.092   9.610  68.405  1.00  0.00    -0.123 A  
HETATM   14  C   UNL     1      -7.905  11.723  68.183  1.00  0.00    -0.135 A  
HETATM   15  C   UNL     1      -9.366  10.970  66.414  1.00  0.00    -0.204 A  
HETATM   16  C   UNL     1      -9.671   9.820  67.149  1.00  0.00    -0.223 A  
HETATM   17  C   UNL     1      -8.205  10.572  68.917  1.00  0.00    -0.141 A  
HETATM   18  C   UNL     1      -8.486  11.922  66.932  1.00  0.00    -0.174 A  
ENDBRANCH   3  13
BRANCH   5  19
HETATM   19  C   UNL     1      -6.599   5.352  68.673  1.00  0.00    -0.048 C  
HETATM   20  O   UNL     1      -5.475   5.395  69.146  1.00  0.00    -0.006 OA 
BRANCH  19  21
HETATM   21  O   UNL     1      -6.882   5.567  67.360  1.00  0.00    -0.057 OA 
BRANCH  21  22
HETATM   22  C   UNL     1      -7.205   4.368  66.650  1.00  0.00    -0.079 C  
BRANCH  22  23
HETATM   23  C   UNL     1      -8.274   4.701  65.589  1.00  0.00    -0.115 C  
BRANCH  23  24
HETATM   24  N   UNL     1      -9.190   3.586  65.242  1.00  0.00    -0.147 NA 
HETATM   25  C   UNL     1     -10.267   3.969  64.316  1.00  0.00    -0.182 C  
HETATM   26  C   UNL     1      -9.732   4.439  62.967  1.00  0.00    -0.029 C  
HETATM   27  C   UNL     1      -8.804   3.403  62.332  1.00  0.00    -0.084 C  
HETATM   28  C   UNL     1      -7.823   2.760  63.317  1.00  0.00    -0.068 C  
HETATM   29  C   UNL     1      -8.463   2.442  64.670  1.00  0.00    -0.090 C  
ENDBRANCH  23  24
ENDBRANCH  22  23
ENDBRANCH  21  22
ENDBRANCH  19  21
ENDBRANCH   5  19
TORSDOF 6
ENDMDL
MODEL      196
REMARK 921   NORMALIZED FREE ENERGY PREDICTED BY IDOCK:   -3.30 KCAL/MOL
REMARK 922        TOTAL FREE ENERGY PREDICTED BY IDOCK:   -5.14 KCAL/MOL
REMARK 923 INTER-LIGAND FREE ENERGY PREDICTED BY IDOCK:   -5.64 KCAL/MOL
REMARK 924 INTRA-LIGAND FREE ENERGY PREDICTED BY IDOCK:    0.50 KCAL/MOL
REMARK 927      BINDING AFFINITY PREDICTED BY RF-SCORE:    0.00 PKD
ROOT
HETATM    1  C   UNL     1      -6.589  19.983  69.057  1.00  0.00    -0.346 C  
HETATM    2  C   UNL     1      -6.852  18.507  69.056  1.00  0.00    -0.292 C  
HETATM    3  C   UNL     1      -7.785  17.852  68.341  1.00  0.00    -0.291 C  
HETATM    4  O   UNL     1      -7.908  16.477  68.282  1.00  0.00    -0.163 OA 
HETATM    5  C   UNL     1      -7.210  14.294  68.974  1.00  0.00    -0.118 A  
HETATM    6  C   UNL     1      -6.471  13.492  69.872  1.00  0.00    -0.013 A  
HETATM    7  C   UNL     1      -7.094  15.687  69.051  1.00  0.00    -0.151 A  
HETATM    8  C   UNL     1      -6.179  16.243  69.943  1.00  0.00    -0.161 A  
HETATM    9  C   UNL     1      -5.608  14.062  70.806  1.00  0.00    -0.177 A  
HETATM   10  O   UNL     1      -5.136  18.213  70.666  1.00  0.00    -0.232 OA 
HETATM   11  C   UNL     1      -5.443  15.440  70.824  1.00  0.00    -0.101 A  
HETATM   12  C   UNL     1      -5.981  17.700  69.944  1.00  0.00    -0.221 C  
ENDROOT
BRANCH   3  13
HETATM   13  C   UNL     1      -8.826  18.538  67.562  1.00  0.00    -0.276 A  
HETATM   14  C   UNL     1     -10.433  20.353  67.350  1.00  0.00    -0.207 A  
HETATM   15  C   UNL     1     -10.303  18.654  65.639  1.00  0.00    -0.066 A  
HETATM   16  C   UNL     1      -9.282  18.012  66.349  1.00  0.00    -0.256 A  
HETATM   17  C   UNL     1      -9.410  19.715  68.057  1.00  0.00    -0.425 A  
HETATM   18  C   UNL     1     -10.880  19.822  66.141  1.00  0.00    -0.383 A  
ENDBRANCH   3  13
BRANCH   5  19
HETATM   19  C   UNL     1      -8.148  13.664  67.997  1.00  0.00    -0.161 C  
HETATM   20  O   UNL     1      -9.330  13.925  67.844  1.00  0.00    -0.194 OA 
BRANCH  19  21
HETATM   21  O   UNL     1      -7.489  12.688  67.318  1.00  0.00    -0.149 OA 
BRANCH  21  22
HETATM   22  C   UNL     1      -8.363  11.716  66.737  1.00  0.00    -0.171 C  
BRANCH  22  23
HETATM   23  C   UNL     1      -8.122  10.362  67.434  1.00  0.00    -0.107 C  
BRANCH  23  24
HETATM   24  N   UNL     1      -9.335   9.535  67.650  1.00  0.00    -0.124 NA 
HETATM   25  C   UNL     1      -9.466   9.022  69.023  1.00  0.00    -0.155 C  
HETATM   26  C   UNL     1      -9.597  10.142  70.050  1.00  0.00    -0.113 C  
HETATM   27  C   UNL     1     -10.742  11.096  69.708  1.00  0.00    -0.069 C  
HETATM   28  C   UNL     1     -10.824  11.460  68.223  1.00  0.00    -0.253 C  
HETATM   29  C   UNL     1     -10.562  10.267  67.302  1.00  0.00    -0.267 C  
ENDBRANCH  23  24
ENDBRANCH  22  23
ENDBRANCH  21  22
ENDBRANCH  19  21
ENDBRANCH   5  19
TORSDOF 6
ENDMDL
MODEL      197
REMARK 921   NORMALIZED FREE ENERGY PREDICTED BY IDOCK:   -3.25 KCAL/MOL
REMARK 922        TOTAL FREE ENERGY PREDICTED BY IDOCK:   -5.08 KCAL/MOL
REMARK 923 INTER-LIGAND FREE ENERGY PREDICTED BY IDOCK:   -3.55 KCAL/MOL
REMARK 924 INTRA-LIGAND FREE ENERGY PREDICTED BY IDOCK:   -1.53 KCAL/MOL
REMARK 927      BINDING AFFINITY PREDICTED BY RF-SCORE:    0.00 PKD
ROOT
HETATM    1  C   UNL     1     -11.711   9.190  69.648  1.00  0.00     0.423 C  
HETATM    2  C   UNL     1     -10.600   8.187  69.563  1.00  0.00    -0.215 C  
HETATM    3  C   UNL     1      -9.367   8.386  69.062  1.00  0.00    -0.147 C  
HETATM    4  O   UNL     1      -8.339   7.464  69.117  1.00  0.00    -0.129 OA 
HETATM    5  C   UNL     1      -7.519   5.294  69.709  1.00  0.00    -0.065 A  
HETATM    6  C   UNL     1      -7.796   3.969  70.113  1.00  0.00    -0.048 A  
HETATM    7  C   UNL     1      -8.569   6.218  69.639  1.00  0.00    -0.133 A  
HETATM    8  C   UNL     1      -9.839   5.834  70.064  1.00  0.00    -0.235 A  
HETATM    9  C   UNL     1      -9.085   3.578  70.472  1.00  0.00    -0.192 A  
HETATM   10  O   UNL     1     -12.022   6.551  70.524  1.00  0.00    -0.388 OA 
HETATM   11  C   UNL     1     -10.104   4.521  70.471  1.00  0.00    -0.233 A  
HETATM   12  C   UNL     1     -10.914   6.838  70.092  1.00  0.00    -0.292 C  
ENDROOT
BRANCH   3  13
HETATM   13  C   UNL     1      -8.979   9.610  68.348  1.00  0.00    -0.123 A  
HETATM   14  C   UNL     1      -8.785  10.850  66.263  1.00  0.00    -0.175 A  
HETATM   15  C   UNL     1      -7.958  11.812  68.318  1.00  0.00    -0.147 A  
HETATM   16  C   UNL     1      -8.358  10.670  69.018  1.00  0.00    -0.153 A  
HETATM   17  C   UNL     1      -9.189   9.710  66.963  1.00  0.00    -0.167 A  
HETATM   18  C   UNL     1      -8.168  11.901  66.941  1.00  0.00    -0.157 A  
ENDBRANCH   3  13
BRANCH   5  19
HETATM   19  C   UNL     1      -6.135   5.685  69.305  1.00  0.00    -0.024 C  
HETATM   20  O   UNL     1      -5.751   5.955  68.178  1.00  0.00    -0.011 OA 
BRANCH  19  21
HETATM   21  O   UNL     1      -5.328   5.645  70.397  1.00  0.00    -0.008 OA 
BRANCH  21  22
HETATM   22  C   UNL     1      -5.628   6.662  71.358  1.00  0.00    -0.028 C  
BRANCH  22  23
HETATM   23  C   UNL     1      -6.157   5.984  72.638  1.00  0.00    -0.038 C  
BRANCH  23  24
HETATM   24  N   UNL     1      -6.421   6.898  73.777  1.00  0.00    -0.067 NA 
HETATM   25  C   UNL     1      -6.572   8.307  73.382  1.00  0.00    -0.112 C  
HETATM   26  C   UNL     1      -7.762   8.526  72.453  1.00  0.00    -0.101 C  
HETATM   27  C   UNL     1      -9.058   7.981  73.053  1.00  0.00    -0.331 C  
HETATM   28  C   UNL     1      -8.905   6.615  73.727  1.00  0.00    -0.155 C  
HETATM   29  C   UNL     1      -7.613   6.493  74.537  1.00  0.00    -0.099 C  
ENDBRANCH  23  24
ENDBRANCH  22  23
ENDBRANCH  21  22
ENDBRANCH  19  21
ENDBRANCH   5  19
TORSDOF 6
ENDMDL
MODEL      198
REMARK 921   NORMALIZED FREE ENERGY PREDICTED BY IDOCK:   -3.23 KCAL/MOL
REMARK 922        TOTAL FREE ENERGY PREDICTED BY IDOCK:   -5.05 KCAL/MOL
REMARK 923 INTER-LIGAND FREE ENERGY PREDICTED BY IDOCK:   -4.10 KCAL/MOL
REMARK 924 INTRA-LIGAND FREE ENERGY PREDICTED BY IDOCK:   -0.95 KCAL/MOL
REMARK 927      BINDING AFFINITY PREDICTED BY RF-SCORE:    0.00 PKD
ROOT
HETATM    1  C   UNL     1      -7.967   7.374  63.567  1.00  0.00    -0.071 C  
HETATM    2  C   UNL     1      -7.861   7.723  65.021  1.00  0.00    -0.125 C  
HETATM    3  C   UNL     1      -7.912   6.874  66.063  1.00  0.00    -0.109 C  
HETATM    4  O   UNL     1      -7.687   7.230  67.379  1.00  0.00    -0.106 OA 
HETATM    5  C   UNL     1      -7.225   8.897  69.034  1.00  0.00    -0.072 A  
HETATM    6  C   UNL     1      -7.146  10.265  69.378  1.00  0.00    -0.094 A  
HETATM    7  C   UNL     1      -7.470   8.544  67.701  1.00  0.00    -0.094 A  
HETATM    8  C   UNL     1      -7.532   9.546  66.735  1.00  0.00    -0.094 A  
HETATM    9  C   UNL     1      -7.275  11.261  68.413  1.00  0.00    -0.085 A  
HETATM   10  O   UNL     1      -7.668  10.015  64.442  1.00  0.00    -0.139 OA 
HETATM   11  C   UNL     1      -7.444  10.900  67.083  1.00  0.00    -0.109 A  
HETATM   12  C   UNL     1      -7.680   9.164  65.322  1.00  0.00    -0.099 C  
ENDROOT
BRANCH   3  13
HETATM   13  C   UNL     1      -8.263   5.453  65.923  1.00  0.00    -0.119 A  
HETATM   14  C   UNL     1      -9.895   3.663  66.152  1.00  0.00    -0.017 A  
HETATM   15  C   UNL     1      -7.647   3.157  65.433  1.00  0.00    -0.080 A  
HETATM   16  C   UNL     1      -7.309   4.512  65.522  1.00  0.00    -0.080 A  
HETATM   17  C   UNL     1      -9.560   5.017  66.237  1.00  0.00    -0.175 A  
HETATM   18  C   UNL     1      -8.938   2.733  65.751  1.00  0.00    -0.143 A  
ENDBRANCH   3  13
BRANCH   5  19
HETATM   19  C   UNL     1      -7.108   7.846  70.088  1.00  0.00    -0.050 C  
HETATM   20  O   UNL     1      -6.116   7.577  70.747  1.00  0.00    -0.034 OA 
BRANCH  19  21
HETATM   21  O   UNL     1      -8.286   7.173  70.174  1.00  0.00    -0.130 OA 
BRANCH  21  22
HETATM   22  C   UNL     1      -8.559   6.679  71.488  1.00  0.00    -0.124 C  
BRANCH  22  23
HETATM   23  C   UNL     1     -10.064   6.853  71.774  1.00  0.00    -0.185 C  
BRANCH  23  24
HETATM   24  N   UNL     1     -10.852   7.457  70.671  1.00  0.00    -0.237 NA 
HETATM   25  C   UNL     1     -12.151   6.805  70.445  1.00  0.00    -0.211 C  
HETATM   26  C   UNL     1     -13.073   6.912  71.656  1.00  0.00    -0.338 C  
HETATM   27  C   UNL     1     -13.256   8.361  72.104  1.00  0.00    -0.346 C  
HETATM   28  C   UNL     1     -11.963   9.181  72.103  1.00  0.00    -0.364 C  
HETATM   29  C   UNL     1     -11.079   8.894  70.888  1.00  0.00    -0.271 C  
ENDBRANCH  23  24
ENDBRANCH  22  23
ENDBRANCH  21  22
ENDBRANCH  19  21
ENDBRANCH   5  19
TORSDOF 6
ENDMDL
MODEL      199
REMARK 921   NORMALIZED FREE ENERGY PREDICTED BY IDOCK:   -3.00 KCAL/MOL
REMARK 922        TOTAL FREE ENERGY PREDICTED BY IDOCK:   -4.74 KCAL/MOL
REMARK 923 INTER-LIGAND FREE ENERGY PREDICTED BY IDOCK:   -3.55 KCAL/MOL
REMARK 924 INTRA-LIGAND FREE ENERGY PREDICTED BY IDOCK:   -1.19 KCAL/MOL
REMARK 927      BINDING AFFINITY PREDICTED BY RF-SCORE:    0.00 PKD
ROOT
HETATM    1  C   UNL     1     -10.940   9.128  70.116  1.00  0.00    -0.267 C  
HETATM    2  C   UNL     1      -9.984   7.980  70.232  1.00  0.00    -0.189 C  
HETATM    3  C   UNL     1      -8.658   8.003  70.002  1.00  0.00    -0.134 C  
HETATM    4  O   UNL     1      -7.801   6.947  70.240  1.00  0.00    -0.105 OA 
HETATM    5  C   UNL     1      -7.426   4.684  70.925  1.00  0.00    -0.056 A  
HETATM    6  C   UNL     1      -7.960   3.411  71.225  1.00  0.00    -0.059 A  
HETATM    7  C   UNL     1      -8.302   5.745  70.667  1.00  0.00    -0.120 A  
HETATM    8  C   UNL     1      -9.673   5.544  70.810  1.00  0.00    -0.232 A  
HETATM    9  C   UNL     1      -9.336   3.204  71.300  1.00  0.00    -0.207 A  
HETATM   10  O   UNL     1     -11.785   6.559  70.833  1.00  0.00    -0.346 OA 
HETATM   11  C   UNL     1     -10.194   4.280  71.117  1.00  0.00    -0.087 A  
HETATM   12  C   UNL     1     -10.582   6.688  70.646  1.00  0.00    -0.227 C  
ENDROOT
BRANCH   3  13
HETATM   13  C   UNL     1      -7.967   9.162  69.418  1.00  0.00    -0.097 A  
HETATM   14  C   UNL     1      -7.201  10.376  67.453  1.00  0.00    -0.091 A  
HETATM   15  C   UNL     1      -6.647  11.184  69.660  1.00  0.00    -0.139 A  
HETATM   16  C   UNL     1      -7.336  10.109  70.231  1.00  0.00    -0.108 A  
HETATM   17  C   UNL     1      -7.894   9.305  68.022  1.00  0.00    -0.092 A  
HETATM   18  C   UNL     1      -6.576  11.315  68.272  1.00  0.00    -0.058 A  
ENDBRANCH   3  13
BRANCH   5  19
HETATM   19  C   UNL     1      -5.949   4.878  70.825  1.00  0.00    -0.018 C  
HETATM   20  O   UNL     1      -5.143   4.851  71.741  1.00  0.00    -0.004 OA 
BRANCH  19  21
HETATM   21  O   UNL     1      -5.625   5.150  69.533  1.00  0.00    -0.010 OA 
BRANCH  21  22
HETATM   22  C   UNL     1      -6.303   4.312  68.593  1.00  0.00    -0.036 C  
BRANCH  22  23
HETATM   23  C   UNL     1      -6.649   5.152  67.347  1.00  0.00    -0.054 C  
BRANCH  23  24
HETATM   24  N   UNL     1      -7.367   4.425  66.271  1.00  0.00    -0.079 NA 
HETATM   25  C   UNL     1      -8.510   3.634  66.752  1.00  0.00    -0.106 C  
HETATM   26  C   UNL     1      -9.589   4.504  67.390  1.00  0.00    -0.209 C  
HETATM   27  C   UNL     1     -10.048   5.620  66.452  1.00  0.00    -0.199 C  
HETATM   28  C   UNL     1      -8.905   6.314  65.706  1.00  0.00    -0.122 C  
HETATM   29  C   UNL     1      -7.835   5.336  65.216  1.00  0.00    -0.095 C  
ENDBRANCH  23  24
ENDBRANCH  22  23
ENDBRANCH  21  22
ENDBRANCH  19  21
ENDBRANCH   5  19
TORSDOF 6
ENDMDL
MODEL      200
REMARK 921   NORMALIZED FREE ENERGY PREDICTED BY IDOCK:   -2.85 KCAL/MOL
REMARK 922        TOTAL FREE ENERGY PREDICTED BY IDOCK:   -4.53 KCAL/MOL
REMARK 923 INTER-LIGAND FREE ENERGY PREDICTED BY IDOCK:   -5.45 KCAL/MOL
REMARK 924 INTRA-LIGAND FREE ENERGY PREDICTED BY IDOCK:    0.92 KCAL/MOL
REMARK 927      BINDING AFFINITY PREDICTED BY RF-SCORE:    0.00 PKD
ROOT
HETATM    1  C   UNL     1      -9.107  16.212  68.315  1.00  0.00    -0.190 C  
HETATM    2  C   UNL     1      -9.115  14.714  68.251  1.00  0.00    -0.189 C  
HETATM    3  C   UNL     1     -10.021  13.885  68.801  1.00  0.00    -0.135 C  
HETATM    4  O   UNL     1     -10.051  12.517  68.611  1.00  0.00    -0.210 OA 
HETATM    5  C   UNL     1      -9.108  10.523  67.680  1.00  0.00    -0.146 A  
HETATM    6  C   UNL     1      -8.013   9.886  67.054  1.00  0.00    -0.109 A  
HETATM    7  C   UNL     1      -9.062  11.908  67.884  1.00  0.00    -0.183 A  
HETATM    8  C   UNL     1      -7.986  12.633  67.378  1.00  0.00    -0.177 A  
HETATM    9  C   UNL     1      -6.911  10.613  66.611  1.00  0.00    -0.114 A  
HETATM   10  O   UNL     1      -7.099  14.770  67.003  1.00  0.00    -0.144 OA 
HETATM   11  C   UNL     1      -6.909  11.994  66.751  1.00  0.00     0.046 A  
HETATM   12  C   UNL     1      -7.995  14.099  67.498  1.00  0.00    -0.188 C  
ENDROOT
BRANCH   3  13
HETATM   13  C   UNL     1     -11.075  14.344  69.718  1.00  0.00    -0.202 A  
HETATM   14  C   UNL     1     -13.268  14.023  70.721  1.00  0.00    -0.172 A  
HETATM   15  C   UNL     1     -11.989  16.006  71.231  1.00  0.00    -0.475 A  
HETATM   16  C   UNL     1     -10.960  15.563  70.394  1.00  0.00    -0.360 A  
HETATM   17  C   UNL     1     -12.239  13.577  69.888  1.00  0.00    -0.356 A  
HETATM   18  C   UNL     1     -13.143  15.239  71.392  1.00  0.00    -0.529 A  
ENDBRANCH   3  13
BRANCH   5  19
HETATM   19  C   UNL     1     -10.269   9.722  68.170  1.00  0.00    -0.186 C  
HETATM   20  O   UNL     1     -10.681   9.655  69.317  1.00  0.00    -0.220 OA 
BRANCH  19  21
HETATM   21  O   UNL     1     -10.786   9.012  67.131  1.00  0.00    -0.259 OA 
BRANCH  21  22
HETATM   22  C   UNL     1     -11.000   7.633  67.443  1.00  0.00    -0.042 C  
BRANCH  22  23
HETATM   23  C   UNL     1     -10.566   7.387  68.902  1.00  0.00    -0.176 C  
BRANCH  23  24
HETATM   24  N   UNL     1      -9.764   6.159  69.126  1.00  0.00    -0.137 NA 
HETATM   25  C   UNL     1      -8.492   6.139  68.387  1.00  0.00    -0.114 C  
HETATM   26  C   UNL     1      -7.558   7.269  68.808  1.00  0.00    -0.104 C  
HETATM   27  C   UNL     1      -7.317   7.274  70.317  1.00  0.00    -0.082 C  
HETATM   28  C   UNL     1      -8.578   7.027  71.150  1.00  0.00    -0.133 C  
HETATM   29  C   UNL     1      -9.481   5.946  70.554  1.00  0.00    -0.167 C  
ENDBRANCH  23  24
ENDBRANCH  22  23
ENDBRANCH  21  22
ENDBRANCH  19  21
ENDBRANCH   5  19
TORSDOF 6
ENDMDL
MODEL      201
REMARK 921   NORMALIZED FREE ENERGY PREDICTED BY IDOCK:   -2.78 KCAL/MOL
REMARK 922        TOTAL FREE ENERGY PREDICTED BY IDOCK:   -4.45 KCAL/MOL
REMARK 923 INTER-LIGAND FREE ENERGY PREDICTED BY IDOCK:   -4.12 KCAL/MOL
REMARK 924 INTRA-LIGAND FREE ENERGY PREDICTED BY IDOCK:   -0.33 KCAL/MOL
REMARK 927      BINDING AFFINITY PREDICTED BY RF-SCORE:    0.00 PKD
ROOT
HETATM    1  C   UNL     1      -8.272   7.984  73.548  1.00  0.00    -0.271 C  
HETATM    2  C   UNL     1      -8.150   8.140  72.062  1.00  0.00    -0.178 C  
HETATM    3  C   UNL     1      -9.154   8.288  71.178  1.00  0.00    -0.162 C  
HETATM    4  O   UNL     1      -8.984   8.550  69.833  1.00  0.00    -0.141 OA 
HETATM    5  C   UNL     1      -7.556   8.877  67.940  1.00  0.00    -0.093 A  
HETATM    6  C   UNL     1      -6.266   8.778  67.371  1.00  0.00    -0.056 A  
HETATM    7  C   UNL     1      -7.723   8.593  69.301  1.00  0.00    -0.096 A  
HETATM    8  C   UNL     1      -6.600   8.317  70.079  1.00  0.00    -0.039 A  
HETATM    9  C   UNL     1      -5.160   8.436  68.146  1.00  0.00    -0.034 A  
HETATM   10  O   UNL     1      -5.793   7.953  72.249  1.00  0.00    -0.039 OA 
HETATM   11  C   UNL     1      -5.324   8.230  69.508  1.00  0.00    -0.030 A  
HETATM   12  C   UNL     1      -6.767   8.127  71.528  1.00  0.00    -0.058 C  
ENDROOT
BRANCH   3  13
HETATM   13  C   UNL     1     -10.571   8.140  71.543  1.00  0.00    -0.282 A  
HETATM   14  C   UNL     1     -12.454   6.704  72.102  1.00  0.00    -0.207 A  
HETATM   15  C   UNL     1     -12.775   9.089  71.905  1.00  0.00    -0.450 A  
HETATM   16  C   UNL     1     -11.420   9.250  71.597  1.00  0.00    -0.468 A  
HETATM   17  C   UNL     1     -11.100   6.865  71.799  1.00  0.00    -0.275 A  
HETATM   18  C   UNL     1     -13.292   7.817  72.154  1.00  0.00    -0.130 A  
ENDBRANCH   3  13
BRANCH   5  19
HETATM   19  C   UNL     1      -8.732   9.221  67.087  1.00  0.00    -0.127 C  
HETATM   20  O   UNL     1      -9.316  10.292  67.042  1.00  0.00    -0.151 OA 
BRANCH  19  21
HETATM   21  O   UNL     1      -9.106   8.119  66.384  1.00  0.00    -0.162 OA 
BRANCH  21  22
HETATM   22  C   UNL     1      -8.496   6.915  66.857  1.00  0.00    -0.115 C  
BRANCH  22  23
HETATM   23  C   UNL     1      -9.609   5.932  67.273  1.00  0.00    -0.116 C  
BRANCH  23  24
HETATM   24  N   UNL     1      -9.153   4.556  67.588  1.00  0.00    -0.116 NA 
HETATM   25  C   UNL     1      -7.746   4.479  68.010  1.00  0.00    -0.081 C  
HETATM   26  C   UNL     1      -7.483   5.256  69.296  1.00  0.00    -0.062 C  
HETATM   27  C   UNL     1      -8.419   4.823  70.424  1.00  0.00    -0.102 C  
HETATM   28  C   UNL     1      -9.872   4.620  69.983  1.00  0.00    -0.294 C  
HETATM   29  C   UNL     1      -9.989   3.929  68.623  1.00  0.00     0.218 C  
ENDBRANCH  23  24
ENDBRANCH  22  23
ENDBRANCH  21  22
ENDBRANCH  19  21
ENDBRANCH   5  19
TORSDOF 6
ENDMDL
MODEL      202
REMARK 921   NORMALIZED FREE ENERGY PREDICTED BY IDOCK:   -2.76 KCAL/MOL
REMARK 922        TOTAL FREE ENERGY PREDICTED BY IDOCK:   -4.42 KCAL/MOL
REMARK 923 INTER-LIGAND FREE ENERGY PREDICTED BY IDOCK:   -5.15 KCAL/MOL
REMARK 924 INTRA-LIGAND FREE ENERGY PREDICTED BY IDOCK:    0.74 KCAL/MOL
REMARK 927      BINDING AFFINITY PREDICTED BY RF-SCORE:    0.00 PKD
ROOT
HETATM    1  C   UNL     1      -8.123  14.080  67.122  1.00  0.00    -0.121 C  
HETATM    2  C   UNL     1      -8.927  13.071  67.885  1.00  0.00    -0.200 C  
HETATM    3  C   UNL     1      -8.677  11.753  67.995  1.00  0.00    -0.167 C  
HETATM    4  O   UNL     1      -9.381  10.886  68.809  1.00  0.00    -0.179 OA 
HETATM    5  C   UNL     1     -11.165  10.460  70.348  1.00  0.00    -0.399 A  
HETATM    6  C   UNL     1     -12.364  10.896  70.954  1.00  0.00    -0.501 A  
HETATM    7  C   UNL     1     -10.467  11.339  69.510  1.00  0.00     0.027 A  
HETATM    8  C   UNL     1     -10.919  12.650  69.376  1.00  0.00    -0.042 A  
HETATM    9  C   UNL     1     -12.843  12.190  70.758  1.00  0.00    -0.109 A  
HETATM   10  O   UNL     1     -10.455  14.775  68.503  1.00  0.00    -0.236 OA 
HETATM   11  C   UNL     1     -12.104  13.077  69.987  1.00  0.00    -0.367 A  
HETATM   12  C   UNL     1     -10.123  13.600  68.584  1.00  0.00    -0.180 C  
ENDROOT
BRANCH   3  13
HETATM   13  C   UNL     1      -7.638  11.066  67.215  1.00  0.00    -0.111 A  
HETATM   14  C   UNL     1      -5.393  10.137  67.072  1.00  0.00    -0.041 A  
HETATM   15  C   UNL     1      -6.820  10.144  65.124  1.00  0.00    -0.134 A  
HETATM   16  C   UNL     1      -7.834  10.760  65.864  1.00  0.00    -0.131 A  
HETATM   17  C   UNL     1      -6.407  10.749  67.814  1.00  0.00    -0.058 A  
HETATM   18  C   UNL     1      -5.599   9.836  65.727  1.00  0.00    -0.050 A  
ENDBRANCH   3  13
BRANCH   5  19
HETATM   19  C   UNL     1     -10.682   9.061  70.550  1.00  0.00    -0.239 C  
HETATM   20  O   UNL     1     -11.324   8.035  70.392  1.00  0.00    -0.261 OA 
BRANCH  19  21
HETATM   21  O   UNL     1      -9.400   9.097  71.002  1.00  0.00    -0.248 OA 
BRANCH  21  22
HETATM   22  C   UNL     1      -9.204   8.343  72.202  1.00  0.00    -0.243 C  
BRANCH  22  23
HETATM   23  C   UNL     1     -10.144   7.120  72.170  1.00  0.00    -0.180 C  
BRANCH  23  24
HETATM   24  N   UNL     1     -10.048   6.217  73.343  1.00  0.00    -0.185 NA 
HETATM   25  C   UNL     1     -10.634   4.887  73.117  1.00  0.00    -0.220 C  
HETATM   26  C   UNL     1      -9.922   4.121  72.006  1.00  0.00    -0.250 C  
HETATM   27  C   UNL     1      -8.417   4.024  72.257  1.00  0.00    -0.105 C  
HETATM   28  C   UNL     1      -7.786   5.324  72.761  1.00  0.00    -0.098 C  
HETATM   29  C   UNL     1      -8.656   6.049  73.789  1.00  0.00    -0.124 C  
ENDBRANCH  23  24
ENDBRANCH  22  23
ENDBRANCH  21  22
ENDBRANCH  19  21
ENDBRANCH   5  19
TORSDOF 6
ENDMDL
MODEL      203
REMARK 921   NORMALIZED FREE ENERGY PREDICTED BY IDOCK:   -2.59 KCAL/MOL
REMARK 922        TOTAL FREE ENERGY PREDICTED BY IDOCK:   -4.18 KCAL/MOL
REMARK 923 INTER-LIGAND FREE ENERGY PREDICTED BY IDOCK:   -5.98 KCAL/MOL
REMARK 924 INTRA-LIGAND FREE ENERGY PREDICTED BY IDOCK:    1.79 KCAL/MOL
REMARK 927      BINDING AFFINITY PREDICTED BY RF-SCORE:    0.00 PKD
ROOT
HETATM    1  C   UNL     1     -10.924   8.038  70.490  1.00  0.00    -0.247 C  
HETATM    2  C   UNL     1     -10.887   8.942  69.295  1.00  0.00    -0.113 C  
HETATM    3  C   UNL     1     -10.570   8.601  68.032  1.00  0.00    -0.145 C  
HETATM    4  O   UNL     1     -10.668   9.445  66.943  1.00  0.00    -0.205 OA 
HETATM    5  C   UNL     1     -11.151  11.599  66.015  1.00  0.00    -0.325 A  
HETATM    6  C   UNL     1     -11.388  12.975  66.224  1.00  0.00    -0.354 A  
HETATM    7  C   UNL     1     -11.035  10.752  67.125  1.00  0.00    -0.260 A  
HETATM    8  C   UNL     1     -11.255  11.271  68.399  1.00  0.00    -0.324 A  
HETATM    9  C   UNL     1     -11.541  13.496  67.508  1.00  0.00    -0.385 A  
HETATM   10  O   UNL     1     -11.498  10.770  70.676  1.00  0.00    -0.325 OA 
HETATM   11  C   UNL     1     -11.499  12.637  68.597  1.00  0.00    -0.347 A  
HETATM   12  C   UNL     1     -11.240  10.358  69.552  1.00  0.00    -0.269 C  
ENDROOT
BRANCH   3  13
HETATM   13  C   UNL     1     -10.031   7.283  67.669  1.00  0.00    -0.207 A  
HETATM   14  C   UNL     1      -8.333   5.946  66.550  1.00  0.00    -0.112 A  
HETATM   15  C   UNL     1     -10.213   4.863  67.610  1.00  0.00    -0.135 A  
HETATM   16  C   UNL     1     -10.717   6.108  67.998  1.00  0.00    -0.370 A  
HETATM   17  C   UNL     1      -8.833   7.191  66.941  1.00  0.00    -0.132 A  
HETATM   18  C   UNL     1      -9.024   4.782  66.883  1.00  0.00    -0.111 A  
ENDBRANCH   3  13
BRANCH   5  19
HETATM   19  C   UNL     1     -10.967  11.066  64.633  1.00  0.00    -0.080 C  
HETATM   20  O   UNL     1     -11.623  11.351  63.644  1.00  0.00    -0.331 OA 
BRANCH  19  21
HETATM   21  O   UNL     1      -9.965  10.147  64.643  1.00  0.00    -0.328 OA 
BRANCH  21  22
HETATM   22  C   UNL     1      -8.663  10.733  64.727  1.00  0.00    -0.109 C  
BRANCH  22  23
HETATM   23  C   UNL     1      -7.614   9.603  64.700  1.00  0.00    -0.126 C  
BRANCH  23  24
HETATM   24  N   UNL     1      -7.012   9.266  66.013  1.00  0.00    -0.088 NA 
HETATM   25  C   UNL     1      -5.565   9.524  66.085  1.00  0.00    -0.052 C  
HETATM   26  C   UNL     1      -5.229  11.000  65.895  1.00  0.00    -0.139 C  
HETATM   27  C   UNL     1      -5.996  11.887  66.875  1.00  0.00    -0.115 C  
HETATM   28  C   UNL     1      -7.465  11.495  67.051  1.00  0.00    -0.151 C  
HETATM   29  C   UNL     1      -7.673   9.980  67.115  1.00  0.00    -0.092 C  
ENDBRANCH  23  24
ENDBRANCH  22  23
ENDBRANCH  21  22
ENDBRANCH  19  21
ENDBRANCH   5  19
TORSDOF 6
ENDMDL
MODEL      204
REMARK 921   NORMALIZED FREE ENERGY PREDICTED BY IDOCK:   -2.52 KCAL/MOL
REMARK 922        TOTAL FREE ENERGY PREDICTED BY IDOCK:   -4.09 KCAL/MOL
REMARK 923 INTER-LIGAND FREE ENERGY PREDICTED BY IDOCK:   -3.52 KCAL/MOL
REMARK 924 INTRA-LIGAND FREE ENERGY PREDICTED BY IDOCK:   -0.57 KCAL/MOL
REMARK 927      BINDING AFFINITY PREDICTED BY RF-SCORE:    0.00 PKD
ROOT
HETATM    1  C   UNL     1      -9.444   7.193  72.968  1.00  0.00    -0.193 C  
HETATM    2  C   UNL     1      -9.207   7.321  71.494  1.00  0.00    -0.150 C  
HETATM    3  C   UNL     1      -8.130   7.859  70.891  1.00  0.00    -0.101 C  
HETATM    4  O   UNL     1      -7.904   7.844  69.528  1.00  0.00    -0.105 OA 
HETATM    5  C   UNL     1      -8.608   7.297  67.307  1.00  0.00    -0.121 A  
HETATM    6  C   UNL     1      -9.645   6.895  66.436  1.00  0.00    -0.152 A  
HETATM    7  C   UNL     1      -8.851   7.326  68.686  1.00  0.00    -0.129 A  
HETATM    8  C   UNL     1     -10.074   6.865  69.169  1.00  0.00    -0.180 A  
HETATM    9  C   UNL     1     -10.888   6.499  66.926  1.00  0.00    -0.427 A  
HETATM   10  O   UNL     1     -11.320   6.329  71.080  1.00  0.00    -0.294 OA 
HETATM   11  C   UNL     1     -11.094   6.460  68.298  1.00  0.00    -0.359 A  
HETATM   12  C   UNL     1     -10.284   6.794  70.623  1.00  0.00    -0.195 C  
ENDROOT
BRANCH   3  13
HETATM   13  C   UNL     1      -7.076   8.575  71.624  1.00  0.00    -0.102 A  
HETATM   14  C   UNL     1      -5.879   8.994  73.701  1.00  0.00    -0.052 A  
HETATM   15  C   UNL     1      -5.350  10.279  71.726  1.00  0.00     0.025 A  
HETATM   16  C   UNL     1      -6.322   9.578  71.004  1.00  0.00    -0.077 A  
HETATM   17  C   UNL     1      -6.846   8.289  72.979  1.00  0.00    -0.122 A  
HETATM   18  C   UNL     1      -5.131   9.990  73.074  1.00  0.00     0.024 A  
ENDBRANCH   3  13
BRANCH   5  19
HETATM   19  C   UNL     1      -7.292   7.742  66.759  1.00  0.00    -0.089 C  
HETATM   20  O   UNL     1      -6.237   7.129  66.800  1.00  0.00    -0.036 OA 
BRANCH  19  21
HETATM   21  O   UNL     1      -7.429   8.990  66.238  1.00  0.00    -0.090 OA 
BRANCH  21  22
HETATM   22  C   UNL     1      -7.078  10.027  67.159  1.00  0.00    -0.089 C  
BRANCH  22  23
HETATM   23  C   UNL     1      -8.304  10.940  67.359  1.00  0.00    -0.117 C  
BRANCH  23  24
HETATM   24  N   UNL     1      -8.163  11.968  68.419  1.00  0.00    -0.159 NA 
HETATM   25  C   UNL     1      -7.628  13.250  67.935  1.00  0.00    -0.152 C  
HETATM   26  C   UNL     1      -8.542  13.908  66.906  1.00  0.00    -0.138 C  
HETATM   27  C   UNL     1      -9.967  14.071  67.435  1.00  0.00    -0.243 C  
HETATM   28  C   UNL     1     -10.492  12.850  68.196  1.00  0.00    -0.245 C  
HETATM   29  C   UNL     1      -9.438  12.220  69.108  1.00  0.00     0.551 C  
ENDBRANCH  23  24
ENDBRANCH  22  23
ENDBRANCH  21  22
ENDBRANCH  19  21
ENDBRANCH   5  19
TORSDOF 6
ENDMDL
MODEL      205
REMARK 921   NORMALIZED FREE ENERGY PREDICTED BY IDOCK:   -2.26 KCAL/MOL
REMARK 922        TOTAL FREE ENERGY PREDICTED BY IDOCK:   -3.74 KCAL/MOL
REMARK 923 INTER-LIGAND FREE ENERGY PREDICTED BY IDOCK:   -3.52 KCAL/MOL
REMARK 924 INTRA-LIGAND FREE ENERGY PREDICTED BY IDOCK:   -0.21 KCAL/MOL
REMARK 927      BINDING AFFINITY PREDICTED BY RF-SCORE:    0.00 PKD
ROOT
HETATM    1  C   UNL     1      -9.102  15.963  68.457  1.00  0.00    -0.200 C  
HETATM    2  C   UNL     1      -8.809  14.493  68.478  1.00  0.00    -0.182 C  
HETATM    3  C   UNL     1      -9.641  13.508  68.863  1.00  0.00     0.133 C  
HETATM    4  O   UNL     1      -9.366  12.159  68.750  1.00  0.00    -0.072 OA 
HETATM    5  C   UNL     1      -7.874  10.381  68.162  1.00  0.00    -0.108 A  
HETATM    6  C   UNL     1      -6.566   9.965  67.829  1.00  0.00    -0.068 A  
HETATM    7  C   UNL     1      -8.141  11.749  68.293  1.00  0.00    -0.154 A  
HETATM    8  C   UNL     1      -7.137  12.667  67.993  1.00  0.00    -0.103 A  
HETATM    9  C   UNL     1      -5.551  10.892  67.596  1.00  0.00    -0.043 A  
HETATM   10  O   UNL     1      -6.613  14.933  67.700  1.00  0.00    -0.163 OA 
HETATM   11  C   UNL     1      -5.844  12.247  67.654  1.00  0.00    -0.118 A  
HETATM   12  C   UNL     1      -7.453  14.104  68.025  1.00  0.00    -0.140 C  
ENDROOT
BRANCH   3  13
HETATM   13  C   UNL     1     -10.942  13.760  69.500  1.00  0.00    -0.081 A  
HETATM   14  C   UNL     1     -12.529  15.321  70.483  1.00  0.00    -0.454 A  
HETATM   15  C   UNL     1     -13.019  12.957  70.465  1.00  0.00     0.172 A  
HETATM   16  C   UNL     1     -11.803  12.705  69.821  1.00  0.00    -0.379 A  
HETATM   17  C   UNL     1     -11.315  15.071  69.836  1.00  0.00    -0.307 A  
HETATM   18  C   UNL     1     -13.380  14.263  70.798  1.00  0.00    -0.174 A  
ENDBRANCH   3  13
BRANCH   5  19
HETATM   19  C   UNL     1      -8.941   9.371  68.431  1.00  0.00    -0.128 C  
HETATM   20  O   UNL     1      -9.355   9.016  69.524  1.00  0.00    -0.154 OA 
BRANCH  19  21
HETATM   21  O   UNL     1      -9.362   8.847  67.250  1.00  0.00    -0.135 OA 
BRANCH  21  22
HETATM   22  C   UNL     1      -9.394   7.417  67.247  1.00  0.00    -0.133 C  
BRANCH  22  23
HETATM   23  C   UNL     1      -7.943   6.895  67.193  1.00  0.00    -0.113 C  
BRANCH  23  24
HETATM   24  N   UNL     1      -7.685   5.846  66.176  1.00  0.00    -0.100 NA 
HETATM   25  C   UNL     1      -8.166   6.194  64.830  1.00  0.00    -0.125 C  
HETATM   26  C   UNL     1      -7.472   7.431  64.267  1.00  0.00    -0.098 C  
HETATM   27  C   UNL     1      -5.950   7.286  64.287  1.00  0.00    -0.037 C  
HETATM   28  C   UNL     1      -5.401   6.669  65.576  1.00  0.00    -0.025 C  
HETATM   29  C   UNL     1      -6.256   5.509  66.092  1.00  0.00    -0.034 C  
ENDBRANCH  23  24
ENDBRANCH  22  23
ENDBRANCH  21  22
ENDBRANCH  19  21
ENDBRANCH   5  19
TORSDOF 6
ENDMDL
MODEL      206
REMARK 921   NORMALIZED FREE ENERGY PREDICTED BY IDOCK:   -2.17 KCAL/MOL
REMARK 922        TOTAL FREE ENERGY PREDICTED BY IDOCK:   -3.62 KCAL/MOL
REMARK 923 INTER-LIGAND FREE ENERGY PREDICTED BY IDOCK:   -2.84 KCAL/MOL
REMARK 924 INTRA-LIGAND FREE ENERGY PREDICTED BY IDOCK:   -0.78 KCAL/MOL
REMARK 927      BINDING AFFINITY PREDICTED BY RF-SCORE:    0.00 PKD
ROOT
HETATM    1  C   UNL     1      -7.130   7.204  72.582  1.00  0.00    -0.068 C  
HETATM    2  C   UNL     1      -7.256   6.524  71.252  1.00  0.00    -0.079 C  
HETATM    3  C   UNL     1      -7.153   7.096  70.038  1.00  0.00    -0.066 C  
HETATM    4  O   UNL     1      -7.157   6.405  68.842  1.00  0.00    -0.076 OA 
HETATM    5  C   UNL     1      -7.339   4.351  67.624  1.00  0.00    -0.069 A  
HETATM    6  C   UNL     1      -7.686   2.982  67.615  1.00  0.00    -0.065 A  
HETATM    7  C   UNL     1      -7.355   5.049  68.838  1.00  0.00    -0.058 A  
HETATM    8  C   UNL     1      -7.615   4.354  70.017  1.00  0.00    -0.050 A  
HETATM    9  C   UNL     1      -8.010   2.311  68.793  1.00  0.00    -0.062 A  
HETATM   10  O   UNL     1      -7.678   4.469  72.357  1.00  0.00    -0.081 OA 
HETATM   11  C   UNL     1      -7.950   2.993  70.000  1.00  0.00    -0.051 A  
HETATM   12  C   UNL     1      -7.523   5.067  71.300  1.00  0.00    -0.082 C  
ENDROOT
BRANCH   3  13
HETATM   13  C   UNL     1      -7.069   8.550  69.841  1.00  0.00    -0.051 A  
HETATM   14  C   UNL     1      -5.718  10.552  69.545  1.00  0.00    -0.039 A  
HETATM   15  C   UNL     1      -8.120  10.734  69.705  1.00  0.00     0.106 A  
HETATM   16  C   UNL     1      -8.219   9.346  69.851  1.00  0.00    -0.155 A  
HETATM   17  C   UNL     1      -5.816   9.166  69.687  1.00  0.00    -0.033 A  
HETATM   18  C   UNL     1      -6.870  11.336  69.555  1.00  0.00    -0.115 A  
ENDBRANCH   3  13
BRANCH   5  19
HETATM   19  C   UNL     1      -7.019   5.057  66.348  1.00  0.00    -0.067 C  
HETATM   20  O   UNL     1      -6.004   4.939  65.680  1.00  0.00    -0.021 OA 
BRANCH  19  21
HETATM   21  O   UNL     1      -8.029   5.919  66.054  1.00  0.00    -0.102 OA 
BRANCH  21  22
HETATM   22  C   UNL     1      -7.633   7.292  66.111  1.00  0.00    -0.088 C  
BRANCH  22  23
HETATM   23  C   UNL     1      -8.661   8.131  65.325  1.00  0.00    -0.106 C  
BRANCH  23  24
HETATM   24  N   UNL     1      -8.098   9.279  64.572  1.00  0.00    -0.130 NA 
HETATM   25  C   UNL     1      -9.087   9.987  63.744  1.00  0.00    -0.267 C  
HETATM   26  C   UNL     1     -10.204  10.607  64.577  1.00  0.00    -0.399 C  
HETATM   27  C   UNL     1      -9.655  11.516  65.677  1.00  0.00    -0.256 C  
HETATM   28  C   UNL     1      -8.437  10.944  66.407  1.00  0.00    -0.163 C  
HETATM   29  C   UNL     1      -7.450  10.251  65.465  1.00  0.00    -0.149 C  
ENDBRANCH  23  24
ENDBRANCH  22  23
ENDBRANCH  21  22
ENDBRANCH  19  21
ENDBRANCH   5  19
TORSDOF 6
ENDMDL
MODEL      207
REMARK 921   NORMALIZED FREE ENERGY PREDICTED BY IDOCK:   -1.65 KCAL/MOL
REMARK 922        TOTAL FREE ENERGY PREDICTED BY IDOCK:   -2.92 KCAL/MOL
REMARK 923 INTER-LIGAND FREE ENERGY PREDICTED BY IDOCK:   -2.60 KCAL/MOL
REMARK 924 INTRA-LIGAND FREE ENERGY PREDICTED BY IDOCK:   -0.32 KCAL/MOL
REMARK 927      BINDING AFFINITY PREDICTED BY RF-SCORE:    0.00 PKD
ROOT
HETATM    1  C   UNL     1      -8.648   8.306  72.827  1.00  0.00    -0.270 C  
HETATM    2  C   UNL     1      -8.717   7.986  71.364  1.00  0.00    -0.163 C  
HETATM    3  C   UNL     1      -7.941   8.491  70.387  1.00  0.00    -0.099 C  
HETATM    4  O   UNL     1      -7.965   8.073  69.071  1.00  0.00    -0.110 OA 
HETATM    5  C   UNL     1      -8.887   6.703  67.338  1.00  0.00    -0.116 A  
HETATM    6  C   UNL     1      -9.923   5.848  66.900  1.00  0.00    -0.205 A  
HETATM    7  C   UNL     1      -8.880   7.137  68.669  1.00  0.00    -0.126 A  
HETATM    8  C   UNL     1      -9.836   6.635  69.551  1.00  0.00    -0.162 A  
HETATM    9  C   UNL     1     -10.912   5.405  67.775  1.00  0.00     0.255 A  
HETATM   10  O   UNL     1     -10.541   6.529  71.784  1.00  0.00    -0.210 OA 
HETATM   11  C   UNL     1     -10.854   5.780  69.110  1.00  0.00    -0.355 A  
HETATM   12  C   UNL     1      -9.759   7.007  70.972  1.00  0.00    -0.173 C  
ENDROOT
BRANCH   3  13
HETATM   13  C   UNL     1      -6.996   9.596  70.605  1.00  0.00    -0.115 A  
HETATM   14  C   UNL     1      -5.155  10.562  71.870  1.00  0.00    -0.009 A  
HETATM   15  C   UNL     1      -6.189  11.826  70.091  1.00  0.00    -0.104 A  
HETATM   16  C   UNL     1      -7.069  10.767  69.844  1.00  0.00    -0.099 A  
HETATM   17  C   UNL     1      -6.030   9.502  71.621  1.00  0.00     0.002 A  
HETATM   18  C   UNL     1      -5.235  11.725  71.105  1.00  0.00    -0.098 A  
ENDBRANCH   3  13
BRANCH   5  19
HETATM   19  C   UNL     1      -7.850   7.186  66.378  1.00  0.00    -0.109 C  
HETATM   20  O   UNL     1      -7.801   8.282  65.842  1.00  0.00    -0.087 OA 
BRANCH  19  21
HETATM   21  O   UNL     1      -6.969   6.179  66.136  1.00  0.00    -0.063 OA 
BRANCH  21  22
HETATM   22  C   UNL     1      -7.187   5.529  64.881  1.00  0.00    -0.062 C  
BRANCH  22  23
HETATM   23  C   UNL     1      -7.296   4.010  65.129  1.00  0.00    -0.072 C  
BRANCH  23  24
HETATM   24  N   UNL     1      -7.787   3.214  63.978  1.00  0.00    -0.080 NA 
HETATM   25  C   UNL     1      -8.813   2.224  64.337  1.00  0.00    -0.105 C  
HETATM   26  C   UNL     1     -10.075   2.872  64.899  1.00  0.00     0.242 C  
HETATM   27  C   UNL     1     -10.639   3.931  63.952  1.00  0.00    -0.233 C  
HETATM   28  C   UNL     1      -9.575   4.836  63.325  1.00  0.00     0.214 C  
HETATM   29  C   UNL     1      -8.316   4.073  62.907  1.00  0.00    -0.084 C  
ENDBRANCH  23  24
ENDBRANCH  22  23
ENDBRANCH  21  22
ENDBRANCH  19  21
ENDBRANCH   5  19
TORSDOF 6
ENDMDL
MODEL      208
REMARK 921   NORMALIZED FREE ENERGY PREDICTED BY IDOCK:   -1.00 KCAL/MOL
REMARK 922        TOTAL FREE ENERGY PREDICTED BY IDOCK:   -2.03 KCAL/MOL
REMARK 923 INTER-LIGAND FREE ENERGY PREDICTED BY IDOCK:   -2.46 KCAL/MOL
REMARK 924 INTRA-LIGAND FREE ENERGY PREDICTED BY IDOCK:    0.43 KCAL/MOL
REMARK 927      BINDING AFFINITY PREDICTED BY RF-SCORE:    0.00 PKD
ROOT
HETATM    1  C   UNL     1      -6.616   7.571  72.959  1.00  0.00    -0.065 C  
HETATM    2  C   UNL     1      -7.334   7.300  71.672  1.00  0.00    -0.080 C  
HETATM    3  C   UNL     1      -7.310   8.055  70.558  1.00  0.00    -0.060 C  
HETATM    4  O   UNL     1      -7.892   7.700  69.356  1.00  0.00    -0.117 OA 
HETATM    5  C   UNL     1      -9.193   6.180  68.042  1.00  0.00    -0.116 A  
HETATM    6  C   UNL     1     -10.060   5.066  67.993  1.00  0.00    -0.169 A  
HETATM    7  C   UNL     1      -8.622   6.544  69.267  1.00  0.00    -0.127 A  
HETATM    8  C   UNL     1      -8.843   5.741  70.384  1.00  0.00    -0.146 A  
HETATM    9  C   UNL     1     -10.327   4.308  69.132  1.00  0.00     0.518 A  
HETATM   10  O   UNL     1      -8.271   5.340  72.621  1.00  0.00    -0.112 OA 
HETATM   11  C   UNL     1      -9.697   4.632  70.325  1.00  0.00    -0.295 A  
HETATM   12  C   UNL     1      -8.152   6.065  71.642  1.00  0.00    -0.118 C  
ENDROOT
BRANCH   3  13
HETATM   13  C   UNL     1      -6.690   9.387  70.505  1.00  0.00    -0.087 A  
HETATM   14  C   UNL     1      -5.191  11.042  71.472  1.00  0.00     0.006 A  
HETATM   15  C   UNL     1      -6.484  11.590  69.507  1.00  0.00    -0.124 A  
HETATM   16  C   UNL     1      -7.051  10.312  69.519  1.00  0.00    -0.107 A  
HETATM   17  C   UNL     1      -5.754   9.764  71.482  1.00  0.00    -0.028 A  
HETATM   18  C   UNL     1      -5.557  11.956  70.484  1.00  0.00    -0.162 A  
ENDBRANCH   3  13
BRANCH   5  19
HETATM   19  C   UNL     1      -8.940   6.993  66.815  1.00  0.00    -0.132 C  
HETATM   20  O   UNL     1      -7.935   6.980  66.122  1.00  0.00    -0.101 OA 
BRANCH  19  21
HETATM   21  O   UNL     1     -10.001   7.816  66.603  1.00  0.00    -0.238 OA 
BRANCH  21  22
HETATM   22  C   UNL     1     -10.598   8.289  67.814  1.00  0.00    -0.168 C  
BRANCH  22  23
HETATM   23  C   UNL     1     -10.364   9.810  67.914  1.00  0.00    -0.213 C  
BRANCH  23  24
HETATM   24  N   UNL     1     -10.204  10.337  69.292  1.00  0.00    -0.214 NA 
HETATM   25  C   UNL     1     -10.131  11.804  69.361  1.00  0.00     0.403 C  
HETATM   26  C   UNL     1     -11.407  12.473  68.859  1.00  0.00    -0.346 C  
HETATM   27  C   UNL     1     -12.646  11.949  69.585  1.00  0.00     0.197 C  
HETATM   28  C   UNL     1     -12.653  10.432  69.787  1.00  0.00     0.028 C  
HETATM   29  C   UNL     1     -11.283   9.877  70.180  1.00  0.00    -0.289 C  
ENDBRANCH  23  24
ENDBRANCH  22  23
ENDBRANCH  21  22
ENDBRANCH  19  21
ENDBRANCH   5  19
TORSDOF 6
ENDMDL
MODEL      209
REMARK 921   NORMALIZED FREE ENERGY PREDICTED BY IDOCK:   -0.66 KCAL/MOL
REMARK 922        TOTAL FREE ENERGY PREDICTED BY IDOCK:   -1.59 KCAL/MOL
REMARK 923 INTER-LIGAND FREE ENERGY PREDICTED BY IDOCK:   -1.77 KCAL/MOL
REMARK 924 INTRA-LIGAND FREE ENERGY PREDICTED BY IDOCK:    0.18 KCAL/MOL
REMARK 927      BINDING AFFINITY PREDICTED BY RF-SCORE:    0.00 PKD
ROOT
HETATM    1  C   UNL     1      -8.653  20.511  67.796  1.00  0.00    -0.171 C  
HETATM    2  C   UNL     1      -8.831  19.095  67.338  1.00  0.00    -0.324 C  
HETATM    3  C   UNL     1      -8.257  17.996  67.863  1.00  0.00    -0.247 C  
HETATM    4  O   UNL     1      -8.547  16.701  67.482  1.00  0.00    -0.186 OA 
HETATM    5  C   UNL     1      -9.721  15.157  66.077  1.00  0.00    -0.361 A  
HETATM    6  C   UNL     1     -10.502  14.933  64.922  1.00  0.00    -0.389 A  
HETATM    7  C   UNL     1      -9.416  16.473  66.447  1.00  0.00    -0.288 A  
HETATM    8  C   UNL     1      -9.972  17.527  65.725  1.00  0.00    -0.060 A  
HETATM    9  C   UNL     1     -10.998  15.994  64.168  1.00  0.00     0.534 A  
HETATM   10  O   UNL     1     -10.270  19.849  65.611  1.00  0.00    -0.423 OA 
HETATM   11  C   UNL     1     -10.753  17.295  64.585  1.00  0.00     1.037 A  
HETATM   12  C   UNL     1      -9.739  18.905  66.182  1.00  0.00    -0.277 C  
ENDROOT
BRANCH   3  13
HETATM   13  C   UNL     1      -7.205  18.054  68.888  1.00  0.00    -0.264 A  
HETATM   14  C   UNL     1      -5.695  16.904  70.411  1.00  0.00    -0.114 A  
HETATM   15  C   UNL     1      -5.789  19.317  70.402  1.00  0.00    -0.229 A  
HETATM   16  C   UNL     1      -6.761  19.279  69.397  1.00  0.00    -0.340 A  
HETATM   17  C   UNL     1      -6.663  16.865  69.404  1.00  0.00    -0.220 A  
HETATM   18  C   UNL     1      -5.259  18.130  70.911  1.00  0.00    -0.275 A  
ENDBRANCH   3  13
BRANCH   5  19
HETATM   19  C   UNL     1      -9.178  14.005  66.858  1.00  0.00    -0.260 C  
HETATM   20  O   UNL     1      -8.075  13.925  67.374  1.00  0.00    -0.170 OA 
BRANCH  19  21
HETATM   21  O   UNL     1     -10.098  13.004  66.866  1.00  0.00    -0.236 OA 
BRANCH  21  22
HETATM   22  C   UNL     1     -10.975  13.053  67.995  1.00  0.00    -0.250 C  
BRANCH  22  23
HETATM   23  C   UNL     1     -10.993  11.662  68.661  1.00  0.00    -0.220 C  
BRANCH  23  24
HETATM   24  N   UNL     1     -12.337  11.054  68.820  1.00  0.00    -0.450 NA 
HETATM   25  C   UNL     1     -12.356   9.597  68.618  1.00  0.00     2.671 C  
HETATM   26  C   UNL     1     -11.496   8.858  69.638  1.00  0.00     0.256 C  
HETATM   27  C   UNL     1     -11.882   9.220  71.073  1.00  0.00    -0.376 C  
HETATM   28  C   UNL     1     -12.143  10.713  71.290  1.00  0.00    -0.401 C  
HETATM   29  C   UNL     1     -12.919  11.354  70.137  1.00  0.00     0.261 C  
ENDBRANCH  23  24
ENDBRANCH  22  23
ENDBRANCH  21  22
ENDBRANCH  19  21
ENDBRANCH   5  19
TORSDOF 6
ENDMDL
MODEL      210
REMARK 921   NORMALIZED FREE ENERGY PREDICTED BY IDOCK:    0.53 KCAL/MOL
REMARK 922        TOTAL FREE ENERGY PREDICTED BY IDOCK:    0.03 KCAL/MOL
REMARK 923 INTER-LIGAND FREE ENERGY PREDICTED BY IDOCK:   -2.03 KCAL/MOL
REMARK 924 INTRA-LIGAND FREE ENERGY PREDICTED BY IDOCK:    2.06 KCAL/MOL
REMARK 927      BINDING AFFINITY PREDICTED BY RF-SCORE:    0.00 PKD
ROOT
HETATM    1  C   UNL     1     -12.172  14.096  69.455  1.00  0.00    -0.351 C  
HETATM    2  C   UNL     1     -11.430  12.831  69.765  1.00  0.00    -0.199 C  
HETATM    3  C   UNL     1     -10.156  12.540  69.441  1.00  0.00     0.699 C  
HETATM    4  O   UNL     1      -9.480  11.409  69.855  1.00  0.00     0.956 OA 
HETATM    5  C   UNL     1      -9.439   9.315  71.016  1.00  0.00    -0.313 A  
HETATM    6  C   UNL     1     -10.154   8.269  71.640  1.00  0.00    -0.279 A  
HETATM    7  C   UNL     1     -10.135  10.451  70.583  1.00  0.00     0.691 A  
HETATM    8  C   UNL     1     -11.494  10.563  70.867  1.00  0.00    -0.304 A  
HETATM    9  C   UNL     1     -11.527   8.363  71.859  1.00  0.00    -0.384 A  
HETATM   10  O   UNL     1     -13.374  11.961  70.806  1.00  0.00     0.280 OA 
HETATM   11  C   UNL     1     -12.194   9.524  71.495  1.00  0.00    -0.468 A  
HETATM   12  C   UNL     1     -12.197  11.804  70.508  1.00  0.00    -0.347 C  
ENDROOT
BRANCH   3  13
HETATM   13  C   UNL     1      -9.341  13.385  68.556  1.00  0.00    -0.097 A  
HETATM   14  C   UNL     1      -7.626  15.088  68.279  1.00  0.00    -0.111 A  
HETATM   15  C   UNL     1      -8.787  14.222  66.347  1.00  0.00    -0.001 A  
HETATM   16  C   UNL     1      -9.542  13.382  67.172  1.00  0.00    -0.241 A  
HETATM   17  C   UNL     1      -8.376  14.246  69.103  1.00  0.00     0.124 A  
HETATM   18  C   UNL     1      -7.832  15.077  66.900  1.00  0.00    -0.056 A  
ENDBRANCH   3  13
BRANCH   5  19
HETATM   19  C   UNL     1      -7.972   9.184  70.768  1.00  0.00    -0.163 C  
HETATM   20  O   UNL     1      -7.125  10.052  70.907  1.00  0.00    -0.337 OA 
BRANCH  19  21
HETATM   21  O   UNL     1      -7.713   7.935  70.297  1.00  0.00    -0.084 OA 
BRANCH  21  22
HETATM   22  C   UNL     1      -8.826   7.346  69.619  1.00  0.00    -0.141 C  
BRANCH  22  23
HETATM   23  C   UNL     1      -9.176   8.223  68.399  1.00  0.00    -0.135 C  
BRANCH  23  24
HETATM   24  N   UNL     1     -10.443   7.874  67.711  1.00  0.00    -0.224 NA 
HETATM   25  C   UNL     1     -10.255   7.365  66.343  1.00  0.00     0.060 C  
HETATM   26  C   UNL     1      -9.451   6.069  66.312  1.00  0.00    -0.153 C  
HETATM   27  C   UNL     1     -10.064   5.000  67.217  1.00  0.00    -0.226 C  
HETATM   28  C   UNL     1     -10.535   5.529  68.575  1.00  0.00    -0.234 C  
HETATM   29  C   UNL     1     -11.225   6.890  68.475  1.00  0.00     0.010 C  
ENDBRANCH  23  24
ENDBRANCH  22  23
ENDBRANCH  21  22
ENDBRANCH  19  21
ENDBRANCH   5  19
TORSDOF 6
ENDMDL
MODEL      211
REMARK 921   NORMALIZED FREE ENERGY PREDICTED BY IDOCK:    0.82 KCAL/MOL
REMARK 922        TOTAL FREE ENERGY PREDICTED BY IDOCK:    0.42 KCAL/MOL
REMARK 923 INTER-LIGAND FREE ENERGY PREDICTED BY IDOCK:   -2.71 KCAL/MOL
REMARK 924 INTRA-LIGAND FREE ENERGY PREDICTED BY IDOCK:    3.13 KCAL/MOL
REMARK 927      BINDING AFFINITY PREDICTED BY RF-SCORE:    0.00 PKD
ROOT
HETATM    1  C   UNL     1     -11.572   8.286  70.620  1.00  0.00    -0.199 C  
HETATM    2  C   UNL     1     -11.289   9.735  70.362  1.00  0.00    -0.362 C  
HETATM    3  C   UNL     1     -10.129  10.270  69.937  1.00  0.00    -0.171 C  
HETATM    4  O   UNL     1      -9.955  11.598  69.598  1.00  0.00     0.436 OA 
HETATM    5  C   UNL     1     -10.808  13.826  69.402  1.00  0.00    -0.081 A  
HETATM    6  C   UNL     1     -11.823  14.760  69.710  1.00  0.00    -0.362 A  
HETATM    7  C   UNL     1     -10.985  12.485  69.765  1.00  0.00     0.327 A  
HETATM    8  C   UNL     1     -12.196  12.089  70.329  1.00  0.00    -0.348 A  
HETATM    9  C   UNL     1     -13.003  14.364  70.336  1.00  0.00    -0.208 A  
HETATM   10  O   UNL     1     -13.497  10.273  71.038  1.00  0.00    -0.318 OA 
HETATM   11  C   UNL     1     -13.200  13.020  70.623  1.00  0.00     0.335 A  
HETATM   12  C   UNL     1     -12.419  10.662  70.608  1.00  0.00    -0.371 C  
ENDROOT
BRANCH   3  13
HETATM   13  C   UNL     1      -8.883   9.498  69.826  1.00  0.00    -0.211 A  
HETATM   14  C   UNL     1      -6.573   9.136  70.498  1.00  0.00    -0.061 A  
HETATM   15  C   UNL     1      -7.556   7.758  68.777  1.00  0.00    -0.101 A  
HETATM   16  C   UNL     1      -8.761   8.457  68.900  1.00  0.00    -0.136 A  
HETATM   17  C   UNL     1      -7.778   9.832  70.626  1.00  0.00    -0.002 A  
HETATM   18  C   UNL     1      -6.462   8.099  69.573  1.00  0.00    -0.034 A  
ENDBRANCH   3  13
BRANCH   5  19
HETATM   19  C   UNL     1      -9.540  14.276  68.754  1.00  0.00    -0.153 C  
HETATM   20  O   UNL     1      -8.710  15.039  69.220  1.00  0.00    -0.204 OA 
BRANCH  19  21
HETATM   21  O   UNL     1      -9.467  13.737  67.507  1.00  0.00    -0.208 OA 
BRANCH  21  22
HETATM   22  C   UNL     1     -10.398  12.673  67.297  1.00  0.00    -0.224 C  
BRANCH  22  23
HETATM   23  C   UNL     1     -11.050  12.859  65.912  1.00  0.00    -0.283 C  
BRANCH  23  24
HETATM   24  N   UNL     1     -10.238  12.391  64.761  1.00  0.00    -0.288 NA 
HETATM   25  C   UNL     1      -8.792  12.363  65.029  1.00  0.00     1.136 C  
HETATM   26  C   UNL     1      -8.428  11.397  66.152  1.00  0.00    -0.105 C  
HETATM   27  C   UNL     1      -8.965   9.991  65.887  1.00  0.00    -0.182 C  
HETATM   28  C   UNL     1     -10.396   9.964  65.342  1.00  0.00    -0.004 C  
HETATM   29  C   UNL     1     -10.657  11.058  64.305  1.00  0.00    -0.331 C  
ENDBRANCH  23  24
ENDBRANCH  22  23
ENDBRANCH  21  22
ENDBRANCH  19  21
ENDBRANCH   5  19
TORSDOF 6
ENDMDL
MODEL      212
REMARK 921   NORMALIZED FREE ENERGY PREDICTED BY IDOCK:    3.09 KCAL/MOL
REMARK 922        TOTAL FREE ENERGY PREDICTED BY IDOCK:    3.49 KCAL/MOL
REMARK 923 INTER-LIGAND FREE ENERGY PREDICTED BY IDOCK:   -0.99 KCAL/MOL
REMARK 924 INTRA-LIGAND FREE ENERGY PREDICTED BY IDOCK:    4.48 KCAL/MOL
REMARK 927      BINDING AFFINITY PREDICTED BY RF-SCORE:    0.00 PKD
ROOT
HETATM    1  C   UNL     1     -10.866   8.020  70.578  1.00  0.00    -0.241 C  
HETATM    2  C   UNL     1     -10.627   8.679  69.254  1.00  0.00    -0.204 C  
HETATM    3  C   UNL     1     -10.308   8.074  68.094  1.00  0.00    -0.200 C  
HETATM    4  O   UNL     1     -10.217   8.714  66.874  1.00  0.00    -0.256 OA 
HETATM    5  C   UNL     1     -10.302  10.714  65.560  1.00  0.00    -0.297 A  
HETATM    6  C   UNL     1     -10.325  12.126  65.514  1.00  0.00    -0.296 A  
HETATM    7  C   UNL     1     -10.377  10.073  66.803  1.00  0.00    -0.217 A  
HETATM    8  C   UNL     1     -10.572  10.839  67.951  1.00  0.00    -0.258 A  
HETATM    9  C   UNL     1     -10.453  12.884  66.676  1.00  0.00    -0.272 A  
HETATM   10  O   UNL     1     -11.002  10.796  70.254  1.00  0.00    -0.246 OA 
HETATM   11  C   UNL     1     -10.602  12.238  67.895  1.00  0.00    -0.232 A  
HETATM   12  C   UNL     1     -10.760  10.155  69.239  1.00  0.00    -0.231 C  
ENDROOT
BRANCH   3  13
HETATM   13  C   UNL     1      -9.971   6.646  68.002  1.00  0.00    -0.157 A  
HETATM   14  C   UNL     1      -8.339   4.902  67.535  1.00  0.00    -0.105 A  
HETATM   15  C   UNL     1     -10.619   4.308  68.062  1.00  0.00     0.969 A  
HETATM   16  C   UNL     1     -10.946   5.662  68.194  1.00  0.00    -0.026 A  
HETATM   17  C   UNL     1      -8.663   6.254  67.671  1.00  0.00    -0.113 A  
HETATM   18  C   UNL     1      -9.318   3.929  67.729  1.00  0.00    -0.230 A  
ENDBRANCH   3  13
BRANCH   5  19
HETATM   19  C   UNL     1     -10.139   9.920  64.306  1.00  0.00     0.463 C  
HETATM   20  O   UNL     1     -10.118  10.351  63.164  1.00  0.00    -0.167 OA 
BRANCH  19  21
HETATM   21  O   UNL     1     -10.070   8.600  64.624  1.00  0.00     1.817 OA 
BRANCH  21  22
HETATM   22  C   UNL     1      -8.741   8.160  64.916  1.00  0.00     0.077 C  
BRANCH  22  23
HETATM   23  C   UNL     1      -7.805   9.385  64.904  1.00  0.00    -0.117 C  
BRANCH  23  24
HETATM   24  N   UNL     1      -7.053   9.595  63.642  1.00  0.00    -0.105 NA 
HETATM   25  C   UNL     1      -5.603   9.392  63.775  1.00  0.00    -0.071 C  
HETATM   26  C   UNL     1      -5.252   7.963  64.177  1.00  0.00    -0.036 C  
HETATM   27  C   UNL     1      -5.866   6.938  63.224  1.00  0.00    -0.036 C  
HETATM   28  C   UNL     1      -7.313   7.245  62.827  1.00  0.00    -0.090 C  
HETATM   29  C   UNL     1      -7.552   8.733  62.560  1.00  0.00    -0.113 C  
ENDBRANCH  23  24
ENDBRANCH  22  23
ENDBRANCH  21  22
ENDBRANCH  19  21
ENDBRANCH   5  19
TORSDOF 6
ENDMDL
MODEL      213
REMARK 921   NORMALIZED FREE ENERGY PREDICTED BY IDOCK:    5.64 KCAL/MOL
REMARK 922        TOTAL FREE ENERGY PREDICTED BY IDOCK:    6.94 KCAL/MOL
REMARK 923 INTER-LIGAND FREE ENERGY PREDICTED BY IDOCK:    3.15 KCAL/MOL
REMARK 924 INTRA-LIGAND FREE ENERGY PREDICTED BY IDOCK:    3.78 KCAL/MOL
REMARK 927      BINDING AFFINITY PREDICTED BY RF-SCORE:    0.00 PKD
ROOT
HETATM    1  C   UNL     1      -7.435   4.708  68.403  1.00  0.00    -0.065 C  
HETATM    2  C   UNL     1      -7.458   6.076  67.792  1.00  0.00    -0.085 C  
HETATM    3  C   UNL     1      -8.435   6.608  67.034  1.00  0.00    -0.113 C  
HETATM    4  O   UNL     1      -8.463   7.918  66.594  1.00  0.00    -0.123 OA 
HETATM    5  C   UNL     1      -7.447  10.079  66.426  1.00  0.00    -0.104 A  
HETATM    6  C   UNL     1      -6.297  10.886  66.575  1.00  0.00    -0.125 A  
HETATM    7  C   UNL     1      -7.405   8.748  66.858  1.00  0.00    -0.079 A  
HETATM    8  C   UNL     1      -6.266   8.283  67.512  1.00  0.00    -0.053 A  
HETATM    9  C   UNL     1      -5.139  10.390  67.171  1.00  0.00    -0.040 A  
HETATM   10  O   UNL     1      -5.310   6.503  68.701  1.00  0.00    -0.013 OA 
HETATM   11  C   UNL     1      -5.133   9.092  67.664  1.00  0.00    -0.034 A  
HETATM   12  C   UNL     1      -6.268   6.918  68.061  1.00  0.00    -0.034 C  
ENDROOT
BRANCH   3  13
HETATM   13  C   UNL     1      -9.581   5.830  66.542  1.00  0.00    -0.175 A  
HETATM   14  C   UNL     1     -10.445   3.878  65.374  1.00  0.00     0.080 A  
HETATM   15  C   UNL     1     -11.965   5.579  66.164  1.00  0.00     2.628 A  
HETATM   16  C   UNL     1     -10.888   6.311  66.674  1.00  0.00    -0.268 A  
HETATM   17  C   UNL     1      -9.368   4.606  65.887  1.00  0.00    -0.155 A  
HETATM   18  C   UNL     1     -11.744   4.366  65.512  1.00  0.00     2.203 A  
ENDBRANCH   3  13
BRANCH   5  19
HETATM   19  C   UNL     1      -8.669  10.623  65.762  1.00  0.00    -0.182 C  
HETATM   20  O   UNL     1      -8.722  11.213  64.695  1.00  0.00    -0.029 OA 
BRANCH  19  21
HETATM   21  O   UNL     1      -9.743  10.408  66.568  1.00  0.00    -0.180 OA 
BRANCH  21  22
HETATM   22  C   UNL     1     -10.239  11.603  67.178  1.00  0.00    -0.213 C  
BRANCH  22  23
HETATM   23  C   UNL     1     -10.129  12.755  66.159  1.00  0.00    -0.266 C  
BRANCH  23  24
HETATM   24  N   UNL     1     -10.458  12.394  64.758  1.00  0.00    -0.293 NA 
HETATM   25  C   UNL     1     -11.700  11.618  64.622  1.00  0.00    -0.082 C  
HETATM   26  C   UNL     1     -12.925  12.394  65.098  1.00  0.00     0.418 C  
HETATM   27  C   UNL     1     -13.044  13.750  64.402  1.00  0.00     0.601 C  
HETATM   28  C   UNL     1     -11.715  14.500  64.269  1.00  0.00    -0.312 C  
HETATM   29  C   UNL     1     -10.549  13.583  63.896  1.00  0.00     0.244 C  
ENDBRANCH  23  24
ENDBRANCH  22  23
ENDBRANCH  21  22
ENDBRANCH  19  21
ENDBRANCH   5  19
TORSDOF 6
ENDMDL
MODEL      214
REMARK 921   NORMALIZED FREE ENERGY PREDICTED BY IDOCK:    8.26 KCAL/MOL
REMARK 922        TOTAL FREE ENERGY PREDICTED BY IDOCK:   10.47 KCAL/MOL
REMARK 923 INTER-LIGAND FREE ENERGY PREDICTED BY IDOCK:   11.25 KCAL/MOL
REMARK 924 INTRA-LIGAND FREE ENERGY PREDICTED BY IDOCK:   -0.79 KCAL/MOL
REMARK 927      BINDING AFFINITY PREDICTED BY RF-SCORE:    0.00 PKD
ROOT
HETATM    1  C   UNL     1     -10.898  15.218  71.491  1.00  0.00     0.019 C  
HETATM    2  C   UNL     1     -10.116  15.894  70.405  1.00  0.00     0.275 C  
HETATM    3  C   UNL     1      -9.231  15.321  69.568  1.00  0.00    -0.194 C  
HETATM    4  O   UNL     1      -8.627  15.964  68.505  1.00  0.00    -0.174 OA 
HETATM    5  C   UNL     1      -8.253  17.941  67.207  1.00  0.00    -0.225 A  
HETATM    6  C   UNL     1      -8.375  19.343  67.084  1.00  0.00    -0.315 A  
HETATM    7  C   UNL     1      -8.853  17.299  68.297  1.00  0.00    -0.258 A  
HETATM    8  C   UNL     1      -9.638  18.044  69.175  1.00  0.00    -0.061 A  
HETATM    9  C   UNL     1      -9.108  20.088  68.005  1.00  0.00    -0.348 A  
HETATM   10  O   UNL     1     -11.108  17.964  70.999  1.00  0.00     1.553 OA 
HETATM   11  C   UNL     1      -9.762  19.433  69.040  1.00  0.00    -0.468 A  
HETATM   12  C   UNL     1     -10.356  17.349  70.254  1.00  0.00     0.962 C  
ENDROOT
BRANCH   3  13
HETATM   13  C   UNL     1      -8.766  13.935  69.720  1.00  0.00     1.411 A  
HETATM   14  C   UNL     1      -6.945  12.360  70.072  1.00  0.00     0.706 A  
HETATM   15  C   UNL     1      -9.183  11.544  69.678  1.00  0.00     1.132 A  
HETATM   16  C   UNL     1      -9.648  12.859  69.572  1.00  0.00     1.374 A  
HETATM   17  C   UNL     1      -7.409  13.674  69.971  1.00  0.00     0.864 A  
HETATM   18  C   UNL     1      -7.832  11.295  69.924  1.00  0.00     0.873 A  
ENDBRANCH   3  13
BRANCH   5  19
HETATM   19  C   UNL     1      -7.442  17.164  66.222  1.00  0.00    -0.309 C  
HETATM   20  O   UNL     1      -6.292  16.779  66.362  1.00  0.00    -0.257 OA 
BRANCH  19  21
HETATM   21  O   UNL     1      -8.173  16.988  65.090  1.00  0.00     1.096 OA 
BRANCH  21  22
HETATM   22  C   UNL     1      -8.432  15.612  64.794  1.00  0.00     5.957 C  
BRANCH  22  23
HETATM   23  C   UNL     1      -9.384  15.051  65.870  1.00  0.00    -0.213 C  
BRANCH  23  24
HETATM   24  N   UNL     1     -10.777  15.557  65.809  1.00  0.00    -0.339 NA 
HETATM   25  C   UNL     1     -11.534  15.074  64.644  1.00  0.00    -0.381 C  
HETATM   26  C   UNL     1     -11.695  13.557  64.647  1.00  0.00    -0.412 C  
HETATM   27  C   UNL     1     -12.312  13.053  65.951  1.00  0.00    -0.432 C  
HETATM   28  C   UNL     1     -11.748  13.725  67.206  1.00  0.00    -0.416 C  
HETATM   29  C   UNL     1     -11.530  15.229  67.029  1.00  0.00    -0.167 C  
ENDBRANCH  23  24
ENDBRANCH  22  23
ENDBRANCH  21  22
ENDBRANCH  19  21
ENDBRANCH   5  19
TORSDOF 6
ENDMDL
MODEL      215
REMARK 921   NORMALIZED FREE ENERGY PREDICTED BY IDOCK:   10.53 KCAL/MOL
REMARK 922        TOTAL FREE ENERGY PREDICTED BY IDOCK:   13.54 KCAL/MOL
REMARK 923 INTER-LIGAND FREE ENERGY PREDICTED BY IDOCK:    5.86 KCAL/MOL
REMARK 924 INTRA-LIGAND FREE ENERGY PREDICTED BY IDOCK:    7.68 KCAL/MOL
REMARK 927      BINDING AFFINITY PREDICTED BY RF-SCORE:    0.00 PKD
ROOT
HETATM    1  C   UNL     1     -13.119  13.494  68.039  1.00  0.00     2.786 C  
HETATM    2  C   UNL     1     -12.274  12.258  68.111  1.00  0.00     0.175 C  
HETATM    3  C   UNL     1     -11.823  11.650  69.224  1.00  0.00    -0.331 C  
HETATM    4  O   UNL     1     -11.149  10.444  69.242  1.00  0.00    -0.225 OA 
HETATM    5  C   UNL     1     -10.161   8.594  68.088  1.00  0.00    -0.250 A  
HETATM    6  C   UNL     1      -9.707   8.035  66.872  1.00  0.00    -0.291 A  
HETATM    7  C   UNL     1     -10.827   9.825  68.063  1.00  0.00    -0.223 A  
HETATM    8  C   UNL     1     -11.112  10.418  66.835  1.00  0.00    -0.083 A  
HETATM    9  C   UNL     1      -9.939   8.670  65.654  1.00  0.00     0.391 A  
HETATM   10  O   UNL     1     -12.233  12.163  65.743  1.00  0.00    -0.586 OA 
HETATM   11  C   UNL     1     -10.665   9.852  65.633  1.00  0.00     0.422 A  
HETATM   12  C   UNL     1     -11.907  11.655  66.808  1.00  0.00     0.136 C  
ENDROOT
BRANCH   3  13
HETATM   13  C   UNL     1     -11.959  12.233  70.567  1.00  0.00    -0.296 A  
HETATM   14  C   UNL     1     -12.684  12.026  72.880  1.00  0.00     2.981 A  
HETATM   15  C   UNL     1     -11.765  14.114  72.089  1.00  0.00     0.705 A  
HETATM   16  C   UNL     1     -11.591  13.560  70.817  1.00  0.00     0.267 A  
HETATM   17  C   UNL     1     -12.507  11.470  71.611  1.00  0.00    -0.181 A  
HETATM   18  C   UNL     1     -12.314  13.348  73.119  1.00  0.00     1.671 A  
ENDBRANCH   3  13
BRANCH   5  19
HETATM   19  C   UNL     1      -9.880   7.909  69.385  1.00  0.00    -0.180 C  
HETATM   20  O   UNL     1      -9.964   6.714  69.615  1.00  0.00    -0.171 OA 
BRANCH  19  21
HETATM   21  O   UNL     1      -9.560   8.845  70.318  1.00  0.00    -0.168 OA 
BRANCH  21  22
HETATM   22  C   UNL     1      -8.768   9.915  69.794  1.00  0.00    -0.212 C  
BRANCH  22  23
HETATM   23  C   UNL     1      -8.289   9.524  68.382  1.00  0.00    -0.118 C  
BRANCH  23  24
HETATM   24  N   UNL     1      -6.819   9.552  68.181  1.00  0.00    -0.069 NA 
HETATM   25  C   UNL     1      -6.148   8.291  68.532  1.00  0.00    -0.045 C  
HETATM   26  C   UNL     1      -6.614   7.125  67.665  1.00  0.00    -0.056 C  
HETATM   27  C   UNL     1      -6.466   7.431  66.175  1.00  0.00    -0.045 C  
HETATM   28  C   UNL     1      -6.902   8.846  65.783  1.00  0.00    -0.072 C  
HETATM   29  C   UNL     1      -6.465   9.905  66.798  1.00  0.00    -0.070 C  
ENDBRANCH  23  24
ENDBRANCH  22  23
ENDBRANCH  21  22
ENDBRANCH  19  21
ENDBRANCH   5  19
TORSDOF 6
ENDMDL
MODEL      216
REMARK 921   NORMALIZED FREE ENERGY PREDICTED BY IDOCK:   44.33 KCAL/MOL
REMARK 922        TOTAL FREE ENERGY PREDICTED BY IDOCK:   59.19 KCAL/MOL
REMARK 923 INTER-LIGAND FREE ENERGY PREDICTED BY IDOCK:   59.70 KCAL/MOL
REMARK 924 INTRA-LIGAND FREE ENERGY PREDICTED BY IDOCK:   -0.51 KCAL/MOL
REMARK 927      BINDING AFFINITY PREDICTED BY RF-SCORE:    0.00 PKD
ROOT
HETATM    1  C   UNL     1     -11.828   4.126  66.781  1.00  0.00     7.711 C  
HETATM    2  C   UNL     1     -10.434   4.632  66.999  1.00  0.00    -0.009 C  
HETATM    3  C   UNL     1      -9.968   5.865  66.724  1.00  0.00    -0.175 C  
HETATM    4  O   UNL     1      -8.706   6.319  67.055  1.00  0.00    -0.108 OA 
HETATM    5  C   UNL     1      -6.534   5.936  67.986  1.00  0.00    -0.043 A  
HETATM    6  C   UNL     1      -5.566   5.018  68.449  1.00  0.00    -0.016 A  
HETATM    7  C   UNL     1      -7.805   5.465  67.635  1.00  0.00    -0.100 A  
HETATM    8  C   UNL     1      -8.113   4.123  67.846  1.00  0.00    -0.090 A  
HETATM    9  C   UNL     1      -5.864   3.664  68.593  1.00  0.00    -0.023 A  
HETATM   10  O   UNL     1      -9.803   2.499  67.819  1.00  0.00     0.059 OA 
HETATM   11  C   UNL     1      -7.149   3.220  68.314  1.00  0.00    -0.050 A  
HETATM   12  C   UNL     1      -9.482   3.656  67.579  1.00  0.00    -0.191 C  
ENDROOT
BRANCH   3  13
HETATM   13  C   UNL     1     -10.747   6.870  65.987  1.00  0.00     1.322 A  
HETATM   14  C   UNL     1     -11.331   9.200  65.599  1.00  0.00     4.369 A  
HETATM   15  C   UNL     1     -12.470   7.455  64.381  1.00  0.00    19.963 A  
HETATM   16  C   UNL     1     -11.708   6.488  65.044  1.00  0.00     7.992 A  
HETATM   17  C   UNL     1     -10.565   8.236  66.259  1.00  0.00     0.639 A  
HETATM   18  C   UNL     1     -12.285   8.809  64.660  1.00  0.00    17.021 A  
ENDBRANCH   3  13
BRANCH   5  19
HETATM   19  C   UNL     1      -6.186   7.378  67.816  1.00  0.00    -0.044 C  
HETATM   20  O   UNL     1      -5.641   7.891  66.852  1.00  0.00    -0.031 OA 
BRANCH  19  21
HETATM   21  O   UNL     1      -6.526   8.051  68.948  1.00  0.00    -0.045 OA 
BRANCH  21  22
HETATM   22  C   UNL     1      -5.400   8.610  69.631  1.00  0.00    -0.030 C  
BRANCH  22  23
HETATM   23  C   UNL     1      -5.417  10.139  69.434  1.00  0.00    -0.038 C  
BRANCH  23  24
HETATM   24  N   UNL     1      -5.967  10.918  70.571  1.00  0.00    -0.199 NA 
HETATM   25  C   UNL     1      -5.730  12.366  70.467  1.00  0.00    -0.162 C  
HETATM   26  C   UNL     1      -6.406  12.978  69.243  1.00  0.00    -0.107 C  
HETATM   27  C   UNL     1      -7.901  12.660  69.202  1.00  0.00     0.381 C  
HETATM   28  C   UNL     1      -8.239  11.212  69.570  1.00  0.00     0.327 C  
HETATM   29  C   UNL     1      -7.409  10.688  70.743  1.00  0.00     1.379 C  
ENDBRANCH  23  24
ENDBRANCH  22  23
ENDBRANCH  21  22
ENDBRANCH  19  21
ENDBRANCH   5  19
TORSDOF 6
ENDMDL
MODEL      217
REMARK 921   NORMALIZED FREE ENERGY PREDICTED BY IDOCK:   53.74 KCAL/MOL
REMARK 922        TOTAL FREE ENERGY PREDICTED BY IDOCK:   71.90 KCAL/MOL
REMARK 923 INTER-LIGAND FREE ENERGY PREDICTED BY IDOCK:   61.14 KCAL/MOL
REMARK 924 INTRA-LIGAND FREE ENERGY PREDICTED BY IDOCK:   10.76 KCAL/MOL
REMARK 927      BINDING AFFINITY PREDICTED BY RF-SCORE:    0.00 PKD
ROOT
HETATM    1  C   UNL     1     -10.053   9.258  73.741  1.00  0.00     5.620 C  
HETATM    2  C   UNL     1     -10.390   9.964  72.462  1.00  0.00     3.866 C  
HETATM    3  C   UNL     1     -10.993   9.437  71.381  1.00  0.00    -0.373 C  
HETATM    4  O   UNL     1     -11.390  10.160  70.273  1.00  0.00    -0.269 OA 
HETATM    5  C   UNL     1     -11.522  12.229  69.075  1.00  0.00    -0.349 A  
HETATM    6  C   UNL     1     -11.097  13.568  68.931  1.00  0.00    -0.305 A  
HETATM    7  C   UNL     1     -11.101  11.497  70.191  1.00  0.00     0.235 A  
HETATM    8  C   UNL     1     -10.356  12.137  71.180  1.00  0.00     6.805 A  
HETATM    9  C   UNL     1     -10.296  14.179  69.895  1.00  0.00     0.506 A  
HETATM   10  O   UNL     1      -9.416  11.949  73.319  1.00  0.00    19.988 OA 
HETATM   11  C   UNL     1      -9.946  13.468  71.034  1.00  0.00     6.019 A  
HETATM   12  C   UNL     1     -10.009  11.396  72.402  1.00  0.00    15.139 C  
ENDROOT
BRANCH   3  13
HETATM   13  C   UNL     1     -11.261   7.999  71.234  1.00  0.00    -0.287 A  
HETATM   14  C   UNL     1     -10.670   5.693  71.736  1.00  0.00    -0.305 A  
HETATM   15  C   UNL     1     -12.502   6.167  70.236  1.00  0.00     1.366 A  
HETATM   16  C   UNL     1     -12.285   7.539  70.398  1.00  0.00     0.145 A  
HETATM   17  C   UNL     1     -10.455   7.064  71.902  1.00  0.00    -0.223 A  
HETATM   18  C   UNL     1     -11.693   5.245  70.902  1.00  0.00     1.461 A  
ENDBRANCH   3  13
BRANCH   5  19
HETATM   19  C   UNL     1     -12.360  11.586  68.018  1.00  0.00     0.728 C  
HETATM   20  O   UNL     1     -12.978  12.150  67.129  1.00  0.00     1.837 OA 
BRANCH  19  21
HETATM   21  O   UNL     1     -12.380  10.243  68.228  1.00  0.00     0.468 OA 
BRANCH  21  22
HETATM   22  C   UNL     1     -11.244   9.768  68.956  1.00  0.00    -0.038 C  
BRANCH  22  23
HETATM   23  C   UNL     1     -10.490   8.750  68.077  1.00  0.00    -0.204 C  
BRANCH  23  24
HETATM   24  N   UNL     1      -9.486   9.332  67.152  1.00  0.00    -0.144 NA 
HETATM   25  C   UNL     1      -8.422  10.085  67.831  1.00  0.00    -0.118 C  
HETATM   26  C   UNL     1      -7.594   9.207  68.765  1.00  0.00    -0.083 C  
HETATM   27  C   UNL     1      -7.028   7.985  68.042  1.00  0.00    -0.074 C  
HETATM   28  C   UNL     1      -8.023   7.305  67.098  1.00  0.00    -0.110 C  
HETATM   29  C   UNL     1      -8.867   8.303  66.303  1.00  0.00    -0.161 C  
ENDBRANCH  23  24
ENDBRANCH  22  23
ENDBRANCH  21  22
ENDBRANCH  19  21
ENDBRANCH   5  19
TORSDOF 6
ENDMDL
MODEL      218
REMARK 921   NORMALIZED FREE ENERGY PREDICTED BY IDOCK:   57.18 KCAL/MOL
REMARK 922        TOTAL FREE ENERGY PREDICTED BY IDOCK:   76.54 KCAL/MOL
REMARK 923 INTER-LIGAND FREE ENERGY PREDICTED BY IDOCK:   75.80 KCAL/MOL
REMARK 924 INTRA-LIGAND FREE ENERGY PREDICTED BY IDOCK:    0.75 KCAL/MOL
REMARK 927      BINDING AFFINITY PREDICTED BY RF-SCORE:    0.00 PKD
ROOT
HETATM    1  C   UNL     1     -11.949   3.776  66.025  1.00  0.00     7.353 C  
HETATM    2  C   UNL     1     -10.555   4.282  66.243  1.00  0.00     0.316 C  
HETATM    3  C   UNL     1     -10.089   5.514  65.968  1.00  0.00    -0.022 C  
HETATM    4  O   UNL     1      -8.827   5.968  66.299  1.00  0.00    -0.132 OA 
HETATM    5  C   UNL     1      -6.655   5.586  67.230  1.00  0.00    -0.053 A  
HETATM    6  C   UNL     1      -5.687   4.667  67.693  1.00  0.00    -0.021 A  
HETATM    7  C   UNL     1      -7.926   5.115  66.879  1.00  0.00    -0.104 A  
HETATM    8  C   UNL     1      -8.234   3.772  67.089  1.00  0.00    -0.095 A  
HETATM    9  C   UNL     1      -5.985   3.314  67.837  1.00  0.00    -0.027 A  
HETATM   10  O   UNL     1      -9.924   2.148  67.063  1.00  0.00     0.575 OA 
HETATM   11  C   UNL     1      -7.270   2.870  67.558  1.00  0.00    -0.053 A  
HETATM   12  C   UNL     1      -9.603   3.305  66.823  1.00  0.00    -0.022 C  
ENDROOT
BRANCH   3  13
HETATM   13  C   UNL     1     -10.868   6.520  65.231  1.00  0.00     3.926 A  
HETATM   14  C   UNL     1     -11.452   8.850  64.843  1.00  0.00     9.538 A  
HETATM   15  C   UNL     1     -12.591   7.104  63.625  1.00  0.00    20.110 A  
HETATM   16  C   UNL     1     -11.829   6.138  64.288  1.00  0.00     9.209 A  
HETATM   17  C   UNL     1     -10.686   7.885  65.503  1.00  0.00     3.881 A  
HETATM   18  C   UNL     1     -12.406   8.459  63.904  1.00  0.00    22.811 A  
ENDBRANCH   3  13
BRANCH   5  19
HETATM   19  C   UNL     1      -6.307   7.028  67.060  1.00  0.00    -0.048 C  
HETATM   20  O   UNL     1      -5.762   7.541  66.096  1.00  0.00    -0.034 OA 
BRANCH  19  21
HETATM   21  O   UNL     1      -6.647   7.701  68.191  1.00  0.00    -0.051 OA 
BRANCH  21  22
HETATM   22  C   UNL     1      -8.042   7.625  68.495  1.00  0.00    -0.124 C  
BRANCH  22  23
HETATM   23  C   UNL     1      -8.229   6.695  69.710  1.00  0.00    -0.127 C  
BRANCH  23  24
HETATM   24  N   UNL     1      -8.409   7.382  71.013  1.00  0.00    -0.113 NA 
HETATM   25  C   UNL     1      -9.809   7.705  71.325  1.00  0.00    -0.171 C  
HETATM   26  C   UNL     1     -10.679   6.457  71.447  1.00  0.00    -0.290 C  
HETATM   27  C   UNL     1     -10.105   5.461  72.455  1.00  0.00    -0.215 C  
HETATM   28  C   UNL     1      -8.587   5.282  72.358  1.00  0.00    -0.122 C  
HETATM   29  C   UNL     1      -7.847   6.600  72.124  1.00  0.00    -0.097 C  
ENDBRANCH  23  24
ENDBRANCH  22  23
ENDBRANCH  21  22
ENDBRANCH  19  21
ENDBRANCH   5  19
TORSDOF 6
ENDMDL
