MODEL        1
REMARK 921   NORMALIZED FREE ENERGY PREDICTED BY IDOCK:   -8.19 KCAL/MOL
REMARK 922        TOTAL FREE ENERGY PREDICTED BY IDOCK:  -17.52 KCAL/MOL
REMARK 923 INTER-LIGAND FREE ENERGY PREDICTED BY IDOCK:  -14.41 KCAL/MOL
REMARK 924 INTRA-LIGAND FREE ENERGY PREDICTED BY IDOCK:   -3.11 KCAL/MOL
REMARK 927      BINDING AFFINITY PREDICTED BY RF-SCORE:    0.00 PKD
ROOT
HETATM    1  C   UNL     1     -13.480  11.804  71.962  1.00  0.00    -0.319 C  
HETATM    2  C   UNL     1     -12.563  10.693  71.534  1.00  0.00    -0.517 A  
HETATM    3  C   UNL     1     -12.516   9.518  72.301  1.00  0.00    -0.299 A  
HETATM    4  C   UNL     1     -11.798   8.395  71.876  1.00  0.00    -0.336 A  
HETATM    5  C   UNL     1     -11.188   8.399  70.606  1.00  0.00    -0.255 A  
HETATM    6  C   UNL     1     -11.125   9.616  69.909  1.00  0.00    -0.268 A  
HETATM    7  N   UNL     1     -10.635   7.201  70.103  1.00  0.00    -0.223 NA 
HETATM    8  H   UNL     1     -10.672   3.073  73.174  1.00  0.00     0.000 HD 
HETATM    9  C   UNL     1     -10.567   6.101  70.946  1.00  0.00    -0.242 A  
HETATM   10  C   UNL     1     -11.803  10.764  70.354  1.00  0.00    -0.450 A  
HETATM   11  C   UNL     1     -11.681  12.041  69.568  1.00  0.00    -0.408 C  
HETATM   12  O   UNL     1     -10.736   5.259  74.515  1.00  0.00    -0.323 OA 
HETATM   13  N   UNL     1     -10.146   4.929  70.558  1.00  0.00    -0.244 N  
HETATM   14  H   UNL     1      -9.896   4.804  69.577  1.00  0.00     0.000 HD 
HETATM   15  C   UNL     1     -11.032   6.256  72.367  1.00  0.00    -0.254 A  
HETATM   16  C   UNL     1     -10.024   3.869  71.397  1.00  0.00    -0.127 C  
HETATM   17  C   UNL     1     -10.788   5.119  73.304  1.00  0.00    -0.295 C  
HETATM   18  N   UNL     1     -11.684   7.309  72.770  1.00  0.00    -0.168 NA 
HETATM   19  N   UNL     1     -10.509   3.944  72.669  1.00  0.00    -0.156 N  
HETATM   20  O   UNL     1      -9.438   2.844  71.058  1.00  0.00    -0.138 OA 
ENDROOT
BRANCH   7  21
HETATM   21  C   UNL     1     -10.743   6.963  68.651  1.00  0.00    -0.216 C  
BRANCH  21  22
HETATM   22  C   UNL     1      -9.360   6.763  67.997  1.00  0.00    -0.118 C  
HETATM   23  O   UNL     1      -8.633   7.989  68.104  1.00  0.00    -0.126 OA 
HETATM   24  H   UNL     1      -7.781   7.865  67.701  1.00  0.00     0.000 HD 
BRANCH  22  25
HETATM   25  C   UNL     1      -9.558   6.312  66.539  1.00  0.00    -0.146 C  
HETATM   26  H   UNL     1     -10.829   5.171  65.615  1.00  0.00     0.000 HD 
HETATM   27  O   UNL     1     -10.706   5.449  66.515  1.00  0.00    -0.301 OA 
BRANCH  25  28
HETATM   28  C   UNL     1      -8.347   5.580  65.912  1.00  0.00    -0.125 C  
HETATM   29  H   UNL     1      -6.454   5.227  66.372  1.00  0.00     0.000 HD 
HETATM   30  O   UNL     1      -7.197   5.676  66.757  1.00  0.00    -0.072 OA 
BRANCH  28  31
HETATM   31  C   UNL     1      -8.005   6.138  64.517  1.00  0.00    -0.123 C  
BRANCH  31  32
HETATM   32  O   UNL     1      -6.961   7.085  64.601  1.00  0.00    -0.048 OA 
BRANCH  32  33
HETATM   33  P   UNL     1      -7.265   8.606  64.197  1.00  0.00    -0.098 P  
HETATM   34  O   UNL     1      -8.186   8.439  62.906  1.00  0.00    -0.175 OA 
HETATM   35  O   UNL     1      -6.054   9.428  63.852  1.00  0.00    -0.086 OA 
BRANCH  33  36
HETATM   36  O   UNL     1      -8.069   9.229  65.429  1.00  0.00    -0.114 OA 
BRANCH  36  37
HETATM   37  P   UNL     1      -9.522  10.150  65.243  1.00  0.00    -0.292 P  
HETATM   38  O   UNL     1      -9.592  10.406  66.852  1.00  0.00    -0.165 OA 
HETATM   39  O   UNL     1      -8.761  11.266  64.538  1.00  0.00     0.066 OA 
BRANCH  37  40
HETATM   40  O   UNL     1     -10.974  11.072  65.056  1.00  0.00    -0.184 OA 
BRANCH  40  41
HETATM   41  C   UNL     1     -11.314  11.870  66.189  1.00  0.00    -0.324 C  
BRANCH  41  42
HETATM   42  C   UNL     1     -11.914  13.207  65.737  1.00  0.00    -0.423 C  
HETATM   43  O   UNL     1     -11.498  14.222  66.660  1.00  0.00    -0.336 OA 
HETATM   44  C   UNL     1     -11.252  15.429  65.926  1.00  0.00    -0.179 C  
HETATM   45  C   UNL     1     -11.223  15.134  64.428  1.00  0.00    -0.169 C  
HETATM   46  H   UNL     1     -12.218  13.575  62.505  1.00  0.00     0.000 HD 
HETATM   47  C   UNL     1     -11.480  13.633  64.337  1.00  0.00    -0.386 C  
HETATM   48  O   UNL     1     -12.488  13.309  63.377  1.00  0.00    -0.741 OA 
HETATM   49  O   UNL     1     -12.235  15.861  63.708  1.00  0.00    -1.213 OA 
HETATM   50  H   UNL     1     -12.216  15.679  62.776  1.00  0.00     0.000 HD 
BRANCH  44  51
HETATM   51  N   UNL     1     -10.041  16.043  66.433  1.00  0.00    -0.284 NA 
HETATM   52  C   UNL     1      -9.098  15.480  67.249  1.00  0.00    -0.203 A  
HETATM   53  C   UNL     1      -8.909  17.603  67.440  1.00  0.00    -0.235 A  
HETATM   54  N   UNL     1      -8.411  16.398  67.900  1.00  0.00    -0.169 NA 
HETATM   55  C   UNL     1      -9.835  17.395  66.431  1.00  0.00    -0.302 A  
HETATM   56  N   UNL     1     -10.496  18.317  65.712  1.00  0.00    -0.617 NA 
HETATM   57  C   UNL     1     -10.162  19.558  66.124  1.00  0.00    -0.496 A  
HETATM   58  N   UNL     1      -9.340  19.913  67.136  1.00  0.00    -0.343 NA 
HETATM   59  C   UNL     1      -8.714  18.935  67.834  1.00  0.00    -0.298 A  
HETATM   60  N   UNL     1      -7.964  19.297  68.940  1.00  0.00    -0.345 NA 
HETATM   61  H2  UNL     1      -7.042  18.874  68.834  1.00  0.00     0.000 HD 
HETATM   62  H1  UNL     1      -7.822  20.266  69.226  1.00  0.00     0.000 HD 
ENDBRANCH  44  51
ENDBRANCH  41  42
ENDBRANCH  40  41
ENDBRANCH  37  40
ENDBRANCH  36  37
ENDBRANCH  33  36
ENDBRANCH  32  33
ENDBRANCH  31  32
ENDBRANCH  28  31
ENDBRANCH  25  28
ENDBRANCH  22  25
ENDBRANCH  21  22
ENDBRANCH   7  21
TORSDOF 13
ENDMDL
MODEL        2
REMARK 921   NORMALIZED FREE ENERGY PREDICTED BY IDOCK:   -8.15 KCAL/MOL
REMARK 922        TOTAL FREE ENERGY PREDICTED BY IDOCK:  -17.45 KCAL/MOL
REMARK 923 INTER-LIGAND FREE ENERGY PREDICTED BY IDOCK:  -12.95 KCAL/MOL
REMARK 924 INTRA-LIGAND FREE ENERGY PREDICTED BY IDOCK:   -4.50 KCAL/MOL
REMARK 927      BINDING AFFINITY PREDICTED BY RF-SCORE:    0.00 PKD
ROOT
HETATM    1  C   UNL     1      -5.899  17.608  67.666  1.00  0.00    -0.149 C  
HETATM    2  C   UNL     1      -7.024  16.612  67.618  1.00  0.00    -0.160 A  
HETATM    3  C   UNL     1      -7.931  16.664  66.548  1.00  0.00    -0.342 A  
HETATM    4  C   UNL     1      -8.907  15.678  66.369  1.00  0.00    -0.330 A  
HETATM    5  C   UNL     1      -8.923  14.553  67.216  1.00  0.00    -0.210 A  
HETATM    6  C   UNL     1      -8.105  14.575  68.357  1.00  0.00    -0.143 A  
HETATM    7  N   UNL     1      -9.780  13.472  66.911  1.00  0.00    -0.253 NA 
HETATM    8  H   UNL     1     -12.948  13.989  62.890  1.00  0.00     0.000 HD 
HETATM    9  C   UNL     1     -10.694  13.626  65.879  1.00  0.00    -0.281 A  
HETATM   10  C   UNL     1      -7.156  15.589  68.572  1.00  0.00    -0.115 A  
HETATM   11  C   UNL     1      -6.322  15.562  69.824  1.00  0.00    -0.164 C  
HETATM   12  O   UNL     1     -12.278  16.262  63.875  1.00  0.00    -0.945 OA 
HETATM   13  N   UNL     1     -11.475  12.666  65.468  1.00  0.00    -0.325 N  
HETATM   14  H   UNL     1     -11.379  11.745  65.897  1.00  0.00     0.000 HD 
HETATM   15  C   UNL     1     -10.765  14.952  65.176  1.00  0.00    -0.411 A  
HETATM   16  C   UNL     1     -12.409  12.833  64.498  1.00  0.00    -0.445 C  
HETATM   17  C   UNL     1     -11.870  15.156  64.192  1.00  0.00    -0.148 C  
HETATM   18  N   UNL     1      -9.869  15.880  65.356  1.00  0.00    -0.424 NA 
HETATM   19  N   UNL     1     -12.453  13.992  63.782  1.00  0.00    -0.221 N  
HETATM   20  O   UNL     1     -13.264  11.979  64.273  1.00  0.00    -0.710 OA 
ENDROOT
BRANCH   7  21
HETATM   21  C   UNL     1      -9.289  12.114  67.215  1.00  0.00    -0.183 C  
BRANCH  21  22
HETATM   22  C   UNL     1      -9.625  11.692  68.660  1.00  0.00    -0.133 C  
HETATM   23  O   UNL     1      -8.478  11.044  69.215  1.00  0.00    -0.358 OA 
HETATM   24  H   UNL     1      -8.685  10.784  70.105  1.00  0.00     0.000 HD 
BRANCH  22  25
HETATM   25  C   UNL     1     -10.869  10.785  68.638  1.00  0.00    -0.220 C  
HETATM   26  H   UNL     1     -11.964   9.990  67.246  1.00  0.00     0.000 HD 
HETATM   27  O   UNL     1     -11.197  10.549  67.260  1.00  0.00    -0.307 OA 
BRANCH  25  28
HETATM   28  C   UNL     1     -12.105  11.357  69.374  1.00  0.00    -0.291 C  
HETATM   29  H   UNL     1     -12.935  13.128  69.679  1.00  0.00     0.000 HD 
HETATM   30  O   UNL     1     -12.176  12.778  69.228  1.00  0.00    -0.208 OA 
BRANCH  28  31
HETATM   31  C   UNL     1     -12.094  10.996  70.872  1.00  0.00    -0.339 C  
BRANCH  31  32
HETATM   32  O   UNL     1     -12.762   9.774  71.095  1.00  0.00    -0.320 OA 
BRANCH  32  33
HETATM   33  P   UNL     1     -11.952   8.562  71.763  1.00  0.00    -0.387 P  
HETATM   34  O   UNL     1     -12.090   7.413  70.666  1.00  0.00    -0.240 OA 
HETATM   35  O   UNL     1     -12.501   8.076  73.076  1.00  0.00    -0.038 OA 
BRANCH  33  36
HETATM   36  O   UNL     1     -10.446   9.076  71.907  1.00  0.00    -0.343 OA 
BRANCH  36  37
HETATM   37  P   UNL     1      -9.082   8.174  71.343  1.00  0.00    -0.183 P  
HETATM   38  O   UNL     1      -8.089   9.424  71.680  1.00  0.00    -0.251 OA 
HETATM   39  O   UNL     1      -9.186   7.217  72.524  1.00  0.00    -0.137 OA 
BRANCH  37  40
HETATM   40  O   UNL     1      -7.716   7.272  70.780  1.00  0.00    -0.089 OA 
BRANCH  40  41
HETATM   41  C   UNL     1      -7.483   7.372  69.376  1.00  0.00    -0.091 C  
BRANCH  41  42
HETATM   42  C   UNL     1      -8.813   7.503  68.624  1.00  0.00    -0.127 C  
HETATM   43  O   UNL     1      -8.627   8.416  67.535  1.00  0.00    -0.127 OA 
HETATM   44  C   UNL     1      -9.391   7.949  66.416  1.00  0.00    -0.189 C  
HETATM   45  C   UNL     1      -9.875   6.523  66.670  1.00  0.00    -0.148 C  
HETATM   46  H   UNL     1     -10.646   4.799  68.556  1.00  0.00     0.000 HD 
HETATM   47  C   UNL     1      -9.329   6.184  68.054  1.00  0.00    -0.114 C  
HETATM   48  O   UNL     1     -10.324   5.620  68.910  1.00  0.00    -0.190 OA 
HETATM   49  O   UNL     1     -11.311   6.423  66.659  1.00  0.00    -0.726 OA 
HETATM   50  H   UNL     1     -11.612   5.536  66.817  1.00  0.00     0.000 HD 
BRANCH  44  51
HETATM   51  N   UNL     1      -8.595   8.099  65.214  1.00  0.00    -0.142 NA 
HETATM   52  C   UNL     1      -7.422   7.466  64.904  1.00  0.00    -0.087 A  
HETATM   53  C   UNL     1      -7.516   9.238  63.707  1.00  0.00    -0.106 A  
HETATM   54  N   UNL     1      -6.726   8.145  64.014  1.00  0.00    -0.066 NA 
HETATM   55  C   UNL     1      -8.739   9.151  64.352  1.00  0.00    -0.153 A  
HETATM   56  N   UNL     1      -9.781   9.995  64.265  1.00  0.00    -0.255 NA 
HETATM   57  C   UNL     1      -9.481  11.026  63.449  1.00  0.00    -0.310 A  
HETATM   58  N   UNL     1      -8.315  11.283  62.816  1.00  0.00    -0.004 NA 
HETATM   59  C   UNL     1      -7.296  10.401  62.956  1.00  0.00    -0.087 A  
HETATM   60  N   UNL     1      -6.070  10.724  62.400  1.00  0.00    -0.226 NA 
HETATM   61  H2  UNL     1      -5.777   9.933  61.828  1.00  0.00     0.000 HD 
HETATM   62  H1  UNL     1      -5.909  11.571  61.853  1.00  0.00     0.000 HD 
ENDBRANCH  44  51
ENDBRANCH  41  42
ENDBRANCH  40  41
ENDBRANCH  37  40
ENDBRANCH  36  37
ENDBRANCH  33  36
ENDBRANCH  32  33
ENDBRANCH  31  32
ENDBRANCH  28  31
ENDBRANCH  25  28
ENDBRANCH  22  25
ENDBRANCH  21  22
ENDBRANCH   7  21
TORSDOF 13
ENDMDL
MODEL        3
REMARK 921   NORMALIZED FREE ENERGY PREDICTED BY IDOCK:   -8.02 KCAL/MOL
REMARK 922        TOTAL FREE ENERGY PREDICTED BY IDOCK:  -17.23 KCAL/MOL
REMARK 923 INTER-LIGAND FREE ENERGY PREDICTED BY IDOCK:  -14.31 KCAL/MOL
REMARK 924 INTRA-LIGAND FREE ENERGY PREDICTED BY IDOCK:   -2.92 KCAL/MOL
REMARK 927      BINDING AFFINITY PREDICTED BY RF-SCORE:    0.00 PKD
ROOT
HETATM    1  C   UNL     1     -11.163   4.832  73.101  1.00  0.00    -0.390 C  
HETATM    2  C   UNL     1     -10.666   5.532  71.867  1.00  0.00    -0.292 A  
HETATM    3  C   UNL     1     -10.064   4.773  70.852  1.00  0.00    -0.275 A  
HETATM    4  C   UNL     1      -9.716   5.342  69.622  1.00  0.00    -0.182 A  
HETATM    5  C   UNL     1     -10.065   6.679  69.350  1.00  0.00    -0.173 A  
HETATM    6  C   UNL     1     -10.542   7.465  70.412  1.00  0.00    -0.238 A  
HETATM    7  N   UNL     1      -9.889   7.187  68.044  1.00  0.00    -0.135 NA 
HETATM    8  H   UNL     1      -7.684   4.110  64.559  1.00  0.00     0.000 HD 
HETATM    9  C   UNL     1      -9.226   6.399  67.114  1.00  0.00    -0.123 A  
HETATM   10  C   UNL     1     -10.847   6.912  71.668  1.00  0.00    -0.252 A  
HETATM   11  C   UNL     1     -11.339   7.812  72.768  1.00  0.00    -0.446 C  
HETATM   12  O   UNL     1      -7.012   3.475  66.952  1.00  0.00    -0.053 OA 
HETATM   13  N   UNL     1      -9.079   6.740  65.865  1.00  0.00    -0.340 N  
HETATM   14  H   UNL     1      -9.509   7.608  65.545  1.00  0.00     0.000 HD 
HETATM   15  C   UNL     1      -8.680   5.071  67.559  1.00  0.00    -0.103 A  
HETATM   16  C   UNL     1      -8.380   5.997  64.969  1.00  0.00    -0.121 C  
HETATM   17  C   UNL     1      -7.819   4.319  66.598  1.00  0.00    -0.098 C  
HETATM   18  N   UNL     1      -8.986   4.548  68.712  1.00  0.00    -0.105 NA 
HETATM   19  N   UNL     1      -7.939   4.753  65.309  1.00  0.00    -0.094 N  
HETATM   20  O   UNL     1      -8.084   6.435  63.860  1.00  0.00    -0.108 OA 
ENDROOT
BRANCH   7  21
HETATM   21  C   UNL     1     -10.888   8.156  67.554  1.00  0.00    -0.039 C  
BRANCH  21  22
HETATM   22  C   UNL     1     -10.471   9.611  67.852  1.00  0.00    -0.246 C  
HETATM   23  O   UNL     1     -11.639  10.432  67.790  1.00  0.00    -0.654 OA 
HETATM   24  H   UNL     1     -11.382  11.328  67.974  1.00  0.00     0.000 HD 
BRANCH  22  25
HETATM   25  C   UNL     1      -9.390  10.035  66.842  1.00  0.00    -0.159 C  
HETATM   26  H   UNL     1      -8.073  11.460  66.757  1.00  0.00     0.000 HD 
HETATM   27  O   UNL     1      -8.740  11.198  67.380  1.00  0.00    -0.131 OA 
BRANCH  25  28
HETATM   28  C   UNL     1      -9.914  10.347  65.419  1.00  0.00    -0.295 C  
HETATM   29  H   UNL     1      -9.480   9.836  63.556  1.00  0.00     0.000 HD 
HETATM   30  O   UNL     1      -9.158   9.644  64.430  1.00  0.00    -0.237 OA 
BRANCH  28  31
HETATM   31  C   UNL     1      -9.873  11.858  65.116  1.00  0.00    -0.218 C  
BRANCH  31  32
HETATM   32  O   UNL     1     -10.707  12.169  64.021  1.00  0.00    -0.315 OA 
BRANCH  32  33
HETATM   33  P   UNL     1     -12.240  12.545  64.303  1.00  0.00    -0.445 P  
HETATM   34  O   UNL     1     -12.382  12.256  65.864  1.00  0.00    -0.618 OA 
HETATM   35  O   UNL     1     -13.246  11.727  63.543  1.00  0.00    -0.585 OA 
BRANCH  33  36
HETATM   36  O   UNL     1     -12.372  14.102  63.968  1.00  0.00    -0.647 OA 
BRANCH  36  37
HETATM   37  P   UNL     1     -11.284  15.298  64.584  1.00  0.00    -0.191 P  
HETATM   38  O   UNL     1     -12.143  16.483  63.862  1.00  0.00    -0.896 OA 
HETATM   39  O   UNL     1     -11.770  15.051  66.007  1.00  0.00    -0.245 OA 
BRANCH  37  40
HETATM   40  O   UNL     1     -10.197  16.494  65.201  1.00  0.00    -0.590 OA 
BRANCH  40  41
HETATM   41  C   UNL     1     -10.787  17.778  65.400  1.00  0.00     0.151 C  
BRANCH  41  42
HETATM   42  C   UNL     1     -10.385  18.342  66.769  1.00  0.00    -0.394 C  
HETATM   43  O   UNL     1     -11.023  17.558  67.784  1.00  0.00    -0.314 OA 
HETATM   44  C   UNL     1     -10.118  17.422  68.888  1.00  0.00    -0.330 C  
HETATM   45  C   UNL     1      -8.722  17.885  68.481  1.00  0.00    -0.292 C  
HETATM   46  H   UNL     1      -7.366  19.582  66.930  1.00  0.00     0.000 HD 
HETATM   47  C   UNL     1      -8.880  18.316  67.025  1.00  0.00    -0.266 C  
HETATM   48  O   UNL     1      -8.303  19.598  66.770  1.00  0.00    -0.280 OA 
HETATM   49  O   UNL     1      -8.255  18.986  69.281  1.00  0.00    -0.141 OA 
HETATM   50  H   UNL     1      -7.386  19.273  69.029  1.00  0.00     0.000 HD 
BRANCH  44  51
HETATM   51  N   UNL     1     -10.173  16.056  69.369  1.00  0.00    -0.252 NA 
HETATM   52  C   UNL     1      -9.562  14.956  68.831  1.00  0.00    -0.215 A  
HETATM   53  C   UNL     1     -11.190  14.250  70.027  1.00  0.00    -0.099 A  
HETATM   54  N   UNL     1     -10.172  13.842  69.186  1.00  0.00    -0.049 NA 
HETATM   55  C   UNL     1     -11.120  15.615  70.251  1.00  0.00    -0.347 A  
HETATM   56  N   UNL     1     -11.905  16.364  71.044  1.00  0.00    -0.191 NA 
HETATM   57  C   UNL     1     -12.855  15.598  71.619  1.00  0.00    -0.463 A  
HETATM   58  N   UNL     1     -13.092  14.280  71.439  1.00  0.00    -0.335 NA 
HETATM   59  C   UNL     1     -12.275  13.582  70.614  1.00  0.00    -0.358 A  
HETATM   60  N   UNL     1     -12.590  12.262  70.344  1.00  0.00    -0.099 NA 
HETATM   61  H2  UNL     1     -11.755  11.706  70.530  1.00  0.00     0.000 HD 
HETATM   62  H1  UNL     1     -13.379  11.776  70.771  1.00  0.00     0.000 HD 
ENDBRANCH  44  51
ENDBRANCH  41  42
ENDBRANCH  40  41
ENDBRANCH  37  40
ENDBRANCH  36  37
ENDBRANCH  33  36
ENDBRANCH  32  33
ENDBRANCH  31  32
ENDBRANCH  28  31
ENDBRANCH  25  28
ENDBRANCH  22  25
ENDBRANCH  21  22
ENDBRANCH   7  21
TORSDOF 13
ENDMDL
MODEL        4
REMARK 921   NORMALIZED FREE ENERGY PREDICTED BY IDOCK:   -7.89 KCAL/MOL
REMARK 922        TOTAL FREE ENERGY PREDICTED BY IDOCK:  -17.00 KCAL/MOL
REMARK 923 INTER-LIGAND FREE ENERGY PREDICTED BY IDOCK:  -14.51 KCAL/MOL
REMARK 924 INTRA-LIGAND FREE ENERGY PREDICTED BY IDOCK:   -2.49 KCAL/MOL
REMARK 927      BINDING AFFINITY PREDICTED BY RF-SCORE:    0.00 PKD
ROOT
HETATM    1  C   UNL     1     -12.897  14.871  73.667  1.00  0.00    -0.522 C  
HETATM    2  C   UNL     1     -12.388  14.895  72.253  1.00  0.00    -0.426 A  
HETATM    3  C   UNL     1     -11.757  16.055  71.777  1.00  0.00    -0.593 A  
HETATM    4  C   UNL     1     -11.134  16.089  70.526  1.00  0.00    -0.353 A  
HETATM    5  C   UNL     1     -11.043  14.908  69.762  1.00  0.00    -0.274 A  
HETATM    6  C   UNL     1     -11.787  13.793  70.181  1.00  0.00    -0.360 A  
HETATM    7  N   UNL     1     -10.245  14.900  68.596  1.00  0.00    -0.229 NA 
HETATM    8  H   UNL     1      -8.050  19.329  67.169  1.00  0.00     0.000 HD 
HETATM    9  C   UNL     1      -9.710  16.102  68.156  1.00  0.00    -0.222 A  
HETATM   10  C   UNL     1     -12.459  13.769  71.415  1.00  0.00    -0.404 A  
HETATM   11  C   UNL     1     -13.253  12.549  71.795  1.00  0.00    -0.444 C  
HETATM   12  O   UNL     1     -10.154  19.720  68.584  1.00  0.00    -0.438 OA 
HETATM   13  N   UNL     1      -8.901  16.192  67.137  1.00  0.00    -0.191 N  
HETATM   14  H   UNL     1      -8.612  15.333  66.670  1.00  0.00     0.000 HD 
HETATM   15  C   UNL     1     -10.053  17.358  68.907  1.00  0.00    -0.330 A  
HETATM   16  C   UNL     1      -8.424  17.374  66.670  1.00  0.00    -0.261 C  
HETATM   17  C   UNL     1      -9.615  18.659  68.317  1.00  0.00    -0.347 C  
HETATM   18  N   UNL     1     -10.651  17.332  70.063  1.00  0.00     0.207 NA 
HETATM   19  N   UNL     1      -8.644  18.524  67.368  1.00  0.00    -0.256 N  
HETATM   20  O   UNL     1      -7.833  17.450  65.595  1.00  0.00    -0.465 OA 
ENDROOT
BRANCH   7  21
HETATM   21  C   UNL     1      -9.520  13.654  68.281  1.00  0.00    -0.213 C  
BRANCH  21  22
HETATM   22  C   UNL     1      -9.942  13.075  66.915  1.00  0.00    -0.243 C  
HETATM   23  O   UNL     1      -9.210  13.758  65.895  1.00  0.00    -0.495 OA 
HETATM   24  H   UNL     1      -9.470  13.401  65.053  1.00  0.00     0.000 HD 
BRANCH  22  25
HETATM   25  C   UNL     1     -11.466  13.228  66.758  1.00  0.00    -0.350 C  
HETATM   26  H   UNL     1     -13.006  12.112  67.152  1.00  0.00     0.000 HD 
HETATM   27  O   UNL     1     -12.066  12.018  67.249  1.00  0.00    -0.572 OA 
BRANCH  25  28
HETATM   28  C   UNL     1     -11.949  13.495  65.312  1.00  0.00    -0.373 C  
HETATM   29  H   UNL     1     -13.577  14.179  64.417  1.00  0.00     0.000 HD 
HETATM   30  O   UNL     1     -13.281  14.015  65.305  1.00  0.00    -0.782 OA 
BRANCH  28  31
HETATM   31  C   UNL     1     -11.893  12.220  64.448  1.00  0.00    -0.388 C  
BRANCH  31  32
HETATM   32  O   UNL     1     -10.712  12.191  63.677  1.00  0.00    -0.388 OA 
BRANCH  32  33
HETATM   33  P   UNL     1      -9.794  10.877  63.720  1.00  0.00    -0.378 P  
HETATM   34  O   UNL     1      -8.326  11.490  63.837  1.00  0.00     0.592 OA 
HETATM   35  O   UNL     1      -9.881  10.000  62.502  1.00  0.00    -0.096 OA 
BRANCH  33  36
HETATM   36  O   UNL     1     -10.223  10.093  65.044  1.00  0.00    -0.309 OA 
BRANCH  36  37
HETATM   37  P   UNL     1      -9.148   9.058  65.920  1.00  0.00    -0.228 P  
HETATM   38  O   UNL     1      -8.461  10.349  66.644  1.00  0.00    -0.124 OA 
HETATM   39  O   UNL     1     -10.303   8.509  66.749  1.00  0.00    -0.295 OA 
BRANCH  37  40
HETATM   40  O   UNL     1      -8.075   8.023  66.798  1.00  0.00    -0.104 OA 
BRANCH  40  41
HETATM   41  C   UNL     1      -7.641   8.552  68.050  1.00  0.00    -0.098 C  
BRANCH  41  42
HETATM   42  C   UNL     1      -7.363   7.413  69.040  1.00  0.00    -0.091 C  
HETATM   43  O   UNL     1      -7.481   7.934  70.370  1.00  0.00    -0.073 OA 
HETATM   44  C   UNL     1      -8.081   6.930  71.199  1.00  0.00    -0.110 C  
HETATM   45  C   UNL     1      -8.647   5.807  70.334  1.00  0.00    -0.133 C  
HETATM   46  H   UNL     1      -8.327   4.450  68.059  1.00  0.00     0.000 HD 
HETATM   47  C   UNL     1      -8.324   6.235  68.906  1.00  0.00    -0.120 C  
HETATM   48  O   UNL     1      -7.729   5.184  68.142  1.00  0.00    -0.082 OA 
HETATM   49  O   UNL     1      -8.042   4.534  70.625  1.00  0.00    -0.072 OA 
HETATM   50  H   UNL     1      -8.394   3.835  70.088  1.00  0.00     0.000 HD 
BRANCH  44  51
HETATM   51  N   UNL     1      -9.057   7.562  72.064  1.00  0.00    -0.127 NA 
HETATM   52  C   UNL     1      -9.410   7.194  73.334  1.00  0.00    -0.180 A  
HETATM   53  C   UNL     1     -11.020   8.363  72.546  1.00  0.00    -0.318 A  
HETATM   54  N   UNL     1     -10.611   7.638  73.650  1.00  0.00    -0.236 NA 
HETATM   55  C   UNL     1     -10.008   8.431  71.604  1.00  0.00    -0.234 A  
HETATM   56  N   UNL     1     -10.013   9.082  70.429  1.00  0.00    -0.190 NA 
HETATM   57  C   UNL     1     -11.205   9.684  70.234  1.00  0.00    -0.271 A  
HETATM   58  N   UNL     1     -12.303   9.644  71.021  1.00  0.00    -0.314 NA 
HETATM   59  C   UNL     1     -12.239   8.957  72.186  1.00  0.00    -0.367 A  
HETATM   60  N   UNL     1     -13.398   8.823  72.932  1.00  0.00    -0.837 NA 
HETATM   61  H2  UNL     1     -13.183   9.122  73.883  1.00  0.00     0.000 HD 
HETATM   62  H1  UNL     1     -14.284   9.255  72.671  1.00  0.00     0.000 HD 
ENDBRANCH  44  51
ENDBRANCH  41  42
ENDBRANCH  40  41
ENDBRANCH  37  40
ENDBRANCH  36  37
ENDBRANCH  33  36
ENDBRANCH  32  33
ENDBRANCH  31  32
ENDBRANCH  28  31
ENDBRANCH  25  28
ENDBRANCH  22  25
ENDBRANCH  21  22
ENDBRANCH   7  21
TORSDOF 13
ENDMDL
MODEL        5
REMARK 921   NORMALIZED FREE ENERGY PREDICTED BY IDOCK:   -7.84 KCAL/MOL
REMARK 922        TOTAL FREE ENERGY PREDICTED BY IDOCK:  -16.91 KCAL/MOL
REMARK 923 INTER-LIGAND FREE ENERGY PREDICTED BY IDOCK:  -14.38 KCAL/MOL
REMARK 924 INTRA-LIGAND FREE ENERGY PREDICTED BY IDOCK:   -2.53 KCAL/MOL
REMARK 927      BINDING AFFINITY PREDICTED BY RF-SCORE:    0.00 PKD
ROOT
HETATM    1  C   UNL     1     -10.519   2.899  73.955  1.00  0.00    -0.243 C  
HETATM    2  C   UNL     1     -10.550   4.022  72.955  1.00  0.00    -0.256 A  
HETATM    3  C   UNL     1     -11.324   5.159  73.235  1.00  0.00    -0.361 A  
HETATM    4  C   UNL     1     -11.279   6.293  72.418  1.00  0.00    -0.280 A  
HETATM    5  C   UNL     1     -10.364   6.344  71.348  1.00  0.00    -0.206 A  
HETATM    6  C   UNL     1      -9.695   5.160  70.996  1.00  0.00    -0.245 A  
HETATM    7  N   UNL     1     -10.183   7.560  70.652  1.00  0.00    -0.202 NA 
HETATM    8  H   UNL     1     -13.168  11.539  71.969  1.00  0.00     0.000 HD 
HETATM    9  C   UNL     1     -11.032   8.618  70.942  1.00  0.00    -0.253 A  
HETATM   10  C   UNL     1      -9.775   3.999  71.783  1.00  0.00    -0.241 A  
HETATM   11  C   UNL     1      -9.047   2.759  71.341  1.00  0.00    -0.175 C  
HETATM   12  O   UNL     1     -14.264   9.292  72.545  1.00  0.00    -0.464 OA 
HETATM   13  N   UNL     1     -10.903   9.802  70.412  1.00  0.00    -0.287 N  
HETATM   14  H   UNL     1     -10.113   9.972  69.789  1.00  0.00     0.000 HD 
HETATM   15  C   UNL     1     -12.136   8.400  71.939  1.00  0.00    -0.342 A  
HETATM   16  C   UNL     1     -11.767  10.821  70.651  1.00  0.00    -0.342 C  
HETATM   17  C   UNL     1     -13.144   9.489  72.105  1.00  0.00    -0.436 C  
HETATM   18  N   UNL     1     -12.192   7.335  72.686  1.00  0.00     0.039 NA 
HETATM   19  N   UNL     1     -12.731  10.691  71.607  1.00  0.00    -0.427 N  
HETATM   20  O   UNL     1     -11.742  11.856  69.989  1.00  0.00    -0.317 OA 
ENDROOT
BRANCH   7  21
HETATM   21  C   UNL     1      -8.824   7.866  70.167  1.00  0.00    -0.144 C  
BRANCH  21  22
HETATM   22  C   UNL     1      -8.813   8.202  68.661  1.00  0.00    -0.134 C  
HETATM   23  O   UNL     1     -10.103   7.899  68.127  1.00  0.00    -0.178 OA 
HETATM   24  H   UNL     1     -10.096   8.106  67.199  1.00  0.00     0.000 HD 
BRANCH  22  25
HETATM   25  C   UNL     1      -7.684   7.407  67.982  1.00  0.00    -0.116 C  
HETATM   26  H   UNL     1      -6.787   5.721  68.333  1.00  0.00     0.000 HD 
HETATM   27  O   UNL     1      -7.484   6.211  68.752  1.00  0.00    -0.083 OA 
BRANCH  25  28
HETATM   28  C   UNL     1      -6.342   8.167  67.848  1.00  0.00    -0.052 C  
HETATM   29  H   UNL     1      -5.605   9.934  68.351  1.00  0.00     0.000 HD 
HETATM   30  O   UNL     1      -6.429   9.469  68.433  1.00  0.00    -0.052 OA 
BRANCH  28  31
HETATM   31  C   UNL     1      -5.905   8.296  66.375  1.00  0.00    -0.041 C  
BRANCH  31  32
HETATM   32  O   UNL     1      -7.030   8.359  65.526  1.00  0.00    -0.068 OA 
BRANCH  32  33
HETATM   33  P   UNL     1      -7.394   9.757  64.830  1.00  0.00    -0.139 P  
HETATM   34  O   UNL     1      -8.331   9.304  63.622  1.00  0.00    -0.164 OA 
HETATM   35  O   UNL     1      -6.218  10.528  64.297  1.00  0.00    -0.096 OA 
BRANCH  33  36
HETATM   36  O   UNL     1      -8.196  10.593  65.930  1.00  0.00    -0.152 OA 
BRANCH  36  37
HETATM   37  P   UNL     1      -9.795  11.203  65.674  1.00  0.00    -0.261 P  
HETATM   38  O   UNL     1     -10.424   9.717  65.912  1.00  0.00    -0.148 OA 
HETATM   39  O   UNL     1      -9.735  11.993  66.976  1.00  0.00    -0.192 OA 
BRANCH  37  40
HETATM   40  O   UNL     1     -11.393  11.814  65.420  1.00  0.00    -0.299 OA 
BRANCH  40  41
HETATM   41  C   UNL     1     -11.904  12.596  66.499  1.00  0.00    -0.396 C  
BRANCH  41  42
HETATM   42  C   UNL     1     -12.129  14.044  66.048  1.00  0.00    -0.439 C  
HETATM   43  O   UNL     1     -11.454  14.912  66.967  1.00  0.00    -0.353 OA 
HETATM   44  C   UNL     1     -10.900  16.010  66.230  1.00  0.00    -0.166 C  
HETATM   45  C   UNL     1     -10.957  15.718  64.732  1.00  0.00    -0.393 C  
HETATM   46  H   UNL     1     -12.341  14.477  62.817  1.00  0.00     0.000 HD 
HETATM   47  C   UNL     1     -11.605  14.338  64.645  1.00  0.00    -0.408 C  
HETATM   48  O   UNL     1     -12.667  14.294  63.690  1.00  0.00    -0.783 OA 
HETATM   49  O   UNL     1     -11.744  16.687  64.015  1.00  0.00    -1.394 OA 
HETATM   50  H   UNL     1     -11.779  16.505  63.084  1.00  0.00     0.000 HD 
BRANCH  44  51
HETATM   51  N   UNL     1      -9.567  16.281  66.730  1.00  0.00    -0.229 NA 
HETATM   52  C   UNL     1      -8.770  15.454  67.475  1.00  0.00    -0.175 A  
HETATM   53  C   UNL     1      -8.072  17.452  67.790  1.00  0.00    -0.214 A  
HETATM   54  N   UNL     1      -7.870  16.135  68.156  1.00  0.00    -0.143 NA 
HETATM   55  C   UNL     1      -9.041  17.541  66.804  1.00  0.00    -0.262 A  
HETATM   56  N   UNL     1      -9.474  18.641  66.167  1.00  0.00    -0.484 NA 
HETATM   57  C   UNL     1      -8.843  19.735  66.642  1.00  0.00    -0.359 A  
HETATM   58  N   UNL     1      -7.940  19.813  67.644  1.00  0.00    -0.283 NA 
HETATM   59  C   UNL     1      -7.554  18.669  68.257  1.00  0.00    -0.284 A  
HETATM   60  N   UNL     1      -6.717  18.765  69.356  1.00  0.00    -0.257 NA 
HETATM   61  H2  UNL     1      -5.927  18.141  69.191  1.00  0.00     0.000 HD 
HETATM   62  H1  UNL     1      -6.340  19.650  69.696  1.00  0.00     0.000 HD 
ENDBRANCH  44  51
ENDBRANCH  41  42
ENDBRANCH  40  41
ENDBRANCH  37  40
ENDBRANCH  36  37
ENDBRANCH  33  36
ENDBRANCH  32  33
ENDBRANCH  31  32
ENDBRANCH  28  31
ENDBRANCH  25  28
ENDBRANCH  22  25
ENDBRANCH  21  22
ENDBRANCH   7  21
TORSDOF 13
ENDMDL
MODEL        6
REMARK 921   NORMALIZED FREE ENERGY PREDICTED BY IDOCK:   -7.66 KCAL/MOL
REMARK 922        TOTAL FREE ENERGY PREDICTED BY IDOCK:  -16.60 KCAL/MOL
REMARK 923 INTER-LIGAND FREE ENERGY PREDICTED BY IDOCK:  -13.35 KCAL/MOL
REMARK 924 INTRA-LIGAND FREE ENERGY PREDICTED BY IDOCK:   -3.25 KCAL/MOL
REMARK 927      BINDING AFFINITY PREDICTED BY RF-SCORE:    0.00 PKD
ROOT
HETATM    1  C   UNL     1      -8.000  20.413  67.157  1.00  0.00    -0.379 C  
HETATM    2  C   UNL     1      -8.445  19.014  67.482  1.00  0.00    -0.307 A  
HETATM    3  C   UNL     1      -9.330  18.815  68.553  1.00  0.00    -0.390 A  
HETATM    4  C   UNL     1      -9.895  17.562  68.812  1.00  0.00    -0.326 A  
HETATM    5  C   UNL     1      -9.656  16.494  67.924  1.00  0.00    -0.233 A  
HETATM    6  C   UNL     1      -8.670  16.664  66.939  1.00  0.00    -0.241 A  
HETATM    7  N   UNL     1     -10.381  15.292  68.080  1.00  0.00    -0.239 NA 
HETATM    8  H   UNL     1     -13.570  14.924  72.101  1.00  0.00     0.000 HD 
HETATM    9  C   UNL     1     -11.186  15.147  69.201  1.00  0.00    -0.279 A  
HETATM   10  C   UNL     1      -8.060  17.908  66.705  1.00  0.00    -0.281 A  
HETATM   11  C   UNL     1      -6.999  18.018  65.644  1.00  0.00    -0.176 C  
HETATM   12  O   UNL     1     -11.687  16.614  72.528  1.00  0.00    -0.485 OA 
HETATM   13  N   UNL     1     -11.953  14.112  69.400  1.00  0.00    -0.320 N  
HETATM   14  H   UNL     1     -11.997  13.395  68.677  1.00  0.00     0.000 HD 
HETATM   15  C   UNL     1     -11.200  16.252  70.221  1.00  0.00    -0.333 A  
HETATM   16  C   UNL     1     -12.695  13.943  70.524  1.00  0.00    -0.249 C  
HETATM   17  C   UNL     1     -11.930  16.004  71.500  1.00  0.00    -0.475 C  
HETATM   18  N   UNL     1     -10.658  17.413  69.990  1.00  0.00     0.317 NA 
HETATM   19  N   UNL     1     -12.799  14.954  71.434  1.00  0.00    -0.316 N  
HETATM   20  O   UNL     1     -13.245  12.875  70.778  1.00  0.00     0.091 OA 
ENDROOT
BRANCH   7  21
HETATM   21  C   UNL     1     -10.755  14.564  66.852  1.00  0.00    -0.288 C  
BRANCH  21  22
HETATM   22  C   UNL     1     -10.090  13.173  66.784  1.00  0.00    -0.253 C  
HETATM   23  O   UNL     1      -8.687  13.358  66.585  1.00  0.00    -0.418 OA 
HETATM   24  H   UNL     1      -8.278  12.501  66.543  1.00  0.00     0.000 HD 
BRANCH  22  25
HETATM   25  C   UNL     1     -10.751  12.360  65.657  1.00  0.00    -0.264 C  
HETATM   26  H   UNL     1     -12.334  11.245  65.514  1.00  0.00     0.000 HD 
HETATM   27  O   UNL     1     -11.927  11.747  66.209  1.00  0.00    -0.490 OA 
BRANCH  25  28
HETATM   28  C   UNL     1      -9.850  11.273  65.023  1.00  0.00    -0.261 C  
HETATM   29  H   UNL     1      -9.521  10.512  63.225  1.00  0.00     0.000 HD 
HETATM   30  O   UNL     1     -10.074  11.180  63.614  1.00  0.00    -0.309 OA 
BRANCH  28  31
HETATM   31  C   UNL     1     -10.081   9.893  65.670  1.00  0.00    -0.237 C  
BRANCH  31  32
HETATM   32  O   UNL     1      -8.900   9.428  66.286  1.00  0.00    -0.138 OA 
BRANCH  32  33
HETATM   33  P   UNL     1      -8.535   7.870  66.177  1.00  0.00    -0.145 P  
HETATM   34  O   UNL     1      -7.443   7.694  67.326  1.00  0.00    -0.095 OA 
HETATM   35  O   UNL     1      -7.956   7.442  64.858  1.00  0.00    -0.120 OA 
BRANCH  33  36
HETATM   36  O   UNL     1      -9.886   7.085  66.511  1.00  0.00    -0.175 OA 
BRANCH  36  37
HETATM   37  P   UNL     1     -10.071   6.068  67.898  1.00  0.00    -0.196 P  
HETATM   38  O   UNL     1     -11.361   6.938  68.391  1.00  0.00    -0.042 OA 
HETATM   39  O   UNL     1     -10.497   4.897  67.021  1.00  0.00    -0.194 OA 
BRANCH  37  40
HETATM   40  O   UNL     1     -10.258   5.050  69.284  1.00  0.00    -0.216 OA 
BRANCH  40  41
HETATM   41  C   UNL     1      -9.061   4.855  70.037  1.00  0.00    -0.109 C  
BRANCH  41  42
HETATM   42  C   UNL     1      -9.309   5.158  71.520  1.00  0.00    -0.148 C  
HETATM   43  O   UNL     1      -9.302   6.580  71.695  1.00  0.00    -0.148 OA 
HETATM   44  C   UNL     1     -10.295   6.922  72.672  1.00  0.00    -0.203 C  
HETATM   45  C   UNL     1     -11.195   5.720  72.946  1.00  0.00    -0.276 C  
HETATM   46  H   UNL     1     -11.278   3.055  73.060  1.00  0.00     0.000 HD 
HETATM   47  C   UNL     1     -10.640   4.623  72.041  1.00  0.00    -0.069 C  
HETATM   48  O   UNL     1     -10.450   3.388  72.734  1.00  0.00    -0.162 OA 
HETATM   49  O   UNL     1     -11.148   5.305  74.323  1.00  0.00    -0.402 OA 
HETATM   50  H   UNL     1     -11.709   4.557  74.494  1.00  0.00     0.000 HD 
BRANCH  44  51
HETATM   51  N   UNL     1     -11.004   8.103  72.221  1.00  0.00    -0.305 NA 
HETATM   52  C   UNL     1     -12.344   8.363  72.323  1.00  0.00    -0.376 A  
HETATM   53  C   UNL     1     -11.580   9.601  70.754  1.00  0.00    -0.321 A  
HETATM   54  N   UNL     1     -12.735   9.247  71.427  1.00  0.00    -0.325 NA 
HETATM   55  C   UNL     1     -10.476   8.992  71.326  1.00  0.00    -0.311 A  
HETATM   56  N   UNL     1      -9.185   9.129  70.981  1.00  0.00    -0.258 NA 
HETATM   57  C   UNL     1      -9.069   9.959  69.923  1.00  0.00    -0.210 A  
HETATM   58  N   UNL     1     -10.052  10.562  69.220  1.00  0.00    -0.223 NA 
HETATM   59  C   UNL     1     -11.336  10.372  69.608  1.00  0.00    -0.272 A  
HETATM   60  N   UNL     1     -12.344  10.898  68.818  1.00  0.00    -0.772 NA 
HETATM   61  H2  UNL     1     -12.954  11.443  69.427  1.00  0.00     0.000 HD 
HETATM   62  H1  UNL     1     -12.166  11.459  67.984  1.00  0.00     0.000 HD 
ENDBRANCH  44  51
ENDBRANCH  41  42
ENDBRANCH  40  41
ENDBRANCH  37  40
ENDBRANCH  36  37
ENDBRANCH  33  36
ENDBRANCH  32  33
ENDBRANCH  31  32
ENDBRANCH  28  31
ENDBRANCH  25  28
ENDBRANCH  22  25
ENDBRANCH  21  22
ENDBRANCH   7  21
TORSDOF 13
ENDMDL
MODEL        7
REMARK 921   NORMALIZED FREE ENERGY PREDICTED BY IDOCK:   -7.35 KCAL/MOL
REMARK 922        TOTAL FREE ENERGY PREDICTED BY IDOCK:  -16.05 KCAL/MOL
REMARK 923 INTER-LIGAND FREE ENERGY PREDICTED BY IDOCK:  -12.90 KCAL/MOL
REMARK 924 INTRA-LIGAND FREE ENERGY PREDICTED BY IDOCK:   -3.14 KCAL/MOL
REMARK 927      BINDING AFFINITY PREDICTED BY RF-SCORE:    0.00 PKD
ROOT
HETATM    1  C   UNL     1     -10.995   5.964  72.673  1.00  0.00    -0.305 C  
HETATM    2  C   UNL     1     -10.312   6.215  71.358  1.00  0.00    -0.260 A  
HETATM    3  C   UNL     1     -10.347   5.216  70.372  1.00  0.00    -0.326 A  
HETATM    4  C   UNL     1      -9.860   5.445  69.081  1.00  0.00    -0.177 A  
HETATM    5  C   UNL     1      -9.416   6.734  68.724  1.00  0.00    -0.130 A  
HETATM    6  C   UNL     1      -9.259   7.684  69.745  1.00  0.00    -0.147 A  
HETATM    7  N   UNL     1      -9.112   7.008  67.371  1.00  0.00    -0.123 NA 
HETATM    8  H   UNL     1      -9.385   3.113  64.020  1.00  0.00     0.000 HD 
HETATM    9  C   UNL     1      -9.105   5.953  66.470  1.00  0.00    -0.143 A  
HETATM   10  C   UNL     1      -9.699   7.444  71.058  1.00  0.00    -0.164 A  
HETATM   11  C   UNL     1      -9.486   8.499  72.109  1.00  0.00    -0.375 C  
HETATM   12  O   UNL     1      -8.961   2.286  66.411  1.00  0.00    -0.131 OA 
HETATM   13  N   UNL     1      -8.913   6.109  65.190  1.00  0.00    -0.369 N  
HETATM   14  H   UNL     1      -8.806   7.057  64.828  1.00  0.00     0.000 HD 
HETATM   15  C   UNL     1      -9.365   4.566  66.987  1.00  0.00    -0.146 A  
HETATM   16  C   UNL     1      -8.848   5.072  64.317  1.00  0.00    -0.066 C  
HETATM   17  C   UNL     1      -9.180   3.427  66.039  1.00  0.00    -0.161 C  
HETATM   18  N   UNL     1      -9.800   4.348  68.195  1.00  0.00    -0.109 NA 
HETATM   19  N   UNL     1      -9.157   3.810  64.730  1.00  0.00    -0.131 N  
HETATM   20  O   UNL     1      -8.466   5.227  63.159  1.00  0.00    -0.126 OA 
ENDROOT
BRANCH   7  21
HETATM   21  C   UNL     1      -9.430   8.357  66.867  1.00  0.00    -0.185 C  
BRANCH  21  22
HETATM   22  C   UNL     1      -8.157   9.193  66.620  1.00  0.00    -0.111 C  
HETATM   23  O   UNL     1      -8.120  10.247  67.584  1.00  0.00    -0.106 OA 
HETATM   24  H   UNL     1      -7.336  10.762  67.431  1.00  0.00     0.000 HD 
BRANCH  22  25
HETATM   25  C   UNL     1      -8.174   9.711  65.170  1.00  0.00    -0.134 C  
HETATM   26  H   UNL     1      -7.157  11.027  64.169  1.00  0.00     0.000 HD 
HETATM   27  O   UNL     1      -7.145  10.707  65.063  1.00  0.00    -0.045 OA 
BRANCH  25  28
HETATM   28  C   UNL     1      -9.525  10.310  64.709  1.00  0.00    -0.283 C  
HETATM   29  H   UNL     1     -10.496  10.588  63.006  1.00  0.00     0.000 HD 
HETATM   30  O   UNL     1      -9.667  10.220  63.289  1.00  0.00    -0.301 OA 
BRANCH  28  31
HETATM   31  C   UNL     1      -9.674  11.780  65.146  1.00  0.00    -0.203 C  
BRANCH  31  32
HETATM   32  O   UNL     1     -10.393  12.516  64.180  1.00  0.00    -0.358 OA 
BRANCH  32  33
HETATM   33  P   UNL     1     -11.966  12.742  64.395  1.00  0.00    -0.466 P  
HETATM   34  O   UNL     1     -12.193  12.178  65.869  1.00  0.00    -0.604 OA 
HETATM   35  O   UNL     1     -12.852  12.006  63.429  1.00  0.00    -0.760 OA 
BRANCH  33  36
HETATM   36  O   UNL     1     -12.191  14.322  64.317  1.00  0.00    -0.521 OA 
BRANCH  36  37
HETATM   37  P   UNL     1     -11.028  15.472  64.879  1.00  0.00    -0.272 P  
HETATM   38  O   UNL     1     -11.774  16.664  64.052  1.00  0.00    -1.143 OA 
HETATM   39  O   UNL     1     -11.565  15.366  66.301  1.00  0.00    -0.098 OA 
BRANCH  37  40
HETATM   40  O   UNL     1      -9.866  16.623  65.443  1.00  0.00    -0.538 OA 
BRANCH  40  41
HETATM   41  C   UNL     1     -10.277  17.358  66.596  1.00  0.00    -0.324 C  
BRANCH  41  42
HETATM   42  C   UNL     1      -9.055  17.774  67.424  1.00  0.00    -0.244 C  
HETATM   43  O   UNL     1      -8.721  16.697  68.307  1.00  0.00    -0.202 OA 
HETATM   44  C   UNL     1      -7.293  16.620  68.410  1.00  0.00    -0.190 C  
HETATM   45  C   UNL     1      -6.643  17.489  67.335  1.00  0.00    -0.159 C  
HETATM   46  H   UNL     1      -6.922  19.709  65.881  1.00  0.00     0.000 HD 
HETATM   47  C   UNL     1      -7.823  18.097  66.582  1.00  0.00    -0.242 C  
HETATM   48  O   UNL     1      -7.689  19.508  66.406  1.00  0.00    -0.264 OA 
HETATM   49  O   UNL     1      -5.818  18.527  67.896  1.00  0.00    -0.172 OA 
HETATM   50  H   UNL     1      -5.414  19.067  67.228  1.00  0.00     0.000 HD 
BRANCH  44  51
HETATM   51  N   UNL     1      -6.897  15.227  68.364  1.00  0.00    -0.107 NA 
HETATM   52  C   UNL     1      -7.313  14.268  67.481  1.00  0.00    -0.179 A  
HETATM   53  C   UNL     1      -6.584  13.250  69.216  1.00  0.00    -0.093 A  
HETATM   54  N   UNL     1      -7.165  13.056  67.976  1.00  0.00    -0.103 NA 
HETATM   55  C   UNL     1      -6.293  14.589  69.413  1.00  0.00    -0.125 A  
HETATM   56  N   UNL     1      -5.687  15.157  70.469  1.00  0.00    -0.138 NA 
HETATM   57  C   UNL     1      -5.395  14.223  71.398  1.00  0.00    -0.177 A  
HETATM   58  N   UNL     1      -5.682  12.903  71.379  1.00  0.00    -0.350 NA 
HETATM   59  C   UNL     1      -6.309  12.393  70.292  1.00  0.00     0.145 A  
HETATM   60  N   UNL     1      -6.703  11.066  70.324  1.00  0.00    -0.461 NA 
HETATM   61  H2  UNL     1      -6.341  10.621  69.481  1.00  0.00     0.000 HD 
HETATM   62  H1  UNL     1      -6.503  10.443  71.107  1.00  0.00     0.000 HD 
ENDBRANCH  44  51
ENDBRANCH  41  42
ENDBRANCH  40  41
ENDBRANCH  37  40
ENDBRANCH  36  37
ENDBRANCH  33  36
ENDBRANCH  32  33
ENDBRANCH  31  32
ENDBRANCH  28  31
ENDBRANCH  25  28
ENDBRANCH  22  25
ENDBRANCH  21  22
ENDBRANCH   7  21
TORSDOF 13
ENDMDL
MODEL        8
REMARK 921   NORMALIZED FREE ENERGY PREDICTED BY IDOCK:   -7.22 KCAL/MOL
REMARK 922        TOTAL FREE ENERGY PREDICTED BY IDOCK:  -15.81 KCAL/MOL
REMARK 923 INTER-LIGAND FREE ENERGY PREDICTED BY IDOCK:  -13.01 KCAL/MOL
REMARK 924 INTRA-LIGAND FREE ENERGY PREDICTED BY IDOCK:   -2.80 KCAL/MOL
REMARK 927      BINDING AFFINITY PREDICTED BY RF-SCORE:    0.00 PKD
ROOT
HETATM    1  C   UNL     1      -8.992  20.060  67.341  1.00  0.00    -0.440 C  
HETATM    2  C   UNL     1      -9.152  18.613  67.715  1.00  0.00    -0.303 A  
HETATM    3  C   UNL     1     -10.014  18.275  68.770  1.00  0.00    -0.391 A  
HETATM    4  C   UNL     1     -10.317  16.943  69.069  1.00  0.00    -0.333 A  
HETATM    5  C   UNL     1      -9.832  15.915  68.236  1.00  0.00    -0.217 A  
HETATM    6  C   UNL     1      -8.868  16.249  67.271  1.00  0.00    -0.204 A  
HETATM    7  N   UNL     1     -10.299  14.595  68.425  1.00  0.00    -0.231 NA 
HETATM    8  H   UNL     1     -13.485  13.726  72.371  1.00  0.00     0.000 HD 
HETATM    9  C   UNL     1     -11.096  14.330  69.529  1.00  0.00    -0.204 A  
HETATM   10  C   UNL     1      -8.519  17.583  66.998  1.00  0.00    -0.252 A  
HETATM   11  C   UNL     1      -7.466  17.870  65.963  1.00  0.00    -0.279 C  
HETATM   12  O   UNL     1     -12.007  15.785  72.773  1.00  0.00    -0.415 OA 
HETATM   13  N   UNL     1     -11.640  13.166  69.753  1.00  0.00    -0.463 N  
HETATM   14  H   UNL     1     -11.510  12.429  69.061  1.00  0.00     0.000 HD 
HETATM   15  C   UNL     1     -11.374  15.445  70.498  1.00  0.00    -0.326 A  
HETATM   16  C   UNL     1     -12.371  12.890  70.863  1.00  0.00    -0.275 C  
HETATM   17  C   UNL     1     -12.082  15.100  71.767  1.00  0.00    -0.370 C  
HETATM   18  N   UNL     1     -11.075  16.684  70.231  1.00  0.00    -0.187 NA 
HETATM   19  N   UNL     1     -12.713  13.891  71.724  1.00  0.00    -0.324 N  
HETATM   20  O   UNL     1     -12.698  11.741  71.149  1.00  0.00    -0.378 OA 
ENDROOT
BRANCH   7  21
HETATM   21  C   UNL     1     -10.471  13.760  67.221  1.00  0.00    -0.264 C  
BRANCH  21  22
HETATM   22  C   UNL     1     -11.674  14.219  66.371  1.00  0.00    -0.391 C  
HETATM   23  O   UNL     1     -12.659  14.765  67.250  1.00  0.00    -0.379 OA 
HETATM   24  H   UNL     1     -13.401  15.047  66.726  1.00  0.00     0.000 HD 
BRANCH  22  25
HETATM   25  C   UNL     1     -12.197  13.019  65.561  1.00  0.00    -0.469 C  
HETATM   26  H   UNL     1     -12.344  11.108  65.874  1.00  0.00     0.000 HD 
HETATM   27  O   UNL     1     -12.021  11.849  66.374  1.00  0.00    -0.572 OA 
BRANCH  25  28
HETATM   28  C   UNL     1     -11.507  12.807  64.192  1.00  0.00    -0.393 C  
HETATM   29  H   UNL     1     -11.996  12.907  62.276  1.00  0.00     0.000 HD 
HETATM   30  O   UNL     1     -12.420  13.037  63.116  1.00  0.00    -0.660 OA 
BRANCH  28  31
HETATM   31  C   UNL     1     -10.917  11.388  64.066  1.00  0.00    -0.355 C  
BRANCH  31  32
HETATM   32  O   UNL     1      -9.514  11.417  64.215  1.00  0.00    -0.210 OA 
BRANCH  32  33
HETATM   33  P   UNL     1      -8.834  10.461  65.307  1.00  0.00    -0.204 P  
HETATM   34  O   UNL     1      -9.996   9.413  65.615  1.00  0.00    -0.304 OA 
HETATM   35  O   UNL     1      -8.417  11.143  66.580  1.00  0.00    -0.155 OA 
BRANCH  33  36
HETATM   36  O   UNL     1      -7.592   9.777  64.570  1.00  0.00    -0.122 OA 
BRANCH  36  37
HETATM   37  P   UNL     1      -6.985   8.213  64.994  1.00  0.00    -0.073 P  
HETATM   38  O   UNL     1      -7.295   8.496  66.571  1.00  0.00    -0.082 OA 
HETATM   39  O   UNL     1      -8.166   7.535  64.311  1.00  0.00    -0.103 OA 
BRANCH  37  40
HETATM   40  O   UNL     1      -6.379   6.649  65.418  1.00  0.00    -0.040 OA 
BRANCH  40  41
HETATM   41  C   UNL     1      -7.180   5.562  64.956  1.00  0.00    -0.066 C  
BRANCH  41  42
HETATM   42  C   UNL     1      -7.610   4.679  66.134  1.00  0.00    -0.090 C  
HETATM   43  O   UNL     1      -7.674   5.497  67.309  1.00  0.00    -0.098 OA 
HETATM   44  C   UNL     1      -8.786   5.062  68.103  1.00  0.00    -0.102 C  
HETATM   45  C   UNL     1      -9.668   4.114  67.295  1.00  0.00    -0.170 C  
HETATM   46  H   UNL     1      -9.668   2.257  65.378  1.00  0.00     0.000 HD 
HETATM   47  C   UNL     1      -8.973   4.019  65.940  1.00  0.00    -0.128 C  
HETATM   48  O   UNL     1      -8.820   2.669  65.498  1.00  0.00    -0.123 OA 
HETATM   49  O   UNL     1      -9.768   2.811  67.900  1.00  0.00    -0.291 OA 
HETATM   50  H   UNL     1     -10.317   2.221  67.398  1.00  0.00     0.000 HD 
BRANCH  44  51
HETATM   51  N   UNL     1      -9.480   6.229  68.610  1.00  0.00    -0.122 NA 
HETATM   52  C   UNL     1     -10.683   6.732  68.196  1.00  0.00    -0.236 A  
HETATM   53  C   UNL     1      -9.639   8.325  69.170  1.00  0.00    -0.160 A  
HETATM   54  N   UNL     1     -10.802   8.011  68.493  1.00  0.00     0.005 NA 
HETATM   55  C   UNL     1      -8.866   7.192  69.363  1.00  0.00    -0.136 A  
HETATM   56  N   UNL     1      -7.696   7.091  70.016  1.00  0.00    -0.102 NA 
HETATM   57  C   UNL     1      -7.310   8.300  70.474  1.00  0.00    -0.056 A  
HETATM   58  N   UNL     1      -7.916   9.495  70.300  1.00  0.00    -0.162 NA 
HETATM   59  C   UNL     1      -9.086   9.534  69.618  1.00  0.00    -0.196 A  
HETATM   60  N   UNL     1      -9.643  10.771  69.344  1.00  0.00    -0.410 NA 
HETATM   61  H2  UNL     1     -10.612  10.744  69.661  1.00  0.00     0.000 HD 
HETATM   62  H1  UNL     1      -9.241  11.650  69.670  1.00  0.00     0.000 HD 
ENDBRANCH  44  51
ENDBRANCH  41  42
ENDBRANCH  40  41
ENDBRANCH  37  40
ENDBRANCH  36  37
ENDBRANCH  33  36
ENDBRANCH  32  33
ENDBRANCH  31  32
ENDBRANCH  28  31
ENDBRANCH  25  28
ENDBRANCH  22  25
ENDBRANCH  21  22
ENDBRANCH   7  21
TORSDOF 13
ENDMDL
MODEL        9
REMARK 921   NORMALIZED FREE ENERGY PREDICTED BY IDOCK:   -7.14 KCAL/MOL
REMARK 922        TOTAL FREE ENERGY PREDICTED BY IDOCK:  -15.67 KCAL/MOL
REMARK 923 INTER-LIGAND FREE ENERGY PREDICTED BY IDOCK:  -13.29 KCAL/MOL
REMARK 924 INTRA-LIGAND FREE ENERGY PREDICTED BY IDOCK:   -2.38 KCAL/MOL
REMARK 927      BINDING AFFINITY PREDICTED BY RF-SCORE:    0.00 PKD
ROOT
HETATM    1  C   UNL     1     -12.516   6.872  71.608  1.00  0.00    -0.418 C  
HETATM    2  C   UNL     1     -11.310   6.895  70.711  1.00  0.00    -0.355 A  
HETATM    3  C   UNL     1     -11.159   5.883  69.750  1.00  0.00    -0.422 A  
HETATM    4  C   UNL     1     -10.141   5.930  68.792  1.00  0.00    -0.172 A  
HETATM    5  C   UNL     1      -9.306   7.062  68.719  1.00  0.00    -0.134 A  
HETATM    6  C   UNL     1      -9.375   8.001  69.762  1.00  0.00    -0.159 A  
HETATM    7  N   UNL     1      -8.413   7.192  67.633  1.00  0.00    -0.120 NA 
HETATM    8  H   UNL     1      -8.150   3.305  64.272  1.00  0.00     0.000 HD 
HETATM    9  C   UNL     1      -8.273   6.121  66.762  1.00  0.00    -0.109 A  
HETATM   10  C   UNL     1     -10.364   7.933  70.758  1.00  0.00    -0.211 A  
HETATM   11  C   UNL     1     -10.372   8.961  71.856  1.00  0.00    -0.407 C  
HETATM   12  O   UNL     1      -8.962   2.521  66.576  1.00  0.00    -0.129 OA 
HETATM   13  N   UNL     1      -7.535   6.166  65.688  1.00  0.00    -0.080 N  
HETATM   14  H   UNL     1      -7.073   7.044  65.453  1.00  0.00     0.000 HD 
HETATM   15  C   UNL     1      -9.036   4.858  67.051  1.00  0.00    -0.109 A  
HETATM   16  C   UNL     1      -7.353   5.100  64.868  1.00  0.00    -0.067 C  
HETATM   17  C   UNL     1      -8.738   3.662  66.207  1.00  0.00    -0.120 C  
HETATM   18  N   UNL     1      -9.971   4.806  67.955  1.00  0.00    -0.124 NA 
HETATM   19  N   UNL     1      -8.086   3.965  65.048  1.00  0.00    -0.093 N  
HETATM   20  O   UNL     1      -6.499   5.106  63.984  1.00  0.00    -0.032 OA 
ENDROOT
BRANCH   7  21
HETATM   21  C   UNL     1      -8.173   8.552  67.113  1.00  0.00    -0.108 C  
BRANCH  21  22
HETATM   22  C   UNL     1      -9.310   9.018  66.179  1.00  0.00    -0.232 C  
HETATM   23  O   UNL     1     -10.279   7.972  66.099  1.00  0.00    -0.454 OA 
HETATM   24  H   UNL     1     -10.979   8.259  65.524  1.00  0.00     0.000 HD 
BRANCH  22  25
HETATM   25  C   UNL     1      -8.710   9.382  64.809  1.00  0.00    -0.197 C  
HETATM   26  H   UNL     1      -6.934   9.322  64.027  1.00  0.00     0.000 HD 
HETATM   27  O   UNL     1      -7.304   9.097  64.872  1.00  0.00    -0.097 OA 
BRANCH  25  28
HETATM   28  C   UNL     1      -8.921  10.853  64.376  1.00  0.00    -0.108 C  
HETATM   29  H   UNL     1      -9.279  12.596  65.243  1.00  0.00     0.000 HD 
HETATM   30  O   UNL     1      -9.150  11.693  65.510  1.00  0.00    -0.161 OA 
BRANCH  28  31
HETATM   31  C   UNL     1     -10.097  10.993  63.389  1.00  0.00    -0.370 C  
BRANCH  31  32
HETATM   32  O   UNL     1     -10.659  12.285  63.464  1.00  0.00    -0.436 OA 
BRANCH  32  33
HETATM   33  P   UNL     1     -12.216  12.430  63.819  1.00  0.00    -0.536 P  
HETATM   34  O   UNL     1     -12.315  11.692  65.229  1.00  0.00    -0.061 OA 
HETATM   35  O   UNL     1     -13.155  11.781  62.840  1.00  0.00    -0.387 OA 
BRANCH  33  36
HETATM   36  O   UNL     1     -12.487  14.000  63.944  1.00  0.00    -0.696 OA 
BRANCH  36  37
HETATM   37  P   UNL     1     -11.483  15.062  64.870  1.00  0.00    -0.307 P  
HETATM   38  O   UNL     1     -11.913  16.324  63.929  1.00  0.00    -1.003 OA 
HETATM   39  O   UNL     1     -12.406  14.932  66.076  1.00  0.00    -0.040 OA 
BRANCH  37  40
HETATM   40  O   UNL     1     -10.481  16.125  65.797  1.00  0.00    -0.341 OA 
BRANCH  40  41
HETATM   41  C   UNL     1      -9.093  15.798  65.769  1.00  0.00    -0.152 C  
BRANCH  41  42
HETATM   42  C   UNL     1      -8.492  15.904  67.177  1.00  0.00    -0.199 C  
HETATM   43  O   UNL     1      -9.543  16.246  68.089  1.00  0.00    -0.214 OA 
HETATM   44  C   UNL     1      -9.316  15.551  69.322  1.00  0.00    -0.266 C  
HETATM   45  C   UNL     1      -8.240  14.484  69.133  1.00  0.00    -0.017 C  
HETATM   46  H   UNL     1      -6.018  13.861  67.792  1.00  0.00     0.000 HD 
HETATM   47  C   UNL     1      -7.841  14.613  67.665  1.00  0.00    -0.181 C  
HETATM   48  O   UNL     1      -6.424  14.665  67.488  1.00  0.00    -0.258 OA 
HETATM   49  O   UNL     1      -7.099  14.701  69.983  1.00  0.00    -0.344 OA 
HETATM   50  H   UNL     1      -6.430  14.038  69.866  1.00  0.00     0.000 HD 
BRANCH  44  51
HETATM   51  N   UNL     1     -10.582  15.035  69.805  1.00  0.00    -0.239 NA 
HETATM   52  C   UNL     1     -11.292  15.453  70.899  1.00  0.00    -0.359 A  
HETATM   53  C   UNL     1     -11.940  13.464  70.450  1.00  0.00    -0.285 A  
HETATM   54  N   UNL     1     -12.105  14.513  71.336  1.00  0.00    -0.354 NA 
HETATM   55  C   UNL     1     -11.091  13.827  69.418  1.00  0.00    -0.156 A  
HETATM   56  N   UNL     1     -10.728  13.096  68.350  1.00  0.00    -0.247 NA 
HETATM   57  C   UNL     1     -11.296  11.874  68.405  1.00  0.00    -0.276 A  
HETATM   58  N   UNL     1     -12.079  11.356  69.377  1.00  0.00    -0.312 NA 
HETATM   59  C   UNL     1     -12.396  12.138  70.437  1.00  0.00    -0.233 A  
HETATM   60  N   UNL     1     -13.102  11.568  71.483  1.00  0.00    -0.398 NA 
HETATM   61  H2  UNL     1     -13.908  12.164  71.666  1.00  0.00     0.000 HD 
HETATM   62  H1  UNL     1     -13.433  10.603  71.474  1.00  0.00     0.000 HD 
ENDBRANCH  44  51
ENDBRANCH  41  42
ENDBRANCH  40  41
ENDBRANCH  37  40
ENDBRANCH  36  37
ENDBRANCH  33  36
ENDBRANCH  32  33
ENDBRANCH  31  32
ENDBRANCH  28  31
ENDBRANCH  25  28
ENDBRANCH  22  25
ENDBRANCH  21  22
ENDBRANCH   7  21
TORSDOF 13
ENDMDL
MODEL       10
REMARK 921   NORMALIZED FREE ENERGY PREDICTED BY IDOCK:   -7.14 KCAL/MOL
REMARK 922        TOTAL FREE ENERGY PREDICTED BY IDOCK:  -15.67 KCAL/MOL
REMARK 923 INTER-LIGAND FREE ENERGY PREDICTED BY IDOCK:  -12.43 KCAL/MOL
REMARK 924 INTRA-LIGAND FREE ENERGY PREDICTED BY IDOCK:   -3.24 KCAL/MOL
REMARK 927      BINDING AFFINITY PREDICTED BY RF-SCORE:    0.00 PKD
ROOT
HETATM    1  C   UNL     1      -5.548  17.910  67.658  1.00  0.00    -0.145 C  
HETATM    2  C   UNL     1      -6.763  17.026  67.700  1.00  0.00    -0.162 A  
HETATM    3  C   UNL     1      -7.606  16.975  66.578  1.00  0.00    -0.326 A  
HETATM    4  C   UNL     1      -8.665  16.065  66.500  1.00  0.00    -0.303 A  
HETATM    5  C   UNL     1      -8.837  15.107  67.518  1.00  0.00    -0.182 A  
HETATM    6  C   UNL     1      -8.079  15.250  68.692  1.00  0.00    -0.156 A  
HETATM    7  N   UNL     1      -9.780  14.071  67.340  1.00  0.00    -0.229 NA 
HETATM    8  H   UNL     1     -12.674  14.177  63.086  1.00  0.00     0.000 HD 
HETATM    9  C   UNL     1     -10.621  14.128  66.237  1.00  0.00    -0.284 A  
HETATM   10  C   UNL     1      -7.045  16.196  68.799  1.00  0.00    -0.155 A  
HETATM   11  C   UNL     1      -6.283  16.309  70.091  1.00  0.00    -0.034 C  
HETATM   12  O   UNL     1     -11.831  16.514  63.725  1.00  0.00    -1.011 OA 
HETATM   13  N   UNL     1     -11.472  13.187  65.940  1.00  0.00    -0.322 N  
HETATM   14  H   UNL     1     -11.491  12.348  66.520  1.00  0.00     0.000 HD 
HETATM   15  C   UNL     1     -10.524  15.316  65.322  1.00  0.00    -0.411 A  
HETATM   16  C   UNL     1     -12.335  13.268  64.896  1.00  0.00    -0.425 C  
HETATM   17  C   UNL     1     -11.552  15.447  64.246  1.00  0.00    -0.191 C  
HETATM   18  N   UNL     1      -9.550  16.176  65.405  1.00  0.00    -0.392 NA 
HETATM   19  N   UNL     1     -12.226  14.288  63.996  1.00  0.00    -0.405 N  
HETATM   20  O   UNL     1     -13.259  12.469  64.758  1.00  0.00    -0.839 OA 
ENDROOT
BRANCH   7  21
HETATM   21  C   UNL     1      -9.444  12.747  67.896  1.00  0.00    -0.208 C  
BRANCH  21  22
HETATM   22  C   UNL     1     -10.616  12.147  68.700  1.00  0.00    -0.223 C  
HETATM   23  O   UNL     1     -11.148  13.170  69.544  1.00  0.00    -0.439 OA 
HETATM   24  H   UNL     1     -11.870  12.801  70.040  1.00  0.00     0.000 HD 
BRANCH  22  25
HETATM   25  C   UNL     1     -10.106  10.928  69.490  1.00  0.00    -0.020 C  
HETATM   26  H   UNL     1      -9.006   9.383  69.072  1.00  0.00     0.000 HD 
HETATM   27  O   UNL     1      -9.321  10.135  68.585  1.00  0.00    -0.149 OA 
BRANCH  25  28
HETATM   28  C   UNL     1     -11.214  10.050  70.120  1.00  0.00    -0.304 C  
HETATM   29  H   UNL     1     -12.690  10.268  71.420  1.00  0.00     0.000 HD 
HETATM   30  O   UNL     1     -12.010  10.807  71.034  1.00  0.00    -0.334 OA 
BRANCH  28  31
HETATM   31  C   UNL     1     -10.624   8.826  70.848  1.00  0.00    -0.220 C  
BRANCH  31  32
HETATM   32  O   UNL     1     -11.540   8.321  71.795  1.00  0.00    -0.267 OA 
BRANCH  32  33
HETATM   33  P   UNL     1     -12.239   6.905  71.513  1.00  0.00    -0.361 P  
HETATM   34  O   UNL     1     -11.938   6.678  69.964  1.00  0.00    -0.340 OA 
HETATM   35  O   UNL     1     -13.724   6.870  71.751  1.00  0.00    -0.303 OA 
BRANCH  33  36
HETATM   36  O   UNL     1     -11.469   5.851  72.434  1.00  0.00    -0.292 OA 
BRANCH  36  37
HETATM   37  P   UNL     1     -10.064   4.987  71.911  1.00  0.00    -0.199 P  
HETATM   38  O   UNL     1      -9.099   6.190  72.444  1.00  0.00    -0.137 OA 
HETATM   39  O   UNL     1     -10.276   3.930  72.988  1.00  0.00    -0.146 OA 
BRANCH  37  40
HETATM   40  O   UNL     1      -8.660   4.122  71.390  1.00  0.00    -0.097 OA 
BRANCH  40  41
HETATM   41  C   UNL     1      -7.967   4.728  70.299  1.00  0.00    -0.068 C  
BRANCH  41  42
HETATM   42  C   UNL     1      -8.930   4.986  69.134  1.00  0.00    -0.100 C  
HETATM   43  O   UNL     1      -8.746   6.334  68.687  1.00  0.00    -0.120 OA 
HETATM   44  C   UNL     1      -8.879   6.362  67.260  1.00  0.00    -0.108 C  
HETATM   45  C   UNL     1      -8.864   4.940  66.705  1.00  0.00    -0.110 C  
HETATM   46  H   UNL     1      -9.521   2.405  67.219  1.00  0.00     0.000 HD 
HETATM   47  C   UNL     1      -8.714   4.058  67.941  1.00  0.00    -0.101 C  
HETATM   48  O   UNL     1      -9.655   2.983  67.962  1.00  0.00    -0.191 OA 
HETATM   49  O   UNL     1     -10.076   4.615  66.001  1.00  0.00    -0.218 OA 
HETATM   50  H   UNL     1     -10.067   3.730  65.655  1.00  0.00     0.000 HD 
BRANCH  44  51
HETATM   51  N   UNL     1      -7.848   7.222  66.714  1.00  0.00    -0.111 NA 
HETATM   52  C   UNL     1      -6.534   7.294  67.088  1.00  0.00    -0.059 A  
HETATM   53  C   UNL     1      -7.010   9.136  66.110  1.00  0.00    -0.086 A  
HETATM   54  N   UNL     1      -6.000   8.455  66.764  1.00  0.00    -0.051 NA 
HETATM   55  C   UNL     1      -8.124   8.328  65.958  1.00  0.00    -0.110 A  
HETATM   56  N   UNL     1      -9.279   8.621  65.337  1.00  0.00    -0.104 NA 
HETATM   57  C   UNL     1      -9.250   9.885  64.867  1.00  0.00    -0.246 A  
HETATM   58  N   UNL     1      -8.272  10.807  65.002  1.00  0.00    -0.071 NA 
HETATM   59  C   UNL     1      -7.137  10.456  65.654  1.00  0.00    -0.142 A  
HETATM   60  N   UNL     1      -6.188  11.436  65.890  1.00  0.00    -0.419 NA 
HETATM   61  H2  UNL     1      -5.294  11.081  65.549  1.00  0.00     0.000 HD 
HETATM   62  H1  UNL     1      -6.280  12.396  65.558  1.00  0.00     0.000 HD 
ENDBRANCH  44  51
ENDBRANCH  41  42
ENDBRANCH  40  41
ENDBRANCH  37  40
ENDBRANCH  36  37
ENDBRANCH  33  36
ENDBRANCH  32  33
ENDBRANCH  31  32
ENDBRANCH  28  31
ENDBRANCH  25  28
ENDBRANCH  22  25
ENDBRANCH  21  22
ENDBRANCH   7  21
TORSDOF 13
ENDMDL
MODEL       11
REMARK 921   NORMALIZED FREE ENERGY PREDICTED BY IDOCK:   -7.13 KCAL/MOL
REMARK 922        TOTAL FREE ENERGY PREDICTED BY IDOCK:  -15.65 KCAL/MOL
REMARK 923 INTER-LIGAND FREE ENERGY PREDICTED BY IDOCK:  -12.89 KCAL/MOL
REMARK 924 INTRA-LIGAND FREE ENERGY PREDICTED BY IDOCK:   -2.76 KCAL/MOL
REMARK 927      BINDING AFFINITY PREDICTED BY RF-SCORE:    0.00 PKD
ROOT
HETATM    1  C   UNL     1      -5.992   8.307  64.902  1.00  0.00    -0.045 C  
HETATM    2  C   UNL     1      -7.230   8.047  65.714  1.00  0.00    -0.071 A  
HETATM    3  C   UNL     1      -7.135   7.236  66.856  1.00  0.00    -0.086 A  
HETATM    4  C   UNL     1      -8.214   7.076  67.732  1.00  0.00    -0.114 A  
HETATM    5  C   UNL     1      -9.392   7.821  67.527  1.00  0.00    -0.139 A  
HETATM    6  C   UNL     1      -9.528   8.521  66.317  1.00  0.00    -0.299 A  
HETATM    7  N   UNL     1     -10.400   7.806  68.517  1.00  0.00    -0.201 NA 
HETATM    8  H   UNL     1      -9.701   4.745  72.594  1.00  0.00     0.000 HD 
HETATM    9  C   UNL     1     -10.263   6.929  69.583  1.00  0.00    -0.193 A  
HETATM   10  C   UNL     1      -8.464   8.645  65.407  1.00  0.00    -0.189 A  
HETATM   11  C   UNL     1      -8.680   9.394  64.121  1.00  0.00    -0.224 C  
HETATM   12  O   UNL     1      -8.396   3.919  70.546  1.00  0.00    -0.060 OA 
HETATM   13  N   UNL     1     -11.094   6.890  70.587  1.00  0.00    -0.263 N  
HETATM   14  H   UNL     1     -11.857   7.566  70.611  1.00  0.00     0.000 HD 
HETATM   15  C   UNL     1      -9.081   6.000  69.601  1.00  0.00    -0.135 A  
HETATM   16  C   UNL     1     -10.994   5.993  71.600  1.00  0.00    -0.272 C  
HETATM   17  C   UNL     1      -9.044   4.946  70.658  1.00  0.00    -0.128 C  
HETATM   18  N   UNL     1      -8.084   6.134  68.774  1.00  0.00    -0.104 NA 
HETATM   19  N   UNL     1      -9.896   5.189  71.696  1.00  0.00    -0.167 N  
HETATM   20  O   UNL     1     -11.896   5.843  72.420  1.00  0.00    -0.311 OA 
ENDROOT
BRANCH   7  21
HETATM   21  C   UNL     1     -11.157   9.054  68.731  1.00  0.00     0.183 C  
BRANCH  21  22
HETATM   22  C   UNL     1     -10.226  10.281  68.823  1.00  0.00    -0.192 C  
HETATM   23  O   UNL     1      -9.345  10.091  69.932  1.00  0.00    -0.277 OA 
HETATM   24  H   UNL     1      -8.771  10.847  69.989  1.00  0.00     0.000 HD 
BRANCH  22  25
HETATM   25  C   UNL     1     -11.087  11.550  68.957  1.00  0.00    -0.245 C  
HETATM   26  H   UNL     1     -12.978  11.906  69.217  1.00  0.00     0.000 HD 
HETATM   27  O   UNL     1     -12.447  11.123  69.135  1.00  0.00    -0.418 OA 
BRANCH  25  28
HETATM   28  C   UNL     1     -11.004  12.524  67.757  1.00  0.00    -0.234 C  
HETATM   29  H   UNL     1     -11.783  14.266  67.230  1.00  0.00     0.000 HD 
HETATM   30  O   UNL     1     -11.835  13.668  67.967  1.00  0.00    -0.335 OA 
BRANCH  28  31
HETATM   31  C   UNL     1     -11.404  11.837  66.437  1.00  0.00    -0.297 C  
BRANCH  31  32
HETATM   32  O   UNL     1     -12.355  12.612  65.740  1.00  0.00    -0.594 OA 
BRANCH  32  33
HETATM   33  P   UNL     1     -12.087  12.958  64.197  1.00  0.00    -0.463 P  
HETATM   34  O   UNL     1     -13.266  12.176  63.462  1.00  0.00    -0.744 OA 
HETATM   35  O   UNL     1     -10.761  12.494  63.661  1.00  0.00    -0.430 OA 
BRANCH  33  36
HETATM   36  O   UNL     1     -12.251  14.542  64.074  1.00  0.00    -0.569 OA 
BRANCH  36  37
HETATM   37  P   UNL     1     -11.359  15.664  65.043  1.00  0.00    -0.108 P  
HETATM   38  O   UNL     1     -10.007  14.766  64.878  1.00  0.00    -0.295 OA 
HETATM   39  O   UNL     1     -11.453  16.727  63.955  1.00  0.00    -1.198 OA 
BRANCH  37  40
HETATM   40  O   UNL     1     -10.467  16.786  66.011  1.00  0.00    -0.331 OA 
BRANCH  40  41
HETATM   41  C   UNL     1     -10.974  16.957  67.334  1.00  0.00    -0.073 C  
BRANCH  41  42
HETATM   42  C   UNL     1      -9.844  17.358  68.290  1.00  0.00    -0.310 C  
HETATM   43  O   UNL     1      -9.396  16.183  68.976  1.00  0.00    -0.225 OA 
HETATM   44  C   UNL     1      -7.974  16.267  69.140  1.00  0.00    -0.221 C  
HETATM   45  C   UNL     1      -7.414  17.398  68.281  1.00  0.00    -0.227 C  
HETATM   46  H   UNL     1      -7.942  19.801  67.247  1.00  0.00     0.000 HD 
HETATM   47  C   UNL     1      -8.641  17.985  67.590  1.00  0.00    -0.247 C  
HETATM   48  O   UNL     1      -8.691  19.410  67.683  1.00  0.00    -0.296 OA 
HETATM   49  O   UNL     1      -6.751  18.406  69.067  1.00  0.00    -0.256 OA 
HETATM   50  H   UNL     1      -6.402  19.109  68.532  1.00  0.00     0.000 HD 
BRANCH  44  51
HETATM   51  N   UNL     1      -7.395  14.968  68.861  1.00  0.00    -0.128 NA 
HETATM   52  C   UNL     1      -7.790  14.064  67.913  1.00  0.00    -0.160 A  
HETATM   53  C   UNL     1      -6.690  12.981  69.395  1.00  0.00    -0.018 A  
HETATM   54  N   UNL     1      -7.405  12.841  68.220  1.00  0.00    -0.108 NA 
HETATM   55  C   UNL     1      -6.567  14.318  69.734  1.00  0.00    -0.125 A  
HETATM   56  N   UNL     1      -5.906  14.850  70.776  1.00  0.00    -0.131 NA 
HETATM   57  C   UNL     1      -5.358  13.874  71.529  1.00  0.00    -0.210 A  
HETATM   58  N   UNL     1      -5.455  12.536  71.367  1.00  0.00    -0.379 NA 
HETATM   59  C   UNL     1      -6.150  12.061  70.305  1.00  0.00    -0.091 A  
HETATM   60  N   UNL     1      -6.343  10.694  70.207  1.00  0.00    -0.138 NA 
HETATM   61  H2  UNL     1      -6.043  10.411  69.274  1.00  0.00     0.000 HD 
HETATM   62  H1  UNL     1      -5.950  10.025  70.869  1.00  0.00     0.000 HD 
ENDBRANCH  44  51
ENDBRANCH  41  42
ENDBRANCH  40  41
ENDBRANCH  37  40
ENDBRANCH  36  37
ENDBRANCH  33  36
ENDBRANCH  32  33
ENDBRANCH  31  32
ENDBRANCH  28  31
ENDBRANCH  25  28
ENDBRANCH  22  25
ENDBRANCH  21  22
ENDBRANCH   7  21
TORSDOF 13
ENDMDL
MODEL       12
REMARK 921   NORMALIZED FREE ENERGY PREDICTED BY IDOCK:   -6.94 KCAL/MOL
REMARK 922        TOTAL FREE ENERGY PREDICTED BY IDOCK:  -15.32 KCAL/MOL
REMARK 923 INTER-LIGAND FREE ENERGY PREDICTED BY IDOCK:  -13.73 KCAL/MOL
REMARK 924 INTRA-LIGAND FREE ENERGY PREDICTED BY IDOCK:   -1.58 KCAL/MOL
REMARK 927      BINDING AFFINITY PREDICTED BY RF-SCORE:    0.00 PKD
ROOT
HETATM    1  C   UNL     1      -8.482  20.177  66.904  1.00  0.00    -0.376 C  
HETATM    2  C   UNL     1      -8.687  18.759  67.361  1.00  0.00    -0.289 A  
HETATM    3  C   UNL     1      -9.608  18.504  68.389  1.00  0.00    -0.383 A  
HETATM    4  C   UNL     1      -9.950  17.199  68.757  1.00  0.00    -0.315 A  
HETATM    5  C   UNL     1      -9.443  16.112  68.018  1.00  0.00    -0.211 A  
HETATM    6  C   UNL     1      -8.425  16.367  67.085  1.00  0.00    -0.208 A  
HETATM    7  N   UNL     1      -9.944  14.815  68.266  1.00  0.00    -0.217 NA 
HETATM    8  H   UNL     1     -13.341  14.253  72.089  1.00  0.00     0.000 HD 
HETATM    9  C   UNL     1     -10.800  14.634  69.342  1.00  0.00    -0.243 A  
HETATM   10  C   UNL     1      -8.038  17.675  66.745  1.00  0.00    -0.264 A  
HETATM   11  C   UNL     1      -6.929  17.879  65.750  1.00  0.00    -0.234 C  
HETATM   12  O   UNL     1     -11.848  16.310  72.435  1.00  0.00    -0.509 OA 
HETATM   13  N   UNL     1     -11.377  13.496  69.612  1.00  0.00    -0.449 N  
HETATM   14  H   UNL     1     -11.225  12.712  68.977  1.00  0.00     0.000 HD 
HETATM   15  C   UNL     1     -11.107  15.813  70.222  1.00  0.00    -0.361 A  
HETATM   16  C   UNL     1     -12.168  13.303  70.698  1.00  0.00    -0.338 C  
HETATM   17  C   UNL     1     -11.884  15.562  71.472  1.00  0.00    -0.406 C  
HETATM   18  N   UNL     1     -10.771  17.028  69.892  1.00  0.00    -0.076 NA 
HETATM   19  N   UNL     1     -12.535  14.363  71.474  1.00  0.00    -0.340 N  
HETATM   20  O   UNL     1     -12.531  12.180  71.040  1.00  0.00    -0.370 OA 
ENDROOT
BRANCH   7  21
HETATM   21  C   UNL     1     -10.070  13.905  67.111  1.00  0.00    -0.252 C  
BRANCH  21  22
HETATM   22  C   UNL     1     -11.375  14.152  66.326  1.00  0.00    -0.338 C  
HETATM   23  O   UNL     1     -12.295  14.823  67.189  1.00  0.00    -0.468 OA 
HETATM   24  H   UNL     1     -13.099  14.975  66.706  1.00  0.00     0.000 HD 
BRANCH  22  25
HETATM   25  C   UNL     1     -11.912  12.803  65.817  1.00  0.00    -0.449 C  
HETATM   26  H   UNL     1     -12.353  11.100  66.640  1.00  0.00     0.000 HD 
HETATM   27  O   UNL     1     -12.022  11.933  66.955  1.00  0.00    -0.614 OA 
BRANCH  25  28
HETATM   28  C   UNL     1     -11.044  12.124  64.729  1.00  0.00    -0.316 C  
HETATM   29  H   UNL     1     -11.294  11.381  62.911  1.00  0.00     0.000 HD 
HETATM   30  O   UNL     1     -11.828  11.797  63.579  1.00  0.00    -0.465 OA 
BRANCH  28  31
HETATM   31  C   UNL     1     -10.359  10.850  65.261  1.00  0.00    -0.268 C  
BRANCH  31  32
HETATM   32  O   UNL     1      -8.955  10.983  65.216  1.00  0.00    -0.199 OA 
BRANCH  32  33
HETATM   33  P   UNL     1      -8.107  10.661  66.538  1.00  0.00    -0.150 P  
HETATM   34  O   UNL     1      -9.242  10.553  67.654  1.00  0.00    -0.144 OA 
HETATM   35  O   UNL     1      -7.112  11.718  66.929  1.00  0.00    -0.140 OA 
BRANCH  33  36
HETATM   36  O   UNL     1      -7.399   9.255  66.266  1.00  0.00    -0.090 OA 
BRANCH  36  37
HETATM   37  P   UNL     1      -7.332   7.987  67.441  1.00  0.00    -0.091 P  
HETATM   38  O   UNL     1      -7.102   9.075  68.635  1.00  0.00    -0.069 OA 
HETATM   39  O   UNL     1      -8.813   7.686  67.246  1.00  0.00    -0.119 OA 
BRANCH  37  40
HETATM   40  O   UNL     1      -7.267   6.719  68.617  1.00  0.00    -0.080 OA 
BRANCH  40  41
HETATM   41  C   UNL     1      -8.035   5.564  68.280  1.00  0.00    -0.096 C  
BRANCH  41  42
HETATM   42  C   UNL     1      -8.150   4.630  69.491  1.00  0.00    -0.065 C  
HETATM   43  O   UNL     1      -7.979   5.411  70.680  1.00  0.00    -0.100 OA 
HETATM   44  C   UNL     1      -8.862   4.901  71.688  1.00  0.00    -0.131 C  
HETATM   45  C   UNL     1      -9.865   3.933  71.065  1.00  0.00    -0.149 C  
HETATM   46  H   UNL     1     -10.223   2.131  69.129  1.00  0.00     0.000 HD 
HETATM   47  C   UNL     1      -9.492   3.909  69.586  1.00  0.00    -0.193 C  
HETATM   48  O   UNL     1      -9.388   2.580  69.070  1.00  0.00    -0.148 OA 
HETATM   49  O   UNL     1      -9.770   2.611  71.627  1.00  0.00    -0.143 OA 
HETATM   50  H   UNL     1     -10.394   2.009  71.240  1.00  0.00     0.000 HD 
BRANCH  44  51
HETATM   51  N   UNL     1      -9.470   6.019  72.382  1.00  0.00    -0.146 NA 
HETATM   52  C   UNL     1      -9.761   6.116  73.716  1.00  0.00    -0.176 A  
HETATM   53  C   UNL     1     -11.001   7.531  72.698  1.00  0.00    -0.336 A  
HETATM   54  N   UNL     1     -10.708   7.004  73.942  1.00  0.00    -0.224 NA 
HETATM   55  C   UNL     1     -10.145   7.018  71.738  1.00  0.00    -0.184 A  
HETATM   56  N   UNL     1     -10.091   7.324  70.430  1.00  0.00    -0.191 NA 
HETATM   57  C   UNL     1     -11.044   8.227  70.121  1.00  0.00    -0.189 A  
HETATM   58  N   UNL     1     -11.990   8.757  70.928  1.00  0.00    -0.249 NA 
HETATM   59  C   UNL     1     -12.003   8.396  72.234  1.00  0.00    -0.389 A  
HETATM   60  N   UNL     1     -13.041   8.851  73.029  1.00  0.00    -0.783 NA 
HETATM   61  H2  UNL     1     -12.624   9.283  73.854  1.00  0.00     0.000 HD 
HETATM   62  H1  UNL     1     -13.769   9.481  72.691  1.00  0.00     0.000 HD 
ENDBRANCH  44  51
ENDBRANCH  41  42
ENDBRANCH  40  41
ENDBRANCH  37  40
ENDBRANCH  36  37
ENDBRANCH  33  36
ENDBRANCH  32  33
ENDBRANCH  31  32
ENDBRANCH  28  31
ENDBRANCH  25  28
ENDBRANCH  22  25
ENDBRANCH  21  22
ENDBRANCH   7  21
TORSDOF 13
ENDMDL
MODEL       13
REMARK 921   NORMALIZED FREE ENERGY PREDICTED BY IDOCK:   -6.86 KCAL/MOL
REMARK 922        TOTAL FREE ENERGY PREDICTED BY IDOCK:  -15.17 KCAL/MOL
REMARK 923 INTER-LIGAND FREE ENERGY PREDICTED BY IDOCK:  -12.59 KCAL/MOL
REMARK 924 INTRA-LIGAND FREE ENERGY PREDICTED BY IDOCK:   -2.58 KCAL/MOL
REMARK 927      BINDING AFFINITY PREDICTED BY RF-SCORE:    0.00 PKD
ROOT
HETATM    1  C   UNL     1     -12.657  12.105  63.474  1.00  0.00    -0.621 C  
HETATM    2  C   UNL     1     -11.542  12.710  64.281  1.00  0.00    -0.435 A  
HETATM    3  C   UNL     1     -11.594  14.078  64.593  1.00  0.00    -0.400 A  
HETATM    4  C   UNL     1     -10.668  14.666  65.460  1.00  0.00    -0.349 A  
HETATM    5  C   UNL     1      -9.721  13.857  66.119  1.00  0.00    -0.272 A  
HETATM    6  C   UNL     1      -9.590  12.523  65.702  1.00  0.00    -0.099 A  
HETATM    7  N   UNL     1      -8.921  14.422  67.137  1.00  0.00    -0.220 NA 
HETATM    8  H   UNL     1      -9.402  19.465  68.039  1.00  0.00     0.000 HD 
HETATM    9  C   UNL     1      -8.982  15.793  67.340  1.00  0.00    -0.193 A  
HETATM   10  C   UNL     1     -10.486  11.937  64.792  1.00  0.00    -0.333 A  
HETATM   11  C   UNL     1     -10.279  10.506  64.374  1.00  0.00    -0.337 C  
HETATM   12  O   UNL     1     -10.085  18.855  65.643  1.00  0.00    -0.466 OA 
HETATM   13  N   UNL     1      -8.344  16.402  68.300  1.00  0.00    -0.183 N  
HETATM   14  H   UNL     1      -7.809  15.838  68.961  1.00  0.00     0.000 HD 
HETATM   15  C   UNL     1      -9.852  16.615  66.430  1.00  0.00    -0.292 A  
HETATM   16  C   UNL     1      -8.357  17.749  68.463  1.00  0.00    -0.297 C  
HETATM   17  C   UNL     1      -9.769  18.101  66.548  1.00  0.00    -0.344 C  
HETATM   18  N   UNL     1     -10.701  16.069  65.607  1.00  0.00    -0.347 NA 
HETATM   19  N   UNL     1      -9.194  18.521  67.712  1.00  0.00    -0.278 N  
HETATM   20  O   UNL     1      -7.592  18.312  69.242  1.00  0.00    -0.120 OA 
ENDROOT
BRANCH   7  21
HETATM   21  C   UNL     1      -8.578  13.560  68.284  1.00  0.00    -0.168 C  
BRANCH  21  22
HETATM   22  C   UNL     1      -7.068  13.248  68.337  1.00  0.00    -0.107 C  
HETATM   23  O   UNL     1      -6.481  13.670  67.104  1.00  0.00    -0.445 OA 
HETATM   24  H   UNL     1      -5.551  13.477  67.136  1.00  0.00     0.000 HD 
BRANCH  22  25
HETATM   25  C   UNL     1      -6.879  11.743  68.602  1.00  0.00    -0.081 C  
HETATM   26  H   UNL     1      -7.939  10.148  68.280  1.00  0.00     0.000 HD 
HETATM   27  O   UNL     1      -8.055  11.076  68.116  1.00  0.00    -0.112 OA 
BRANCH  25  28
HETATM   28  C   UNL     1      -6.648  11.367  70.086  1.00  0.00     0.050 C  
HETATM   29  H   UNL     1      -5.546  12.006  71.601  1.00  0.00     0.000 HD 
HETATM   30  O   UNL     1      -5.688  12.237  70.691  1.00  0.00    -0.168 OA 
BRANCH  28  31
HETATM   31  C   UNL     1      -6.180   9.906  70.236  1.00  0.00    -0.082 C  
BRANCH  31  32
HETATM   32  O   UNL     1      -7.199   9.113  70.805  1.00  0.00    -0.085 OA 
BRANCH  32  33
HETATM   33  P   UNL     1      -7.019   8.589  72.310  1.00  0.00     0.022 P  
HETATM   34  O   UNL     1      -8.488   8.758  72.908  1.00  0.00    -0.409 OA 
HETATM   35  O   UNL     1      -6.040   9.368  73.143  1.00  0.00    -0.306 OA 
BRANCH  33  36
HETATM   36  O   UNL     1      -6.597   7.053  72.185  1.00  0.00    -0.055 OA 
BRANCH  36  37
HETATM   37  P   UNL     1      -7.008   6.066  70.825  1.00  0.00    -0.070 P  
HETATM   38  O   UNL     1      -5.482   6.175  70.258  1.00  0.00    -0.013 OA 
HETATM   39  O   UNL     1      -7.178   4.846  71.722  1.00  0.00    -0.062 OA 
BRANCH  37  40
HETATM   40  O   UNL     1      -7.418   5.078  69.466  1.00  0.00    -0.056 OA 
BRANCH  40  41
HETATM   41  C   UNL     1      -8.564   4.251  69.663  1.00  0.00    -0.072 C  
BRANCH  41  42
HETATM   42  C   UNL     1      -9.775   4.836  68.926  1.00  0.00    -0.174 C  
HETATM   43  O   UNL     1     -10.668   5.394  69.898  1.00  0.00    -0.316 OA 
HETATM   44  C   UNL     1     -11.243   6.588  69.352  1.00  0.00    -0.356 C  
HETATM   45  C   UNL     1     -10.494   7.001  68.088  1.00  0.00    -0.201 C  
HETATM   46  H   UNL     1      -9.137   6.090  65.978  1.00  0.00     0.000 HD 
HETATM   47  C   UNL     1      -9.415   5.933  67.927  1.00  0.00    -0.110 C  
HETATM   48  O   UNL     1      -9.361   5.407  66.600  1.00  0.00    -0.130 OA 
HETATM   49  O   UNL     1     -11.348   7.028  66.930  1.00  0.00    -0.599 OA 
HETATM   50  H   UNL     1     -10.882   7.285  66.143  1.00  0.00     0.000 HD 
BRANCH  44  51
HETATM   51  N   UNL     1     -11.269   7.606  70.384  1.00  0.00    -0.264 NA 
HETATM   52  C   UNL     1     -11.485   7.431  71.724  1.00  0.00    -0.265 A  
HETATM   53  C   UNL     1     -11.932   9.475  71.276  1.00  0.00    -0.365 A  
HETATM   54  N   UNL     1     -11.917   8.539  72.293  1.00  0.00    -0.380 NA 
HETATM   55  C   UNL     1     -11.407   8.939  70.112  1.00  0.00    -0.106 A  
HETATM   56  N   UNL     1     -11.214   9.552  68.932  1.00  0.00    -0.003 NA 
HETATM   57  C   UNL     1     -11.643  10.830  68.994  1.00  0.00    -0.299 A  
HETATM   58  N   UNL     1     -12.241  11.465  70.026  1.00  0.00    -0.311 NA 
HETATM   59  C   UNL     1     -12.421  10.787  71.185  1.00  0.00    -0.414 A  
HETATM   60  N   UNL     1     -13.134  11.402  72.200  1.00  0.00    -0.495 NA 
HETATM   61  H2  UNL     1     -12.567  11.347  73.046  1.00  0.00     0.000 HD 
HETATM   62  H1  UNL     1     -13.490  12.357  72.134  1.00  0.00     0.000 HD 
ENDBRANCH  44  51
ENDBRANCH  41  42
ENDBRANCH  40  41
ENDBRANCH  37  40
ENDBRANCH  36  37
ENDBRANCH  33  36
ENDBRANCH  32  33
ENDBRANCH  31  32
ENDBRANCH  28  31
ENDBRANCH  25  28
ENDBRANCH  22  25
ENDBRANCH  21  22
ENDBRANCH   7  21
TORSDOF 13
ENDMDL
MODEL       14
REMARK 921   NORMALIZED FREE ENERGY PREDICTED BY IDOCK:   -6.85 KCAL/MOL
REMARK 922        TOTAL FREE ENERGY PREDICTED BY IDOCK:  -15.16 KCAL/MOL
REMARK 923 INTER-LIGAND FREE ENERGY PREDICTED BY IDOCK:  -13.14 KCAL/MOL
REMARK 924 INTRA-LIGAND FREE ENERGY PREDICTED BY IDOCK:   -2.02 KCAL/MOL
REMARK 927      BINDING AFFINITY PREDICTED BY RF-SCORE:    0.00 PKD
ROOT
HETATM    1  C   UNL     1      -6.883   1.805  72.337  1.00  0.00    -0.019 C  
HETATM    2  C   UNL     1      -7.500   3.127  71.977  1.00  0.00    -0.052 A  
HETATM    3  C   UNL     1      -7.455   3.556  70.641  1.00  0.00    -0.040 A  
HETATM    4  C   UNL     1      -8.137   4.702  70.217  1.00  0.00    -0.067 A  
HETATM    5  C   UNL     1      -8.970   5.390  71.121  1.00  0.00    -0.141 A  
HETATM    6  C   UNL     1      -8.903   5.037  72.479  1.00  0.00    -0.126 A  
HETATM    7  N   UNL     1      -9.804   6.423  70.640  1.00  0.00    -0.183 NA 
HETATM    8  H   UNL     1      -9.406   7.706  65.673  1.00  0.00     0.000 HD 
HETATM    9  C   UNL     1      -9.654   6.833  69.323  1.00  0.00    -0.144 A  
HETATM   10  C   UNL     1      -8.180   3.916  72.921  1.00  0.00    -0.091 A  
HETATM   11  C   UNL     1      -8.136   3.603  74.391  1.00  0.00    -0.081 C  
HETATM   12  O   UNL     1      -7.248   6.637  66.559  1.00  0.00    -0.070 OA 
HETATM   13  N   UNL     1     -10.423   7.724  68.761  1.00  0.00    -0.262 N  
HETATM   14  H   UNL     1     -11.200   8.105  69.301  1.00  0.00     0.000 HD 
HETATM   15  C   UNL     1      -8.574   6.198  68.493  1.00  0.00    -0.113 A  
HETATM   16  C   UNL     1     -10.240   8.168  67.492  1.00  0.00    -0.243 C  
HETATM   17  C   UNL     1      -8.311   6.774  67.140  1.00  0.00    -0.121 C  
HETATM   18  N   UNL     1      -7.924   5.143  68.893  1.00  0.00    -0.085 NA 
HETATM   19  N   UNL     1      -9.326   7.562  66.680  1.00  0.00    -0.167 N  
HETATM   20  O   UNL     1     -10.844   9.145  67.057  1.00  0.00    -0.182 OA 
ENDROOT
BRANCH   7  21
HETATM   21  C   UNL     1     -11.129   6.572  71.273  1.00  0.00    -0.273 C  
BRANCH  21  22
HETATM   22  C   UNL     1     -11.229   7.873  72.096  1.00  0.00    -0.307 C  
HETATM   23  O   UNL     1     -11.752   7.546  73.385  1.00  0.00    -0.574 OA 
HETATM   24  H   UNL     1     -11.814   8.347  73.893  1.00  0.00     0.000 HD 
BRANCH  22  25
HETATM   25  C   UNL     1     -12.110   8.878  71.334  1.00  0.00    -0.322 C  
HETATM   26  H   UNL     1     -11.771  10.381  70.152  1.00  0.00     0.000 HD 
HETATM   27  O   UNL     1     -11.227   9.760  70.622  1.00  0.00    -0.280 OA 
BRANCH  25  28
HETATM   28  C   UNL     1     -13.068   9.710  72.221  1.00  0.00    -0.382 C  
HETATM   29  H   UNL     1     -14.777   9.438  73.182  1.00  0.00     0.000 HD 
HETATM   30  O   UNL     1     -14.189   8.927  72.638  1.00  0.00    -0.563 OA 
BRANCH  28  31
HETATM   31  C   UNL     1     -13.568  10.972  71.491  1.00  0.00     0.206 C  
BRANCH  31  32
HETATM   32  O   UNL     1     -13.830  12.009  72.411  1.00  0.00    -0.138 OA 
BRANCH  32  33
HETATM   33  P   UNL     1     -13.325  13.491  72.067  1.00  0.00    -0.472 P  
HETATM   34  O   UNL     1     -12.289  13.781  73.245  1.00  0.00     0.115 OA 
HETATM   35  O   UNL     1     -14.398  14.545  72.066  1.00  0.00    -0.491 OA 
BRANCH  33  36
HETATM   36  O   UNL     1     -12.602  13.384  70.647  1.00  0.00    -0.311 OA 
BRANCH  36  37
HETATM   37  P   UNL     1     -11.401  14.507  70.109  1.00  0.00    -0.086 P  
HETATM   38  O   UNL     1     -11.875  14.306  68.561  1.00  0.00    -0.329 OA 
HETATM   39  O   UNL     1     -12.143  15.663  70.769  1.00  0.00    -0.352 OA 
BRANCH  37  40
HETATM   40  O   UNL     1     -10.201  15.631  69.572  1.00  0.00    -0.239 OA 
BRANCH  40  41
HETATM   41  C   UNL     1     -10.683  16.961  69.382  1.00  0.00    -0.258 C  
BRANCH  41  42
HETATM   42  C   UNL     1      -9.986  17.614  68.182  1.00  0.00    -0.330 C  
HETATM   43  O   UNL     1      -9.725  16.598  67.206  1.00  0.00    -0.238 OA 
HETATM   44  C   UNL     1      -9.918  17.161  65.902  1.00  0.00    -0.194 C  
HETATM   45  C   UNL     1     -10.613  18.516  66.015  1.00  0.00    -0.331 C  
HETATM   46  H   UNL     1     -10.901  20.685  67.543  1.00  0.00     0.000 HD 
HETATM   47  C   UNL     1     -10.812  18.711  67.515  1.00  0.00    -0.317 C  
HETATM   48  O   UNL     1     -10.388  20.001  67.959  1.00  0.00    -0.410 OA 
HETATM   49  O   UNL     1      -9.818  19.586  65.471  1.00  0.00    -0.303 OA 
HETATM   50  H   UNL     1     -10.250  20.428  65.541  1.00  0.00     0.000 HD 
BRANCH  44  51
HETATM   51  N   UNL     1     -10.625  16.199  65.080  1.00  0.00    -0.609 NA 
HETATM   52  C   UNL     1     -11.691  16.430  64.254  1.00  0.00     0.271 A  
HETATM   53  C   UNL     1     -11.699  14.342  64.722  1.00  0.00    -0.416 A  
HETATM   54  N   UNL     1     -12.384  15.329  64.038  1.00  0.00    -0.643 NA 
HETATM   55  C   UNL     1     -10.531  14.848  65.267  1.00  0.00    -0.404 A  
HETATM   56  N   UNL     1      -9.586  14.187  65.957  1.00  0.00    -0.264 NA 
HETATM   57  C   UNL     1      -9.933  12.891  66.100  1.00  0.00    -0.272 A  
HETATM   58  N   UNL     1     -11.065  12.276  65.692  1.00  0.00    -0.305 NA 
HETATM   59  C   UNL     1     -11.986  13.001  65.014  1.00  0.00    -0.397 A  
HETATM   60  N   UNL     1     -13.192  12.397  64.698  1.00  0.00    -0.731 NA 
HETATM   61  H2  UNL     1     -13.346  12.531  63.699  1.00  0.00     0.000 HD 
HETATM   62  H1  UNL     1     -13.401  11.421  64.911  1.00  0.00     0.000 HD 
ENDBRANCH  44  51
ENDBRANCH  41  42
ENDBRANCH  40  41
ENDBRANCH  37  40
ENDBRANCH  36  37
ENDBRANCH  33  36
ENDBRANCH  32  33
ENDBRANCH  31  32
ENDBRANCH  28  31
ENDBRANCH  25  28
ENDBRANCH  22  25
ENDBRANCH  21  22
ENDBRANCH   7  21
TORSDOF 13
ENDMDL
MODEL       15
REMARK 921   NORMALIZED FREE ENERGY PREDICTED BY IDOCK:   -6.77 KCAL/MOL
REMARK 922        TOTAL FREE ENERGY PREDICTED BY IDOCK:  -15.02 KCAL/MOL
REMARK 923 INTER-LIGAND FREE ENERGY PREDICTED BY IDOCK:  -11.74 KCAL/MOL
REMARK 924 INTRA-LIGAND FREE ENERGY PREDICTED BY IDOCK:   -3.29 KCAL/MOL
REMARK 927      BINDING AFFINITY PREDICTED BY RF-SCORE:    0.00 PKD
ROOT
HETATM    1  C   UNL     1     -13.072  15.758  71.215  1.00  0.00    -0.407 C  
HETATM    2  C   UNL     1     -12.703  14.556  70.392  1.00  0.00    -0.378 A  
HETATM    3  C   UNL     1     -12.493  14.716  69.013  1.00  0.00     0.029 A  
HETATM    4  C   UNL     1     -12.006  13.670  68.221  1.00  0.00    -0.350 A  
HETATM    5  C   UNL     1     -11.620  12.459  68.829  1.00  0.00    -0.326 A  
HETATM    6  C   UNL     1     -11.957  12.261  70.178  1.00  0.00    -0.377 A  
HETATM    7  N   UNL     1     -10.949  11.484  68.058  1.00  0.00    -0.215 NA 
HETATM    8  H   UNL     1     -10.314  12.420  63.039  1.00  0.00     0.000 HD 
HETATM    9  C   UNL     1     -10.839  11.685  66.690  1.00  0.00    -0.283 A  
HETATM   10  C   UNL     1     -12.494  13.292  70.969  1.00  0.00    -0.422 A  
HETATM   11  C   UNL     1     -12.850  13.008  72.403  1.00  0.00    -0.122 C  
HETATM   12  O   UNL     1     -12.324  13.693  64.000  1.00  0.00    -0.617 OA 
HETATM   13  N   UNL     1     -10.175  10.887  65.902  1.00  0.00    -0.250 N  
HETATM   14  H   UNL     1      -9.676  10.100  66.317  1.00  0.00     0.000 HD 
HETATM   15  C   UNL     1     -11.487  12.901  66.090  1.00  0.00    -0.348 A  
HETATM   16  C   UNL     1     -10.116  11.051  64.556  1.00  0.00    -0.321 C  
HETATM   17  C   UNL     1     -11.511  13.010  64.601  1.00  0.00    -0.336 C  
HETATM   18  N   UNL     1     -11.959  13.867  66.825  1.00  0.00    -0.421 NA 
HETATM   19  N   UNL     1     -10.620  12.181  63.983  1.00  0.00    -0.351 N  
HETATM   20  O   UNL     1      -9.659  10.180  63.820  1.00  0.00    -0.293 OA 
ENDROOT
BRANCH   7  21
HETATM   21  C   UNL     1      -9.907  10.687  68.734  1.00  0.00    -0.191 C  
BRANCH  21  22
HETATM   22  C   UNL     1     -10.384   9.249  69.029  1.00  0.00    -0.214 C  
HETATM   23  O   UNL     1     -11.259   8.844  67.974  1.00  0.00    -0.441 OA 
HETATM   24  H   UNL     1     -11.553   7.959  68.156  1.00  0.00     0.000 HD 
BRANCH  22  25
HETATM   25  C   UNL     1     -11.064   9.224  70.410  1.00  0.00    -0.255 C  
HETATM   26  H   UNL     1     -10.440   9.139  72.247  1.00  0.00     0.000 HD 
HETATM   27  O   UNL     1     -10.021   9.155  71.395  1.00  0.00    -0.302 OA 
BRANCH  25  28
HETATM   28  C   UNL     1     -12.057   8.056  70.626  1.00  0.00     0.025 C  
HETATM   29  H   UNL     1     -13.628   7.665  71.766  1.00  0.00     0.000 HD 
HETATM   30  O   UNL     1     -13.018   8.381  71.633  1.00  0.00    -0.323 OA 
BRANCH  28  31
HETATM   31  C   UNL     1     -11.330   6.754  71.015  1.00  0.00    -0.309 C  
BRANCH  31  32
HETATM   32  O   UNL     1     -11.696   6.348  72.315  1.00  0.00    -0.297 OA 
BRANCH  32  33
HETATM   33  P   UNL     1     -10.748   5.319  73.098  1.00  0.00    -0.315 P  
HETATM   34  O   UNL     1      -9.969   4.598  71.907  1.00  0.00    -0.175 OA 
HETATM   35  O   UNL     1     -11.469   4.292  73.926  1.00  0.00    -0.147 OA 
BRANCH  33  36
HETATM   36  O   UNL     1      -9.775   6.220  73.990  1.00  0.00    -0.167 OA 
BRANCH  36  37
HETATM   37  P   UNL     1      -8.254   6.818  73.423  1.00  0.00    -0.114 P  
HETATM   38  O   UNL     1      -8.429   8.172  74.315  1.00  0.00    -0.250 OA 
HETATM   39  O   UNL     1      -7.506   5.739  74.196  1.00  0.00    -0.092 OA 
BRANCH  37  40
HETATM   40  O   UNL     1      -6.733   7.416  72.856  1.00  0.00    -0.063 OA 
BRANCH  40  41
HETATM   41  C   UNL     1      -6.261   6.790  71.664  1.00  0.00    -0.038 C  
BRANCH  41  42
HETATM   42  C   UNL     1      -5.717   7.842  70.690  1.00  0.00    -0.029 C  
HETATM   43  O   UNL     1      -5.748   7.291  69.368  1.00  0.00    -0.022 OA 
HETATM   44  C   UNL     1      -6.104   8.333  68.450  1.00  0.00    -0.046 C  
HETATM   45  C   UNL     1      -6.609   9.554  69.214  1.00  0.00    -0.048 C  
HETATM   46  H   UNL     1      -6.376  10.943  71.481  1.00  0.00     0.000 HD 
HETATM   47  C   UNL     1      -6.517   9.142  70.681  1.00  0.00    -0.066 C  
HETATM   48  O   UNL     1      -5.878  10.133  71.487  1.00  0.00    -0.274 OA 
HETATM   49  O   UNL     1      -5.806  10.723  68.971  1.00  0.00    -0.041 OA 
HETATM   50  H   UNL     1      -6.121  11.483  69.446  1.00  0.00     0.000 HD 
BRANCH  44  51
HETATM   51  N   UNL     1      -7.049   7.803  67.487  1.00  0.00    -0.081 NA 
HETATM   52  C   UNL     1      -7.669   8.474  66.469  1.00  0.00    -0.092 A  
HETATM   53  C   UNL     1      -8.850   6.741  66.890  1.00  0.00    -0.119 A  
HETATM   54  N   UNL     1      -8.783   7.874  66.100  1.00  0.00    -0.151 NA 
HETATM   55  C   UNL     1      -7.709   6.619  67.666  1.00  0.00    -0.107 A  
HETATM   56  N   UNL     1      -7.391   5.631  68.519  1.00  0.00    -0.075 NA 
HETATM   57  C   UNL     1      -8.383   4.718  68.568  1.00  0.00    -0.083 A  
HETATM   58  N   UNL     1      -9.575   4.740  67.931  1.00  0.00    -0.147 NA 
HETATM   59  C   UNL     1      -9.843   5.772  67.096  1.00  0.00    -0.146 A  
HETATM   60  N   UNL     1     -11.107   5.850  66.536  1.00  0.00    -0.760 NA 
HETATM   61  H2  UNL     1     -10.987   5.953  65.528  1.00  0.00     0.000 HD 
HETATM   62  H1  UNL     1     -11.829   5.145  66.686  1.00  0.00     0.000 HD 
ENDBRANCH  44  51
ENDBRANCH  41  42
ENDBRANCH  40  41
ENDBRANCH  37  40
ENDBRANCH  36  37
ENDBRANCH  33  36
ENDBRANCH  32  33
ENDBRANCH  31  32
ENDBRANCH  28  31
ENDBRANCH  25  28
ENDBRANCH  22  25
ENDBRANCH  21  22
ENDBRANCH   7  21
TORSDOF 13
ENDMDL
MODEL       16
REMARK 921   NORMALIZED FREE ENERGY PREDICTED BY IDOCK:   -6.68 KCAL/MOL
REMARK 922        TOTAL FREE ENERGY PREDICTED BY IDOCK:  -14.87 KCAL/MOL
REMARK 923 INTER-LIGAND FREE ENERGY PREDICTED BY IDOCK:  -11.91 KCAL/MOL
REMARK 924 INTRA-LIGAND FREE ENERGY PREDICTED BY IDOCK:   -2.96 KCAL/MOL
REMARK 927      BINDING AFFINITY PREDICTED BY RF-SCORE:    0.00 PKD
ROOT
HETATM    1  C   UNL     1      -9.940   3.239  72.530  1.00  0.00    -0.227 C  
HETATM    2  C   UNL     1      -9.351   3.853  71.290  1.00  0.00    -0.213 A  
HETATM    3  C   UNL     1      -9.633   3.271  70.044  1.00  0.00    -0.182 A  
HETATM    4  C   UNL     1      -9.237   3.877  68.848  1.00  0.00    -0.152 A  
HETATM    5  C   UNL     1      -8.631   5.148  68.879  1.00  0.00    -0.090 A  
HETATM    6  C   UNL     1      -8.233   5.658  70.125  1.00  0.00    -0.114 A  
HETATM    7  N   UNL     1      -8.413   5.839  67.666  1.00  0.00    -0.104 NA 
HETATM    8  H   UNL     1      -9.602   3.415  63.286  1.00  0.00     0.000 HD 
HETATM    9  C   UNL     1      -8.656   5.171  66.474  1.00  0.00    -0.111 A  
HETATM   10  C   UNL     1      -8.583   5.029  71.332  1.00  0.00    -0.132 A  
HETATM   11  C   UNL     1      -8.110   5.619  72.633  1.00  0.00    -0.102 C  
HETATM   12  O   UNL     1      -9.095   1.764  65.182  1.00  0.00    -0.123 OA 
HETATM   13  N   UNL     1      -8.560   5.740  65.305  1.00  0.00    -0.193 N  
HETATM   14  H   UNL     1      -8.339   6.735  65.266  1.00  0.00     0.000 HD 
HETATM   15  C   UNL     1      -9.082   3.730  66.533  1.00  0.00    -0.155 A  
HETATM   16  C   UNL     1      -8.739   5.072  64.137  1.00  0.00    -0.097 C  
HETATM   17  C   UNL     1      -9.165   2.980  65.244  1.00  0.00    -0.146 C  
HETATM   18  N   UNL     1      -9.432   3.158  67.649  1.00  0.00    -0.199 NA 
HETATM   19  N   UNL     1      -9.204   3.790  64.147  1.00  0.00    -0.132 N  
HETATM   20  O   UNL     1      -8.446   5.575  63.055  1.00  0.00    -0.117 OA 
ENDROOT
BRANCH   7  21
HETATM   21  C   UNL     1      -8.561   7.307  67.688  1.00  0.00    -0.126 C  
BRANCH  21  22
HETATM   22  C   UNL     1     -10.005   7.734  68.021  1.00  0.00    -0.175 C  
HETATM   23  O   UNL     1     -10.513   8.490  66.920  1.00  0.00    -0.308 OA 
HETATM   24  H   UNL     1     -11.403   8.753  67.126  1.00  0.00     0.000 HD 
BRANCH  22  25
HETATM   25  C   UNL     1      -9.997   8.530  69.338  1.00  0.00    -0.194 C  
HETATM   26  H   UNL     1     -11.141   9.884  70.132  1.00  0.00     0.000 HD 
HETATM   27  O   UNL     1     -11.146   9.392  69.320  1.00  0.00    -0.169 OA 
BRANCH  25  28
HETATM   28  C   UNL     1      -8.722   9.374  69.582  1.00  0.00    -0.167 C  
HETATM   29  H   UNL     1      -7.594   9.908  71.119  1.00  0.00     0.000 HD 
HETATM   30  O   UNL     1      -8.377   9.390  70.970  1.00  0.00    -0.294 OA 
BRANCH  28  31
HETATM   31  C   UNL     1      -8.892  10.821  69.081  1.00  0.00    -0.086 C  
BRANCH  31  32
HETATM   32  O   UNL     1      -7.659  11.506  69.108  1.00  0.00    -0.097 OA 
BRANCH  32  33
HETATM   33  P   UNL     1      -6.878  11.744  67.728  1.00  0.00    -0.112 P  
HETATM   34  O   UNL     1      -8.065  12.084  66.718  1.00  0.00    -0.156 OA 
HETATM   35  O   UNL     1      -6.106  10.557  67.220  1.00  0.00    -0.052 OA 
BRANCH  33  36
HETATM   36  O   UNL     1      -5.927  13.003  67.980  1.00  0.00    -0.086 OA 
BRANCH  36  37
HETATM   37  P   UNL     1      -6.500  14.635  67.981  1.00  0.00    -0.172 P  
HETATM   38  O   UNL     1      -6.371  14.702  69.606  1.00  0.00    -0.119 OA 
HETATM   39  O   UNL     1      -5.222  15.117  67.305  1.00  0.00    -0.320 OA 
BRANCH  37  40
HETATM   40  O   UNL     1      -7.071  16.268  67.983  1.00  0.00    -0.126 OA 
BRANCH  40  41
HETATM   41  C   UNL     1      -6.663  17.036  66.851  1.00  0.00    -0.217 C  
BRANCH  41  42
HETATM   42  C   UNL     1      -7.888  17.564  66.096  1.00  0.00    -0.246 C  
HETATM   43  O   UNL     1      -8.768  16.463  65.839  1.00  0.00    -0.425 OA 
HETATM   44  C   UNL     1     -10.120  16.921  65.974  1.00  0.00    -0.319 C  
HETATM   45  C   UNL     1     -10.143  18.302  66.625  1.00  0.00    -0.375 C  
HETATM   46  H   UNL     1      -8.808  20.598  66.886  1.00  0.00     0.000 HD 
HETATM   47  C   UNL     1      -8.671  18.627  66.863  1.00  0.00    -0.286 C  
HETATM   48  O   UNL     1      -8.321  19.936  66.409  1.00  0.00    -0.323 OA 
HETATM   49  O   UNL     1     -10.745  19.297  65.777  1.00  0.00    -0.467 OA 
HETATM   50  H   UNL     1     -10.760  20.156  66.182  1.00  0.00     0.000 HD 
BRANCH  44  51
HETATM   51  N   UNL     1     -10.883  15.917  66.687  1.00  0.00    -0.266 NA 
HETATM   52  C   UNL     1     -10.897  15.680  68.035  1.00  0.00    -0.308 A  
HETATM   53  C   UNL     1     -11.578  13.893  67.075  1.00  0.00    -0.369 A  
HETATM   54  N   UNL     1     -11.286  14.450  68.306  1.00  0.00    -0.263 NA 
HETATM   55  C   UNL     1     -11.455  14.838  66.071  1.00  0.00    -0.316 A  
HETATM   56  N   UNL     1     -11.699  14.687  64.758  1.00  0.00    -0.410 NA 
HETATM   57  C   UNL     1     -12.076  13.419  64.496  1.00  0.00    -0.409 A  
HETATM   58  N   UNL     1     -12.168  12.377  65.352  1.00  0.00    -0.579 NA 
HETATM   59  C   UNL     1     -11.893  12.590  66.661  1.00  0.00    -0.352 A  
HETATM   60  N   UNL     1     -11.877  11.499  67.513  1.00  0.00    -0.631 NA 
HETATM   61  H2  UNL     1     -12.482  11.721  68.304  1.00  0.00     0.000 HD 
HETATM   62  H1  UNL     1     -12.107  10.551  67.212  1.00  0.00     0.000 HD 
ENDBRANCH  44  51
ENDBRANCH  41  42
ENDBRANCH  40  41
ENDBRANCH  37  40
ENDBRANCH  36  37
ENDBRANCH  33  36
ENDBRANCH  32  33
ENDBRANCH  31  32
ENDBRANCH  28  31
ENDBRANCH  25  28
ENDBRANCH  22  25
ENDBRANCH  21  22
ENDBRANCH   7  21
TORSDOF 13
ENDMDL
MODEL       17
REMARK 921   NORMALIZED FREE ENERGY PREDICTED BY IDOCK:   -6.68 KCAL/MOL
REMARK 922        TOTAL FREE ENERGY PREDICTED BY IDOCK:  -14.86 KCAL/MOL
REMARK 923 INTER-LIGAND FREE ENERGY PREDICTED BY IDOCK:  -12.70 KCAL/MOL
REMARK 924 INTRA-LIGAND FREE ENERGY PREDICTED BY IDOCK:   -2.16 KCAL/MOL
REMARK 927      BINDING AFFINITY PREDICTED BY RF-SCORE:    0.00 PKD
ROOT
HETATM    1  C   UNL     1      -9.315   2.884  68.664  1.00  0.00    -0.239 C  
HETATM    2  C   UNL     1      -9.454   4.378  68.769  1.00  0.00    -0.227 A  
HETATM    3  C   UNL     1      -9.357   5.152  67.602  1.00  0.00    -0.134 A  
HETATM    4  C   UNL     1      -9.623   6.525  67.612  1.00  0.00    -0.122 A  
HETATM    5  C   UNL     1     -10.096   7.134  68.791  1.00  0.00    -0.173 A  
HETATM    6  C   UNL     1     -10.060   6.386  69.979  1.00  0.00    -0.208 A  
HETATM    7  N   UNL     1     -10.547   8.472  68.743  1.00  0.00    -0.179 NA 
HETATM    8  H   UNL     1     -10.079  10.999  64.286  1.00  0.00     0.000 HD 
HETATM    9  C   UNL     1     -10.357   9.191  67.572  1.00  0.00    -0.261 A  
HETATM   10  C   UNL     1      -9.745   5.017  69.986  1.00  0.00    -0.278 A  
HETATM   11  C   UNL     1      -9.709   4.278  71.296  1.00  0.00    -0.256 C  
HETATM   12  O   UNL     1      -8.375   9.091  64.484  1.00  0.00    -0.158 OA 
HETATM   13  N   UNL     1     -10.804  10.403  67.398  1.00  0.00    -0.289 N  
HETATM   14  H   UNL     1     -11.357  10.828  68.142  1.00  0.00     0.000 HD 
HETATM   15  C   UNL     1      -9.630   8.530  66.434  1.00  0.00    -0.245 A  
HETATM   16  C   UNL     1     -10.567  11.128  66.275  1.00  0.00    -0.253 C  
HETATM   17  C   UNL     1      -9.279   9.373  65.253  1.00  0.00    -0.238 C  
HETATM   18  N   UNL     1      -9.364   7.255  66.431  1.00  0.00    -0.171 NA 
HETATM   19  N   UNL     1      -9.984  10.541  65.192  1.00  0.00    -0.288 N  
HETATM   20  O   UNL     1     -10.821  12.329  66.218  1.00  0.00    -0.260 OA 
ENDROOT
BRANCH   7  21
HETATM   21  C   UNL     1     -11.688   8.832  69.608  1.00  0.00     0.607 C  
BRANCH  21  22
HETATM   22  C   UNL     1     -11.304   9.906  70.647  1.00  0.00    -0.339 C  
HETATM   23  O   UNL     1     -11.243   9.283  71.931  1.00  0.00    -0.370 OA 
HETATM   24  H   UNL     1     -11.006   9.945  72.571  1.00  0.00     0.000 HD 
BRANCH  22  25
HETATM   25  C   UNL     1     -12.335  11.047  70.586  1.00  0.00    -0.386 C  
HETATM   26  H   UNL     1     -12.315  12.885  69.957  1.00  0.00     0.000 HD 
HETATM   27  O   UNL     1     -11.679  12.180  69.994  1.00  0.00    -0.308 OA 
BRANCH  25  28
HETATM   28  C   UNL     1     -12.937  11.454  71.953  1.00  0.00    -0.361 C  
HETATM   29  H   UNL     1     -14.184  10.689  73.287  1.00  0.00     0.000 HD 
HETATM   30  O   UNL     1     -13.814  10.439  72.448  1.00  0.00    -0.069 OA 
BRANCH  28  31
HETATM   31  C   UNL     1     -13.700  12.791  71.863  1.00  0.00    -0.120 C  
BRANCH  31  32
HETATM   32  O   UNL     1     -12.891  13.857  72.309  1.00  0.00    -0.333 OA 
BRANCH  32  33
HETATM   33  P   UNL     1     -12.940  15.248  71.513  1.00  0.00    -0.486 P  
HETATM   34  O   UNL     1     -11.932  16.156  72.350  1.00  0.00    -0.488 OA 
HETATM   35  O   UNL     1     -14.291  15.906  71.462  1.00  0.00    -0.338 OA 
BRANCH  33  36
HETATM   36  O   UNL     1     -12.384  14.928  70.049  1.00  0.00    -0.324 OA 
BRANCH  36  37
HETATM   37  P   UNL     1     -11.321  15.988  69.189  1.00  0.00    -0.315 P  
HETATM   38  O   UNL     1     -10.038  15.400  70.007  1.00  0.00    -0.287 OA 
HETATM   39  O   UNL     1     -11.551  15.218  67.894  1.00  0.00    -0.339 OA 
BRANCH  37  40
HETATM   40  O   UNL     1     -10.257  17.046  68.328  1.00  0.00    -0.288 OA 
BRANCH  40  41
HETATM   41  C   UNL     1     -10.733  18.386  68.204  1.00  0.00    -0.178 C  
BRANCH  41  42
HETATM   42  C   UNL     1      -9.605  19.309  67.727  1.00  0.00    -0.318 C  
HETATM   43  O   UNL     1      -8.389  18.903  68.368  1.00  0.00    -0.322 OA 
HETATM   44  C   UNL     1      -7.312  19.051  67.434  1.00  0.00    -0.228 C  
HETATM   45  C   UNL     1      -7.864  19.288  66.031  1.00  0.00    -0.258 C  
HETATM   46  H   UNL     1      -9.878  20.361  64.646  1.00  0.00     0.000 HD 
HETATM   47  C   UNL     1      -9.379  19.273  66.218  1.00  0.00    -0.339 C  
HETATM   48  O   UNL     1     -10.018  20.383  65.586  1.00  0.00    -0.261 OA 
HETATM   49  O   UNL     1      -7.440  20.549  65.482  1.00  0.00    -0.527 OA 
HETATM   50  H   UNL     1      -7.783  20.697  64.608  1.00  0.00     0.000 HD 
BRANCH  44  51
HETATM   51  N   UNL     1      -6.442  17.897  67.541  1.00  0.00    -0.166 NA 
HETATM   52  C   UNL     1      -6.290  16.879  66.640  1.00  0.00    -0.179 A  
HETATM   53  C   UNL     1      -5.625  16.144  68.536  1.00  0.00    -0.106 A  
HETATM   54  N   UNL     1      -5.824  15.788  67.216  1.00  0.00    -0.332 NA 
HETATM   55  C   UNL     1      -5.883  17.492  68.722  1.00  0.00    -0.172 A  
HETATM   56  N   UNL     1      -5.757  18.211  69.850  1.00  0.00    -0.242 NA 
HETATM   57  C   UNL     1      -5.351  17.420  70.865  1.00  0.00    -0.168 A  
HETATM   58  N   UNL     1      -5.133  16.086  70.853  1.00  0.00    -0.186 NA 
HETATM   59  C   UNL     1      -5.292  15.415  69.687  1.00  0.00    -0.102 A  
HETATM   60  N   UNL     1      -5.180  14.035  69.705  1.00  0.00    -0.091 NA 
HETATM   61  H2  UNL     1      -4.514  13.775  68.978  1.00  0.00     0.000 HD 
HETATM   62  H1  UNL     1      -4.938  13.505  70.543  1.00  0.00     0.000 HD 
ENDBRANCH  44  51
ENDBRANCH  41  42
ENDBRANCH  40  41
ENDBRANCH  37  40
ENDBRANCH  36  37
ENDBRANCH  33  36
ENDBRANCH  32  33
ENDBRANCH  31  32
ENDBRANCH  28  31
ENDBRANCH  25  28
ENDBRANCH  22  25
ENDBRANCH  21  22
ENDBRANCH   7  21
TORSDOF 13
ENDMDL
MODEL       18
REMARK 921   NORMALIZED FREE ENERGY PREDICTED BY IDOCK:   -6.63 KCAL/MOL
REMARK 922        TOTAL FREE ENERGY PREDICTED BY IDOCK:  -14.78 KCAL/MOL
REMARK 923 INTER-LIGAND FREE ENERGY PREDICTED BY IDOCK:  -11.68 KCAL/MOL
REMARK 924 INTRA-LIGAND FREE ENERGY PREDICTED BY IDOCK:   -3.09 KCAL/MOL
REMARK 927      BINDING AFFINITY PREDICTED BY RF-SCORE:    0.00 PKD
ROOT
HETATM    1  C   UNL     1     -12.809  12.003  63.649  1.00  0.00    -0.472 C  
HETATM    2  C   UNL     1     -11.713  12.747  64.361  1.00  0.00    -0.426 A  
HETATM    3  C   UNL     1     -11.877  14.118  64.613  1.00  0.00    -0.443 A  
HETATM    4  C   UNL     1     -10.964  14.831  65.398  1.00  0.00    -0.359 A  
HETATM    5  C   UNL     1      -9.911  14.146  66.036  1.00  0.00    -0.309 A  
HETATM    6  C   UNL     1      -9.678  12.810  65.672  1.00  0.00    -0.131 A  
HETATM    7  N   UNL     1      -9.113  14.832  66.979  1.00  0.00    -0.226 NA 
HETATM    8  H   UNL     1     -10.017  19.848  67.681  1.00  0.00     0.000 HD 
HETATM    9  C   UNL     1      -9.292  16.200  67.123  1.00  0.00    -0.215 A  
HETATM   10  C   UNL     1     -10.563  12.100  64.843  1.00  0.00    -0.332 A  
HETATM   11  C   UNL     1     -10.245  10.675  64.478  1.00  0.00    -0.399 C  
HETATM   12  O   UNL     1     -10.768  19.060  65.358  1.00  0.00    -0.520 OA 
HETATM   13  N   UNL     1      -8.663  16.912  68.016  1.00  0.00    -0.210 N  
HETATM   14  H   UNL     1      -8.043  16.433  68.669  1.00  0.00     0.000 HD 
HETATM   15  C   UNL     1     -10.284  16.892  66.230  1.00  0.00    -0.329 A  
HETATM   16  C   UNL     1      -8.794  18.259  68.119  1.00  0.00    -0.295 C  
HETATM   17  C   UNL     1     -10.334  18.384  66.276  1.00  0.00    -0.415 C  
HETATM   18  N   UNL     1     -11.121  16.231  65.483  1.00  0.00    -0.111 NA 
HETATM   19  N   UNL     1      -9.739  18.912  67.385  1.00  0.00    -0.305 N  
HETATM   20  O   UNL     1      -8.043  18.927  68.826  1.00  0.00    -0.344 OA 
ENDROOT
BRANCH   7  21
HETATM   21  C   UNL     1      -8.629  14.063  68.141  1.00  0.00    -0.181 C  
BRANCH  21  22
HETATM   22  C   UNL     1      -7.090  13.969  68.167  1.00  0.00    -0.125 C  
HETATM   23  O   UNL     1      -6.585  14.587  66.982  1.00  0.00    -0.317 OA 
HETATM   24  H   UNL     1      -5.636  14.530  66.998  1.00  0.00     0.000 HD 
BRANCH  22  25
HETATM   25  C   UNL     1      -6.683  12.490  68.288  1.00  0.00    -0.079 C  
HETATM   26  H   UNL     1      -6.592  10.986  67.062  1.00  0.00     0.000 HD 
HETATM   27  O   UNL     1      -6.842  11.899  66.988  1.00  0.00    -0.144 OA 
BRANCH  25  28
HETATM   28  C   UNL     1      -7.488  11.675  69.329  1.00  0.00     0.075 C  
HETATM   29  H   UNL     1      -7.135  10.713  71.023  1.00  0.00     0.000 HD 
HETATM   30  O   UNL     1      -6.641  11.213  70.384  1.00  0.00    -0.263 OA 
BRANCH  28  31
HETATM   31  C   UNL     1      -8.201  10.471  68.682  1.00  0.00    -0.130 C  
BRANCH  31  32
HETATM   32  O   UNL     1      -8.941   9.754  69.645  1.00  0.00    -0.184 OA 
BRANCH  32  33
HETATM   33  P   UNL     1     -10.542   9.812  69.588  1.00  0.00    -0.270 P  
HETATM   34  O   UNL     1     -10.805  10.783  68.351  1.00  0.00    -0.198 OA 
HETATM   35  O   UNL     1     -11.204  10.368  70.819  1.00  0.00    -0.326 OA 
BRANCH  33  36
HETATM   36  O   UNL     1     -11.019   8.317  69.287  1.00  0.00    -0.110 OA 
BRANCH  36  37
HETATM   37  P   UNL     1     -10.193   7.263  68.192  1.00  0.00    -0.199 P  
HETATM   38  O   UNL     1     -11.113   6.005  68.674  1.00  0.00    -0.315 OA 
HETATM   39  O   UNL     1     -10.811   7.973  66.994  1.00  0.00    -0.283 OA 
BRANCH  37  40
HETATM   40  O   UNL     1      -9.368   6.209  67.095  1.00  0.00    -0.116 OA 
BRANCH  40  41
HETATM   41  C   UNL     1      -7.963   6.438  67.004  1.00  0.00    -0.109 C  
BRANCH  41  42
HETATM   42  C   UNL     1      -7.207   5.490  67.944  1.00  0.00    -0.072 C  
HETATM   43  O   UNL     1      -7.376   5.960  69.287  1.00  0.00    -0.078 OA 
HETATM   44  C   UNL     1      -7.499   4.824  70.153  1.00  0.00    -0.054 C  
HETATM   45  C   UNL     1      -7.709   3.557  69.328  1.00  0.00    -0.051 C  
HETATM   46  H   UNL     1      -7.145   2.361  67.010  1.00  0.00     0.000 HD 
HETATM   47  C   UNL     1      -7.695   4.046  67.882  1.00  0.00    -0.067 C  
HETATM   48  O   UNL     1      -6.841   3.260  67.048  1.00  0.00    -0.048 OA 
HETATM   49  O   UNL     1      -6.666   2.587  69.539  1.00  0.00    -0.033 OA 
HETATM   50  H   UNL     1      -6.797   1.799  69.026  1.00  0.00     0.000 HD 
BRANCH  44  51
HETATM   51  N   UNL     1      -8.549   5.084  71.117  1.00  0.00    -0.122 NA 
HETATM   52  C   UNL     1      -9.760   4.456  71.223  1.00  0.00    -0.182 A  
HETATM   53  C   UNL     1      -9.949   6.353  72.195  1.00  0.00    -0.165 A  
HETATM   54  N   UNL     1     -10.644   5.210  71.846  1.00  0.00    -0.213 NA 
HETATM   55  C   UNL     1      -8.611   6.230  71.860  1.00  0.00    -0.128 A  
HETATM   56  N   UNL     1      -7.619   7.109  72.083  1.00  0.00    -0.088 NA 
HETATM   57  C   UNL     1      -8.102   8.217  72.683  1.00  0.00    -0.160 A  
HETATM   58  N   UNL     1      -9.383   8.508  73.000  1.00  0.00    -0.218 NA 
HETATM   59  C   UNL     1     -10.340   7.586  72.737  1.00  0.00    -0.278 A  
HETATM   60  N   UNL     1     -11.662   7.933  72.957  1.00  0.00    -0.614 NA 
HETATM   61  H2  UNL     1     -12.075   7.202  73.536  1.00  0.00     0.000 HD 
HETATM   62  H1  UNL     1     -11.946   8.831  73.351  1.00  0.00     0.000 HD 
ENDBRANCH  44  51
ENDBRANCH  41  42
ENDBRANCH  40  41
ENDBRANCH  37  40
ENDBRANCH  36  37
ENDBRANCH  33  36
ENDBRANCH  32  33
ENDBRANCH  31  32
ENDBRANCH  28  31
ENDBRANCH  25  28
ENDBRANCH  22  25
ENDBRANCH  21  22
ENDBRANCH   7  21
TORSDOF 13
ENDMDL
MODEL       19
REMARK 921   NORMALIZED FREE ENERGY PREDICTED BY IDOCK:   -6.59 KCAL/MOL
REMARK 922        TOTAL FREE ENERGY PREDICTED BY IDOCK:  -14.70 KCAL/MOL
REMARK 923 INTER-LIGAND FREE ENERGY PREDICTED BY IDOCK:  -10.68 KCAL/MOL
REMARK 924 INTRA-LIGAND FREE ENERGY PREDICTED BY IDOCK:   -4.01 KCAL/MOL
REMARK 927      BINDING AFFINITY PREDICTED BY RF-SCORE:    0.00 PKD
ROOT
HETATM    1  C   UNL     1     -14.177  15.001  72.080  1.00  0.00    -0.636 C  
HETATM    2  C   UNL     1     -13.255  13.963  71.504  1.00  0.00    -0.425 A  
HETATM    3  C   UNL     1     -13.352  12.639  71.962  1.00  0.00    -0.555 A  
HETATM    4  C   UNL     1     -12.628  11.603  71.364  1.00  0.00    -0.286 A  
HETATM    5  C   UNL     1     -11.860  11.866  70.212  1.00  0.00    -0.281 A  
HETATM    6  C   UNL     1     -11.662  13.206  69.843  1.00  0.00    -0.327 A  
HETATM    7  N   UNL     1     -11.292  10.786  69.501  1.00  0.00    -0.264 NA 
HETATM    8  H   UNL     1     -11.880   6.061  71.452  1.00  0.00     0.000 HD 
HETATM    9  C   UNL     1     -11.375   9.516  70.053  1.00  0.00    -0.166 A  
HETATM   10  C   UNL     1     -12.348  14.259  70.473  1.00  0.00    -0.430 A  
HETATM   11  C   UNL     1     -12.077  15.675  70.041  1.00  0.00    -0.379 C  
HETATM   12  O   UNL     1     -12.034   7.868  73.266  1.00  0.00    -0.059 OA 
HETATM   13  N   UNL     1     -10.952   8.444  69.444  1.00  0.00    -0.431 N  
HETATM   14  H   UNL     1     -10.583   8.537  68.498  1.00  0.00     0.000 HD 
HETATM   15  C   UNL     1     -12.013   9.362  71.406  1.00  0.00    -0.371 A  
HETATM   16  C   UNL     1     -10.979   7.209  70.008  1.00  0.00    -0.262 C  
HETATM   17  C   UNL     1     -11.934   8.022  72.060  1.00  0.00    -0.327 C  
HETATM   18  N   UNL     1     -12.671  10.331  71.974  1.00  0.00    -0.369 NA 
HETATM   19  N   UNL     1     -11.620   7.014  71.195  1.00  0.00    -0.294 N  
HETATM   20  O   UNL     1     -10.393   6.256  69.501  1.00  0.00    -0.182 OA 
ENDROOT
BRANCH   7  21
HETATM   21  C   UNL     1     -11.221  10.907  68.032  1.00  0.00    -0.314 C  
BRANCH  21  22
HETATM   22  C   UNL     1      -9.769  11.074  67.539  1.00  0.00    -0.172 C  
HETATM   23  O   UNL     1      -9.605  12.418  67.081  1.00  0.00    -0.198 OA 
HETATM   24  H   UNL     1      -8.710  12.521  66.777  1.00  0.00     0.000 HD 
BRANCH  22  25
HETATM   25  C   UNL     1      -9.492  10.032  66.441  1.00  0.00    -0.186 C  
HETATM   26  H   UNL     1     -10.593   8.992  65.225  1.00  0.00     0.000 HD 
HETATM   27  O   UNL     1     -10.764   9.635  65.903  1.00  0.00     0.098 OA 
BRANCH  25  28
HETATM   28  C   UNL     1      -8.716   8.778  66.912  1.00  0.00    -0.127 C  
HETATM   29  H   UNL     1      -6.854   8.107  66.863  1.00  0.00     0.000 HD 
HETATM   30  O   UNL     1      -7.330   8.876  66.574  1.00  0.00    -0.083 OA 
BRANCH  28  31
HETATM   31  C   UNL     1      -9.300   7.486  66.308  1.00  0.00    -0.120 C  
BRANCH  31  32
HETATM   32  O   UNL     1      -8.758   6.349  66.943  1.00  0.00    -0.112 OA 
BRANCH  32  33
HETATM   33  P   UNL     1      -7.888   5.321  66.073  1.00  0.00    -0.106 P  
HETATM   34  O   UNL     1      -6.394   5.721  66.464  1.00  0.00    -0.036 OA 
HETATM   35  O   UNL     1      -8.069   5.434  64.585  1.00  0.00    -0.112 OA 
BRANCH  33  36
HETATM   36  O   UNL     1      -8.276   3.866  66.606  1.00  0.00    -0.099 OA 
BRANCH  36  37
HETATM   37  P   UNL     1      -8.824   3.565  68.220  1.00  0.00    -0.146 P  
HETATM   38  O   UNL     1      -9.524   2.170  67.745  1.00  0.00    -0.182 OA 
HETATM   39  O   UNL     1      -7.395   3.333  68.695  1.00  0.00    -0.049 OA 
BRANCH  37  40
HETATM   40  O   UNL     1      -9.370   3.263  69.833  1.00  0.00    -0.143 OA 
BRANCH  40  41
HETATM   41  C   UNL     1      -8.337   2.888  70.744  1.00  0.00    -0.053 C  
BRANCH  41  42
HETATM   42  C   UNL     1      -8.758   3.203  72.185  1.00  0.00    -0.082 C  
HETATM   43  O   UNL     1      -7.888   4.219  72.697  1.00  0.00    -0.078 OA 
HETATM   44  C   UNL     1      -8.657   5.099  73.528  1.00  0.00    -0.112 C  
HETATM   45  C   UNL     1     -10.148   4.832  73.334  1.00  0.00    -0.161 C  
HETATM   46  H   UNL     1     -11.960   2.952  72.784  1.00  0.00     0.000 HD 
HETATM   47  C   UNL     1     -10.195   3.702  72.309  1.00  0.00    -0.118 C  
HETATM   48  O   UNL     1     -11.065   2.641  72.707  1.00  0.00    -0.001 OA 
HETATM   49  O   UNL     1     -10.794   4.428  74.555  1.00  0.00    -0.291 OA 
HETATM   50  H   UNL     1     -11.722   4.263  74.435  1.00  0.00     0.000 HD 
BRANCH  44  51
HETATM   51  N   UNL     1      -8.259   6.465  73.253  1.00  0.00    -0.114 NA 
HETATM   52  C   UNL     1      -8.619   7.594  73.937  1.00  0.00    -0.237 A  
HETATM   53  C   UNL     1      -8.000   8.213  71.985  1.00  0.00    -0.124 A  
HETATM   54  N   UNL     1      -8.502   8.672  73.188  1.00  0.00    -0.384 NA 
HETATM   55  C   UNL     1      -7.722   6.858  72.058  1.00  0.00    -0.094 A  
HETATM   56  N   UNL     1      -7.182   6.072  71.111  1.00  0.00    -0.073 NA 
HETATM   57  C   UNL     1      -6.949   6.785  69.990  1.00  0.00    -0.062 A  
HETATM   58  N   UNL     1      -7.234   8.083  69.747  1.00  0.00    -0.064 NA 
HETATM   59  C   UNL     1      -7.792   8.819  70.737  1.00  0.00    -0.109 A  
HETATM   60  N   UNL     1      -8.187  10.114  70.448  1.00  0.00    -0.397 NA 
HETATM   61  H2  UNL     1      -7.773  10.723  71.154  1.00  0.00     0.000 HD 
HETATM   62  H1  UNL     1      -8.037  10.555  69.541  1.00  0.00     0.000 HD 
ENDBRANCH  44  51
ENDBRANCH  41  42
ENDBRANCH  40  41
ENDBRANCH  37  40
ENDBRANCH  36  37
ENDBRANCH  33  36
ENDBRANCH  32  33
ENDBRANCH  31  32
ENDBRANCH  28  31
ENDBRANCH  25  28
ENDBRANCH  22  25
ENDBRANCH  21  22
ENDBRANCH   7  21
TORSDOF 13
ENDMDL
MODEL       20
REMARK 921   NORMALIZED FREE ENERGY PREDICTED BY IDOCK:   -6.49 KCAL/MOL
REMARK 922        TOTAL FREE ENERGY PREDICTED BY IDOCK:  -14.53 KCAL/MOL
REMARK 923 INTER-LIGAND FREE ENERGY PREDICTED BY IDOCK:  -11.61 KCAL/MOL
REMARK 924 INTRA-LIGAND FREE ENERGY PREDICTED BY IDOCK:   -2.92 KCAL/MOL
REMARK 927      BINDING AFFINITY PREDICTED BY RF-SCORE:    0.00 PKD
ROOT
HETATM    1  C   UNL     1     -12.703  11.904  63.275  1.00  0.00    -0.407 C  
HETATM    2  C   UNL     1     -11.695  12.671  64.084  1.00  0.00    -0.468 A  
HETATM    3  C   UNL     1     -11.884  14.049  64.273  1.00  0.00    -0.435 A  
HETATM    4  C   UNL     1     -11.065  14.788  65.134  1.00  0.00    -0.384 A  
HETATM    5  C   UNL     1     -10.092  14.125  65.908  1.00  0.00    -0.321 A  
HETATM    6  C   UNL     1      -9.821  12.779  65.616  1.00  0.00    -0.190 A  
HETATM    7  N   UNL     1      -9.406  14.841  66.914  1.00  0.00    -0.228 NA 
HETATM    8  H   UNL     1     -10.375  19.876  67.353  1.00  0.00     0.000 HD 
HETATM    9  C   UNL     1      -9.598  16.213  66.995  1.00  0.00    -0.224 A  
HETATM   10  C   UNL     1     -10.608  12.042  64.714  1.00  0.00    -0.340 A  
HETATM   11  C   UNL     1     -10.253  10.607  64.432  1.00  0.00    -0.400 C  
HETATM   12  O   UNL     1     -10.859  19.014  64.986  1.00  0.00    -0.412 OA 
HETATM   13  N   UNL     1      -9.073  16.953  67.931  1.00  0.00    -0.229 N  
HETATM   14  H   UNL     1      -8.532  16.496  68.665  1.00  0.00     0.000 HD 
HETATM   15  C   UNL     1     -10.480  16.875  65.974  1.00  0.00    -0.290 A  
HETATM   16  C   UNL     1      -9.213  18.303  67.977  1.00  0.00    -0.290 C  
HETATM   17  C   UNL     1     -10.533  18.368  65.968  1.00  0.00    -0.374 C  
HETATM   18  N   UNL     1     -11.229  16.190  65.158  1.00  0.00    -0.207 NA 
HETATM   19  N   UNL     1     -10.067  18.931  67.120  1.00  0.00    -0.337 N  
HETATM   20  O   UNL     1      -8.547  18.994  68.744  1.00  0.00    -0.354 OA 
ENDROOT
BRANCH   7  21
HETATM   21  C   UNL     1      -9.059  14.110  68.148  1.00  0.00    -0.193 C  
BRANCH  21  22
HETATM   22  C   UNL     1      -7.544  13.835  68.245  1.00  0.00    -0.129 C  
HETATM   23  O   UNL     1      -6.875  14.685  67.312  1.00  0.00    -0.282 OA 
HETATM   24  H   UNL     1      -5.941  14.515  67.371  1.00  0.00     0.000 HD 
BRANCH  22  25
HETATM   25  C   UNL     1      -7.291  12.340  67.977  1.00  0.00    -0.105 C  
HETATM   26  H   UNL     1      -8.258  10.696  68.344  1.00  0.00     0.000 HD 
HETATM   27  O   UNL     1      -8.413  11.618  68.509  1.00  0.00    -0.154 OA 
BRANCH  25  28
HETATM   28  C   UNL     1      -5.982  11.781  68.585  1.00  0.00    -0.050 C  
HETATM   29  H   UNL     1      -4.653  10.378  68.156  1.00  0.00     0.000 HD 
HETATM   30  O   UNL     1      -5.457  10.720  67.783  1.00  0.00    -0.040 OA 
BRANCH  28  31
HETATM   31  C   UNL     1      -6.193  11.277  70.026  1.00  0.00    -0.149 C  
BRANCH  31  32
HETATM   32  O   UNL     1      -6.064   9.873  70.086  1.00  0.00    -0.048 OA 
BRANCH  32  33
HETATM   33  P   UNL     1      -6.282   9.137  71.494  1.00  0.00     0.002 P  
HETATM   34  O   UNL     1      -7.870   9.143  71.640  1.00  0.00    -0.340 OA 
HETATM   35  O   UNL     1      -5.662   9.829  72.676  1.00  0.00    -0.302 OA 
BRANCH  33  36
HETATM   36  O   UNL     1      -5.704   7.660  71.305  1.00  0.00    -0.035 OA 
BRANCH  36  37
HETATM   37  P   UNL     1      -6.699   6.294  70.936  1.00  0.00    -0.061 P  
HETATM   38  O   UNL     1      -6.460   6.524  69.338  1.00  0.00    -0.040 OA 
HETATM   39  O   UNL     1      -5.663   5.342  71.519  1.00  0.00    -0.012 OA 
BRANCH  37  40
HETATM   40  O   UNL     1      -7.694   4.928  70.566  1.00  0.00    -0.061 OA 
BRANCH  40  41
HETATM   41  C   UNL     1      -7.299   4.211  69.397  1.00  0.00    -0.054 C  
BRANCH  41  42
HETATM   42  C   UNL     1      -8.524   3.883  68.535  1.00  0.00    -0.091 C  
HETATM   43  O   UNL     1      -9.613   4.707  68.968  1.00  0.00    -0.146 OA 
HETATM   44  C   UNL     1     -10.374   5.095  67.817  1.00  0.00    -0.094 C  
HETATM   45  C   UNL     1      -9.604   4.759  66.542  1.00  0.00    -0.175 C  
HETATM   46  H   UNL     1      -7.869   3.054  65.444  1.00  0.00     0.000 HD 
HETATM   47  C   UNL     1      -8.309   4.127  67.044  1.00  0.00    -0.100 C  
HETATM   48  O   UNL     1      -8.003   2.903  66.372  1.00  0.00    -0.080 OA 
HETATM   49  O   UNL     1     -10.318   3.836  65.699  1.00  0.00    -0.424 OA 
HETATM   50  H   UNL     1      -9.840   3.627  64.906  1.00  0.00     0.000 HD 
BRANCH  44  51
HETATM   51  N   UNL     1     -10.728   6.495  67.943  1.00  0.00    -0.254 NA 
HETATM   52  C   UNL     1     -10.423   7.515  67.083  1.00  0.00    -0.336 A  
HETATM   53  C   UNL     1     -10.844   8.401  68.984  1.00  0.00     0.009 A  
HETATM   54  N   UNL     1     -10.455   8.685  67.689  1.00  0.00    -0.253 NA 
HETATM   55  C   UNL     1     -11.143   7.055  69.119  1.00  0.00    -0.101 A  
HETATM   56  N   UNL     1     -11.598   6.415  70.209  1.00  0.00    -0.412 NA 
HETATM   57  C   UNL     1     -11.714   7.274  71.242  1.00  0.00    -0.296 A  
HETATM   58  N   UNL     1     -11.392   8.586  71.282  1.00  0.00    -0.259 NA 
HETATM   59  C   UNL     1     -10.923   9.171  70.154  1.00  0.00    -0.239 A  
HETATM   60  N   UNL     1     -10.488  10.483  70.229  1.00  0.00    -0.425 NA 
HETATM   61  H2  UNL     1     -10.961  11.003  69.490  1.00  0.00     0.000 HD 
HETATM   62  H1  UNL     1     -10.545  11.044  71.079  1.00  0.00     0.000 HD 
ENDBRANCH  44  51
ENDBRANCH  41  42
ENDBRANCH  40  41
ENDBRANCH  37  40
ENDBRANCH  36  37
ENDBRANCH  33  36
ENDBRANCH  32  33
ENDBRANCH  31  32
ENDBRANCH  28  31
ENDBRANCH  25  28
ENDBRANCH  22  25
ENDBRANCH  21  22
ENDBRANCH   7  21
TORSDOF 13
ENDMDL
MODEL       21
REMARK 921   NORMALIZED FREE ENERGY PREDICTED BY IDOCK:   -6.43 KCAL/MOL
REMARK 922        TOTAL FREE ENERGY PREDICTED BY IDOCK:  -14.43 KCAL/MOL
REMARK 923 INTER-LIGAND FREE ENERGY PREDICTED BY IDOCK:  -11.93 KCAL/MOL
REMARK 924 INTRA-LIGAND FREE ENERGY PREDICTED BY IDOCK:   -2.51 KCAL/MOL
REMARK 927      BINDING AFFINITY PREDICTED BY RF-SCORE:    0.00 PKD
ROOT
HETATM    1  C   UNL     1     -12.742  15.705  71.351  1.00  0.00    -0.535 C  
HETATM    2  C   UNL     1     -12.547  14.594  70.358  1.00  0.00    -0.399 A  
HETATM    3  C   UNL     1     -12.410  14.915  68.998  1.00  0.00    -0.070 A  
HETATM    4  C   UNL     1     -12.080  13.944  68.047  1.00  0.00    -0.283 A  
HETATM    5  C   UNL     1     -11.778  12.633  68.467  1.00  0.00    -0.330 A  
HETATM    6  C   UNL     1     -12.047  12.290  69.801  1.00  0.00    -0.298 A  
HETATM    7  N   UNL     1     -11.257  11.712  67.531  1.00  0.00    -0.273 NA 
HETATM    8  H   UNL     1     -10.853  13.243  62.635  1.00  0.00     0.000 HD 
HETATM    9  C   UNL     1     -11.215  12.082  66.195  1.00  0.00    -0.343 A  
HETATM   10  C   UNL     1     -12.428  13.251  70.754  1.00  0.00    -0.403 A  
HETATM   11  C   UNL     1     -12.718  12.813  72.163  1.00  0.00    -0.070 C  
HETATM   12  O   UNL     1     -12.661  14.554  63.898  1.00  0.00    -0.782 OA 
HETATM   13  N   UNL     1     -10.685  11.339  65.264  1.00  0.00    -0.266 N  
HETATM   14  H   UNL     1     -10.241  10.462  65.538  1.00  0.00     0.000 HD 
HETATM   15  C   UNL     1     -11.776  13.421  65.803  1.00  0.00    -0.349 A  
HETATM   16  C   UNL     1     -10.695  11.674  63.949  1.00  0.00    -0.398 C  
HETATM   17  C   UNL     1     -11.883  13.727  64.345  1.00  0.00    -0.427 C  
HETATM   18  N   UNL     1     -12.103  14.319  66.687  1.00  0.00    -0.436 NA 
HETATM   19  N   UNL     1     -11.120  12.910  63.562  1.00  0.00    -0.337 N  
HETATM   20  O   UNL     1     -10.375  10.870  63.077  1.00  0.00    -0.249 OA 
ENDROOT
BRANCH   7  21
HETATM   21  C   UNL     1     -10.259  10.742  68.020  1.00  0.00    -0.178 C  
BRANCH  21  22
HETATM   22  C   UNL     1     -10.646   9.291  67.666  1.00  0.00    -0.261 C  
HETATM   23  O   UNL     1     -10.959   8.603  68.879  1.00  0.00    -0.435 OA 
HETATM   24  H   UNL     1     -11.197   7.710  68.660  1.00  0.00     0.000 HD 
BRANCH  22  25
HETATM   25  C   UNL     1      -9.484   8.641  66.894  1.00  0.00    -0.180 C  
HETATM   26  H   UNL     1      -8.339   7.098  67.179  1.00  0.00     0.000 HD 
HETATM   27  O   UNL     1      -9.056   7.500  67.655  1.00  0.00    -0.126 OA 
BRANCH  25  28
HETATM   28  C   UNL     1      -8.275   9.570  66.631  1.00  0.00    -0.116 C  
HETATM   29  H   UNL     1      -7.222  10.195  65.075  1.00  0.00     0.000 HD 
HETATM   30  O   UNL     1      -7.964   9.625  65.236  1.00  0.00    -0.108 OA 
BRANCH  28  31
HETATM   31  C   UNL     1      -7.027   9.118  67.415  1.00  0.00    -0.078 C  
BRANCH  31  32
HETATM   32  O   UNL     1      -6.575  10.146  68.268  1.00  0.00    -0.054 OA 
BRANCH  32  33
HETATM   33  P   UNL     1      -6.591   9.898  69.852  1.00  0.00    -0.112 P  
HETATM   34  O   UNL     1      -8.007   9.199  70.074  1.00  0.00    -0.088 OA 
HETATM   35  O   UNL     1      -6.503  11.141  70.693  1.00  0.00    -0.309 OA 
BRANCH  33  36
HETATM   36  O   UNL     1      -5.378   8.900  70.146  1.00  0.00    -0.028 OA 
BRANCH  36  37
HETATM   37  P   UNL     1      -5.567   7.407  70.999  1.00  0.00    -0.031 P  
HETATM   38  O   UNL     1      -6.371   8.168  72.198  1.00  0.00    -0.048 OA 
HETATM   39  O   UNL     1      -6.524   6.885  69.935  1.00  0.00    -0.041 OA 
BRANCH  37  40
HETATM   40  O   UNL     1      -5.757   5.914  71.852  1.00  0.00    -0.025 OA 
BRANCH  40  41
HETATM   41  C   UNL     1      -6.346   6.045  73.145  1.00  0.00    -0.063 C  
BRANCH  41  42
HETATM   42  C   UNL     1      -7.669   5.271  73.208  1.00  0.00    -0.100 C  
HETATM   43  O   UNL     1      -8.716   6.194  73.530  1.00  0.00    -0.125 OA 
HETATM   44  C   UNL     1      -9.891   5.821  72.799  1.00  0.00    -0.160 C  
HETATM   45  C   UNL     1      -9.538   4.787  71.732  1.00  0.00    -0.155 C  
HETATM   46  H   UNL     1      -7.911   2.758  71.133  1.00  0.00     0.000 HD 
HETATM   47  C   UNL     1      -8.036   4.575  71.899  1.00  0.00    -0.100 C  
HETATM   48  O   UNL     1      -7.683   3.192  71.948  1.00  0.00    -0.051 OA 
HETATM   49  O   UNL     1     -10.244   3.547  71.918  1.00  0.00    -0.141 OA 
HETATM   50  H   UNL     1     -10.024   2.904  71.254  1.00  0.00     0.000 HD 
BRANCH  44  51
HETATM   51  N   UNL     1     -10.516   7.020  72.278  1.00  0.00    -0.204 NA 
HETATM   52  C   UNL     1      -9.990   8.283  72.229  1.00  0.00    -0.296 A  
HETATM   53  C   UNL     1     -12.118   8.483  72.115  1.00  0.00    -0.383 A  
HETATM   54  N   UNL     1     -10.936   9.199  72.160  1.00  0.00    -0.201 NA 
HETATM   55  C   UNL     1     -11.862   7.123  72.057  1.00  0.00    -0.295 A  
HETATM   56  N   UNL     1     -12.749   6.119  71.956  1.00  0.00     0.025 NA 
HETATM   57  C   UNL     1     -14.007   6.605  71.947  1.00  0.00     0.081 A  
HETATM   58  N   UNL     1     -14.411   7.889  72.071  1.00  0.00    -0.389 NA 
HETATM   59  C   UNL     1     -13.468   8.855  72.185  1.00  0.00    -0.448 A  
HETATM   60  N   UNL     1     -13.886  10.153  72.427  1.00  0.00    -0.458 NA 
HETATM   61  H2  UNL     1     -13.442  10.750  71.729  1.00  0.00     0.000 HD 
HETATM   62  H1  UNL     1     -14.869  10.423  72.477  1.00  0.00     0.000 HD 
ENDBRANCH  44  51
ENDBRANCH  41  42
ENDBRANCH  40  41
ENDBRANCH  37  40
ENDBRANCH  36  37
ENDBRANCH  33  36
ENDBRANCH  32  33
ENDBRANCH  31  32
ENDBRANCH  28  31
ENDBRANCH  25  28
ENDBRANCH  22  25
ENDBRANCH  21  22
ENDBRANCH   7  21
TORSDOF 13
ENDMDL
MODEL       22
REMARK 921   NORMALIZED FREE ENERGY PREDICTED BY IDOCK:   -6.40 KCAL/MOL
REMARK 922        TOTAL FREE ENERGY PREDICTED BY IDOCK:  -14.38 KCAL/MOL
REMARK 923 INTER-LIGAND FREE ENERGY PREDICTED BY IDOCK:  -10.53 KCAL/MOL
REMARK 924 INTRA-LIGAND FREE ENERGY PREDICTED BY IDOCK:   -3.85 KCAL/MOL
REMARK 927      BINDING AFFINITY PREDICTED BY RF-SCORE:    0.00 PKD
ROOT
HETATM    1  C   UNL     1     -10.578  18.536  67.343  1.00  0.00    -0.463 C  
HETATM    2  C   UNL     1     -10.483  17.084  67.719  1.00  0.00    -0.349 A  
HETATM    3  C   UNL     1     -11.332  16.584  68.719  1.00  0.00    -0.221 A  
HETATM    4  C   UNL     1     -11.395  15.217  69.009  1.00  0.00    -0.300 A  
HETATM    5  C   UNL     1     -10.670  14.304  68.219  1.00  0.00    -0.247 A  
HETATM    6  C   UNL     1      -9.726  14.818  67.315  1.00  0.00    -0.230 A  
HETATM    7  N   UNL     1     -10.888  12.919  68.389  1.00  0.00    -0.245 NA 
HETATM    8  H   UNL     1     -14.100  11.444  72.128  1.00  0.00     0.000 HD 
HETATM    9  C   UNL     1     -11.690  12.502  69.441  1.00  0.00    -0.322 A  
HETATM   10  C   UNL     1      -9.621  16.195  67.054  1.00  0.00    -0.233 A  
HETATM   11  C   UNL     1      -8.576  16.682  66.086  1.00  0.00    -0.324 C  
HETATM   12  O   UNL     1     -13.071  13.745  72.607  1.00  0.00    -0.450 OA 
HETATM   13  N   UNL     1     -12.016  11.256  69.640  1.00  0.00    -0.334 N  
HETATM   14  H   UNL     1     -11.703  10.558  68.965  1.00  0.00     0.000 HD 
HETATM   15  C   UNL     1     -12.238  13.540  70.380  1.00  0.00    -0.356 A  
HETATM   16  C   UNL     1     -12.752  10.841  70.703  1.00  0.00    -0.331 C  
HETATM   17  C   UNL     1     -12.948  13.062  71.604  1.00  0.00    -0.321 C  
HETATM   18  N   UNL     1     -12.164  14.815  70.122  1.00  0.00    -0.321 NA 
HETATM   19  N   UNL     1     -13.334  11.755  71.530  1.00  0.00    -0.168 N  
HETATM   20  O   UNL     1     -12.872   9.649  70.977  1.00  0.00    -0.317 OA 
ENDROOT
BRANCH   7  21
HETATM   21  C   UNL     1     -10.819  12.070  67.183  1.00  0.00    -0.253 C  
BRANCH  21  22
HETATM   22  C   UNL     1      -9.567  11.169  67.187  1.00  0.00    -0.173 C  
HETATM   23  O   UNL     1      -8.600  11.744  66.305  1.00  0.00    -0.308 OA 
HETATM   24  H   UNL     1      -7.829  11.188  66.307  1.00  0.00     0.000 HD 
BRANCH  22  25
HETATM   25  C   UNL     1      -9.978   9.744  66.774  1.00  0.00    -0.218 C  
HETATM   26  H   UNL     1     -11.495   8.590  67.146  1.00  0.00     0.000 HD 
HETATM   27  O   UNL     1     -11.241   9.470  67.400  1.00  0.00    -0.028 OA 
BRANCH  25  28
HETATM   28  C   UNL     1      -8.962   8.638  67.151  1.00  0.00    -0.132 C  
HETATM   29  H   UNL     1      -7.090   8.162  66.717  1.00  0.00     0.000 HD 
HETATM   30  O   UNL     1      -7.713   8.841  66.485  1.00  0.00    -0.097 OA 
BRANCH  28  31
HETATM   31  C   UNL     1      -9.500   7.233  66.814  1.00  0.00    -0.171 C  
BRANCH  31  32
HETATM   32  O   UNL     1      -8.484   6.264  66.957  1.00  0.00    -0.109 OA 
BRANCH  32  33
HETATM   33  P   UNL     1      -8.305   5.160  65.808  1.00  0.00    -0.130 P  
HETATM   34  O   UNL     1      -6.734   5.204  65.534  1.00  0.00    -0.049 OA 
HETATM   35  O   UNL     1      -9.050   5.441  64.533  1.00  0.00     0.020 OA 
BRANCH  33  36
HETATM   36  O   UNL     1      -8.759   3.776  66.464  1.00  0.00    -0.110 OA 
BRANCH  36  37
HETATM   37  P   UNL     1      -9.032   3.577  68.161  1.00  0.00    -0.166 P  
HETATM   38  O   UNL     1      -9.727   2.124  67.902  1.00  0.00    -0.106 OA 
HETATM   39  O   UNL     1      -7.536   3.437  68.416  1.00  0.00    -0.056 OA 
BRANCH  37  40
HETATM   40  O   UNL     1      -9.303   3.378  69.858  1.00  0.00    -0.142 OA 
BRANCH  40  41
HETATM   41  C   UNL     1      -8.186   3.720  70.677  1.00  0.00    -0.057 C  
BRANCH  41  42
HETATM   42  C   UNL     1      -8.663   4.340  71.996  1.00  0.00    -0.108 C  
HETATM   43  O   UNL     1      -8.100   5.654  72.105  1.00  0.00    -0.106 OA 
HETATM   44  C   UNL     1      -9.073   6.515  72.711  1.00  0.00    -0.136 C  
HETATM   45  C   UNL     1     -10.435   5.825  72.744  1.00  0.00    -0.210 C  
HETATM   46  H   UNL     1     -11.666   3.465  72.940  1.00  0.00     0.000 HD 
HETATM   47  C   UNL     1     -10.180   4.464  72.103  1.00  0.00    -0.177 C  
HETATM   48  O   UNL     1     -10.721   3.388  72.873  1.00  0.00    -0.157 OA 
HETATM   49  O   UNL     1     -10.933   5.662  74.085  1.00  0.00    -0.379 OA 
HETATM   50  H   UNL     1     -11.780   5.234  74.105  1.00  0.00     0.000 HD 
BRANCH  44  51
HETATM   51  N   UNL     1      -9.069   7.785  72.013  1.00  0.00    -0.130 NA 
HETATM   52  C   UNL     1      -9.989   8.245  71.110  1.00  0.00    -0.185 A  
HETATM   53  C   UNL     1      -8.181   9.340  70.779  1.00  0.00    -0.169 A  
HETATM   54  N   UNL     1      -9.475   9.170  70.323  1.00  0.00    -0.201 NA 
HETATM   55  C   UNL     1      -7.959   8.577  71.913  1.00  0.00    -0.120 A  
HETATM   56  N   UNL     1      -6.846   8.514  72.663  1.00  0.00    -0.204 NA 
HETATM   57  C   UNL     1      -5.887   9.308  72.143  1.00  0.00    -0.014 A  
HETATM   58  N   UNL     1      -5.931  10.046  71.012  1.00  0.00    -0.187 NA 
HETATM   59  C   UNL     1      -7.078  10.056  70.291  1.00  0.00    -0.150 A  
HETATM   60  N   UNL     1      -7.082  10.720  69.076  1.00  0.00    -0.081 NA 
HETATM   61  H2  UNL     1      -7.879  11.357  69.081  1.00  0.00     0.000 HD 
HETATM   62  H1  UNL     1      -6.279  11.240  68.721  1.00  0.00     0.000 HD 
ENDBRANCH  44  51
ENDBRANCH  41  42
ENDBRANCH  40  41
ENDBRANCH  37  40
ENDBRANCH  36  37
ENDBRANCH  33  36
ENDBRANCH  32  33
ENDBRANCH  31  32
ENDBRANCH  28  31
ENDBRANCH  25  28
ENDBRANCH  22  25
ENDBRANCH  21  22
ENDBRANCH   7  21
TORSDOF 13
ENDMDL
MODEL       23
REMARK 921   NORMALIZED FREE ENERGY PREDICTED BY IDOCK:   -6.37 KCAL/MOL
REMARK 922        TOTAL FREE ENERGY PREDICTED BY IDOCK:  -14.31 KCAL/MOL
REMARK 923 INTER-LIGAND FREE ENERGY PREDICTED BY IDOCK:  -11.26 KCAL/MOL
REMARK 924 INTRA-LIGAND FREE ENERGY PREDICTED BY IDOCK:   -3.05 KCAL/MOL
REMARK 927      BINDING AFFINITY PREDICTED BY RF-SCORE:    0.00 PKD
ROOT
HETATM    1  C   UNL     1     -10.013  20.137  68.689  1.00  0.00    -0.343 C  
HETATM    2  C   UNL     1      -9.557  18.848  68.065  1.00  0.00    -0.368 A  
HETATM    3  C   UNL     1      -8.880  17.911  68.861  1.00  0.00    -0.127 A  
HETATM    4  C   UNL     1      -8.562  16.637  68.379  1.00  0.00    -0.221 A  
HETATM    5  C   UNL     1      -9.014  16.241  67.105  1.00  0.00    -0.195 A  
HETATM    6  C   UNL     1      -9.569  17.223  66.269  1.00  0.00    -0.268 A  
HETATM    7  N   UNL     1      -8.861  14.895  66.706  1.00  0.00    -0.257 NA 
HETATM    8  H   UNL     1      -6.362  11.722  69.894  1.00  0.00     0.000 HD 
HETATM    9  C   UNL     1      -8.123  14.046  67.518  1.00  0.00    -0.186 A  
HETATM   10  C   UNL     1      -9.847  18.522  66.729  1.00  0.00    -0.359 A  
HETATM   11  C   UNL     1     -10.426  19.531  65.776  1.00  0.00    -0.518 C  
HETATM   12  O   UNL     1      -5.676  14.168  70.251  1.00  0.00    -0.113 OA 
HETATM   13  N   UNL     1      -7.985  12.772  67.280  1.00  0.00    -0.251 N  
HETATM   14  H   UNL     1      -8.480  12.371  66.483  1.00  0.00     0.000 HD 
HETATM   15  C   UNL     1      -7.477  14.615  68.750  1.00  0.00    -0.135 A  
HETATM   16  C   UNL     1      -7.215  11.953  68.041  1.00  0.00    -0.090 C  
HETATM   17  C   UNL     1      -6.544  13.732  69.513  1.00  0.00    -0.081 C  
HETATM   18  N   UNL     1      -7.756  15.808  69.190  1.00  0.00    -0.205 NA 
HETATM   19  N   UNL     1      -6.679  12.409  69.209  1.00  0.00    -0.094 N  
HETATM   20  O   UNL     1      -6.940  10.811  67.683  1.00  0.00    -0.079 OA 
ENDROOT
BRANCH   7  21
HETATM   21  C   UNL     1      -9.928  14.312  65.871  1.00  0.00    -0.319 C  
BRANCH  21  22
HETATM   22  C   UNL     1     -10.600  13.105  66.559  1.00  0.00    -0.284 C  
HETATM   23  O   UNL     1     -10.610  12.014  65.636  1.00  0.00    -0.248 OA 
HETATM   24  H   UNL     1     -11.024  11.270  66.060  1.00  0.00     0.000 HD 
BRANCH  22  25
HETATM   25  C   UNL     1     -12.012  13.514  67.013  1.00  0.00    -0.394 C  
HETATM   26  H   UNL     1     -13.282  14.886  66.486  1.00  0.00     0.000 HD 
HETATM   27  O   UNL     1     -12.411  14.633  66.205  1.00  0.00    -0.257 OA 
BRANCH  25  28
HETATM   28  C   UNL     1     -12.132  13.889  68.510  1.00  0.00    -0.296 C  
HETATM   29  H   UNL     1     -11.929  15.508  69.633  1.00  0.00     0.000 HD 
HETATM   30  O   UNL     1     -11.856  15.278  68.714  1.00  0.00    -0.338 OA 
BRANCH  28  31
HETATM   31  C   UNL     1     -11.185  13.046  69.386  1.00  0.00    -0.145 C  
BRANCH  31  32
HETATM   32  O   UNL     1     -11.579  11.691  69.384  1.00  0.00    -0.273 OA 
BRANCH  32  33
HETATM   33  P   UNL     1     -12.353  11.110  70.663  1.00  0.00    -0.355 P  
HETATM   34  O   UNL     1     -13.511  10.240  69.995  1.00  0.00     0.124 OA 
HETATM   35  O   UNL     1     -12.956  12.148  71.568  1.00  0.00    -0.391 OA 
BRANCH  33  36
HETATM   36  O   UNL     1     -11.290  10.200  71.435  1.00  0.00    -0.291 OA 
BRANCH  36  37
HETATM   37  P   UNL     1     -11.570   8.536  71.816  1.00  0.00    -0.369 P  
HETATM   38  O   UNL     1     -10.057   8.395  72.411  1.00  0.00    -0.287 OA 
HETATM   39  O   UNL     1     -12.560   8.920  72.908  1.00  0.00    -0.269 OA 
BRANCH  37  40
HETATM   40  O   UNL     1     -11.850   6.872  72.199  1.00  0.00    -0.288 OA 
BRANCH  40  41
HETATM   41  C   UNL     1     -10.922   6.318  73.130  1.00  0.00    -0.223 C  
BRANCH  41  42
HETATM   42  C   UNL     1     -10.177   5.135  72.500  1.00  0.00    -0.194 C  
HETATM   43  O   UNL     1     -10.178   5.309  71.078  1.00  0.00    -0.208 OA 
HETATM   44  C   UNL     1      -8.919   4.856  70.565  1.00  0.00    -0.120 C  
HETATM   45  C   UNL     1      -7.933   4.641  71.710  1.00  0.00    -0.099 C  
HETATM   46  H   UNL     1      -7.710   3.938  74.275  1.00  0.00     0.000 HD 
HETATM   47  C   UNL     1      -8.728   5.005  72.961  1.00  0.00    -0.113 C  
HETATM   48  O   UNL     1      -8.612   4.019  73.988  1.00  0.00    -0.093 OA 
HETATM   49  O   UNL     1      -7.473   3.279  71.788  1.00  0.00    -0.049 OA 
HETATM   50  H   UNL     1      -6.859   3.146  72.501  1.00  0.00     0.000 HD 
BRANCH  44  51
HETATM   51  N   UNL     1      -8.462   5.793  69.558  1.00  0.00    -0.111 NA 
HETATM   52  C   UNL     1      -7.433   6.690  69.657  1.00  0.00    -0.096 A  
HETATM   53  C   UNL     1      -8.725   7.384  68.099  1.00  0.00    -0.122 A  
HETATM   54  N   UNL     1      -7.576   7.686  68.806  1.00  0.00    -0.100 NA 
HETATM   55  C   UNL     1      -9.213   6.143  68.470  1.00  0.00    -0.115 A  
HETATM   56  N   UNL     1     -10.280   5.492  67.975  1.00  0.00    -0.180 NA 
HETATM   57  C   UNL     1     -10.887   6.239  67.030  1.00  0.00    -0.383 A  
HETATM   58  N   UNL     1     -10.573   7.488  66.619  1.00  0.00    -0.189 NA 
HETATM   59  C   UNL     1      -9.495   8.098  67.169  1.00  0.00    -0.161 A  
HETATM   60  N   UNL     1      -9.245   9.416  66.829  1.00  0.00    -0.138 NA 
HETATM   61  H2  UNL     1      -8.273   9.473  66.526  1.00  0.00     0.000 HD 
HETATM   62  H1  UNL     1      -9.805   9.935  66.152  1.00  0.00     0.000 HD 
ENDBRANCH  44  51
ENDBRANCH  41  42
ENDBRANCH  40  41
ENDBRANCH  37  40
ENDBRANCH  36  37
ENDBRANCH  33  36
ENDBRANCH  32  33
ENDBRANCH  31  32
ENDBRANCH  28  31
ENDBRANCH  25  28
ENDBRANCH  22  25
ENDBRANCH  21  22
ENDBRANCH   7  21
TORSDOF 13
ENDMDL
MODEL       24
REMARK 921   NORMALIZED FREE ENERGY PREDICTED BY IDOCK:   -6.37 KCAL/MOL
REMARK 922        TOTAL FREE ENERGY PREDICTED BY IDOCK:  -14.31 KCAL/MOL
REMARK 923 INTER-LIGAND FREE ENERGY PREDICTED BY IDOCK:  -10.06 KCAL/MOL
REMARK 924 INTRA-LIGAND FREE ENERGY PREDICTED BY IDOCK:   -4.25 KCAL/MOL
REMARK 927      BINDING AFFINITY PREDICTED BY RF-SCORE:    0.00 PKD
ROOT
HETATM    1  C   UNL     1     -14.185  15.054  72.311  1.00  0.00    -0.594 C  
HETATM    2  C   UNL     1     -13.290  14.054  71.632  1.00  0.00    -0.442 A  
HETATM    3  C   UNL     1     -13.417  12.695  71.960  1.00  0.00    -0.516 A  
HETATM    4  C   UNL     1     -12.719  11.706  71.260  1.00  0.00    -0.340 A  
HETATM    5  C   UNL     1     -11.948  12.061  70.136  1.00  0.00    -0.321 A  
HETATM    6  C   UNL     1     -11.718  13.426  69.899  1.00  0.00    -0.337 A  
HETATM    7  N   UNL     1     -11.407  11.042  69.321  1.00  0.00    -0.255 NA 
HETATM    8  H   UNL     1     -12.104   6.165  70.805  1.00  0.00     0.000 HD 
HETATM    9  C   UNL     1     -11.519   9.727  69.747  1.00  0.00    -0.098 A  
HETATM   10  C   UNL     1     -12.377  14.429  70.631  1.00  0.00    -0.422 A  
HETATM   11  C   UNL     1     -12.074  15.872  70.337  1.00  0.00    -0.313 C  
HETATM   12  O   UNL     1     -12.211   7.790  72.787  1.00  0.00    -0.156 OA 
HETATM   13  N   UNL     1     -11.123   8.709  69.035  1.00  0.00    -0.421 N  
HETATM   14  H   UNL     1     -10.754   8.886  68.100  1.00  0.00     0.000 HD 
HETATM   15  C   UNL     1     -12.158   9.457  71.081  1.00  0.00    -0.328 A  
HETATM   16  C   UNL     1     -11.179   7.427  69.476  1.00  0.00     0.008 C  
HETATM   17  C   UNL     1     -12.110   8.058  71.601  1.00  0.00    -0.303 C  
HETATM   18  N   UNL     1     -12.792  10.382  71.744  1.00  0.00    -0.448 NA 
HETATM   19  N   UNL     1     -11.822   7.132  70.641  1.00  0.00    -0.314 N  
HETATM   20  O   UNL     1     -10.617   6.514  68.876  1.00  0.00    -0.197 OA 
ENDROOT
BRANCH   7  21
HETATM   21  C   UNL     1     -11.336  11.304  67.870  1.00  0.00    -0.299 C  
BRANCH  21  22
HETATM   22  C   UNL     1      -9.959  11.859  67.454  1.00  0.00    -0.190 C  
HETATM   23  O   UNL     1     -10.169  12.930  66.531  1.00  0.00    -0.250 OA 
HETATM   24  H   UNL     1      -9.320  13.272  66.274  1.00  0.00     0.000 HD 
BRANCH  22  25
HETATM   25  C   UNL     1      -9.120  10.715  66.858  1.00  0.00    -0.155 C  
HETATM   26  H   UNL     1      -7.443  10.603  65.884  1.00  0.00     0.000 HD 
HETATM   27  O   UNL     1      -7.961  11.309  66.253  1.00  0.00    -0.155 OA 
BRANCH  25  28
HETATM   28  C   UNL     1      -9.857   9.840  65.815  1.00  0.00    -0.290 C  
HETATM   29  H   UNL     1     -10.379   7.942  65.605  1.00  0.00     0.000 HD 
HETATM   30  O   UNL     1      -9.926   8.478  66.245  1.00  0.00    -0.262 OA 
BRANCH  28  31
HETATM   31  C   UNL     1      -9.177   9.906  64.434  1.00  0.00    -0.264 C  
BRANCH  31  32
HETATM   32  O   UNL     1      -8.692   8.636  64.056  1.00  0.00    -0.076 OA 
BRANCH  32  33
HETATM   33  P   UNL     1      -7.113   8.440  63.859  1.00  0.00    -0.094 P  
HETATM   34  O   UNL     1      -6.574   8.483  65.359  1.00  0.00    -0.058 OA 
HETATM   35  O   UNL     1      -6.435   9.508  63.046  1.00  0.00    -0.098 OA 
BRANCH  33  36
HETATM   36  O   UNL     1      -6.935   6.995  63.201  1.00  0.00    -0.053 OA 
BRANCH  36  37
HETATM   37  P   UNL     1      -6.778   5.545  64.130  1.00  0.00    -0.044 P  
HETATM   38  O   UNL     1      -8.399   5.442  64.285  1.00  0.00    -0.133 OA 
HETATM   39  O   UNL     1      -6.290   4.777  62.908  1.00  0.00    -0.024 OA 
BRANCH  37  40
HETATM   40  O   UNL     1      -6.622   4.093  65.059  1.00  0.00    -0.044 OA 
BRANCH  40  41
HETATM   41  C   UNL     1      -6.090   4.287  66.369  1.00  0.00    -0.031 C  
BRANCH  41  42
HETATM   42  C   UNL     1      -6.846   3.419  67.383  1.00  0.00    -0.046 C  
HETATM   43  O   UNL     1      -6.342   3.715  68.692  1.00  0.00    -0.031 OA 
HETATM   44  C   UNL     1      -7.436   3.678  69.618  1.00  0.00    -0.051 C  
HETATM   45  C   UNL     1      -8.762   3.643  68.862  1.00  0.00    -0.093 C  
HETATM   46  H   UNL     1      -9.965   2.800  66.634  1.00  0.00     0.000 HD 
HETATM   47  C   UNL     1      -8.354   3.657  67.391  1.00  0.00    -0.094 C  
HETATM   48  O   UNL     1      -9.026   2.652  66.629  1.00  0.00    -0.138 OA 
HETATM   49  O   UNL     1      -9.529   2.462  69.158  1.00  0.00    -0.140 OA 
HETATM   50  H   UNL     1     -10.354   2.440  68.688  1.00  0.00     0.000 HD 
BRANCH  44  51
HETATM   51  N   UNL     1      -7.307   4.793  70.535  1.00  0.00    -0.049 NA 
HETATM   52  C   UNL     1      -7.473   4.781  71.893  1.00  0.00    -0.087 A  
HETATM   53  C   UNL     1      -7.729   6.805  71.246  1.00  0.00    -0.093 A  
HETATM   54  N   UNL     1      -7.760   5.981  72.356  1.00  0.00    -0.100 NA 
HETATM   55  C   UNL     1      -7.319   6.098  70.127  1.00  0.00    -0.082 A  
HETATM   56  N   UNL     1      -7.124   6.563  68.882  1.00  0.00    -0.079 NA 
HETATM   57  C   UNL     1      -7.416   7.879  68.823  1.00  0.00    -0.095 A  
HETATM   58  N   UNL     1      -7.893   8.677  69.804  1.00  0.00    -0.091 NA 
HETATM   59  C   UNL     1      -8.084   8.145  71.034  1.00  0.00    -0.100 A  
HETATM   60  N   UNL     1      -8.679   8.934  72.004  1.00  0.00    -0.376 NA 
HETATM   61  H2  UNL     1      -8.081   8.905  72.829  1.00  0.00     0.000 HD 
HETATM   62  H1  UNL     1      -8.938   9.909  71.850  1.00  0.00     0.000 HD 
ENDBRANCH  44  51
ENDBRANCH  41  42
ENDBRANCH  40  41
ENDBRANCH  37  40
ENDBRANCH  36  37
ENDBRANCH  33  36
ENDBRANCH  32  33
ENDBRANCH  31  32
ENDBRANCH  28  31
ENDBRANCH  25  28
ENDBRANCH  22  25
ENDBRANCH  21  22
ENDBRANCH   7  21
TORSDOF 13
ENDMDL
MODEL       25
REMARK 921   NORMALIZED FREE ENERGY PREDICTED BY IDOCK:   -6.33 KCAL/MOL
REMARK 922        TOTAL FREE ENERGY PREDICTED BY IDOCK:  -14.26 KCAL/MOL
REMARK 923 INTER-LIGAND FREE ENERGY PREDICTED BY IDOCK:  -11.80 KCAL/MOL
REMARK 924 INTRA-LIGAND FREE ENERGY PREDICTED BY IDOCK:   -2.46 KCAL/MOL
REMARK 927      BINDING AFFINITY PREDICTED BY RF-SCORE:    0.00 PKD
ROOT
HETATM    1  C   UNL     1      -7.744   3.077  64.828  1.00  0.00    -0.077 C  
HETATM    2  C   UNL     1      -7.892   4.206  65.810  1.00  0.00    -0.090 A  
HETATM    3  C   UNL     1      -7.362   5.464  65.483  1.00  0.00    -0.073 A  
HETATM    4  C   UNL     1      -7.594   6.587  66.285  1.00  0.00    -0.090 A  
HETATM    5  C   UNL     1      -8.460   6.484  67.392  1.00  0.00    -0.119 A  
HETATM    6  C   UNL     1      -8.875   5.202  67.788  1.00  0.00    -0.106 A  
HETATM    7  N   UNL     1      -8.845   7.657  68.079  1.00  0.00    -0.128 NA 
HETATM    8  H   UNL     1      -6.734  12.105  66.584  1.00  0.00     0.000 HD 
HETATM    9  C   UNL     1      -8.227   8.852  67.739  1.00  0.00    -0.110 A  
HETATM   10  C   UNL     1      -8.603   4.061  67.014  1.00  0.00    -0.105 A  
HETATM   11  C   UNL     1      -9.062   2.714  67.503  1.00  0.00    -0.215 C  
HETATM   12  O   UNL     1      -5.248  10.098  65.993  1.00  0.00    -0.041 OA 
HETATM   13  N   UNL     1      -8.562  10.000  68.257  1.00  0.00    -0.114 N  
HETATM   14  H   UNL     1      -9.345  10.029  68.910  1.00  0.00     0.000 HD 
HETATM   15  C   UNL     1      -7.141   8.828  66.700  1.00  0.00    -0.081 A  
HETATM   16  C   UNL     1      -7.919  11.161  67.969  1.00  0.00    -0.117 C  
HETATM   17  C   UNL     1      -6.368  10.087  66.477  1.00  0.00    -0.072 C  
HETATM   18  N   UNL     1      -6.909   7.778  65.966  1.00  0.00    -0.056 NA 
HETATM   19  N   UNL     1      -6.985  11.197  66.976  1.00  0.00    -0.114 N  
HETATM   20  O   UNL     1      -8.117  12.185  68.617  1.00  0.00    -0.127 OA 
ENDROOT
BRANCH   7  21
HETATM   21  C   UNL     1     -10.218   7.707  68.615  1.00  0.00    -0.199 C  
BRANCH  21  22
HETATM   22  C   UNL     1     -10.288   8.493  69.941  1.00  0.00    -0.210 C  
HETATM   23  O   UNL     1     -10.165   7.563  71.019  1.00  0.00    -0.192 OA 
HETATM   24  H   UNL     1     -10.209   8.047  71.835  1.00  0.00     0.000 HD 
BRANCH  22  25
HETATM   25  C   UNL     1     -11.609   9.282  69.983  1.00  0.00     0.025 C  
HETATM   26  H   UNL     1     -12.238  10.949  69.211  1.00  0.00     0.000 HD 
HETATM   27  O   UNL     1     -11.424  10.462  69.185  1.00  0.00    -0.238 OA 
BRANCH  25  28
HETATM   28  C   UNL     1     -12.083   9.685  71.400  1.00  0.00    -0.388 C  
HETATM   29  H   UNL     1     -12.707   8.778  73.046  1.00  0.00     0.000 HD 
HETATM   30  O   UNL     1     -12.416   8.531  72.176  1.00  0.00    -0.336 OA 
BRANCH  28  31
HETATM   31  C   UNL     1     -13.298  10.632  71.346  1.00  0.00    -0.205 C  
BRANCH  31  32
HETATM   32  O   UNL     1     -13.249  11.566  72.402  1.00  0.00    -0.268 OA 
BRANCH  32  33
HETATM   33  P   UNL     1     -13.106  13.124  72.049  1.00  0.00    -0.287 P  
HETATM   34  O   UNL     1     -12.385  13.704  73.347  1.00  0.00     0.337 OA 
HETATM   35  O   UNL     1     -14.405  13.847  71.824  1.00  0.00    -0.359 OA 
BRANCH  33  36
HETATM   36  O   UNL     1     -12.164  13.190  70.760  1.00  0.00    -0.361 OA 
BRANCH  36  37
HETATM   37  P   UNL     1     -11.962  14.621  69.809  1.00  0.00    -0.334 P  
HETATM   38  O   UNL     1     -10.787  15.148  70.810  1.00  0.00    -0.258 OA 
HETATM   39  O   UNL     1     -11.384  13.810  68.656  1.00  0.00    -0.252 OA 
BRANCH  37  40
HETATM   40  O   UNL     1     -11.759  16.051  68.856  1.00  0.00    -0.381 OA 
BRANCH  40  41
HETATM   41  C   UNL     1     -10.737  16.930  69.324  1.00  0.00    -0.288 C  
BRANCH  41  42
HETATM   42  C   UNL     1      -9.970  17.532  68.141  1.00  0.00    -0.321 C  
HETATM   43  O   UNL     1      -9.764  16.502  67.167  1.00  0.00    -0.237 OA 
HETATM   44  C   UNL     1      -9.889  17.080  65.861  1.00  0.00    -0.177 C  
HETATM   45  C   UNL     1     -10.484  18.482  65.964  1.00  0.00    -0.400 C  
HETATM   46  H   UNL     1     -10.643  20.663  67.494  1.00  0.00     0.000 HD 
HETATM   47  C   UNL     1     -10.699  18.688  67.461  1.00  0.00    -0.394 C  
HETATM   48  O   UNL     1     -10.189  19.943  67.918  1.00  0.00    -0.413 OA 
HETATM   49  O   UNL     1      -9.601  19.491  65.441  1.00  0.00    -0.108 OA 
HETATM   50  H   UNL     1      -9.971  20.363  65.504  1.00  0.00     0.000 HD 
BRANCH  44  51
HETATM   51  N   UNL     1     -10.648  16.175  65.022  1.00  0.00    -0.634 NA 
HETATM   52  C   UNL     1     -11.760  16.460  64.276  1.00  0.00     0.271 A  
HETATM   53  C   UNL     1     -11.751  14.346  64.608  1.00  0.00    -0.430 A  
HETATM   54  N   UNL     1     -12.470  15.377  64.031  1.00  0.00    -0.633 NA 
HETATM   55  C   UNL     1     -10.550  14.814  65.115  1.00  0.00    -0.417 A  
HETATM   56  N   UNL     1      -9.570  14.108  65.704  1.00  0.00    -0.155 NA 
HETATM   57  C   UNL     1      -9.915  12.806  65.782  1.00  0.00    -0.251 A  
HETATM   58  N   UNL     1     -11.072  12.220  65.402  1.00  0.00    -0.302 NA 
HETATM   59  C   UNL     1     -12.028  12.989  64.829  1.00  0.00    -0.395 A  
HETATM   60  N   UNL     1     -13.253  12.409  64.547  1.00  0.00    -0.771 NA 
HETATM   61  H2  UNL     1     -13.465  12.607  63.569  1.00  0.00     0.000 HD 
HETATM   62  H1  UNL     1     -13.454  11.422  64.707  1.00  0.00     0.000 HD 
ENDBRANCH  44  51
ENDBRANCH  41  42
ENDBRANCH  40  41
ENDBRANCH  37  40
ENDBRANCH  36  37
ENDBRANCH  33  36
ENDBRANCH  32  33
ENDBRANCH  31  32
ENDBRANCH  28  31
ENDBRANCH  25  28
ENDBRANCH  22  25
ENDBRANCH  21  22
ENDBRANCH   7  21
TORSDOF 13
ENDMDL
MODEL       26
REMARK 921   NORMALIZED FREE ENERGY PREDICTED BY IDOCK:   -6.28 KCAL/MOL
REMARK 922        TOTAL FREE ENERGY PREDICTED BY IDOCK:  -14.16 KCAL/MOL
REMARK 923 INTER-LIGAND FREE ENERGY PREDICTED BY IDOCK:  -11.64 KCAL/MOL
REMARK 924 INTRA-LIGAND FREE ENERGY PREDICTED BY IDOCK:   -2.52 KCAL/MOL
REMARK 927      BINDING AFFINITY PREDICTED BY RF-SCORE:    0.00 PKD
ROOT
HETATM    1  C   UNL     1      -8.749  19.651  67.126  1.00  0.00    -0.367 C  
HETATM    2  C   UNL     1      -9.183  18.328  67.695  1.00  0.00    -0.271 A  
HETATM    3  C   UNL     1      -9.982  18.314  68.849  1.00  0.00    -0.361 A  
HETATM    4  C   UNL     1     -10.537  17.128  69.339  1.00  0.00    -0.161 A  
HETATM    5  C   UNL     1     -10.381  15.933  68.610  1.00  0.00    -0.229 A  
HETATM    6  C   UNL     1      -9.474  15.929  67.538  1.00  0.00    -0.219 A  
HETATM    7  N   UNL     1     -11.104  14.785  69.003  1.00  0.00    -0.244 NA 
HETATM    8  H   UNL     1     -13.969  15.104  73.266  1.00  0.00     0.000 HD 
HETATM    9  C   UNL     1     -11.819  14.831  70.191  1.00  0.00    -0.307 A  
HETATM   10  C   UNL     1      -8.871  17.109  67.069  1.00  0.00    -0.246 A  
HETATM   11  C   UNL     1      -7.896  17.032  65.927  1.00  0.00     0.037 C  
HETATM   12  O   UNL     1     -12.041  16.797  73.283  1.00  0.00    -0.415 OA 
HETATM   13  N   UNL     1     -12.578  13.855  70.605  1.00  0.00    -0.343 N  
HETATM   14  H   UNL     1     -12.688  13.037  70.006  1.00  0.00     0.000 HD 
HETATM   15  C   UNL     1     -11.741  16.078  71.028  1.00  0.00    -0.417 A  
HETATM   16  C   UNL     1     -13.231  13.876  71.795  1.00  0.00    -0.376 C  
HETATM   17  C   UNL     1     -12.370  16.043  72.382  1.00  0.00    -0.497 C  
HETATM   18  N   UNL     1     -11.207  17.178  70.581  1.00  0.00     0.640 NA 
HETATM   19  N   UNL     1     -13.253  15.015  72.544  1.00  0.00    -0.367 N  
HETATM   20  O   UNL     1     -13.771  12.871  72.252  1.00  0.00    -0.541 OA 
ENDROOT
BRANCH   7  21
HETATM   21  C   UNL     1     -11.581  13.887  67.934  1.00  0.00    -0.342 C  
BRANCH  21  22
HETATM   22  C   UNL     1     -10.827  12.541  67.935  1.00  0.00    -0.222 C  
HETATM   23  O   UNL     1      -9.574  12.732  68.595  1.00  0.00    -0.383 OA 
HETATM   24  H   UNL     1      -9.109  11.903  68.595  1.00  0.00     0.000 HD 
BRANCH  22  25
HETATM   25  C   UNL     1     -10.668  12.058  66.482  1.00  0.00    -0.258 C  
HETATM   26  H   UNL     1     -11.865  11.326  65.140  1.00  0.00     0.000 HD 
HETATM   27  O   UNL     1     -11.963  11.624  66.036  1.00  0.00    -0.341 OA 
BRANCH  25  28
HETATM   28  C   UNL     1      -9.642  10.916  66.284  1.00  0.00    -0.200 C  
HETATM   29  H   UNL     1      -7.674  10.700  66.292  1.00  0.00     0.000 HD 
HETATM   30  O   UNL     1      -8.304  11.401  66.414  1.00  0.00    -0.167 OA 
BRANCH  28  31
HETATM   31  C   UNL     1      -9.808  10.234  64.911  1.00  0.00    -0.336 C  
BRANCH  31  32
HETATM   32  O   UNL     1      -9.139   8.992  64.887  1.00  0.00    -0.183 OA 
BRANCH  32  33
HETATM   33  P   UNL     1      -8.109   8.693  63.696  1.00  0.00    -0.113 P  
HETATM   34  O   UNL     1      -6.772   9.388  64.218  1.00  0.00    -0.089 OA 
HETATM   35  O   UNL     1      -8.493   9.272  62.362  1.00  0.00    -0.170 OA 
BRANCH  33  36
HETATM   36  O   UNL     1      -7.972   7.103  63.631  1.00  0.00    -0.128 OA 
BRANCH  36  37
HETATM   37  P   UNL     1      -7.999   6.093  65.036  1.00  0.00    -0.124 P  
HETATM   38  O   UNL     1      -8.688   4.886  64.181  1.00  0.00    -0.143 OA 
HETATM   39  O   UNL     1      -6.480   5.982  65.024  1.00  0.00    -0.036 OA 
BRANCH  37  40
HETATM   40  O   UNL     1      -8.026   5.083  66.440  1.00  0.00    -0.105 OA 
BRANCH  40  41
HETATM   41  C   UNL     1      -6.967   5.331  67.363  1.00  0.00    -0.065 C  
BRANCH  41  42
HETATM   42  C   UNL     1      -7.465   5.156  68.804  1.00  0.00    -0.066 C  
HETATM   43  O   UNL     1      -7.801   6.448  69.323  1.00  0.00    -0.102 OA 
HETATM   44  C   UNL     1      -8.962   6.314  70.154  1.00  0.00    -0.149 C  
HETATM   45  C   UNL     1      -9.595   4.940  69.953  1.00  0.00    -0.182 C  
HETATM   46  H   UNL     1      -9.087   2.381  69.387  1.00  0.00     0.000 HD 
HETATM   47  C   UNL     1      -8.696   4.261  68.923  1.00  0.00    -0.091 C  
HETATM   48  O   UNL     1      -8.321   2.938  69.312  1.00  0.00    -0.057 OA 
HETATM   49  O   UNL     1      -9.632   4.171  71.169  1.00  0.00    -0.154 OA 
HETATM   50  H   UNL     1     -10.026   3.316  71.044  1.00  0.00     0.000 HD 
BRANCH  44  51
HETATM   51  N   UNL     1      -9.856   7.423  69.886  1.00  0.00    -0.178 NA 
HETATM   52  C   UNL     1      -9.532   8.657  69.390  1.00  0.00    -0.161 A  
HETATM   53  C   UNL     1     -11.407   8.858  70.401  1.00  0.00    -0.202 A  
HETATM   54  N   UNL     1     -10.437   9.560  69.710  1.00  0.00    -0.217 NA 
HETATM   55  C   UNL     1     -11.119   7.504  70.405  1.00  0.00    -0.261 A  
HETATM   56  N   UNL     1     -11.846   6.505  70.933  1.00  0.00    -0.363 NA 
HETATM   57  C   UNL     1     -12.952   6.996  71.528  1.00  0.00    -0.359 A  
HETATM   58  N   UNL     1     -13.325   8.288  71.669  1.00  0.00    -0.338 NA 
HETATM   59  C   UNL     1     -12.541   9.250  71.128  1.00  0.00    -0.257 A  
HETATM   60  N   UNL     1     -12.865  10.574  71.373  1.00  0.00    -0.411 NA 
HETATM   61  H2  UNL     1     -12.902  11.049  70.471  1.00  0.00     0.000 HD 
HETATM   62  H1  UNL     1     -13.690  10.859  71.901  1.00  0.00     0.000 HD 
ENDBRANCH  44  51
ENDBRANCH  41  42
ENDBRANCH  40  41
ENDBRANCH  37  40
ENDBRANCH  36  37
ENDBRANCH  33  36
ENDBRANCH  32  33
ENDBRANCH  31  32
ENDBRANCH  28  31
ENDBRANCH  25  28
ENDBRANCH  22  25
ENDBRANCH  21  22
ENDBRANCH   7  21
TORSDOF 13
ENDMDL
MODEL       27
REMARK 921   NORMALIZED FREE ENERGY PREDICTED BY IDOCK:   -6.22 KCAL/MOL
REMARK 922        TOTAL FREE ENERGY PREDICTED BY IDOCK:  -14.05 KCAL/MOL
REMARK 923 INTER-LIGAND FREE ENERGY PREDICTED BY IDOCK:  -13.03 KCAL/MOL
REMARK 924 INTRA-LIGAND FREE ENERGY PREDICTED BY IDOCK:   -1.02 KCAL/MOL
REMARK 927      BINDING AFFINITY PREDICTED BY RF-SCORE:    0.00 PKD
ROOT
HETATM    1  C   UNL     1     -10.850   2.298  73.936  1.00  0.00    -0.265 C  
HETATM    2  C   UNL     1     -10.708   3.425  72.951  1.00  0.00    -0.178 A  
HETATM    3  C   UNL     1     -11.501   4.572  73.112  1.00  0.00    -0.274 A  
HETATM    4  C   UNL     1     -11.313   5.709  72.320  1.00  0.00    -0.240 A  
HETATM    5  C   UNL     1     -10.240   5.751  71.408  1.00  0.00    -0.216 A  
HETATM    6  C   UNL     1      -9.540   4.560  71.158  1.00  0.00    -0.245 A  
HETATM    7  N   UNL     1      -9.936   6.967  70.756  1.00  0.00    -0.190 NA 
HETATM    8  H   UNL     1     -13.038  10.982  71.612  1.00  0.00     0.000 HD 
HETATM    9  C   UNL     1     -10.806   8.036  70.916  1.00  0.00    -0.230 A  
HETATM   10  C   UNL     1      -9.758   3.396  71.916  1.00  0.00    -0.235 A  
HETATM   11  C   UNL     1      -8.986   2.149  71.585  1.00  0.00    -0.131 C  
HETATM   12  O   UNL     1     -14.241   8.748  71.994  1.00  0.00    -0.428 OA 
HETATM   13  N   UNL     1     -10.579   9.221  70.421  1.00  0.00    -0.229 N  
HETATM   14  H   UNL     1      -9.699   9.382  69.931  1.00  0.00     0.000 HD 
HETATM   15  C   UNL     1     -12.056   7.829  71.725  1.00  0.00    -0.298 A  
HETATM   16  C   UNL     1     -11.457  10.250  70.527  1.00  0.00    -0.343 C  
HETATM   17  C   UNL     1     -13.063   8.932  71.738  1.00  0.00    -0.374 C  
HETATM   18  N   UNL     1     -12.243   6.762  72.448  1.00  0.00    -0.110 NA 
HETATM   19  N   UNL     1     -12.561  10.130  71.318  1.00  0.00    -0.368 N  
HETATM   20  O   UNL     1     -11.315  11.288  69.883  1.00  0.00    -0.277 OA 
ENDROOT
BRANCH   7  21
HETATM   21  C   UNL     1      -8.513   7.256  70.494  1.00  0.00    -0.138 C  
BRANCH  21  22
HETATM   22  C   UNL     1      -8.245   7.503  68.995  1.00  0.00    -0.128 C  
HETATM   23  O   UNL     1      -8.040   6.238  68.363  1.00  0.00    -0.110 OA 
HETATM   24  H   UNL     1      -7.874   6.390  67.440  1.00  0.00     0.000 HD 
BRANCH  22  25
HETATM   25  C   UNL     1      -7.033   8.442  68.854  1.00  0.00    -0.062 C  
HETATM   26  H   UNL     1      -5.186   8.227  68.295  1.00  0.00     0.000 HD 
HETATM   27  O   UNL     1      -5.934   7.648  68.382  1.00  0.00    -0.030 OA 
BRANCH  25  28
HETATM   28  C   UNL     1      -6.621   9.174  70.155  1.00  0.00    -0.048 C  
HETATM   29  H   UNL     1      -7.475  10.336  71.512  1.00  0.00     0.000 HD 
HETATM   30  O   UNL     1      -7.728   9.887  70.713  1.00  0.00    -0.293 OA 
BRANCH  28  31
HETATM   31  C   UNL     1      -5.453  10.150  69.913  1.00  0.00    -0.039 C  
BRANCH  31  32
HETATM   32  O   UNL     1      -5.532  10.712  68.622  1.00  0.00    -0.041 OA 
BRANCH  32  33
HETATM   33  P   UNL     1      -6.159  12.178  68.455  1.00  0.00    -0.059 P  
HETATM   34  O   UNL     1      -5.557  12.650  67.056  1.00  0.00    -0.338 OA 
HETATM   35  O   UNL     1      -5.777  13.160  69.528  1.00  0.00    -0.083 OA 
BRANCH  33  36
HETATM   36  O   UNL     1      -7.741  11.967  68.385  1.00  0.00    -0.118 OA 
BRANCH  36  37
HETATM   37  P   UNL     1      -8.593  11.682  66.907  1.00  0.00    -0.173 P  
HETATM   38  O   UNL     1      -7.278  10.965  66.261  1.00  0.00    -0.138 OA 
HETATM   39  O   UNL     1      -9.499  10.664  67.588  1.00  0.00    -0.152 OA 
BRANCH  37  40
HETATM   40  O   UNL     1      -9.446  11.397  65.428  1.00  0.00    -0.221 OA 
BRANCH  40  41
HETATM   41  C   UNL     1     -10.780  10.922  65.601  1.00  0.00    -0.108 C  
BRANCH  41  42
HETATM   42  C   UNL     1     -11.785  12.046  65.321  1.00  0.00    -0.252 C  
HETATM   43  O   UNL     1     -12.078  12.706  66.559  1.00  0.00    -0.525 OA 
HETATM   44  C   UNL     1     -12.227  14.108  66.302  1.00  0.00    -0.449 C  
HETATM   45  C   UNL     1     -11.731  14.438  64.896  1.00  0.00    -0.408 C  
HETATM   46  H   UNL     1     -11.475  13.498  62.411  1.00  0.00     0.000 HD 
HETATM   47  C   UNL     1     -11.276  13.093  64.335  1.00  0.00    -0.371 C  
HETATM   48  O   UNL     1     -11.792  12.845  63.026  1.00  0.00    -0.403 OA 
HETATM   49  O   UNL     1     -12.766  15.001  64.069  1.00  0.00    -0.772 OA 
HETATM   50  H   UNL     1     -12.458  15.207  63.194  1.00  0.00     0.000 HD 
BRANCH  44  51
HETATM   51  N   UNL     1     -11.558  14.848  67.354  1.00  0.00    -0.354 NA 
HETATM   52  C   UNL     1     -12.048  15.167  68.591  1.00  0.00    -0.151 A  
HETATM   53  C   UNL     1     -10.465  16.542  68.167  1.00  0.00    -0.313 A  
HETATM   54  N   UNL     1     -11.427  16.211  69.103  1.00  0.00    -0.334 NA 
HETATM   55  C   UNL     1     -10.452  15.620  67.134  1.00  0.00    -0.303 A  
HETATM   56  N   UNL     1      -9.630  15.580  66.072  1.00  0.00    -0.320 NA 
HETATM   57  C   UNL     1      -8.775  16.624  66.102  1.00  0.00    -0.287 A  
HETATM   58  N   UNL     1      -8.719  17.635  66.997  1.00  0.00    -0.235 NA 
HETATM   59  C   UNL     1      -9.585  17.627  68.038  1.00  0.00    -0.289 A  
HETATM   60  N   UNL     1      -9.600  18.721  68.886  1.00  0.00    -0.349 NA 
HETATM   61  H2  UNL     1      -9.509  18.368  69.839  1.00  0.00     0.000 HD 
HETATM   62  H1  UNL     1      -8.959  19.510  68.792  1.00  0.00     0.000 HD 
ENDBRANCH  44  51
ENDBRANCH  41  42
ENDBRANCH  40  41
ENDBRANCH  37  40
ENDBRANCH  36  37
ENDBRANCH  33  36
ENDBRANCH  32  33
ENDBRANCH  31  32
ENDBRANCH  28  31
ENDBRANCH  25  28
ENDBRANCH  22  25
ENDBRANCH  21  22
ENDBRANCH   7  21
TORSDOF 13
ENDMDL
MODEL       28
REMARK 921   NORMALIZED FREE ENERGY PREDICTED BY IDOCK:   -6.21 KCAL/MOL
REMARK 922        TOTAL FREE ENERGY PREDICTED BY IDOCK:  -14.04 KCAL/MOL
REMARK 923 INTER-LIGAND FREE ENERGY PREDICTED BY IDOCK:  -11.45 KCAL/MOL
REMARK 924 INTRA-LIGAND FREE ENERGY PREDICTED BY IDOCK:   -2.59 KCAL/MOL
REMARK 927      BINDING AFFINITY PREDICTED BY RF-SCORE:    0.00 PKD
ROOT
HETATM    1  C   UNL     1      -7.248  12.647  68.211  1.00  0.00    -0.113 C  
HETATM    2  C   UNL     1      -7.349  11.169  68.465  1.00  0.00    -0.104 A  
HETATM    3  C   UNL     1      -8.145  10.716  69.530  1.00  0.00    -0.056 A  
HETATM    4  C   UNL     1      -8.397   9.354  69.726  1.00  0.00    -0.157 A  
HETATM    5  C   UNL     1      -7.931   8.417  68.783  1.00  0.00    -0.120 A  
HETATM    6  C   UNL     1      -7.029   8.861  67.803  1.00  0.00    -0.075 A  
HETATM    7  N   UNL     1      -8.353   7.072  68.880  1.00  0.00    -0.125 NA 
HETATM    8  H   UNL     1     -11.298   5.772  72.894  1.00  0.00     0.000 HD 
HETATM    9  C   UNL     1      -9.082   6.689  69.996  1.00  0.00    -0.151 A  
HETATM   10  C   UNL     1      -6.730  10.224  67.630  1.00  0.00    -0.074 A  
HETATM   11  C   UNL     1      -5.742  10.631  66.571  1.00  0.00    -0.075 C  
HETATM   12  O   UNL     1      -9.854   7.832  73.398  1.00  0.00    -0.290 OA 
HETATM   13  N   UNL     1      -9.583   5.495  70.146  1.00  0.00    -0.162 N  
HETATM   14  H   UNL     1      -9.471   4.823  69.387  1.00  0.00     0.000 HD 
HETATM   15  C   UNL     1      -9.336   7.708  71.072  1.00  0.00    -0.152 A  
HETATM   16  C   UNL     1     -10.246   5.102  71.264  1.00  0.00    -0.222 C  
HETATM   17  C   UNL     1      -9.966   7.234  72.341  1.00  0.00    -0.175 C  
HETATM   18  N   UNL     1      -9.084   8.974  70.899  1.00  0.00    -0.231 NA 
HETATM   19  N   UNL     1     -10.567   6.014  72.225  1.00  0.00    -0.208 N  
HETATM   20  O   UNL     1     -10.527   3.923  71.465  1.00  0.00     0.038 OA 
ENDROOT
BRANCH   7  21
HETATM   21  C   UNL     1      -8.568   6.339  67.618  1.00  0.00    -0.114 C  
BRANCH  21  22
HETATM   22  C   UNL     1      -7.608   5.138  67.482  1.00  0.00    -0.088 C  
HETATM   23  O   UNL     1      -6.325   5.633  67.094  1.00  0.00    -0.039 OA 
HETATM   24  H   UNL     1      -5.734   4.893  67.010  1.00  0.00     0.000 HD 
BRANCH  22  25
HETATM   25  C   UNL     1      -8.196   4.144  66.465  1.00  0.00    -0.101 C  
HETATM   26  H   UNL     1      -8.067   2.226  66.185  1.00  0.00     0.000 HD 
HETATM   27  O   UNL     1      -7.704   2.840  66.813  1.00  0.00    -0.074 OA 
BRANCH  25  28
HETATM   28  C   UNL     1      -7.856   4.447  64.985  1.00  0.00    -0.089 C  
HETATM   29  H   UNL     1      -6.235   4.596  63.859  1.00  0.00     0.000 HD 
HETATM   30  O   UNL     1      -6.444   4.410  64.767  1.00  0.00    -0.037 OA 
BRANCH  28  31
HETATM   31  C   UNL     1      -8.406   5.818  64.544  1.00  0.00    -0.091 C  
BRANCH  31  32
HETATM   32  O   UNL     1      -7.350   6.708  64.253  1.00  0.00    -0.065 OA 
BRANCH  32  33
HETATM   33  P   UNL     1      -7.700   8.235  63.912  1.00  0.00    -0.149 P  
HETATM   34  O   UNL     1      -8.606   8.095  62.607  1.00  0.00    -0.093 OA 
HETATM   35  O   UNL     1      -6.514   9.109  63.613  1.00  0.00    -0.089 OA 
BRANCH  33  36
HETATM   36  O   UNL     1      -8.532   8.778  65.163  1.00  0.00    -0.157 OA 
BRANCH  36  37
HETATM   37  P   UNL     1      -9.752   9.998  65.031  1.00  0.00    -0.208 P  
HETATM   38  O   UNL     1     -10.169   9.781  66.593  1.00  0.00    -0.226 OA 
HETATM   39  O   UNL     1      -8.694  11.085  64.887  1.00  0.00    -0.121 OA 
BRANCH  37  40
HETATM   40  O   UNL     1     -10.971  11.219  64.899  1.00  0.00    -0.262 OA 
BRANCH  40  41
HETATM   41  C   UNL     1     -11.083  12.065  66.042  1.00  0.00    -0.320 C  
BRANCH  41  42
HETATM   42  C   UNL     1     -11.738  13.397  65.656  1.00  0.00    -0.346 C  
HETATM   43  O   UNL     1     -11.287  14.402  66.572  1.00  0.00    -0.331 OA 
HETATM   44  C   UNL     1     -11.113  15.629  65.850  1.00  0.00    -0.155 C  
HETATM   45  C   UNL     1     -11.171  15.364  64.347  1.00  0.00    -0.202 C  
HETATM   46  H   UNL     1     -12.251  13.820  62.458  1.00  0.00     0.000 HD 
HETATM   47  C   UNL     1     -11.401  13.860  64.241  1.00  0.00    -0.294 C  
HETATM   48  O   UNL     1     -12.460  13.532  63.339  1.00  0.00    -0.750 OA 
HETATM   49  O   UNL     1     -12.241  16.082  63.706  1.00  0.00    -1.269 OA 
HETATM   50  H   UNL     1     -12.277  15.918  62.772  1.00  0.00     0.000 HD 
BRANCH  44  51
HETATM   51  N   UNL     1      -9.886  16.260  66.294  1.00  0.00    -0.292 NA 
HETATM   52  C   UNL     1      -8.841  15.679  66.959  1.00  0.00    -0.225 A  
HETATM   53  C   UNL     1      -8.730  17.784  67.329  1.00  0.00    -0.237 A  
HETATM   54  N   UNL     1      -8.134  16.572  67.624  1.00  0.00    -0.161 NA 
HETATM   55  C   UNL     1      -9.742  17.616  66.398  1.00  0.00    -0.294 A  
HETATM   56  N   UNL     1     -10.513  18.561  65.835  1.00  0.00    -0.600 NA 
HETATM   57  C   UNL     1     -10.196  19.777  66.327  1.00  0.00    -0.509 A  
HETATM   58  N   UNL     1      -9.293  20.085  67.284  1.00  0.00    -0.353 NA 
HETATM   59  C   UNL     1      -8.557  19.084  67.825  1.00  0.00    -0.298 A  
HETATM   60  N   UNL     1      -7.716  19.387  68.882  1.00  0.00    -0.359 NA 
HETATM   61  H2  UNL     1      -6.792  19.025  68.649  1.00  0.00     0.000 HD 
HETATM   62  H1  UNL     1      -7.590  20.333  69.243  1.00  0.00     0.000 HD 
ENDBRANCH  44  51
ENDBRANCH  41  42
ENDBRANCH  40  41
ENDBRANCH  37  40
ENDBRANCH  36  37
ENDBRANCH  33  36
ENDBRANCH  32  33
ENDBRANCH  31  32
ENDBRANCH  28  31
ENDBRANCH  25  28
ENDBRANCH  22  25
ENDBRANCH  21  22
ENDBRANCH   7  21
TORSDOF 13
ENDMDL
MODEL       29
REMARK 921   NORMALIZED FREE ENERGY PREDICTED BY IDOCK:   -6.18 KCAL/MOL
REMARK 922        TOTAL FREE ENERGY PREDICTED BY IDOCK:  -13.99 KCAL/MOL
REMARK 923 INTER-LIGAND FREE ENERGY PREDICTED BY IDOCK:  -11.41 KCAL/MOL
REMARK 924 INTRA-LIGAND FREE ENERGY PREDICTED BY IDOCK:   -2.58 KCAL/MOL
REMARK 927      BINDING AFFINITY PREDICTED BY RF-SCORE:    0.00 PKD
ROOT
HETATM    1  C   UNL     1      -6.324  17.462  67.908  1.00  0.00    -0.160 C  
HETATM    2  C   UNL     1      -7.243  16.305  67.636  1.00  0.00    -0.162 A  
HETATM    3  C   UNL     1      -8.227  16.438  66.643  1.00  0.00    -0.314 A  
HETATM    4  C   UNL     1      -9.013  15.353  66.243  1.00  0.00    -0.306 A  
HETATM    5  C   UNL     1      -8.752  14.073  66.769  1.00  0.00    -0.110 A  
HETATM    6  C   UNL     1      -7.864  13.973  67.852  1.00  0.00    -0.161 A  
HETATM    7  N   UNL     1      -9.414  12.952  66.218  1.00  0.00    -0.236 NA 
HETATM    8  H   UNL     1     -12.933  13.808  62.564  1.00  0.00     0.000 HD 
HETATM    9  C   UNL     1     -10.419  13.172  65.288  1.00  0.00    -0.307 A  
HETATM   10  C   UNL     1      -7.106  15.071  68.295  1.00  0.00    -0.115 A  
HETATM   11  C   UNL     1      -6.185  14.902  69.472  1.00  0.00    -0.123 C  
HETATM   12  O   UNL     1     -12.622  15.850  64.085  1.00  0.00    -0.540 OA 
HETATM   13  N   UNL     1     -11.038  12.208  64.666  1.00  0.00    -0.306 N  
HETATM   14  H   UNL     1     -10.739  11.248  64.837  1.00  0.00     0.000 HD 
HETATM   15  C   UNL     1     -10.793  14.590  64.957  1.00  0.00    -0.412 A  
HETATM   16  C   UNL     1     -12.062  12.420  63.800  1.00  0.00    -0.529 C  
HETATM   17  C   UNL     1     -11.991  14.806  64.092  1.00  0.00    -0.259 C  
HETATM   18  N   UNL     1     -10.073  15.603  65.345  1.00  0.00    -0.362 NA 
HETATM   19  N   UNL     1     -12.377  13.688  63.411  1.00  0.00    -0.300 N  
HETATM   20  O   UNL     1     -12.758  11.496  63.386  1.00  0.00    -0.340 OA 
ENDROOT
BRANCH   7  21
HETATM   21  C   UNL     1      -8.656  11.688  66.144  1.00  0.00    -0.053 C  
BRANCH  21  22
HETATM   22  C   UNL     1      -9.335  10.564  66.954  1.00  0.00    -0.159 C  
HETATM   23  O   UNL     1     -10.293   9.922  66.110  1.00  0.00    -0.230 OA 
HETATM   24  H   UNL     1     -10.711   9.229  66.609  1.00  0.00     0.000 HD 
BRANCH  22  25
HETATM   25  C   UNL     1      -9.967  11.173  68.218  1.00  0.00    -0.187 C  
HETATM   26  H   UNL     1      -9.437  11.331  70.080  1.00  0.00     0.000 HD 
HETATM   27  O   UNL     1      -9.047  10.955  69.299  1.00  0.00    -0.110 OA 
BRANCH  25  28
HETATM   28  C   UNL     1     -11.354  10.597  68.595  1.00  0.00    -0.281 C  
HETATM   29  H   UNL     1     -13.046  11.258  69.382  1.00  0.00     0.000 HD 
HETATM   30  O   UNL     1     -12.195  11.612  69.151  1.00  0.00    -0.275 OA 
BRANCH  28  31
HETATM   31  C   UNL     1     -11.233   9.430  69.594  1.00  0.00    -0.074 C  
BRANCH  31  32
HETATM   32  O   UNL     1     -11.736   9.802  70.859  1.00  0.00    -0.296 OA 
BRANCH  32  33
HETATM   33  P   UNL     1     -12.248   8.654  71.854  1.00  0.00    -0.405 P  
HETATM   34  O   UNL     1     -12.602   7.465  70.851  1.00  0.00    -0.257 OA 
HETATM   35  O   UNL     1     -13.463   9.010  72.665  1.00  0.00    -0.463 OA 
BRANCH  33  36
HETATM   36  O   UNL     1     -11.000   8.299  72.785  1.00  0.00    -0.354 OA 
BRANCH  36  37
HETATM   37  P   UNL     1      -9.608   7.443  72.217  1.00  0.00    -0.162 P  
HETATM   38  O   UNL     1      -8.621   8.514  72.952  1.00  0.00    -0.345 OA 
HETATM   39  O   UNL     1      -9.922   6.264  73.129  1.00  0.00    -0.164 OA 
BRANCH  37  40
HETATM   40  O   UNL     1      -8.216   6.585  71.650  1.00  0.00    -0.111 OA 
BRANCH  40  41
HETATM   41  C   UNL     1      -8.479   5.678  70.581  1.00  0.00    -0.126 C  
BRANCH  41  42
HETATM   42  C   UNL     1      -7.607   6.019  69.366  1.00  0.00    -0.097 C  
HETATM   43  O   UNL     1      -7.978   5.151  68.288  1.00  0.00    -0.087 OA 
HETATM   44  C   UNL     1      -7.911   5.895  67.064  1.00  0.00    -0.102 C  
HETATM   45  C   UNL     1      -7.772   7.386  67.364  1.00  0.00    -0.114 C  
HETATM   46  H   UNL     1      -6.780   9.167  69.087  1.00  0.00     0.000 HD 
HETATM   47  C   UNL     1      -7.756   7.460  68.888  1.00  0.00    -0.115 C  
HETATM   48  O   UNL     1      -6.688   8.269  69.384  1.00  0.00    -0.041 OA 
HETATM   49  O   UNL     1      -6.559   7.942  66.823  1.00  0.00    -0.056 OA 
HETATM   50  H   UNL     1      -6.473   8.869  67.009  1.00  0.00     0.000 HD 
BRANCH  44  51
HETATM   51  N   UNL     1      -9.064   5.560  66.252  1.00  0.00    -0.142 NA 
HETATM   52  C   UNL     1     -10.377   5.533  66.636  1.00  0.00    -0.269 A  
HETATM   53  C   UNL     1     -10.206   4.300  64.896  1.00  0.00    -0.175 A  
HETATM   54  N   UNL     1     -11.095   4.753  65.853  1.00  0.00     0.049 NA 
HETATM   55  C   UNL     1      -8.968   4.899  65.059  1.00  0.00    -0.147 A  
HETATM   56  N   UNL     1      -7.870   4.748  64.299  1.00  0.00    -0.082 NA 
HETATM   57  C   UNL     1      -8.106   3.866  63.306  1.00  0.00    -0.084 A  
HETATM   58  N   UNL     1      -9.229   3.152  63.068  1.00  0.00    -0.091 NA 
HETATM   59  C   UNL     1     -10.298   3.338  63.879  1.00  0.00    -0.215 A  
HETATM   60  N   UNL     1     -11.404   2.525  63.702  1.00  0.00    -0.552 NA 
HETATM   61  H2  UNL     1     -12.218   3.133  63.619  1.00  0.00     0.000 HD 
HETATM   62  H1  UNL     1     -11.470   1.825  62.963  1.00  0.00     0.000 HD 
ENDBRANCH  44  51
ENDBRANCH  41  42
ENDBRANCH  40  41
ENDBRANCH  37  40
ENDBRANCH  36  37
ENDBRANCH  33  36
ENDBRANCH  32  33
ENDBRANCH  31  32
ENDBRANCH  28  31
ENDBRANCH  25  28
ENDBRANCH  22  25
ENDBRANCH  21  22
ENDBRANCH   7  21
TORSDOF 13
ENDMDL
MODEL       30
REMARK 921   NORMALIZED FREE ENERGY PREDICTED BY IDOCK:   -6.13 KCAL/MOL
REMARK 922        TOTAL FREE ENERGY PREDICTED BY IDOCK:  -13.89 KCAL/MOL
REMARK 923 INTER-LIGAND FREE ENERGY PREDICTED BY IDOCK:  -11.50 KCAL/MOL
REMARK 924 INTRA-LIGAND FREE ENERGY PREDICTED BY IDOCK:   -2.39 KCAL/MOL
REMARK 927      BINDING AFFINITY PREDICTED BY RF-SCORE:    0.00 PKD
ROOT
HETATM    1  C   UNL     1     -12.792  12.135  63.227  1.00  0.00    -0.312 C  
HETATM    2  C   UNL     1     -11.721  12.834  64.015  1.00  0.00    -0.494 A  
HETATM    3  C   UNL     1     -11.870  14.200  64.301  1.00  0.00    -0.420 A  
HETATM    4  C   UNL     1     -10.985  14.871  65.152  1.00  0.00    -0.399 A  
HETATM    5  C   UNL     1      -9.979  14.145  65.821  1.00  0.00    -0.309 A  
HETATM    6  C   UNL     1      -9.754  12.816  65.429  1.00  0.00    -0.061 A  
HETATM    7  N   UNL     1      -9.217  14.786  66.823  1.00  0.00    -0.247 NA 
HETATM    8  H   UNL     1     -10.058  19.797  67.632  1.00  0.00     0.000 HD 
HETATM    9  C   UNL     1      -9.377  16.153  67.000  1.00  0.00    -0.218 A  
HETATM   10  C   UNL     1     -10.609  12.149  64.535  1.00  0.00    -0.350 A  
HETATM   11  C   UNL     1     -10.301  10.730  64.144  1.00  0.00    -0.382 C  
HETATM   12  O   UNL     1     -10.705  19.094  65.251  1.00  0.00    -0.476 OA 
HETATM   13  N   UNL     1      -8.780  16.824  67.945  1.00  0.00    -0.200 N  
HETATM   14  H   UNL     1      -8.203  16.314  68.613  1.00  0.00     0.000 HD 
HETATM   15  C   UNL     1     -10.308  16.892  66.079  1.00  0.00    -0.325 A  
HETATM   16  C   UNL     1      -8.890  18.170  68.082  1.00  0.00    -0.280 C  
HETATM   17  C   UNL     1     -10.331  18.382  66.169  1.00  0.00    -0.407 C  
HETATM   18  N   UNL     1     -11.119  16.271  65.272  1.00  0.00    -0.212 NA 
HETATM   19  N   UNL     1      -9.783  18.865  67.322  1.00  0.00    -0.304 N  
HETATM   20  O   UNL     1      -8.164  18.801  68.846  1.00  0.00    -0.306 OA 
ENDROOT
BRANCH   7  21
HETATM   21  C   UNL     1      -8.808  13.973  67.985  1.00  0.00    -0.181 C  
BRANCH  21  22
HETATM   22  C   UNL     1      -7.273  13.867  68.099  1.00  0.00    -0.120 C  
HETATM   23  O   UNL     1      -6.692  14.685  67.082  1.00  0.00    -0.351 OA 
HETATM   24  H   UNL     1      -5.746  14.619  67.153  1.00  0.00     0.000 HD 
BRANCH  22  25
HETATM   25  C   UNL     1      -6.867  12.387  67.978  1.00  0.00    -0.089 C  
HETATM   26  H   UNL     1      -6.384  11.210  66.510  1.00  0.00     0.000 HD 
HETATM   27  O   UNL     1      -6.634  12.124  66.585  1.00  0.00     0.001 OA 
BRANCH  25  28
HETATM   28  C   UNL     1      -7.904  11.379  68.529  1.00  0.00    -0.140 C  
HETATM   29  H   UNL     1      -8.013  10.042  69.986  1.00  0.00     0.000 HD 
HETATM   30  O   UNL     1      -7.376  10.661  69.647  1.00  0.00    -0.141 OA 
BRANCH  28  31
HETATM   31  C   UNL     1      -8.357  10.379  67.447  1.00  0.00    -0.121 C  
BRANCH  31  32
HETATM   32  O   UNL     1      -8.380   9.065  67.961  1.00  0.00    -0.116 OA 
BRANCH  32  33
HETATM   33  P   UNL     1      -8.429   7.835  66.933  1.00  0.00    -0.132 P  
HETATM   34  O   UNL     1      -7.115   7.017  67.317  1.00  0.00    -0.078 OA 
HETATM   35  O   UNL     1      -8.381   8.218  65.480  1.00  0.00    -0.139 OA 
BRANCH  33  36
HETATM   36  O   UNL     1      -9.762   7.028  67.287  1.00  0.00    -0.135 OA 
BRANCH  36  37
HETATM   37  P   UNL     1      -9.761   5.543  68.173  1.00  0.00    -0.148 P  
HETATM   38  O   UNL     1     -11.058   6.030  69.035  1.00  0.00    -0.351 OA 
HETATM   39  O   UNL     1     -10.182   4.766  66.932  1.00  0.00    -0.216 OA 
BRANCH  37  40
HETATM   40  O   UNL     1      -9.761   4.056  69.059  1.00  0.00    -0.169 OA 
BRANCH  40  41
HETATM   41  C   UNL     1      -8.535   3.772  69.733  1.00  0.00    -0.059 C  
BRANCH  41  42
HETATM   42  C   UNL     1      -8.772   3.662  71.244  1.00  0.00    -0.081 C  
HETATM   43  O   UNL     1      -9.023   4.976  71.757  1.00  0.00    -0.131 OA 
HETATM   44  C   UNL     1     -10.019   4.880  72.783  1.00  0.00    -0.161 C  
HETATM   45  C   UNL     1     -10.667   3.498  72.757  1.00  0.00    -0.040 C  
HETATM   46  H   UNL     1     -10.246   0.917  72.225  1.00  0.00     0.000 HD 
HETATM   47  C   UNL     1      -9.956   2.774  71.617  1.00  0.00    -0.086 C  
HETATM   48  O   UNL     1      -9.509   1.470  71.993  1.00  0.00    -0.079 OA 
HETATM   49  O   UNL     1     -10.484   2.785  73.994  1.00  0.00    -0.135 OA 
HETATM   50  H   UNL     1     -10.888   1.925  73.978  1.00  0.00     0.000 HD 
BRANCH  44  51
HETATM   51  N   UNL     1     -10.955   5.976  72.628  1.00  0.00    -0.249 NA 
HETATM   52  C   UNL     1     -12.313   5.901  72.483  1.00  0.00     0.121 A  
HETATM   53  C   UNL     1     -11.703   7.798  71.704  1.00  0.00    -0.280 A  
HETATM   54  N   UNL     1     -12.799   6.978  71.899  1.00  0.00    -0.300 NA 
HETATM   55  C   UNL     1     -10.570   7.239  72.272  1.00  0.00    -0.224 A  
HETATM   56  N   UNL     1      -9.332   7.758  72.328  1.00  0.00    -0.147 NA 
HETATM   57  C   UNL     1      -9.297   8.954  71.704  1.00  0.00    -0.258 A  
HETATM   58  N   UNL     1     -10.294   9.585  71.045  1.00  0.00    -0.302 NA 
HETATM   59  C   UNL     1     -11.517   9.002  71.011  1.00  0.00    -0.295 A  
HETATM   60  N   UNL     1     -12.503   9.594  70.240  1.00  0.00    -0.466 NA 
HETATM   61  H2  UNL     1     -13.324   9.710  70.834  1.00  0.00     0.000 HD 
HETATM   62  H1  UNL     1     -12.367  10.471  69.736  1.00  0.00     0.000 HD 
ENDBRANCH  44  51
ENDBRANCH  41  42
ENDBRANCH  40  41
ENDBRANCH  37  40
ENDBRANCH  36  37
ENDBRANCH  33  36
ENDBRANCH  32  33
ENDBRANCH  31  32
ENDBRANCH  28  31
ENDBRANCH  25  28
ENDBRANCH  22  25
ENDBRANCH  21  22
ENDBRANCH   7  21
TORSDOF 13
ENDMDL
MODEL       31
REMARK 921   NORMALIZED FREE ENERGY PREDICTED BY IDOCK:   -6.09 KCAL/MOL
REMARK 922        TOTAL FREE ENERGY PREDICTED BY IDOCK:  -13.83 KCAL/MOL
REMARK 923 INTER-LIGAND FREE ENERGY PREDICTED BY IDOCK:  -12.14 KCAL/MOL
REMARK 924 INTRA-LIGAND FREE ENERGY PREDICTED BY IDOCK:   -1.69 KCAL/MOL
REMARK 927      BINDING AFFINITY PREDICTED BY RF-SCORE:    0.00 PKD
ROOT
HETATM    1  C   UNL     1      -5.743   8.517  64.299  1.00  0.00    -0.064 C  
HETATM    2  C   UNL     1      -6.857   8.111  65.223  1.00  0.00    -0.059 A  
HETATM    3  C   UNL     1      -6.546   7.393  66.388  1.00  0.00    -0.053 A  
HETATM    4  C   UNL     1      -7.516   7.115  67.357  1.00  0.00    -0.100 A  
HETATM    5  C   UNL     1      -8.812   7.650  67.218  1.00  0.00    -0.120 A  
HETATM    6  C   UNL     1      -9.150   8.248  65.993  1.00  0.00    -0.228 A  
HETATM    7  N   UNL     1      -9.725   7.532  68.289  1.00  0.00    -0.152 NA 
HETATM    8  H   UNL     1      -8.232   4.863  72.426  1.00  0.00     0.000 HD 
HETATM    9  C   UNL     1      -9.367   6.751  69.378  1.00  0.00    -0.148 A  
HETATM   10  C   UNL     1      -8.192   8.486  64.993  1.00  0.00    -0.160 A  
HETATM   11  C   UNL     1      -8.624   9.116  63.697  1.00  0.00    -0.180 C  
HETATM   12  O   UNL     1      -6.967   4.137  70.316  1.00  0.00    -0.036 OA 
HETATM   13  N   UNL     1     -10.103   6.638  70.448  1.00  0.00    -0.182 N  
HETATM   14  H   UNL     1     -10.962   7.185  70.506  1.00  0.00     0.000 HD 
HETATM   15  C   UNL     1      -8.052   6.024  69.339  1.00  0.00    -0.111 A  
HETATM   16  C   UNL     1      -9.782   5.829  71.489  1.00  0.00    -0.159 C  
HETATM   17  C   UNL     1      -7.764   5.053  70.436  1.00  0.00    -0.070 C  
HETATM   18  N   UNL     1      -7.155   6.267  68.426  1.00  0.00    -0.080 NA 
HETATM   19  N   UNL     1      -8.564   5.217  71.529  1.00  0.00    -0.128 N  
HETATM   20  O   UNL     1     -10.584   5.585  72.388  1.00  0.00    -0.205 OA 
ENDROOT
BRANCH   7  21
HETATM   21  C   UNL     1     -10.657   8.654  68.509  1.00  0.00    -0.119 C  
BRANCH  21  22
HETATM   22  C   UNL     1      -9.919   9.936  68.949  1.00  0.00    -0.181 C  
HETATM   23  O   UNL     1      -9.857   9.948  70.376  1.00  0.00    -0.336 OA 
HETATM   24  H   UNL     1      -9.402  10.737  70.647  1.00  0.00     0.000 HD 
BRANCH  22  25
HETATM   25  C   UNL     1     -10.658  11.158  68.374  1.00  0.00    -0.193 C  
HETATM   26  H   UNL     1     -12.517  11.606  68.037  1.00  0.00     0.000 HD 
HETATM   27  O   UNL     1     -12.061  10.852  68.392  1.00  0.00    -0.559 OA 
BRANCH  25  28
HETATM   28  C   UNL     1     -10.235  11.561  66.941  1.00  0.00    -0.217 C  
HETATM   29  H   UNL     1      -9.827  13.226  65.950  1.00  0.00     0.000 HD 
HETATM   30  O   UNL     1     -10.086  12.979  66.830  1.00  0.00    -0.238 OA 
BRANCH  28  31
HETATM   31  C   UNL     1     -11.248  11.069  65.889  1.00  0.00     0.141 C  
BRANCH  31  32
HETATM   32  O   UNL     1     -12.107  12.117  65.496  1.00  0.00    -0.517 OA 
BRANCH  32  33
HETATM   33  P   UNL     1     -12.144  12.546  63.951  1.00  0.00    -0.560 P  
HETATM   34  O   UNL     1     -13.396  11.726  63.399  1.00  0.00    -0.510 OA 
HETATM   35  O   UNL     1     -10.916  12.189  63.161  1.00  0.00    -0.363 OA 
BRANCH  33  36
HETATM   36  O   UNL     1     -12.411  14.121  63.946  1.00  0.00    -0.730 OA 
BRANCH  36  37
HETATM   37  P   UNL     1     -11.361  15.262  64.713  1.00  0.00    -0.250 P  
HETATM   38  O   UNL     1     -10.058  14.369  64.305  1.00  0.00     0.068 OA 
HETATM   39  O   UNL     1     -11.669  16.309  63.650  1.00  0.00    -0.860 OA 
BRANCH  37  40
HETATM   40  O   UNL     1     -10.310  16.403  65.480  1.00  0.00    -0.472 OA 
BRANCH  40  41
HETATM   41  C   UNL     1     -10.963  17.582  65.948  1.00  0.00     0.198 C  
BRANCH  41  42
HETATM   42  C   UNL     1     -10.340  18.045  67.272  1.00  0.00    -0.378 C  
HETATM   43  O   UNL     1     -11.138  17.534  68.347  1.00  0.00    -0.178 OA 
HETATM   44  C   UNL     1     -10.265  17.167  69.424  1.00  0.00    -0.164 C  
HETATM   45  C   UNL     1      -8.816  17.161  68.945  1.00  0.00    -0.186 C  
HETATM   46  H   UNL     1      -7.083  18.298  67.263  1.00  0.00     0.000 HD 
HETATM   47  C   UNL     1      -8.906  17.565  67.476  1.00  0.00    -0.229 C  
HETATM   48  O   UNL     1      -7.977  18.596  67.136  1.00  0.00    -0.236 OA 
HETATM   49  O   UNL     1      -7.995  18.093  69.672  1.00  0.00     0.416 OA 
HETATM   50  H   UNL     1      -7.093  18.089  69.374  1.00  0.00     0.000 HD 
BRANCH  44  51
HETATM   51  N   UNL     1     -10.713  15.904  69.975  1.00  0.00    -0.322 NA 
HETATM   52  C   UNL     1     -10.860  14.711  69.319  1.00  0.00    -0.258 A  
HETATM   53  C   UNL     1     -12.083  14.620  71.073  1.00  0.00    -0.329 A  
HETATM   54  N   UNL     1     -11.709  13.918  69.942  1.00  0.00    -0.292 NA 
HETATM   55  C   UNL     1     -11.370  15.803  71.170  1.00  0.00    -0.389 A  
HETATM   56  N   UNL     1     -11.422  16.722  72.149  1.00  0.00     0.003 NA 
HETATM   57  C   UNL     1     -12.329  16.362  73.080  1.00  0.00    -0.424 A  
HETATM   58  N   UNL     1     -13.146  15.285  73.083  1.00  0.00    -0.485 NA 
HETATM   59  C   UNL     1     -13.056  14.402  72.060  1.00  0.00    -0.361 A  
HETATM   60  N   UNL     1     -13.971  13.365  72.007  1.00  0.00    -0.394 NA 
HETATM   61  H2  UNL     1     -13.442  12.498  71.906  1.00  0.00     0.000 HD 
HETATM   62  H1  UNL     1     -14.678  13.207  72.725  1.00  0.00     0.000 HD 
ENDBRANCH  44  51
ENDBRANCH  41  42
ENDBRANCH  40  41
ENDBRANCH  37  40
ENDBRANCH  36  37
ENDBRANCH  33  36
ENDBRANCH  32  33
ENDBRANCH  31  32
ENDBRANCH  28  31
ENDBRANCH  25  28
ENDBRANCH  22  25
ENDBRANCH  21  22
ENDBRANCH   7  21
TORSDOF 13
ENDMDL
MODEL       32
REMARK 921   NORMALIZED FREE ENERGY PREDICTED BY IDOCK:   -6.03 KCAL/MOL
REMARK 922        TOTAL FREE ENERGY PREDICTED BY IDOCK:  -13.72 KCAL/MOL
REMARK 923 INTER-LIGAND FREE ENERGY PREDICTED BY IDOCK:  -10.25 KCAL/MOL
REMARK 924 INTRA-LIGAND FREE ENERGY PREDICTED BY IDOCK:   -3.47 KCAL/MOL
REMARK 927      BINDING AFFINITY PREDICTED BY RF-SCORE:    0.00 PKD
ROOT
HETATM    1  C   UNL     1     -14.364  15.423  72.205  1.00  0.00    -0.642 C  
HETATM    2  C   UNL     1     -13.454  14.365  71.645  1.00  0.00    -0.451 A  
HETATM    3  C   UNL     1     -13.644  13.030  72.033  1.00  0.00    -0.530 A  
HETATM    4  C   UNL     1     -12.929  11.986  71.438  1.00  0.00    -0.262 A  
HETATM    5  C   UNL     1     -12.071  12.259  70.354  1.00  0.00    -0.300 A  
HETATM    6  C   UNL     1     -11.786  13.603  70.062  1.00  0.00    -0.319 A  
HETATM    7  N   UNL     1     -11.506  11.184  69.633  1.00  0.00    -0.282 NA 
HETATM    8  H   UNL     1     -12.448   6.415  71.318  1.00  0.00     0.000 HD 
HETATM    9  C   UNL     1     -11.686   9.897  70.119  1.00  0.00    -0.174 A  
HETATM   10  C   UNL     1     -12.464  14.661  70.692  1.00  0.00    -0.408 A  
HETATM   11  C   UNL     1     -12.098  16.078  70.345  1.00  0.00    -0.198 C  
HETATM   12  O   UNL     1     -12.643   8.147  73.200  1.00  0.00     0.027 OA 
HETATM   13  N   UNL     1     -11.272   8.833  69.490  1.00  0.00    -0.434 N  
HETATM   14  H   UNL     1     -10.834   8.948  68.577  1.00  0.00     0.000 HD 
HETATM   15  C   UNL     1     -12.423   9.717  71.417  1.00  0.00    -0.387 A  
HETATM   16  C   UNL     1     -11.396   7.578  69.993  1.00  0.00    -0.096 C  
HETATM   17  C   UNL     1     -12.453   8.348  72.012  1.00  0.00    -0.359 C  
HETATM   18  N   UNL     1     -13.073  10.692  71.984  1.00  0.00    -0.472 NA 
HETATM   19  N   UNL     1     -12.127   7.364  71.124  1.00  0.00    -0.321 N  
HETATM   20  O   UNL     1     -10.822   6.619  69.483  1.00  0.00    -0.242 OA 
ENDROOT
BRANCH   7  21
HETATM   21  C   UNL     1     -11.328  11.365  68.179  1.00  0.00    -0.304 C  
BRANCH  21  22
HETATM   22  C   UNL     1      -9.880  11.763  67.824  1.00  0.00    -0.181 C  
HETATM   23  O   UNL     1      -9.929  12.886  66.942  1.00  0.00    -0.229 OA 
HETATM   24  H   UNL     1      -9.038  13.132  66.723  1.00  0.00     0.000 HD 
BRANCH  22  25
HETATM   25  C   UNL     1      -9.168  10.548  67.202  1.00  0.00    -0.143 C  
HETATM   26  H   UNL     1      -7.582   9.514  67.636  1.00  0.00     0.000 HD 
HETATM   27  O   UNL     1      -8.022  10.264  68.020  1.00  0.00    -0.100 OA 
BRANCH  25  28
HETATM   28  C   UNL     1      -8.720  10.737  65.732  1.00  0.00    -0.186 C  
HETATM   29  H   UNL     1      -9.571  10.857  63.948  1.00  0.00     0.000 HD 
HETATM   30  O   UNL     1      -9.846  10.741  64.850  1.00  0.00    -0.243 OA 
BRANCH  28  31
HETATM   31  C   UNL     1      -7.731   9.640  65.293  1.00  0.00    -0.115 C  
BRANCH  31  32
HETATM   32  O   UNL     1      -8.300   8.828  64.289  1.00  0.00    -0.165 OA 
BRANCH  32  33
HETATM   33  P   UNL     1      -7.616   7.417  63.958  1.00  0.00    -0.111 P  
HETATM   34  O   UNL     1      -6.105   7.655  64.412  1.00  0.00    -0.043 OA 
HETATM   35  O   UNL     1      -7.652   7.015  62.510  1.00  0.00    -0.090 OA 
BRANCH  33  36
HETATM   36  O   UNL     1      -8.358   6.348  64.886  1.00  0.00    -0.132 OA 
BRANCH  36  37
HETATM   37  P   UNL     1      -7.805   5.923  66.469  1.00  0.00    -0.102 P  
HETATM   38  O   UNL     1      -9.281   5.345  66.854  1.00  0.00    -0.118 OA 
HETATM   39  O   UNL     1      -6.913   4.827  65.898  1.00  0.00    -0.060 OA 
BRANCH  37  40
HETATM   40  O   UNL     1      -7.251   5.497  68.052  1.00  0.00    -0.069 OA 
BRANCH  40  41
HETATM   41  C   UNL     1      -6.252   6.368  68.581  1.00  0.00    -0.033 C  
BRANCH  41  42
HETATM   42  C   UNL     1      -6.859   7.290  69.645  1.00  0.00    -0.049 C  
HETATM   43  O   UNL     1      -7.780   6.525  70.432  1.00  0.00    -0.094 OA 
HETATM   44  C   UNL     1      -7.688   6.963  71.793  1.00  0.00    -0.095 C  
HETATM   45  C   UNL     1      -6.458   7.850  71.976  1.00  0.00    -0.050 C  
HETATM   46  H   UNL     1      -4.863   9.618  70.772  1.00  0.00     0.000 HD 
HETATM   47  C   UNL     1      -5.827   7.903  70.588  1.00  0.00    -0.029 C  
HETATM   48  O   UNL     1      -5.505   9.236  70.185  1.00  0.00    -0.027 OA 
HETATM   49  O   UNL     1      -6.801   9.174  72.422  1.00  0.00    -0.313 OA 
HETATM   50  H   UNL     1      -6.036   9.726  72.536  1.00  0.00     0.000 HD 
BRANCH  44  51
HETATM   51  N   UNL     1      -7.714   5.801  72.659  1.00  0.00    -0.100 NA 
HETATM   52  C   UNL     1      -6.728   4.869  72.836  1.00  0.00    -0.069 A  
HETATM   53  C   UNL     1      -8.568   3.961  73.444  1.00  0.00    -0.087 A  
HETATM   54  N   UNL     1      -7.214   3.728  73.284  1.00  0.00    -0.057 NA 
HETATM   55  C   UNL     1      -8.868   5.287  73.181  1.00  0.00    -0.119 A  
HETATM   56  N   UNL     1     -10.062   5.898  73.274  1.00  0.00    -0.181 NA 
HETATM   57  C   UNL     1     -11.011   5.016  73.649  1.00  0.00    -0.314 A  
HETATM   58  N   UNL     1     -10.883   3.688  73.866  1.00  0.00    -0.223 NA 
HETATM   59  C   UNL     1      -9.656   3.127  73.741  1.00  0.00    -0.091 A  
HETATM   60  N   UNL     1      -9.550   1.751  73.850  1.00  0.00    -0.071 NA 
HETATM   61  H2  UNL     1      -8.822   1.557  74.538  1.00  0.00     0.000 HD 
HETATM   62  H1  UNL     1     -10.342   1.145  74.067  1.00  0.00     0.000 HD 
ENDBRANCH  44  51
ENDBRANCH  41  42
ENDBRANCH  40  41
ENDBRANCH  37  40
ENDBRANCH  36  37
ENDBRANCH  33  36
ENDBRANCH  32  33
ENDBRANCH  31  32
ENDBRANCH  28  31
ENDBRANCH  25  28
ENDBRANCH  22  25
ENDBRANCH  21  22
ENDBRANCH   7  21
TORSDOF 13
ENDMDL
MODEL       33
REMARK 921   NORMALIZED FREE ENERGY PREDICTED BY IDOCK:   -6.02 KCAL/MOL
REMARK 922        TOTAL FREE ENERGY PREDICTED BY IDOCK:  -13.71 KCAL/MOL
REMARK 923 INTER-LIGAND FREE ENERGY PREDICTED BY IDOCK:  -10.81 KCAL/MOL
REMARK 924 INTRA-LIGAND FREE ENERGY PREDICTED BY IDOCK:   -2.90 KCAL/MOL
REMARK 927      BINDING AFFINITY PREDICTED BY RF-SCORE:    0.00 PKD
ROOT
HETATM    1  C   UNL     1     -12.624  15.976  72.005  1.00  0.00    -0.463 C  
HETATM    2  C   UNL     1     -12.488  14.973  70.894  1.00  0.00    -0.407 A  
HETATM    3  C   UNL     1     -12.222  15.432  69.594  1.00  0.00    -0.312 A  
HETATM    4  C   UNL     1     -11.939  14.546  68.549  1.00  0.00    -0.286 A  
HETATM    5  C   UNL     1     -11.817  13.168  68.819  1.00  0.00    -0.324 A  
HETATM    6  C   UNL     1     -12.215  12.706  70.084  1.00  0.00    -0.310 A  
HETATM    7  N   UNL     1     -11.341  12.307  67.806  1.00  0.00    -0.280 NA 
HETATM    8  H   UNL     1     -10.429  14.339  63.168  1.00  0.00     0.000 HD 
HETATM    9  C   UNL     1     -11.164  12.823  66.530  1.00  0.00    -0.307 A  
HETATM   10  C   UNL     1     -12.550  13.588  71.126  1.00  0.00    -0.438 A  
HETATM   11  C   UNL     1     -12.984  13.028  72.453  1.00  0.00    -0.257 C  
HETATM   12  O   UNL     1     -12.160  15.701  64.483  1.00  0.00    -0.231 OA 
HETATM   13  N   UNL     1     -10.659  12.134  65.546  1.00  0.00    -0.268 N  
HETATM   14  H   UNL     1     -10.337  11.184  65.732  1.00  0.00     0.000 HD 
HETATM   15  C   UNL     1     -11.543  14.255  66.277  1.00  0.00    -0.372 A  
HETATM   16  C   UNL     1     -10.541  12.619  64.284  1.00  0.00    -0.384 C  
HETATM   17  C   UNL     1     -11.514  14.740  64.865  1.00  0.00    -0.412 C  
HETATM   18  N   UNL     1     -11.826  15.077  67.247  1.00  0.00    -0.243 NA 
HETATM   19  N   UNL     1     -10.796  13.935  64.030  1.00  0.00     0.016 N  
HETATM   20  O   UNL     1     -10.254  11.890  63.337  1.00  0.00    -0.413 OA 
ENDROOT
BRANCH   7  21
HETATM   21  C   UNL     1     -10.495  11.173  68.225  1.00  0.00    -0.191 C  
BRANCH  21  22
HETATM   22  C   UNL     1     -11.194   9.818  67.992  1.00  0.00     0.009 C  
HETATM   23  O   UNL     1     -11.179   9.089  69.221  1.00  0.00    -0.438 OA 
HETATM   24  H   UNL     1     -11.609   8.254  69.077  1.00  0.00     0.000 HD 
BRANCH  22  25
HETATM   25  C   UNL     1     -10.474   9.076  66.851  1.00  0.00    -0.223 C  
HETATM   26  H   UNL     1      -9.979   7.229  66.510  1.00  0.00     0.000 HD 
HETATM   27  O   UNL     1     -10.424   7.687  67.214  1.00  0.00    -0.271 OA 
BRANCH  25  28
HETATM   28  C   UNL     1      -9.044   9.583  66.545  1.00  0.00    -0.151 C  
HETATM   29  H   UNL     1      -7.933   9.947  64.947  1.00  0.00     0.000 HD 
HETATM   30  O   UNL     1      -8.811   9.635  65.135  1.00  0.00    -0.156 OA 
BRANCH  28  31
HETATM   31  C   UNL     1      -7.971   8.697  67.208  1.00  0.00    -0.101 C  
BRANCH  31  32
HETATM   32  O   UNL     1      -7.198   9.448  68.118  1.00  0.00    -0.076 OA 
BRANCH  32  33
HETATM   33  P   UNL     1      -7.215   9.038  69.668  1.00  0.00    -0.066 P  
HETATM   34  O   UNL     1      -8.424   8.000  69.733  1.00  0.00    -0.124 OA 
HETATM   35  O   UNL     1      -7.468  10.170  70.624  1.00  0.00    -0.277 OA 
BRANCH  33  36
HETATM   36  O   UNL     1      -5.808   8.335  69.945  1.00  0.00    -0.025 OA 
BRANCH  36  37
HETATM   37  P   UNL     1      -5.616   6.620  70.076  1.00  0.00    -0.019 P  
HETATM   38  O   UNL     1      -6.653   6.578  71.335  1.00  0.00    -0.051 OA 
HETATM   39  O   UNL     1      -6.342   6.407  68.754  1.00  0.00    -0.034 OA 
BRANCH  37  40
HETATM   40  O   UNL     1      -5.425   4.906  70.206  1.00  0.00    -0.010 OA 
BRANCH  40  41
HETATM   41  C   UNL     1      -5.884   4.354  71.440  1.00  0.00    -0.016 C  
BRANCH  41  42
HETATM   42  C   UNL     1      -6.997   3.330  71.183  1.00  0.00    -0.032 C  
HETATM   43  O   UNL     1      -8.178   3.769  71.865  1.00  0.00    -0.073 OA 
HETATM   44  C   UNL     1      -9.315   3.453  71.052  1.00  0.00    -0.142 C  
HETATM   45  C   UNL     1      -8.862   3.051  69.651  1.00  0.00    -0.087 C  
HETATM   46  H   UNL     1      -6.909   1.883  68.256  1.00  0.00     0.000 HD 
HETATM   47  C   UNL     1      -7.340   3.153  69.707  1.00  0.00    -0.044 C  
HETATM   48  O   UNL     1      -6.695   1.994  69.175  1.00  0.00    -0.032 OA 
HETATM   49  O   UNL     1      -9.262   1.712  69.309  1.00  0.00    -0.095 OA 
HETATM   50  H   UNL     1      -8.980   1.462  68.437  1.00  0.00     0.000 HD 
BRANCH  44  51
HETATM   51  N   UNL     1     -10.233   4.575  71.079  1.00  0.00    -0.149 NA 
HETATM   52  C   UNL     1     -10.751   5.256  70.011  1.00  0.00    -0.138 A  
HETATM   53  C   UNL     1     -10.900   6.546  71.712  1.00  0.00    -0.238 A  
HETATM   54  N   UNL     1     -11.140   6.468  70.352  1.00  0.00    -0.304 NA 
HETATM   55  C   UNL     1     -10.457   5.328  72.198  1.00  0.00    -0.220 A  
HETATM   56  N   UNL     1     -10.166   5.001  73.469  1.00  0.00    -0.176 NA 
HETATM   57  C   UNL     1     -10.336   6.068  74.277  1.00  0.00    -0.272 A  
HETATM   58  N   UNL     1     -10.688   7.328  73.938  1.00  0.00    -0.253 NA 
HETATM   59  C   UNL     1     -10.953   7.598  72.637  1.00  0.00    -0.351 A  
HETATM   60  N   UNL     1     -11.201   8.912  72.278  1.00  0.00    -0.289 NA 
HETATM   61  H2  UNL     1     -12.076   8.924  71.755  1.00  0.00     0.000 HD 
HETATM   62  H1  UNL     1     -11.239   9.678  72.952  1.00  0.00     0.000 HD 
ENDBRANCH  44  51
ENDBRANCH  41  42
ENDBRANCH  40  41
ENDBRANCH  37  40
ENDBRANCH  36  37
ENDBRANCH  33  36
ENDBRANCH  32  33
ENDBRANCH  31  32
ENDBRANCH  28  31
ENDBRANCH  25  28
ENDBRANCH  22  25
ENDBRANCH  21  22
ENDBRANCH   7  21
TORSDOF 13
ENDMDL
MODEL       34
REMARK 921   NORMALIZED FREE ENERGY PREDICTED BY IDOCK:   -5.94 KCAL/MOL
REMARK 922        TOTAL FREE ENERGY PREDICTED BY IDOCK:  -13.56 KCAL/MOL
REMARK 923 INTER-LIGAND FREE ENERGY PREDICTED BY IDOCK:  -10.27 KCAL/MOL
REMARK 924 INTRA-LIGAND FREE ENERGY PREDICTED BY IDOCK:   -3.29 KCAL/MOL
REMARK 927      BINDING AFFINITY PREDICTED BY RF-SCORE:    0.00 PKD
ROOT
HETATM    1  C   UNL     1     -14.174  15.065  72.028  1.00  0.00    -0.649 C  
HETATM    2  C   UNL     1     -13.281  14.018  71.422  1.00  0.00    -0.404 A  
HETATM    3  C   UNL     1     -13.358  12.700  71.900  1.00  0.00    -0.485 A  
HETATM    4  C   UNL     1     -12.663  11.656  71.281  1.00  0.00    -0.340 A  
HETATM    5  C   UNL     1     -11.950  11.903  70.092  1.00  0.00    -0.332 A  
HETATM    6  C   UNL     1     -11.769  13.238  69.697  1.00  0.00    -0.369 A  
HETATM    7  N   UNL     1     -11.418  10.813  69.367  1.00  0.00    -0.271 NA 
HETATM    8  H   UNL     1     -11.917   6.114  71.402  1.00  0.00     0.000 HD 
HETATM    9  C   UNL     1     -11.475   9.550  69.939  1.00  0.00    -0.062 A  
HETATM   10  C   UNL     1     -12.423  14.300  70.345  1.00  0.00    -0.426 A  
HETATM   11  C   UNL     1     -12.171  15.710  69.883  1.00  0.00    -0.317 C  
HETATM   12  O   UNL     1     -11.984   7.943  73.199  1.00  0.00    -0.161 OA 
HETATM   13  N   UNL     1     -11.083   8.470  69.324  1.00  0.00    -0.432 N  
HETATM   14  H   UNL     1     -10.758   8.551  68.360  1.00  0.00     0.000 HD 
HETATM   15  C   UNL     1     -12.049   9.414  71.322  1.00  0.00    -0.345 A  
HETATM   16  C   UNL     1     -11.084   7.243  69.904  1.00  0.00    -0.212 C  
HETATM   17  C   UNL     1     -11.941   8.082  71.988  1.00  0.00    -0.327 C  
HETATM   18  N   UNL     1     -12.679  10.391  71.909  1.00  0.00    -0.406 NA 
HETATM   19  N   UNL     1     -11.669   7.063  71.122  1.00  0.00    -0.307 N  
HETATM   20  O   UNL     1     -10.524   6.282  69.381  1.00  0.00    -0.198 OA 
ENDROOT
BRANCH   7  21
HETATM   21  C   UNL     1     -11.416  10.916  67.895  1.00  0.00    -0.266 C  
BRANCH  21  22
HETATM   22  C   UNL     1     -10.094  11.506  67.363  1.00  0.00    -0.191 C  
HETATM   23  O   UNL     1     -10.333  12.027  66.053  1.00  0.00    -0.226 OA 
HETATM   24  H   UNL     1      -9.518  12.391  65.725  1.00  0.00     0.000 HD 
BRANCH  22  25
HETATM   25  C   UNL     1      -9.015  10.408  67.380  1.00  0.00    -0.135 C  
HETATM   26  H   UNL     1      -7.222  10.256  68.109  1.00  0.00     0.000 HD 
HETATM   27  O   UNL     1      -7.888  10.933  68.098  1.00  0.00    -0.106 OA 
BRANCH  25  28
HETATM   28  C   UNL     1      -8.558   9.922  65.983  1.00  0.00    -0.136 C  
HETATM   29  H   UNL     1      -9.399   9.248  64.322  1.00  0.00     0.000 HD 
HETATM   30  O   UNL     1      -9.680   9.546  65.179  1.00  0.00    -0.277 OA 
BRANCH  28  31
HETATM   31  C   UNL     1      -7.582   8.734  66.086  1.00  0.00    -0.094 C  
BRANCH  31  32
HETATM   32  O   UNL     1      -7.281   8.225  64.805  1.00  0.00    -0.077 OA 
BRANCH  32  33
HETATM   33  P   UNL     1      -7.445   6.651  64.542  1.00  0.00    -0.108 P  
HETATM   34  O   UNL     1      -6.297   6.030  65.458  1.00  0.00    -0.036 OA 
HETATM   35  O   UNL     1      -7.243   6.220  63.116  1.00  0.00    -0.049 OA 
BRANCH  33  36
HETATM   36  O   UNL     1      -8.904   6.274  65.071  1.00  0.00     0.017 OA 
BRANCH  36  37
HETATM   37  P   UNL     1      -9.335   4.686  65.606  1.00  0.00    -0.174 P  
HETATM   38  O   UNL     1     -10.722   5.255  66.249  1.00  0.00    -0.294 OA 
HETATM   39  O   UNL     1      -9.541   4.224  64.169  1.00  0.00    -0.159 OA 
BRANCH  37  40
HETATM   40  O   UNL     1      -9.766   3.098  66.139  1.00  0.00    -0.023 OA 
BRANCH  40  41
HETATM   41  C   UNL     1      -8.737   2.417  66.856  1.00  0.00    -0.124 C  
BRANCH  41  42
HETATM   42  C   UNL     1      -7.784   3.428  67.506  1.00  0.00    -0.077 C  
HETATM   43  O   UNL     1      -8.497   4.121  68.537  1.00  0.00    -0.089 OA 
HETATM   44  C   UNL     1      -7.602   4.351  69.632  1.00  0.00    -0.054 C  
HETATM   45  C   UNL     1      -6.328   3.530  69.449  1.00  0.00    -0.029 C  
HETATM   46  H   UNL     1      -4.654   2.499  67.643  1.00  0.00     0.000 HD 
HETATM   47  C   UNL     1      -6.546   2.790  68.132  1.00  0.00    -0.036 C  
HETATM   48  O   UNL     1      -5.425   2.896  67.253  1.00  0.00    -0.016 OA 
HETATM   49  O   UNL     1      -5.151   4.356  69.370  1.00  0.00     0.000 OA 
HETATM   50  H   UNL     1      -4.359   3.845  69.256  1.00  0.00     0.000 HD 
BRANCH  44  51
HETATM   51  N   UNL     1      -8.305   4.085  70.872  1.00  0.00    -0.070 NA 
HETATM   52  C   UNL     1      -9.387   3.269  71.060  1.00  0.00    -0.143 A  
HETATM   53  C   UNL     1      -9.352   4.652  72.691  1.00  0.00    -0.130 A  
HETATM   54  N   UNL     1     -10.064   3.603  72.140  1.00  0.00    -0.165 NA 
HETATM   55  C   UNL     1      -8.184   4.875  71.981  1.00  0.00    -0.115 A  
HETATM   56  N   UNL     1      -7.218   5.772  72.239  1.00  0.00    -0.088 NA 
HETATM   57  C   UNL     1      -7.540   6.507  73.324  1.00  0.00    -0.092 A  
HETATM   58  N   UNL     1      -8.667   6.455  74.067  1.00  0.00    -0.127 NA 
HETATM   59  C   UNL     1      -9.611   5.539  73.747  1.00  0.00    -0.142 A  
HETATM   60  N   UNL     1     -10.811   5.565  74.437  1.00  0.00    -0.399 NA 
HETATM   61  H2  UNL     1     -10.983   4.622  74.784  1.00  0.00     0.000 HD 
HETATM   62  H1  UNL     1     -11.000   6.211  75.205  1.00  0.00     0.000 HD 
ENDBRANCH  44  51
ENDBRANCH  41  42
ENDBRANCH  40  41
ENDBRANCH  37  40
ENDBRANCH  36  37
ENDBRANCH  33  36
ENDBRANCH  32  33
ENDBRANCH  31  32
ENDBRANCH  28  31
ENDBRANCH  25  28
ENDBRANCH  22  25
ENDBRANCH  21  22
ENDBRANCH   7  21
TORSDOF 13
ENDMDL
MODEL       35
REMARK 921   NORMALIZED FREE ENERGY PREDICTED BY IDOCK:   -5.93 KCAL/MOL
REMARK 922        TOTAL FREE ENERGY PREDICTED BY IDOCK:  -13.54 KCAL/MOL
REMARK 923 INTER-LIGAND FREE ENERGY PREDICTED BY IDOCK:  -10.79 KCAL/MOL
REMARK 924 INTRA-LIGAND FREE ENERGY PREDICTED BY IDOCK:   -2.75 KCAL/MOL
REMARK 927      BINDING AFFINITY PREDICTED BY RF-SCORE:    0.00 PKD
ROOT
HETATM    1  C   UNL     1      -5.883   6.696  69.162  1.00  0.00    -0.018 C  
HETATM    2  C   UNL     1      -6.722   7.911  68.880  1.00  0.00    -0.049 A  
HETATM    3  C   UNL     1      -7.918   8.090  69.593  1.00  0.00    -0.117 A  
HETATM    4  C   UNL     1      -8.666   9.268  69.483  1.00  0.00    -0.146 A  
HETATM    5  C   UNL     1      -8.163  10.342  68.722  1.00  0.00    -0.128 A  
HETATM    6  C   UNL     1      -7.042  10.108  67.911  1.00  0.00    -0.085 A  
HETATM    7  N   UNL     1      -8.822  11.591  68.774  1.00  0.00    -0.099 NA 
HETATM    8  H   UNL     1     -13.164  11.896  71.517  1.00  0.00     0.000 HD 
HETATM    9  C   UNL     1     -10.033  11.670  69.445  1.00  0.00     0.408 A  
HETATM   10  C   UNL     1      -6.313   8.908  67.977  1.00  0.00    -0.056 A  
HETATM   11  C   UNL     1      -5.131   8.714  67.068  1.00  0.00    -0.032 C  
HETATM   12  O   UNL     1     -12.709   9.502  70.715  1.00  0.00    -0.203 OA 
HETATM   13  N   UNL     1     -10.682  12.788  69.616  1.00  0.00    -0.275 N  
HETATM   14  H   UNL     1     -10.258  13.652  69.280  1.00  0.00     0.000 HD 
HETATM   15  C   UNL     1     -10.612  10.413  70.032  1.00  0.00    -0.229 A  
HETATM   16  C   UNL     1     -11.896  12.857  70.220  1.00  0.00    -0.213 C  
HETATM   17  C   UNL     1     -11.995  10.484  70.593  1.00  0.00    -0.357 C  
HETATM   18  N   UNL     1      -9.926   9.310  70.118  1.00  0.00    -0.200 NA 
HETATM   19  N   UNL     1     -12.417  11.758  70.836  1.00  0.00    -0.363 N  
HETATM   20  O   UNL     1     -12.574  13.881  70.189  1.00  0.00    -0.314 OA 
ENDROOT
BRANCH   7  21
HETATM   21  C   UNL     1      -7.981  12.802  68.702  1.00  0.00    -0.023 C  
BRANCH  21  22
HETATM   22  C   UNL     1      -8.501  13.800  67.647  1.00  0.00    -0.183 C  
HETATM   23  O   UNL     1      -8.288  13.233  66.352  1.00  0.00    -0.327 OA 
HETATM   24  H   UNL     1      -8.608  13.847  65.702  1.00  0.00     0.000 HD 
BRANCH  22  25
HETATM   25  C   UNL     1      -7.778  15.145  67.834  1.00  0.00    -0.135 C  
HETATM   26  H   UNL     1      -5.926  15.729  67.781  1.00  0.00     0.000 HD 
HETATM   27  O   UNL     1      -6.373  14.898  67.665  1.00  0.00    -0.179 OA 
BRANCH  25  28
HETATM   28  C   UNL     1      -8.022  15.831  69.201  1.00  0.00    -0.231 C  
HETATM   29  H   UNL     1      -9.507  16.025  70.495  1.00  0.00     0.000 HD 
HETATM   30  O   UNL     1      -9.358  15.604  69.656  1.00  0.00    -0.280 OA 
BRANCH  28  31
HETATM   31  C   UNL     1      -7.755  17.347  69.132  1.00  0.00    -0.055 C  
BRANCH  31  32
HETATM   32  O   UNL     1      -8.200  17.876  67.902  1.00  0.00    -0.235 OA 
BRANCH  32  33
HETATM   33  P   UNL     1      -9.287  19.055  67.917  1.00  0.00    -0.334 P  
HETATM   34  O   UNL     1      -8.373  20.362  67.898  1.00  0.00    -0.215 OA 
HETATM   35  O   UNL     1     -10.182  19.081  69.125  1.00  0.00    -0.314 OA 
BRANCH  33  36
HETATM   36  O   UNL     1     -10.124  18.890  66.566  1.00  0.00    -0.346 OA 
BRANCH  36  37
HETATM   37  P   UNL     1     -10.245  17.394  65.706  1.00  0.00     0.036 P  
HETATM   38  O   UNL     1      -8.620  17.289  65.614  1.00  0.00    -0.476 OA 
HETATM   39  O   UNL     1     -10.776  16.687  66.947  1.00  0.00    -0.266 OA 
BRANCH  37  40
HETATM   40  O   UNL     1     -10.366  15.897  64.847  1.00  0.00    -0.517 OA 
BRANCH  40  41
HETATM   41  C   UNL     1     -11.666  15.620  64.327  1.00  0.00    -0.169 C  
BRANCH  41  42
HETATM   42  C   UNL     1     -12.164  14.261  64.835  1.00  0.00    -0.440 C  
HETATM   43  O   UNL     1     -11.737  13.252  63.911  1.00  0.00    -0.415 OA 
HETATM   44  C   UNL     1     -11.384  12.078  64.653  1.00  0.00    -0.318 C  
HETATM   45  C   UNL     1     -11.296  12.405  66.142  1.00  0.00    -0.352 C  
HETATM   46  H   UNL     1     -12.281  13.947  68.084  1.00  0.00     0.000 HD 
HETATM   47  C   UNL     1     -11.635  13.891  66.218  1.00  0.00    -0.365 C  
HETATM   48  O   UNL     1     -12.610  14.177  67.223  1.00  0.00    -0.110 OA 
HETATM   49  O   UNL     1     -12.226  11.638  66.927  1.00  0.00    -0.282 OA 
HETATM   50  H   UNL     1     -12.170  11.841  67.853  1.00  0.00     0.000 HD 
BRANCH  44  51
HETATM   51  N   UNL     1     -10.167  11.523  64.095  1.00  0.00    -0.295 NA 
HETATM   52  C   UNL     1      -9.584  11.826  62.895  1.00  0.00    -0.044 A  
HETATM   53  C   UNL     1      -8.855   9.901  63.480  1.00  0.00    -0.234 A  
HETATM   54  N   UNL     1      -8.804  10.850  62.475  1.00  0.00    -0.290 NA 
HETATM   55  C   UNL     1      -9.598  10.366  64.552  1.00  0.00    -0.309 A  
HETATM   56  N   UNL     1      -9.833   9.752  65.723  1.00  0.00    -0.280 NA 
HETATM   57  C   UNL     1      -9.252   8.534  65.737  1.00  0.00    -0.146 A  
HETATM   58  N   UNL     1      -8.566   7.921  64.748  1.00  0.00     0.017 NA 
HETATM   59  C   UNL     1      -8.376   8.587  63.584  1.00  0.00    -0.080 A  
HETATM   60  N   UNL     1      -7.775   7.913  62.534  1.00  0.00    -0.123 NA 
HETATM   61  H2  UNL     1      -7.002   8.493  62.204  1.00  0.00     0.000 HD 
HETATM   62  H1  UNL     1      -7.426   6.957  62.610  1.00  0.00     0.000 HD 
ENDBRANCH  44  51
ENDBRANCH  41  42
ENDBRANCH  40  41
ENDBRANCH  37  40
ENDBRANCH  36  37
ENDBRANCH  33  36
ENDBRANCH  32  33
ENDBRANCH  31  32
ENDBRANCH  28  31
ENDBRANCH  25  28
ENDBRANCH  22  25
ENDBRANCH  21  22
ENDBRANCH   7  21
TORSDOF 13
ENDMDL
MODEL       36
REMARK 921   NORMALIZED FREE ENERGY PREDICTED BY IDOCK:   -5.91 KCAL/MOL
REMARK 922        TOTAL FREE ENERGY PREDICTED BY IDOCK:  -13.51 KCAL/MOL
REMARK 923 INTER-LIGAND FREE ENERGY PREDICTED BY IDOCK:  -10.40 KCAL/MOL
REMARK 924 INTRA-LIGAND FREE ENERGY PREDICTED BY IDOCK:   -3.11 KCAL/MOL
REMARK 927      BINDING AFFINITY PREDICTED BY RF-SCORE:    0.00 PKD
ROOT
HETATM    1  C   UNL     1     -12.377  15.685  69.763  1.00  0.00    -0.216 C  
HETATM    2  C   UNL     1     -12.037  14.334  69.197  1.00  0.00    -0.337 A  
HETATM    3  C   UNL     1     -11.629  14.242  67.857  1.00  0.00    -0.367 A  
HETATM    4  C   UNL     1     -11.160  13.041  67.315  1.00  0.00    -0.273 A  
HETATM    5  C   UNL     1     -10.993  11.920  68.152  1.00  0.00    -0.227 A  
HETATM    6  C   UNL     1     -11.526  11.980  69.450  1.00  0.00    -0.361 A  
HETATM    7  N   UNL     1     -10.338  10.774  67.647  1.00  0.00    -0.191 NA 
HETATM    8  H   UNL     1      -8.946  10.800  62.694  1.00  0.00     0.000 HD 
HETATM    9  C   UNL     1     -10.026  10.735  66.296  1.00  0.00    -0.222 A  
HETATM   10  C   UNL     1     -12.046  13.171  69.985  1.00  0.00    -0.375 A  
HETATM   11  C   UNL     1     -12.617  13.163  71.377  1.00  0.00    -0.352 C  
HETATM   12  O   UNL     1     -10.913  12.386  63.140  1.00  0.00    -0.374 OA 
HETATM   13  N   UNL     1      -9.355   9.761  65.747  1.00  0.00    -0.202 N  
HETATM   14  H   UNL     1      -9.005   9.014  66.347  1.00  0.00     0.000 HD 
HETATM   15  C   UNL     1     -10.452  11.885  65.427  1.00  0.00    -0.270 A  
HETATM   16  C   UNL     1      -9.101   9.693  64.415  1.00  0.00    -0.229 C  
HETATM   17  C   UNL     1     -10.266  11.745  63.952  1.00  0.00    -0.373 C  
HETATM   18  N   UNL     1     -10.908  12.997  65.927  1.00  0.00    -0.270 NA 
HETATM   19  N   UNL     1      -9.398  10.750  63.607  1.00  0.00    -0.248 N  
HETATM   20  O   UNL     1      -8.650   8.674  63.897  1.00  0.00    -0.126 OA 
ENDROOT
BRANCH   7  21
HETATM   21  C   UNL     1      -9.488  10.014  68.584  1.00  0.00    -0.156 C  
BRANCH  21  22
HETATM   22  C   UNL     1     -10.187   8.732  69.082  1.00  0.00    -0.207 C  
HETATM   23  O   UNL     1     -11.044   8.258  68.041  1.00  0.00    -0.453 OA 
HETATM   24  H   UNL     1     -11.475   7.468  68.348  1.00  0.00     0.000 HD 
BRANCH  22  25
HETATM   25  C   UNL     1     -10.948   9.052  70.381  1.00  0.00    -0.247 C  
HETATM   26  H   UNL     1     -10.435   9.511  72.196  1.00  0.00     0.000 HD 
HETATM   27  O   UNL     1      -9.965   9.314  71.395  1.00  0.00    -0.306 OA 
BRANCH  25  28
HETATM   28  C   UNL     1     -11.908   7.938  70.866  1.00  0.00    -0.229 C  
HETATM   29  H   UNL     1     -12.940   7.506  72.499  1.00  0.00     0.000 HD 
HETATM   30  O   UNL     1     -12.351   8.190  72.202  1.00  0.00    -0.319 OA 
BRANCH  28  31
HETATM   31  C   UNL     1     -11.245   6.548  70.800  1.00  0.00    -0.321 C  
BRANCH  31  32
HETATM   32  O   UNL     1     -10.564   6.263  72.002  1.00  0.00    -0.207 OA 
BRANCH  32  33
HETATM   33  P   UNL     1      -9.765   4.879  72.127  1.00  0.00    -0.175 P  
HETATM   34  O   UNL     1     -10.139   4.144  70.762  1.00  0.00    -0.164 OA 
HETATM   35  O   UNL     1     -10.164   4.016  73.292  1.00  0.00    -0.133 OA 
BRANCH  33  36
HETATM   36  O   UNL     1      -8.219   5.276  72.189  1.00  0.00    -0.112 OA 
BRANCH  36  37
HETATM   37  P   UNL     1      -7.434   6.218  70.969  1.00  0.00    -0.087 P  
HETATM   38  O   UNL     1      -6.490   6.928  72.093  1.00  0.00    -0.052 OA 
HETATM   39  O   UNL     1      -6.769   4.974  70.392  1.00  0.00    -0.037 OA 
BRANCH  37  40
HETATM   40  O   UNL     1      -6.649   7.159  69.748  1.00  0.00    -0.042 OA 
BRANCH  40  41
HETATM   41  C   UNL     1      -5.410   6.616  69.292  1.00  0.00    -0.014 C  
BRANCH  41  42
HETATM   42  C   UNL     1      -5.126   7.074  67.856  1.00  0.00    -0.015 C  
HETATM   43  O   UNL     1      -5.216   5.933  66.993  1.00  0.00    -0.005 OA 
HETATM   44  C   UNL     1      -5.810   6.346  65.755  1.00  0.00    -0.025 C  
HETATM   45  C   UNL     1      -6.401   7.747  65.900  1.00  0.00    -0.042 C  
HETATM   46  H   UNL     1      -6.130  10.097  67.134  1.00  0.00     0.000 HD 
HETATM   47  C   UNL     1      -6.098   8.133  67.345  1.00  0.00    -0.051 C  
HETATM   48  O   UNL     1      -5.525   9.438  67.452  1.00  0.00    -0.037 OA 
HETATM   49  O   UNL     1      -5.801   8.690  64.993  1.00  0.00    -0.047 OA 
HETATM   50  H   UNL     1      -6.169   9.561  65.082  1.00  0.00     0.000 HD 
BRANCH  44  51
HETATM   51  N   UNL     1      -6.766   5.340  65.339  1.00  0.00    -0.044 NA 
HETATM   52  C   UNL     1      -6.850   4.721  64.121  1.00  0.00    -0.048 A  
HETATM   53  C   UNL     1      -8.766   4.537  65.054  1.00  0.00    -0.138 A  
HETATM   54  N   UNL     1      -8.060   4.247  63.901  1.00  0.00    -0.090 NA 
HETATM   55  C   UNL     1      -7.935   5.101  66.006  1.00  0.00    -0.107 A  
HETATM   56  N   UNL     1      -8.246   5.472  67.260  1.00  0.00    -0.101 NA 
HETATM   57  C   UNL     1      -9.553   5.247  67.503  1.00  0.00    -0.134 A  
HETATM   58  N   UNL     1     -10.495   4.776  66.656  1.00  0.00    -0.224 NA 
HETATM   59  C   UNL     1     -10.122   4.435  65.400  1.00  0.00    -0.223 A  
HETATM   60  N   UNL     1     -11.108   4.062  64.502  1.00  0.00    -0.794 NA 
HETATM   61  H2  UNL     1     -10.830   3.168  64.099  1.00  0.00     0.000 HD 
HETATM   62  H1  UNL     1     -12.094   3.988  64.754  1.00  0.00     0.000 HD 
ENDBRANCH  44  51
ENDBRANCH  41  42
ENDBRANCH  40  41
ENDBRANCH  37  40
ENDBRANCH  36  37
ENDBRANCH  33  36
ENDBRANCH  32  33
ENDBRANCH  31  32
ENDBRANCH  28  31
ENDBRANCH  25  28
ENDBRANCH  22  25
ENDBRANCH  21  22
ENDBRANCH   7  21
TORSDOF 13
ENDMDL
MODEL       37
REMARK 921   NORMALIZED FREE ENERGY PREDICTED BY IDOCK:   -5.89 KCAL/MOL
REMARK 922        TOTAL FREE ENERGY PREDICTED BY IDOCK:  -13.48 KCAL/MOL
REMARK 923 INTER-LIGAND FREE ENERGY PREDICTED BY IDOCK:  -11.48 KCAL/MOL
REMARK 924 INTRA-LIGAND FREE ENERGY PREDICTED BY IDOCK:   -2.00 KCAL/MOL
REMARK 927      BINDING AFFINITY PREDICTED BY RF-SCORE:    0.00 PKD
ROOT
HETATM    1  C   UNL     1      -7.440   4.539  72.624  1.00  0.00    -0.084 C  
HETATM    2  C   UNL     1      -7.348   4.881  71.162  1.00  0.00    -0.068 A  
HETATM    3  C   UNL     1      -7.979   4.043  70.229  1.00  0.00    -0.051 A  
HETATM    4  C   UNL     1      -8.054   4.385  68.874  1.00  0.00    -0.072 A  
HETATM    5  C   UNL     1      -7.580   5.640  68.445  1.00  0.00    -0.081 A  
HETATM    6  C   UNL     1      -6.834   6.408  69.354  1.00  0.00    -0.065 A  
HETATM    7  N   UNL     1      -7.836   6.058  67.121  1.00  0.00    -0.101 NA 
HETATM    8  H   UNL     1     -10.207   2.744  63.980  1.00  0.00     0.000 HD 
HETATM    9  C   UNL     1      -8.404   5.149  66.240  1.00  0.00    -0.113 A  
HETATM   10  C   UNL     1      -6.710   6.047  70.707  1.00  0.00    -0.057 A  
HETATM   11  C   UNL     1      -5.883   6.906  71.624  1.00  0.00    -0.037 C  
HETATM   12  O   UNL     1      -8.964   1.540  65.874  1.00  0.00    -0.123 OA 
HETATM   13  N   UNL     1      -8.749   5.456  65.021  1.00  0.00    -0.219 N  
HETATM   14  H   UNL     1      -8.637   6.423  64.714  1.00  0.00     0.000 HD 
HETATM   15  C   UNL     1      -8.665   3.750  66.723  1.00  0.00    -0.118 A  
HETATM   16  C   UNL     1      -9.251   4.553  64.141  1.00  0.00    -0.109 C  
HETATM   17  C   UNL     1      -9.110   2.741  65.716  1.00  0.00    -0.125 C  
HETATM   18  N   UNL     1      -8.576   3.424  67.981  1.00  0.00    -0.090 NA 
HETATM   19  N   UNL     1      -9.578   3.298  64.561  1.00  0.00    -0.150 N  
HETATM   20  O   UNL     1      -9.376   4.817  62.948  1.00  0.00    -0.093 OA 
ENDROOT
BRANCH   7  21
HETATM   21  C   UNL     1      -8.088   7.495  66.902  1.00  0.00    -0.116 C  
BRANCH  21  22
HETATM   22  C   UNL     1      -9.528   7.890  67.291  1.00  0.00    -0.149 C  
HETATM   23  O   UNL     1     -10.275   8.096  66.091  1.00  0.00    -0.460 OA 
HETATM   24  H   UNL     1     -11.162   8.339  66.330  1.00  0.00     0.000 HD 
BRANCH  22  25
HETATM   25  C   UNL     1      -9.477   9.144  68.183  1.00  0.00    -0.142 C  
HETATM   26  H   UNL     1      -9.158   9.476  70.070  1.00  0.00     0.000 HD 
HETATM   27  O   UNL     1      -9.189   8.703  69.519  1.00  0.00    -0.148 OA 
BRANCH  25  28
HETATM   28  C   UNL     1     -10.770   9.995  68.186  1.00  0.00    -0.239 C  
HETATM   29  H   UNL     1     -11.738  11.189  66.938  1.00  0.00     0.000 HD 
HETATM   30  O   UNL     1     -10.944  10.666  66.935  1.00  0.00    -0.243 OA 
BRANCH  28  31
HETATM   31  C   UNL     1     -10.766  11.032  69.326  1.00  0.00    -0.222 C  
BRANCH  31  32
HETATM   32  O   UNL     1     -12.081  11.437  69.636  1.00  0.00    -0.308 OA 
BRANCH  32  33
HETATM   33  P   UNL     1     -12.749  10.913  70.997  1.00  0.00    -0.368 P  
HETATM   34  O   UNL     1     -11.537  10.154  71.702  1.00  0.00    -0.267 OA 
HETATM   35  O   UNL     1     -13.903   9.966  70.816  1.00  0.00    -0.099 OA 
BRANCH  33  36
HETATM   36  O   UNL     1     -13.183  12.224  71.799  1.00  0.00    -0.445 OA 
BRANCH  36  37
HETATM   37  P   UNL     1     -12.603  13.807  71.409  1.00  0.00    -0.259 P  
HETATM   38  O   UNL     1     -14.086  14.246  70.889  1.00  0.00    -0.034 OA 
HETATM   39  O   UNL     1     -12.415  14.136  72.885  1.00  0.00    -0.179 OA 
BRANCH  37  40
HETATM   40  O   UNL     1     -12.024  15.390  71.021  1.00  0.00    -0.296 OA 
BRANCH  40  41
HETATM   41  C   UNL     1     -10.714  15.415  70.454  1.00  0.00    -0.286 C  
BRANCH  41  42
HETATM   42  C   UNL     1     -10.786  15.197  68.938  1.00  0.00    -0.241 C  
HETATM   43  O   UNL     1     -11.290  16.395  68.334  1.00  0.00    -0.366 OA 
HETATM   44  C   UNL     1     -10.610  16.595  67.088  1.00  0.00    -0.264 C  
HETATM   45  C   UNL     1      -9.408  15.659  66.990  1.00  0.00    -0.226 C  
HETATM   46  H   UNL     1      -8.460  13.267  67.698  1.00  0.00     0.000 HD 
HETATM   47  C   UNL     1      -9.438  14.875  68.299  1.00  0.00    -0.210 C  
HETATM   48  O   UNL     1      -9.300  13.468  68.096  1.00  0.00    -0.203 OA 
HETATM   49  O   UNL     1      -9.502  14.763  65.867  1.00  0.00    -0.414 OA 
HETATM   50  H   UNL     1      -8.754  14.181  65.806  1.00  0.00     0.000 HD 
BRANCH  44  51
HETATM   51  N   UNL     1     -10.279  18.000  66.958  1.00  0.00    -0.346 NA 
HETATM   52  C   UNL     1     -10.643  18.856  65.954  1.00  0.00    -0.373 A  
HETATM   53  C   UNL     1      -8.918  19.695  66.901  1.00  0.00    -0.331 A  
HETATM   54  N   UNL     1      -9.821  19.882  65.870  1.00  0.00    -0.403 NA 
HETATM   55  C   UNL     1      -9.272  18.596  67.665  1.00  0.00    -0.281 A  
HETATM   56  N   UNL     1      -8.668  18.130  68.771  1.00  0.00    -0.261 NA 
HETATM   57  C   UNL     1      -7.587  18.881  69.066  1.00  0.00    -0.248 A  
HETATM   58  N   UNL     1      -7.080  19.927  68.377  1.00  0.00    -0.296 NA 
HETATM   59  C   UNL     1      -7.726  20.340  67.260  1.00  0.00    -0.321 A  
HETATM   60  N   UNL     1      -7.141  21.336  66.496  1.00  0.00    -0.684 NA 
HETATM   61  H2  UNL     1      -7.845  22.060  66.351  1.00  0.00     0.000 HD 
HETATM   62  H1  UNL     1      -6.274  21.805  66.758  1.00  0.00     0.000 HD 
ENDBRANCH  44  51
ENDBRANCH  41  42
ENDBRANCH  40  41
ENDBRANCH  37  40
ENDBRANCH  36  37
ENDBRANCH  33  36
ENDBRANCH  32  33
ENDBRANCH  31  32
ENDBRANCH  28  31
ENDBRANCH  25  28
ENDBRANCH  22  25
ENDBRANCH  21  22
ENDBRANCH   7  21
TORSDOF 13
ENDMDL
MODEL       38
REMARK 921   NORMALIZED FREE ENERGY PREDICTED BY IDOCK:   -5.86 KCAL/MOL
REMARK 922        TOTAL FREE ENERGY PREDICTED BY IDOCK:  -13.42 KCAL/MOL
REMARK 923 INTER-LIGAND FREE ENERGY PREDICTED BY IDOCK:  -12.17 KCAL/MOL
REMARK 924 INTRA-LIGAND FREE ENERGY PREDICTED BY IDOCK:   -1.25 KCAL/MOL
REMARK 927      BINDING AFFINITY PREDICTED BY RF-SCORE:    0.00 PKD
ROOT
HETATM    1  C   UNL     1     -12.268   7.066  71.520  1.00  0.00    -0.407 C  
HETATM    2  C   UNL     1     -11.095   6.978  70.584  1.00  0.00    -0.307 A  
HETATM    3  C   UNL     1     -11.029   5.909  69.677  1.00  0.00    -0.447 A  
HETATM    4  C   UNL     1     -10.044   5.851  68.685  1.00  0.00    -0.168 A  
HETATM    5  C   UNL     1      -9.158   6.934  68.521  1.00  0.00    -0.127 A  
HETATM    6  C   UNL     1      -9.143   7.930  69.510  1.00  0.00    -0.149 A  
HETATM    7  N   UNL     1      -8.298   6.958  67.400  1.00  0.00    -0.121 NA 
HETATM    8  H   UNL     1      -8.348   2.883  64.258  1.00  0.00     0.000 HD 
HETATM    9  C   UNL     1      -8.244   5.835  66.587  1.00  0.00    -0.106 A  
HETATM   10  C   UNL     1     -10.099   7.968  70.541  1.00  0.00    -0.195 A  
HETATM   11  C   UNL     1     -10.016   9.054  71.579  1.00  0.00    -0.391 C  
HETATM   12  O   UNL     1      -9.115   2.270  66.628  1.00  0.00    -0.130 OA 
HETATM   13  N   UNL     1      -7.543   5.783  65.489  1.00  0.00    -0.081 N  
HETATM   14  H   UNL     1      -7.047   6.622  65.189  1.00  0.00     0.000 HD 
HETATM   15  C   UNL     1      -9.056   4.630  66.972  1.00  0.00    -0.121 A  
HETATM   16  C   UNL     1      -7.442   4.666  64.724  1.00  0.00    -0.072 C  
HETATM   17  C   UNL     1      -8.849   3.376  66.188  1.00  0.00    -0.137 C  
HETATM   18  N   UNL     1      -9.960   4.676  67.908  1.00  0.00    -0.116 NA 
HETATM   19  N   UNL     1      -8.224   3.581  64.992  1.00  0.00    -0.093 N  
HETATM   20  O   UNL     1      -6.622   4.579  63.814  1.00  0.00    -0.039 OA 
ENDROOT
BRANCH   7  21
HETATM   21  C   UNL     1      -8.011   8.273  66.796  1.00  0.00    -0.099 C  
BRANCH  21  22
HETATM   22  C   UNL     1      -9.216   8.814  65.998  1.00  0.00    -0.222 C  
HETATM   23  O   UNL     1     -10.258   7.838  66.046  1.00  0.00    -0.366 OA 
HETATM   24  H   UNL     1     -11.000   8.171  65.554  1.00  0.00     0.000 HD 
BRANCH  22  25
HETATM   25  C   UNL     1      -8.760   9.129  64.562  1.00  0.00    -0.160 C  
HETATM   26  H   UNL     1      -7.092   8.962  63.582  1.00  0.00     0.000 HD 
HETATM   27  O   UNL     1      -7.373   8.767  64.468  1.00  0.00    -0.097 OA 
BRANCH  25  28
HETATM   28  C   UNL     1      -8.939  10.605  64.131  1.00  0.00    -0.198 C  
HETATM   29  H   UNL     1      -8.992  12.385  64.996  1.00  0.00     0.000 HD 
HETATM   30  O   UNL     1      -8.882  11.480  65.261  1.00  0.00    -0.033 OA 
BRANCH  28  31
HETATM   31  C   UNL     1     -10.269  10.822  63.383  1.00  0.00    -0.223 C  
BRANCH  31  32
HETATM   32  O   UNL     1     -10.653  12.179  63.431  1.00  0.00    -0.436 OA 
BRANCH  32  33
HETATM   33  P   UNL     1     -12.147  12.543  63.886  1.00  0.00    -0.560 P  
HETATM   34  O   UNL     1     -12.142  12.141  65.429  1.00  0.00    -0.477 OA 
HETATM   35  O   UNL     1     -13.232  11.788  63.170  1.00  0.00    -0.538 OA 
BRANCH  33  36
HETATM   36  O   UNL     1     -12.290  14.121  63.679  1.00  0.00    -0.741 OA 
BRANCH  36  37
HETATM   37  P   UNL     1     -11.290  15.276  64.491  1.00  0.00    -0.105 P  
HETATM   38  O   UNL     1     -12.244  15.206  65.812  1.00  0.00     0.109 OA 
HETATM   39  O   UNL     1     -10.148  14.271  64.580  1.00  0.00    -0.254 OA 
BRANCH  37  40
HETATM   40  O   UNL     1     -10.289  16.430  65.303  1.00  0.00    -0.581 OA 
BRANCH  40  41
HETATM   41  C   UNL     1     -10.888  17.714  65.470  1.00  0.00     0.056 C  
BRANCH  41  42
HETATM   42  C   UNL     1     -10.503  18.308  66.831  1.00  0.00    -0.373 C  
HETATM   43  O   UNL     1     -10.496  17.251  67.798  1.00  0.00    -0.344 OA 
HETATM   44  C   UNL     1      -9.417  17.480  68.713  1.00  0.00    -0.249 C  
HETATM   45  C   UNL     1      -8.494  18.568  68.172  1.00  0.00    -0.296 C  
HETATM   46  H   UNL     1      -8.396  20.802  66.715  1.00  0.00     0.000 HD 
HETATM   47  C   UNL     1      -9.128  18.971  66.844  1.00  0.00    -0.303 C  
HETATM   48  O   UNL     1      -9.251  20.388  66.706  1.00  0.00    -0.330 OA 
HETATM   49  O   UNL     1      -8.411  19.704  69.053  1.00  0.00    -0.302 OA 
HETATM   50  H   UNL     1      -7.836  20.380  68.717  1.00  0.00     0.000 HD 
BRANCH  44  51
HETATM   51  N   UNL     1      -8.755  16.218  68.978  1.00  0.00    -0.252 NA 
HETATM   52  C   UNL     1      -7.411  15.963  68.974  1.00  0.00    -0.185 A  
HETATM   53  C   UNL     1      -8.407  14.091  68.693  1.00  0.00    -0.104 A  
HETATM   54  N   UNL     1      -7.161  14.685  68.773  1.00  0.00    -0.116 NA 
HETATM   55  C   UNL     1      -9.405  15.015  68.949  1.00  0.00    -0.208 A  
HETATM   56  N   UNL     1     -10.731  14.806  69.007  1.00  0.00    -0.243 NA 
HETATM   57  C   UNL     1     -11.012  13.513  68.742  1.00  0.00    -0.261 A  
HETATM   58  N   UNL     1     -10.159  12.522  68.404  1.00  0.00    -0.224 NA 
HETATM   59  C   UNL     1      -8.834  12.800  68.347  1.00  0.00    -0.117 A  
HETATM   60  N   UNL     1      -7.977  11.814  67.891  1.00  0.00    -0.132 NA 
HETATM   61  H2  UNL     1      -7.234  11.713  68.582  1.00  0.00     0.000 HD 
HETATM   62  H1  UNL     1      -8.288  10.875  67.640  1.00  0.00     0.000 HD 
ENDBRANCH  44  51
ENDBRANCH  41  42
ENDBRANCH  40  41
ENDBRANCH  37  40
ENDBRANCH  36  37
ENDBRANCH  33  36
ENDBRANCH  32  33
ENDBRANCH  31  32
ENDBRANCH  28  31
ENDBRANCH  25  28
ENDBRANCH  22  25
ENDBRANCH  21  22
ENDBRANCH   7  21
TORSDOF 13
ENDMDL
MODEL       39
REMARK 921   NORMALIZED FREE ENERGY PREDICTED BY IDOCK:   -5.71 KCAL/MOL
REMARK 922        TOTAL FREE ENERGY PREDICTED BY IDOCK:  -13.16 KCAL/MOL
REMARK 923 INTER-LIGAND FREE ENERGY PREDICTED BY IDOCK:  -10.67 KCAL/MOL
REMARK 924 INTRA-LIGAND FREE ENERGY PREDICTED BY IDOCK:   -2.49 KCAL/MOL
REMARK 927      BINDING AFFINITY PREDICTED BY RF-SCORE:    0.00 PKD
ROOT
HETATM    1  C   UNL     1     -10.775  19.334  67.328  1.00  0.00    -0.594 C  
HETATM    2  C   UNL     1      -9.990  18.053  67.288  1.00  0.00    -0.324 A  
HETATM    3  C   UNL     1      -9.131  17.749  68.356  1.00  0.00    -0.278 A  
HETATM    4  C   UNL     1      -8.488  16.510  68.448  1.00  0.00    -0.208 A  
HETATM    5  C   UNL     1      -8.782  15.503  67.507  1.00  0.00    -0.172 A  
HETATM    6  C   UNL     1      -9.532  15.856  66.375  1.00  0.00    -0.324 A  
HETATM    7  N   UNL     1      -8.284  14.197  67.717  1.00  0.00    -0.155 NA 
HETATM    8  H   UNL     1      -5.193  13.435  71.759  1.00  0.00     0.000 HD 
HETATM    9  C   UNL     1      -7.388  13.992  68.756  1.00  0.00    -0.127 A  
HETATM   10  C   UNL     1     -10.140  17.117  66.250  1.00  0.00    -0.329 A  
HETATM   11  C   UNL     1     -10.917  17.438  65.002  1.00  0.00     0.327 C  
HETATM   12  O   UNL     1      -5.150  15.876  70.973  1.00  0.00    -0.178 OA 
HETATM   13  N   UNL     1      -6.929  12.816  69.081  1.00  0.00    -0.252 N  
HETATM   14  H   UNL     1      -7.279  12.002  68.576  1.00  0.00     0.000 HD 
HETATM   15  C   UNL     1      -6.949  15.178  69.569  1.00  0.00    -0.189 A  
HETATM   16  C   UNL     1      -6.008  12.622  70.059  1.00  0.00    -0.145 C  
HETATM   17  C   UNL     1      -5.855  14.968  70.564  1.00  0.00    -0.126 C  
HETATM   18  N   UNL     1      -7.532  16.338  69.472  1.00  0.00    -0.139 NA 
HETATM   19  N   UNL     1      -5.645  13.655  70.872  1.00  0.00    -0.183 N  
HETATM   20  O   UNL     1      -5.444  11.541  70.209  1.00  0.00    -0.092 OA 
ENDROOT
BRANCH   7  21
HETATM   21  C   UNL     1      -9.141  13.071  67.300  1.00  0.00    -0.209 C  
BRANCH  21  22
HETATM   22  C   UNL     1     -10.555  13.170  67.910  1.00  0.00    -0.234 C  
HETATM   23  O   UNL     1     -10.514  12.609  69.224  1.00  0.00    -0.436 OA 
HETATM   24  H   UNL     1     -11.385  12.670  69.600  1.00  0.00     0.000 HD 
BRANCH  22  25
HETATM   25  C   UNL     1     -11.549  12.447  66.984  1.00  0.00    -0.365 C  
HETATM   26  H   UNL     1     -12.723  10.910  67.161  1.00  0.00     0.000 HD 
HETATM   27  O   UNL     1     -12.110  11.356  67.733  1.00  0.00    -0.637 OA 
BRANCH  25  28
HETATM   28  C   UNL     1     -10.939  11.910  65.666  1.00  0.00    -0.304 C  
HETATM   29  H   UNL     1     -11.483  11.729  63.771  1.00  0.00     0.000 HD 
HETATM   30  O   UNL     1     -11.857  12.059  64.580  1.00  0.00    -0.336 OA 
BRANCH  28  31
HETATM   31  C   UNL     1     -10.530  10.429  65.790  1.00  0.00    -0.117 C  
BRANCH  31  32
HETATM   32  O   UNL     1      -9.182  10.252  65.413  1.00  0.00    -0.167 OA 
BRANCH  32  33
HETATM   33  P   UNL     1      -8.415   8.927  65.891  1.00  0.00    -0.154 P  
HETATM   34  O   UNL     1      -7.997   9.295  67.386  1.00  0.00    -0.105 OA 
HETATM   35  O   UNL     1      -7.189   8.579  65.094  1.00  0.00    -0.077 OA 
BRANCH  33  36
HETATM   36  O   UNL     1      -9.502   7.757  65.844  1.00  0.00    -0.055 OA 
BRANCH  36  37
HETATM   37  P   UNL     1      -9.576   6.488  67.017  1.00  0.00    -0.157 P  
HETATM   38  O   UNL     1      -7.948   6.426  67.086  1.00  0.00    -0.109 OA 
HETATM   39  O   UNL     1     -10.138   7.444  68.062  1.00  0.00    -0.165 OA 
BRANCH  37  40
HETATM   40  O   UNL     1      -9.651   5.219  68.191  1.00  0.00    -0.118 OA 
BRANCH  40  41
HETATM   41  C   UNL     1      -8.380   4.694  68.572  1.00  0.00    -0.086 C  
BRANCH  41  42
HETATM   42  C   UNL     1      -8.366   4.369  70.071  1.00  0.00    -0.062 C  
HETATM   43  O   UNL     1      -8.446   5.600  70.799  1.00  0.00    -0.120 OA 
HETATM   44  C   UNL     1      -9.260   5.389  71.960  1.00  0.00    -0.137 C  
HETATM   45  C   UNL     1      -9.987   4.051  71.854  1.00  0.00    -0.176 C  
HETATM   46  H   UNL     1      -9.822   1.564  70.900  1.00  0.00     0.000 HD 
HETATM   47  C   UNL     1      -9.524   3.479  70.517  1.00  0.00    -0.179 C  
HETATM   48  O   UNL     1      -9.101   2.118  70.622  1.00  0.00    -0.081 OA 
HETATM   49  O   UNL     1      -9.644   3.155  72.927  1.00  0.00    -0.101 OA 
HETATM   50  H   UNL     1     -10.097   2.323  72.862  1.00  0.00     0.000 HD 
BRANCH  44  51
HETATM   51  N   UNL     1     -10.139   6.529  72.126  1.00  0.00    -0.180 NA 
HETATM   52  C   UNL     1     -11.451   6.523  72.516  1.00  0.00    -0.239 A  
HETATM   53  C   UNL     1     -11.111   8.364  71.480  1.00  0.00    -0.266 A  
HETATM   54  N   UNL     1     -12.080   7.610  72.115  1.00  0.00    -0.298 NA 
HETATM   55  C   UNL     1      -9.870   7.760  71.595  1.00  0.00    -0.163 A  
HETATM   56  N   UNL     1      -8.686   8.213  71.150  1.00  0.00    -0.130 NA 
HETATM   57  C   UNL     1      -8.847   9.388  70.507  1.00  0.00    -0.239 A  
HETATM   58  N   UNL     1      -9.994  10.055  70.253  1.00  0.00    -0.202 NA 
HETATM   59  C   UNL     1     -11.158   9.539  70.715  1.00  0.00    -0.323 A  
HETATM   60  N   UNL     1     -12.340  10.163  70.355  1.00  0.00    -0.456 NA 
HETATM   61  H2  UNL     1     -12.865  10.338  71.212  1.00  0.00     0.000 HD 
HETATM   62  H1  UNL     1     -12.374  11.018  69.799  1.00  0.00     0.000 HD 
ENDBRANCH  44  51
ENDBRANCH  41  42
ENDBRANCH  40  41
ENDBRANCH  37  40
ENDBRANCH  36  37
ENDBRANCH  33  36
ENDBRANCH  32  33
ENDBRANCH  31  32
ENDBRANCH  28  31
ENDBRANCH  25  28
ENDBRANCH  22  25
ENDBRANCH  21  22
ENDBRANCH   7  21
TORSDOF 13
ENDMDL
MODEL       40
REMARK 921   NORMALIZED FREE ENERGY PREDICTED BY IDOCK:   -5.43 KCAL/MOL
REMARK 922        TOTAL FREE ENERGY PREDICTED BY IDOCK:  -12.66 KCAL/MOL
REMARK 923 INTER-LIGAND FREE ENERGY PREDICTED BY IDOCK:  -11.17 KCAL/MOL
REMARK 924 INTRA-LIGAND FREE ENERGY PREDICTED BY IDOCK:   -1.49 KCAL/MOL
REMARK 927      BINDING AFFINITY PREDICTED BY RF-SCORE:    0.00 PKD
ROOT
HETATM    1  C   UNL     1      -6.045  17.666  67.519  1.00  0.00    -0.168 C  
HETATM    2  C   UNL     1      -7.166  16.664  67.499  1.00  0.00    -0.169 A  
HETATM    3  C   UNL     1      -8.094  16.704  66.446  1.00  0.00    -0.359 A  
HETATM    4  C   UNL     1      -9.068  15.712  66.292  1.00  0.00    -0.341 A  
HETATM    5  C   UNL     1      -9.062  14.592  67.147  1.00  0.00    -0.223 A  
HETATM    6  C   UNL     1      -8.223  14.626  68.273  1.00  0.00    -0.146 A  
HETATM    7  N   UNL     1      -9.919  13.505  66.866  1.00  0.00    -0.250 NA 
HETATM    8  H   UNL     1     -13.165  13.979  62.902  1.00  0.00     0.000 HD 
HETATM    9  C   UNL     1     -10.853  13.647  65.850  1.00  0.00    -0.275 A  
HETATM   10  C   UNL     1      -7.275  15.646  68.462  1.00  0.00    -0.120 A  
HETATM   11  C   UNL     1      -6.418  15.633  69.699  1.00  0.00    -0.179 C  
HETATM   12  O   UNL     1     -12.488  16.261  63.858  1.00  0.00    -0.774 OA 
HETATM   13  N   UNL     1     -11.637  12.681  65.461  1.00  0.00    -0.351 N  
HETATM   14  H   UNL     1     -11.528  11.764  65.894  1.00  0.00     0.000 HD 
HETATM   15  C   UNL     1     -10.944  14.969  65.139  1.00  0.00    -0.406 A  
HETATM   16  C   UNL     1     -12.590  12.836  64.507  1.00  0.00    -0.389 C  
HETATM   17  C   UNL     1     -12.069  15.160  64.175  1.00  0.00    -0.176 C  
HETATM   18  N   UNL     1     -10.050  15.902  65.296  1.00  0.00    -0.464 NA 
HETATM   19  N   UNL     1     -12.653  13.990  63.784  1.00  0.00    -0.080 N  
HETATM   20  O   UNL     1     -13.445  11.977  64.304  1.00  0.00    -0.654 OA 
ENDROOT
BRANCH   7  21
HETATM   21  C   UNL     1      -9.416  12.151  67.170  1.00  0.00    -0.190 C  
BRANCH  21  22
HETATM   22  C   UNL     1     -10.374  11.378  68.099  1.00  0.00    -0.188 C  
HETATM   23  O   UNL     1     -11.244  10.587  67.287  1.00  0.00    -0.307 OA 
HETATM   24  H   UNL     1     -11.834  10.111  67.860  1.00  0.00     0.000 HD 
BRANCH  22  25
HETATM   25  C   UNL     1     -11.134  12.386  68.981  1.00  0.00    -0.235 C  
HETATM   26  H   UNL     1     -10.631  13.658  70.359  1.00  0.00     0.000 HD 
HETATM   27  O   UNL     1     -10.163  13.036  69.815  1.00  0.00     0.831 OA 
BRANCH  25  28
HETATM   28  C   UNL     1     -12.246  11.770  69.864  1.00  0.00    -0.223 C  
HETATM   29  H   UNL     1     -13.085  12.131  71.621  1.00  0.00     0.000 HD 
HETATM   30  O   UNL     1     -12.403  12.509  71.079  1.00  0.00    -0.351 OA 
BRANCH  28  31
HETATM   31  C   UNL     1     -11.956  10.294  70.198  1.00  0.00    -0.234 C  
BRANCH  31  32
HETATM   32  O   UNL     1     -11.023  10.195  71.252  1.00  0.00    -0.181 OA 
BRANCH  32  33
HETATM   33  P   UNL     1     -10.314   8.783  71.526  1.00  0.00    -0.355 P  
HETATM   34  O   UNL     1     -11.031   7.830  70.467  1.00  0.00    -0.239 OA 
HETATM   35  O   UNL     1     -10.505   8.233  72.912  1.00  0.00    -0.314 OA 
BRANCH  33  36
HETATM   36  O   UNL     1      -8.769   9.001  71.185  1.00  0.00    -0.202 OA 
BRANCH  36  37
HETATM   37  P   UNL     1      -8.135   8.927  69.577  1.00  0.00    -0.109 P  
HETATM   38  O   UNL     1      -7.552  10.445  69.714  1.00  0.00    -0.155 OA 
HETATM   39  O   UNL     1      -7.097   7.896  70.000  1.00  0.00    -0.049 OA 
BRANCH  37  40
HETATM   40  O   UNL     1      -7.500   8.854  67.969  1.00  0.00    -0.090 OA 
BRANCH  40  41
HETATM   41  C   UNL     1      -7.003   7.570  67.591  1.00  0.00    -0.080 C  
BRANCH  41  42
HETATM   42  C   UNL     1      -8.057   6.811  66.775  1.00  0.00    -0.109 C  
HETATM   43  O   UNL     1      -7.780   5.409  66.877  1.00  0.00    -0.098 OA 
HETATM   44  C   UNL     1      -9.026   4.704  66.940  1.00  0.00    -0.113 C  
HETATM   45  C   UNL     1     -10.171   5.684  67.180  1.00  0.00    -0.212 C  
HETATM   46  H   UNL     1     -11.027   8.172  66.729  1.00  0.00     0.000 HD 
HETATM   47  C   UNL     1      -9.488   7.047  67.250  1.00  0.00    -0.138 C  
HETATM   48  O   UNL     1     -10.135   8.025  66.434  1.00  0.00    -0.227 OA 
HETATM   49  O   UNL     1     -11.142   5.664  66.117  1.00  0.00    -0.743 OA 
HETATM   50  H   UNL     1     -11.854   6.274  66.267  1.00  0.00     0.000 HD 
BRANCH  44  51
HETATM   51  N   UNL     1      -8.920   3.660  67.939  1.00  0.00    -0.118 NA 
HETATM   52  C   UNL     1      -9.172   2.324  67.782  1.00  0.00    -0.184 A  
HETATM   53  C   UNL     1      -9.323   2.750  69.873  1.00  0.00    -0.132 A  
HETATM   54  N   UNL     1      -9.450   1.745  68.933  1.00  0.00    -0.146 NA 
HETATM   55  C   UNL     1      -8.867   3.916  69.281  1.00  0.00    -0.093 A  
HETATM   56  N   UNL     1      -8.578   5.087  69.875  1.00  0.00    -0.097 NA 
HETATM   57  C   UNL     1      -8.825   5.013  71.199  1.00  0.00    -0.129 A  
HETATM   58  N   UNL     1      -9.338   3.978  71.900  1.00  0.00    -0.126 NA 
HETATM   59  C   UNL     1      -9.623   2.829  71.241  1.00  0.00    -0.157 A  
HETATM   60  N   UNL     1     -10.253   1.813  71.939  1.00  0.00    -0.151 NA 
HETATM   61  H2  UNL     1      -9.708   0.962  71.796  1.00  0.00     0.000 HD 
HETATM   62  H1  UNL     1     -10.471   1.870  72.935  1.00  0.00     0.000 HD 
ENDBRANCH  44  51
ENDBRANCH  41  42
ENDBRANCH  40  41
ENDBRANCH  37  40
ENDBRANCH  36  37
ENDBRANCH  33  36
ENDBRANCH  32  33
ENDBRANCH  31  32
ENDBRANCH  28  31
ENDBRANCH  25  28
ENDBRANCH  22  25
ENDBRANCH  21  22
ENDBRANCH   7  21
TORSDOF 13
ENDMDL
MODEL       41
REMARK 921   NORMALIZED FREE ENERGY PREDICTED BY IDOCK:   -5.40 KCAL/MOL
REMARK 922        TOTAL FREE ENERGY PREDICTED BY IDOCK:  -12.61 KCAL/MOL
REMARK 923 INTER-LIGAND FREE ENERGY PREDICTED BY IDOCK:  -11.22 KCAL/MOL
REMARK 924 INTRA-LIGAND FREE ENERGY PREDICTED BY IDOCK:   -1.39 KCAL/MOL
REMARK 927      BINDING AFFINITY PREDICTED BY RF-SCORE:    0.00 PKD
ROOT
HETATM    1  C   UNL     1     -12.813   7.151  71.391  1.00  0.00    -0.431 C  
HETATM    2  C   UNL     1     -11.471   6.955  70.741  1.00  0.00    -0.381 A  
HETATM    3  C   UNL     1     -11.184   5.722  70.135  1.00  0.00    -0.219 A  
HETATM    4  C   UNL     1     -10.016   5.528  69.389  1.00  0.00    -0.208 A  
HETATM    5  C   UNL     1      -9.153   6.616  69.153  1.00  0.00    -0.137 A  
HETATM    6  C   UNL     1      -9.376   7.803  69.870  1.00  0.00    -0.157 A  
HETATM    7  N   UNL     1      -8.085   6.464  68.241  1.00  0.00    -0.112 NA 
HETATM    8  H   UNL     1      -7.350   1.810  66.172  1.00  0.00     0.000 HD 
HETATM    9  C   UNL     1      -7.826   5.198  67.735  1.00  0.00    -0.091 A  
HETATM   10  C   UNL     1     -10.522   7.989  70.662  1.00  0.00    -0.219 A  
HETATM   11  C   UNL     1     -10.692   9.278  71.418  1.00  0.00    -0.432 C  
HETATM   12  O   UNL     1      -8.562   1.670  68.429  1.00  0.00    -0.057 OA 
HETATM   13  N   UNL     1      -6.915   4.964  66.832  1.00  0.00    -0.062 N  
HETATM   14  H   UNL     1      -6.398   5.754  66.448  1.00  0.00     0.000 HD 
HETATM   15  C   UNL     1      -8.657   4.046  68.224  1.00  0.00    -0.095 A  
HETATM   16  C   UNL     1      -6.621   3.718  66.380  1.00  0.00    -0.041 C  
HETATM   17  C   UNL     1      -8.251   2.671  67.805  1.00  0.00    -0.071 C  
HETATM   18  N   UNL     1      -9.734   4.222  68.935  1.00  0.00    -0.156 NA 
HETATM   19  N   UNL     1      -7.402   2.659  66.736  1.00  0.00    -0.068 N  
HETATM   20  O   UNL     1      -5.630   3.501  65.687  1.00  0.00    -0.016 OA 
ENDROOT
BRANCH   7  21
HETATM   21  C   UNL     1      -7.727   7.634  67.417  1.00  0.00    -0.117 C  
BRANCH  21  22
HETATM   22  C   UNL     1      -8.802   7.938  66.353  1.00  0.00    -0.158 C  
HETATM   23  O   UNL     1      -9.368   6.698  65.924  1.00  0.00    -0.369 OA 
HETATM   24  H   UNL     1     -10.030   6.885  65.268  1.00  0.00     0.000 HD 
BRANCH  22  25
HETATM   25  C   UNL     1      -8.154   8.727  65.202  1.00  0.00    -0.133 C  
HETATM   26  H   UNL     1      -6.414   8.719  64.339  1.00  0.00     0.000 HD 
HETATM   27  O   UNL     1      -6.815   8.232  65.049  1.00  0.00    -0.065 OA 
BRANCH  25  28
HETATM   28  C   UNL     1      -8.118  10.262  65.403  1.00  0.00    -0.147 C  
HETATM   29  H   UNL     1      -6.917  11.600  66.232  1.00  0.00     0.000 HD 
HETATM   30  O   UNL     1      -6.939  10.658  66.109  1.00  0.00    -0.124 OA 
BRANCH  28  31
HETATM   31  C   UNL     1      -9.362  10.766  66.162  1.00  0.00    -0.183 C  
BRANCH  31  32
HETATM   32  O   UNL     1      -9.530  12.154  65.976  1.00  0.00    -0.239 OA 
BRANCH  32  33
HETATM   33  P   UNL     1     -10.803  12.872  66.634  1.00  0.00    -0.279 P  
HETATM   34  O   UNL     1     -10.214  13.416  68.013  1.00  0.00    -0.230 OA 
HETATM   35  O   UNL     1     -11.974  11.969  66.906  1.00  0.00    -0.612 OA 
BRANCH  33  36
HETATM   36  O   UNL     1     -11.193  14.060  65.639  1.00  0.00    -0.303 OA 
BRANCH  36  37
HETATM   37  P   UNL     1     -10.786  15.715  65.936  1.00  0.00    -0.279 P  
HETATM   38  O   UNL     1     -11.405  15.620  67.443  1.00  0.00    -0.281 OA 
HETATM   39  O   UNL     1      -9.299  15.383  65.928  1.00  0.00    -0.328 OA 
BRANCH  37  40
HETATM   40  O   UNL     1     -10.377  17.369  66.234  1.00  0.00    -0.345 OA 
BRANCH  40  41
HETATM   41  C   UNL     1     -10.770  17.851  67.519  1.00  0.00    -0.321 C  
BRANCH  41  42
HETATM   42  C   UNL     1      -9.676  18.750  68.108  1.00  0.00    -0.341 C  
HETATM   43  O   UNL     1      -8.677  17.914  68.703  1.00  0.00    -0.301 OA 
HETATM   44  C   UNL     1      -7.392  18.503  68.467  1.00  0.00    -0.295 C  
HETATM   45  C   UNL     1      -7.510  19.619  67.432  1.00  0.00    -0.253 C  
HETATM   46  H   UNL     1      -9.116  21.517  66.463  1.00  0.00     0.000 HD 
HETATM   47  C   UNL     1      -8.993  19.643  67.074  1.00  0.00    -0.316 C  
HETATM   48  O   UNL     1      -9.541  20.962  67.106  1.00  0.00    -0.414 OA 
HETATM   49  O   UNL     1      -7.100  20.896  67.955  1.00  0.00    -0.262 OA 
HETATM   50  H   UNL     1      -7.173  21.590  67.311  1.00  0.00     0.000 HD 
BRANCH  44  51
HETATM   51  N   UNL     1      -6.459  17.455  68.106  1.00  0.00    -0.164 NA 
HETATM   52  C   UNL     1      -5.660  17.394  66.996  1.00  0.00    -0.152 A  
HETATM   53  C   UNL     1      -5.877  15.394  67.726  1.00  0.00    -0.130 A  
HETATM   54  N   UNL     1      -5.312  16.153  66.718  1.00  0.00    -0.248 NA 
HETATM   55  C   UNL     1      -6.484  16.209  68.668  1.00  0.00    -0.120 A  
HETATM   56  N   UNL     1      -7.094  15.843  69.807  1.00  0.00    -0.119 NA 
HETATM   57  C   UNL     1      -7.080  14.500  69.935  1.00  0.00    -0.012 A  
HETATM   58  N   UNL     1      -6.596  13.581  69.070  1.00  0.00    -0.106 NA 
HETATM   59  C   UNL     1      -6.006  14.013  67.930  1.00  0.00    -0.138 A  
HETATM   60  N   UNL     1      -5.616  13.068  66.996  1.00  0.00    -0.381 NA 
HETATM   61  H2  UNL     1      -4.639  13.252  66.768  1.00  0.00     0.000 HD 
HETATM   62  H1  UNL     1      -5.709  12.063  67.145  1.00  0.00     0.000 HD 
ENDBRANCH  44  51
ENDBRANCH  41  42
ENDBRANCH  40  41
ENDBRANCH  37  40
ENDBRANCH  36  37
ENDBRANCH  33  36
ENDBRANCH  32  33
ENDBRANCH  31  32
ENDBRANCH  28  31
ENDBRANCH  25  28
ENDBRANCH  22  25
ENDBRANCH  21  22
ENDBRANCH   7  21
TORSDOF 13
ENDMDL
MODEL       42
REMARK 921   NORMALIZED FREE ENERGY PREDICTED BY IDOCK:   -5.37 KCAL/MOL
REMARK 922        TOTAL FREE ENERGY PREDICTED BY IDOCK:  -12.55 KCAL/MOL
REMARK 923 INTER-LIGAND FREE ENERGY PREDICTED BY IDOCK:  -10.53 KCAL/MOL
REMARK 924 INTRA-LIGAND FREE ENERGY PREDICTED BY IDOCK:   -2.02 KCAL/MOL
REMARK 927      BINDING AFFINITY PREDICTED BY RF-SCORE:    0.00 PKD
ROOT
HETATM    1  C   UNL     1      -6.317  17.680  67.672  1.00  0.00    -0.173 C  
HETATM    2  C   UNL     1      -7.343  16.587  67.562  1.00  0.00    -0.167 A  
HETATM    3  C   UNL     1      -8.279  16.636  66.516  1.00  0.00    -0.330 A  
HETATM    4  C   UNL     1      -9.161  15.579  66.273  1.00  0.00    -0.329 A  
HETATM    5  C   UNL     1      -9.048  14.392  67.025  1.00  0.00    -0.236 A  
HETATM    6  C   UNL     1      -8.207  14.401  68.149  1.00  0.00    -0.149 A  
HETATM    7  N   UNL     1      -9.806  13.261  66.647  1.00  0.00    -0.269 NA 
HETATM    8  H   UNL     1     -13.112  13.793  62.740  1.00  0.00     0.000 HD 
HETATM    9  C   UNL     1     -10.757  13.409  65.647  1.00  0.00    -0.277 A  
HETATM   10  C   UNL     1      -7.353  15.481  68.430  1.00  0.00    -0.115 A  
HETATM   11  C   UNL     1      -6.489  15.434  69.660  1.00  0.00    -0.171 C  
HETATM   12  O   UNL     1     -12.635  16.032  63.898  1.00  0.00    -0.706 OA 
HETATM   13  N   UNL     1     -11.454  12.415  65.173  1.00  0.00    -0.323 N  
HETATM   14  H   UNL     1     -11.260  11.476  65.522  1.00  0.00     0.000 HD 
HETATM   15  C   UNL     1     -10.972  14.775  65.058  1.00  0.00    -0.414 A  
HETATM   16  C   UNL     1     -12.425  12.568  64.237  1.00  0.00    -0.432 C  
HETATM   17  C   UNL     1     -12.117  14.950  64.114  1.00  0.00    -0.267 C  
HETATM   18  N   UNL     1     -10.164  15.767  65.298  1.00  0.00    -0.442 NA 
HETATM   19  N   UNL     1     -12.596  13.772  63.620  1.00  0.00    -0.128 N  
HETATM   20  O   UNL     1     -13.200  11.657  63.957  1.00  0.00    -0.386 OA 
ENDROOT
BRANCH   7  21
HETATM   21  C   UNL     1      -9.181  11.937  66.828  1.00  0.00    -0.194 C  
BRANCH  21  22
HETATM   22  C   UNL     1     -10.072  10.991  67.659  1.00  0.00    -0.182 C  
HETATM   23  O   UNL     1     -10.845  10.197  66.756  1.00  0.00    -0.168 OA 
HETATM   24  H   UNL     1     -11.394   9.614  67.268  1.00  0.00     0.000 HD 
BRANCH  22  25
HETATM   25  C   UNL     1     -10.944  11.833  68.608  1.00  0.00    -0.224 C  
HETATM   26  H   UNL     1     -10.591  13.114  70.024  1.00  0.00     0.000 HD 
HETATM   27  O   UNL     1     -10.053  12.594  69.438  1.00  0.00     0.376 OA 
BRANCH  25  28
HETATM   28  C   UNL     1     -11.913  11.018  69.498  1.00  0.00    -0.342 C  
HETATM   29  H   UNL     1     -12.850  11.245  71.228  1.00  0.00     0.000 HD 
HETATM   30  O   UNL     1     -12.255  11.745  70.681  1.00  0.00    -0.371 OA 
BRANCH  28  31
HETATM   31  C   UNL     1     -11.314   9.654  69.892  1.00  0.00    -0.159 C  
BRANCH  31  32
HETATM   32  O   UNL     1     -10.644   9.743  71.130  1.00  0.00    -0.297 OA 
BRANCH  32  33
HETATM   33  P   UNL     1      -9.590   8.599  71.521  1.00  0.00    -0.295 P  
HETATM   34  O   UNL     1      -9.944   7.440  70.485  1.00  0.00    -0.184 OA 
HETATM   35  O   UNL     1      -9.708   8.077  72.926  1.00  0.00    -0.243 OA 
BRANCH  33  36
HETATM   36  O   UNL     1      -8.147   9.228  71.245  1.00  0.00    -0.320 OA 
BRANCH  36  37
HETATM   37  P   UNL     1      -7.461   9.364  69.663  1.00  0.00    -0.110 P  
HETATM   38  O   UNL     1      -7.138  10.943  69.914  1.00  0.00    -0.138 OA 
HETATM   39  O   UNL     1      -6.282   8.487  70.065  1.00  0.00    -0.034 OA 
BRANCH  37  40
HETATM   40  O   UNL     1      -6.774   9.499  68.081  1.00  0.00    -0.061 OA 
BRANCH  40  41
HETATM   41  C   UNL     1      -6.107   8.323  67.626  1.00  0.00    -0.051 C  
BRANCH  41  42
HETATM   42  C   UNL     1      -6.469   8.036  66.164  1.00  0.00    -0.046 C  
HETATM   43  O   UNL     1      -6.771   6.641  66.040  1.00  0.00    -0.046 OA 
HETATM   44  C   UNL     1      -7.850   6.491  65.107  1.00  0.00    -0.111 C  
HETATM   45  C   UNL     1      -8.484   7.850  64.817  1.00  0.00     0.007 C  
HETATM   46  H   UNL     1      -8.003  10.467  64.610  1.00  0.00     0.000 HD 
HETATM   47  C   UNL     1      -7.675   8.828  65.664  1.00  0.00    -0.091 C  
HETATM   48  O   UNL     1      -7.253   9.973  64.921  1.00  0.00    -0.131 OA 
HETATM   49  O   UNL     1      -8.402   8.205  63.425  1.00  0.00    -0.342 OA 
HETATM   50  H   UNL     1      -8.797   9.050  63.244  1.00  0.00     0.000 HD 
BRANCH  44  51
HETATM   51  N   UNL     1      -8.776   5.503  65.623  1.00  0.00    -0.151 NA 
HETATM   52  C   UNL     1      -9.812   5.703  66.495  1.00  0.00    -0.168 A  
HETATM   53  C   UNL     1      -9.303   3.627  66.588  1.00  0.00    -0.188 A  
HETATM   54  N   UNL     1     -10.139   4.590  67.121  1.00  0.00    -0.157 NA 
HETATM   55  C   UNL     1      -8.540   4.158  65.561  1.00  0.00    -0.118 A  
HETATM   56  N   UNL     1      -7.652   3.523  64.777  1.00  0.00    -0.076 NA 
HETATM   57  C   UNL     1      -7.553   2.227  65.139  1.00  0.00    -0.072 A  
HETATM   58  N   UNL     1      -8.171   1.590  66.158  1.00  0.00    -0.076 NA 
HETATM   59  C   UNL     1      -9.044   2.290  66.922  1.00  0.00    -0.093 A  
HETATM   60  N   UNL     1      -9.587   1.666  68.033  1.00  0.00    -0.364 NA 
HETATM   61  H2  UNL     1     -10.600   1.774  67.977  1.00  0.00     0.000 HD 
HETATM   62  H1  UNL     1      -9.399   0.693  68.276  1.00  0.00     0.000 HD 
ENDBRANCH  44  51
ENDBRANCH  41  42
ENDBRANCH  40  41
ENDBRANCH  37  40
ENDBRANCH  36  37
ENDBRANCH  33  36
ENDBRANCH  32  33
ENDBRANCH  31  32
ENDBRANCH  28  31
ENDBRANCH  25  28
ENDBRANCH  22  25
ENDBRANCH  21  22
ENDBRANCH   7  21
TORSDOF 13
ENDMDL
MODEL       43
REMARK 921   NORMALIZED FREE ENERGY PREDICTED BY IDOCK:   -5.33 KCAL/MOL
REMARK 922        TOTAL FREE ENERGY PREDICTED BY IDOCK:  -12.49 KCAL/MOL
REMARK 923 INTER-LIGAND FREE ENERGY PREDICTED BY IDOCK:  -11.46 KCAL/MOL
REMARK 924 INTRA-LIGAND FREE ENERGY PREDICTED BY IDOCK:   -1.03 KCAL/MOL
REMARK 927      BINDING AFFINITY PREDICTED BY RF-SCORE:    0.00 PKD
ROOT
HETATM    1  C   UNL     1     -10.403  17.986  67.042  1.00  0.00    -0.377 C  
HETATM    2  C   UNL     1     -10.418  16.655  67.741  1.00  0.00    -0.316 A  
HETATM    3  C   UNL     1     -11.389  16.417  68.727  1.00  0.00    -0.277 A  
HETATM    4  C   UNL     1     -11.548  15.154  69.306  1.00  0.00    -0.324 A  
HETATM    5  C   UNL     1     -10.790  14.068  68.826  1.00  0.00    -0.263 A  
HETATM    6  C   UNL     1      -9.734  14.340  67.942  1.00  0.00    -0.222 A  
HETATM    7  N   UNL     1     -11.093  12.763  69.276  1.00  0.00    -0.182 NA 
HETATM    8  H   UNL     1     -14.743  12.256  72.868  1.00  0.00     0.000 HD 
HETATM    9  C   UNL     1     -12.019  12.617  70.299  1.00  0.00    -0.284 A  
HETATM   10  C   UNL     1      -9.536  15.619  67.393  1.00  0.00    -0.217 A  
HETATM   11  C   UNL     1      -8.375  15.847  66.464  1.00  0.00    -0.330 C  
HETATM   12  O   UNL     1     -13.657  14.580  72.932  1.00  0.00    -0.548 OA 
HETATM   13  N   UNL     1     -12.424  11.456  70.734  1.00  0.00    -0.372 N  
HETATM   14  H   UNL     1     -12.077  10.616  70.271  1.00  0.00     0.000 HD 
HETATM   15  C   UNL     1     -12.610  13.854  70.915  1.00  0.00    -0.361 A  
HETATM   16  C   UNL     1     -13.285  11.312  71.773  1.00  0.00    -0.375 C  
HETATM   17  C   UNL     1     -13.465  13.684  72.127  1.00  0.00    -0.512 C  
HETATM   18  N   UNL     1     -12.447  15.034  70.388  1.00  0.00    -0.346 NA 
HETATM   19  N   UNL     1     -13.904  12.404  72.305  1.00  0.00    -0.229 N  
HETATM   20  O   UNL     1     -13.491  10.217  72.292  1.00  0.00    -0.377 OA 
ENDROOT
BRANCH   7  21
HETATM   21  C   UNL     1     -10.941  11.661  68.307  1.00  0.00    -0.226 C  
BRANCH  21  22
HETATM   22  C   UNL     1     -11.110  12.149  66.853  1.00  0.00    -0.297 C  
HETATM   23  O   UNL     1     -12.487  12.469  66.646  1.00  0.00    -0.352 OA 
HETATM   24  H   UNL     1     -12.591  12.769  65.750  1.00  0.00     0.000 HD 
BRANCH  22  25
HETATM   25  C   UNL     1     -10.603  11.053  65.898  1.00  0.00    -0.206 C  
HETATM   26  H   UNL     1     -10.258   9.148  66.054  1.00  0.00     0.000 HD 
HETATM   27  O   UNL     1     -10.571   9.824  66.642  1.00  0.00    -0.189 OA 
BRANCH  25  28
HETATM   28  C   UNL     1      -9.209  11.320  65.280  1.00  0.00    -0.172 C  
HETATM   29  H   UNL     1      -7.940  10.391  64.078  1.00  0.00     0.000 HD 
HETATM   30  O   UNL     1      -8.796  10.226  64.457  1.00  0.00    -0.175 OA 
BRANCH  28  31
HETATM   31  C   UNL     1      -8.145  11.574  66.365  1.00  0.00    -0.069 C  
BRANCH  31  32
HETATM   32  O   UNL     1      -7.964  10.426  67.165  1.00  0.00    -0.112 OA 
BRANCH  32  33
HETATM   33  P   UNL     1      -7.132  10.558  68.529  1.00  0.00    -0.083 P  
HETATM   34  O   UNL     1      -8.194  10.093  69.624  1.00  0.00    -0.162 OA 
HETATM   35  O   UNL     1      -6.650  11.946  68.849  1.00  0.00    -0.073 OA 
BRANCH  33  36
HETATM   36  O   UNL     1      -5.917   9.528  68.397  1.00  0.00    -0.043 OA 
BRANCH  36  37
HETATM   37  P   UNL     1      -6.090   7.825  68.648  1.00  0.00    -0.037 P  
HETATM   38  O   UNL     1      -6.293   8.060  70.250  1.00  0.00    -0.036 OA 
HETATM   39  O   UNL     1      -7.426   7.821  67.916  1.00  0.00    -0.099 OA 
BRANCH  37  40
HETATM   40  O   UNL     1      -6.264   6.123  68.899  1.00  0.00    -0.033 OA 
BRANCH  40  41
HETATM   41  C   UNL     1      -6.018   5.697  70.239  1.00  0.00    -0.025 C  
BRANCH  41  42
HETATM   42  C   UNL     1      -6.779   4.397  70.532  1.00  0.00    -0.036 C  
HETATM   43  O   UNL     1      -7.488   4.560  71.766  1.00  0.00    -0.069 OA 
HETATM   44  C   UNL     1      -8.751   3.890  71.655  1.00  0.00    -0.098 C  
HETATM   45  C   UNL     1      -9.017   3.513  70.200  1.00  0.00    -0.107 C  
HETATM   46  H   UNL     1      -7.868   2.798  67.900  1.00  0.00     0.000 HD 
HETATM   47  C   UNL     1      -7.788   4.019  69.451  1.00  0.00    -0.052 C  
HETATM   48  O   UNL     1      -7.240   3.034  68.573  1.00  0.00    -0.049 OA 
HETATM   49  O   UNL     1      -9.164   2.092  70.021  1.00  0.00    -0.098 OA 
HETATM   50  H   UNL     1      -9.330   1.858  69.116  1.00  0.00     0.000 HD 
BRANCH  44  51
HETATM   51  N   UNL     1      -9.775   4.726  72.248  1.00  0.00    -0.154 NA 
HETATM   52  C   UNL     1     -10.674   4.384  73.221  1.00  0.00    -0.231 A  
HETATM   53  C   UNL     1     -11.480   6.075  72.188  1.00  0.00    -0.302 A  
HETATM   54  N   UNL     1     -11.737   5.163  73.195  1.00  0.00    -0.237 NA 
HETATM   55  C   UNL     1     -10.205   5.893  71.679  1.00  0.00    -0.202 A  
HETATM   56  N   UNL     1      -9.584   6.612  70.728  1.00  0.00    -0.175 NA 
HETATM   57  C   UNL     1     -10.401   7.582  70.268  1.00  0.00    -0.213 A  
HETATM   58  N   UNL     1     -11.683   7.832  70.612  1.00  0.00    -0.228 NA 
HETATM   59  C   UNL     1     -12.259   7.062  71.566  1.00  0.00    -0.368 A  
HETATM   60  N   UNL     1     -13.605   7.246  71.833  1.00  0.00    -0.541 NA 
HETATM   61  H2  UNL     1     -13.700   7.376  72.840  1.00  0.00     0.000 HD 
HETATM   62  H1  UNL     1     -14.171   7.964  71.380  1.00  0.00     0.000 HD 
ENDBRANCH  44  51
ENDBRANCH  41  42
ENDBRANCH  40  41
ENDBRANCH  37  40
ENDBRANCH  36  37
ENDBRANCH  33  36
ENDBRANCH  32  33
ENDBRANCH  31  32
ENDBRANCH  28  31
ENDBRANCH  25  28
ENDBRANCH  22  25
ENDBRANCH  21  22
ENDBRANCH   7  21
TORSDOF 13
ENDMDL
MODEL       44
REMARK 921   NORMALIZED FREE ENERGY PREDICTED BY IDOCK:   -5.31 KCAL/MOL
REMARK 922        TOTAL FREE ENERGY PREDICTED BY IDOCK:  -12.45 KCAL/MOL
REMARK 923 INTER-LIGAND FREE ENERGY PREDICTED BY IDOCK:  -10.02 KCAL/MOL
REMARK 924 INTRA-LIGAND FREE ENERGY PREDICTED BY IDOCK:   -2.44 KCAL/MOL
REMARK 927      BINDING AFFINITY PREDICTED BY RF-SCORE:    0.00 PKD
ROOT
HETATM    1  C   UNL     1     -14.253  14.972  72.486  1.00  0.00    -0.407 C  
HETATM    2  C   UNL     1     -13.368  14.004  71.750  1.00  0.00    -0.465 A  
HETATM    3  C   UNL     1     -13.381  12.652  72.126  1.00  0.00    -0.570 A  
HETATM    4  C   UNL     1     -12.695  11.681  71.388  1.00  0.00    -0.339 A  
HETATM    5  C   UNL     1     -12.058  12.044  70.184  1.00  0.00    -0.298 A  
HETATM    6  C   UNL     1     -11.936  13.411  69.889  1.00  0.00    -0.408 A  
HETATM    7  N   UNL     1     -11.538  11.031  69.347  1.00  0.00    -0.283 NA 
HETATM    8  H   UNL     1     -11.790   6.174  71.025  1.00  0.00     0.000 HD 
HETATM    9  C   UNL     1     -11.528   9.727  69.819  1.00  0.00    -0.098 A  
HETATM   10  C   UNL     1     -12.581  14.397  70.654  1.00  0.00    -0.424 A  
HETATM   11  C   UNL     1     -12.396  15.846  70.293  1.00  0.00    -0.224 C  
HETATM   12  O   UNL     1     -11.804   7.854  72.964  1.00  0.00    -0.247 OA 
HETATM   13  N   UNL     1     -11.142   8.711  69.099  1.00  0.00    -0.426 N  
HETATM   14  H   UNL     1     -10.876   8.877  68.128  1.00  0.00     0.000 HD 
HETATM   15  C   UNL     1     -12.018   9.464  71.216  1.00  0.00    -0.353 A  
HETATM   16  C   UNL     1     -11.076   7.443  69.578  1.00  0.00    -0.072 C  
HETATM   17  C   UNL     1     -11.835   8.088  71.767  1.00  0.00    -0.296 C  
HETATM   18  N   UNL     1     -12.639  10.372  71.912  1.00  0.00    -0.359 NA 
HETATM   19  N   UNL     1     -11.585   7.150  70.809  1.00  0.00    -0.307 N  
HETATM   20  O   UNL     1     -10.521   6.544  68.950  1.00  0.00    -0.179 OA 
ENDROOT
BRANCH   7  21
HETATM   21  C   UNL     1     -11.624  11.249  67.890  1.00  0.00    -0.256 C  
BRANCH  21  22
HETATM   22  C   UNL     1     -10.390  12.000  67.349  1.00  0.00    -0.207 C  
HETATM   23  O   UNL     1     -10.818  12.852  66.284  1.00  0.00    -0.271 OA 
HETATM   24  H   UNL     1     -10.058  13.314  65.950  1.00  0.00     0.000 HD 
BRANCH  22  25
HETATM   25  C   UNL     1      -9.336  10.971  66.902  1.00  0.00    -0.173 C  
HETATM   26  H   UNL     1      -7.514  11.069  66.239  1.00  0.00     0.000 HD 
HETATM   27  O   UNL     1      -8.164  11.704  66.515  1.00  0.00    -0.164 OA 
BRANCH  25  28
HETATM   28  C   UNL     1      -9.777  10.049  65.739  1.00  0.00    -0.257 C  
HETATM   29  H   UNL     1      -9.904   8.106  65.381  1.00  0.00     0.000 HD 
HETATM   30  O   UNL     1      -9.633   8.672  66.095  1.00  0.00    -0.239 OA 
BRANCH  28  31
HETATM   31  C   UNL     1      -8.976  10.332  64.454  1.00  0.00    -0.227 C  
BRANCH  31  32
HETATM   32  O   UNL     1      -8.476   9.133  63.904  1.00  0.00    -0.178 OA 
BRANCH  32  33
HETATM   33  P   UNL     1      -6.893   8.977  63.702  1.00  0.00    -0.090 P  
HETATM   34  O   UNL     1      -6.363   8.903  65.205  1.00  0.00    -0.060 OA 
HETATM   35  O   UNL     1      -6.227  10.119  62.986  1.00  0.00    -0.124 OA 
BRANCH  33  36
HETATM   36  O   UNL     1      -6.689   7.595  62.927  1.00  0.00    -0.069 OA 
BRANCH  36  37
HETATM   37  P   UNL     1      -6.616   6.063  63.727  1.00  0.00    -0.038 P  
HETATM   38  O   UNL     1      -8.202   5.813  63.440  1.00  0.00    -0.120 OA 
HETATM   39  O   UNL     1      -5.754   5.486  62.611  1.00  0.00    -0.014 OA 
BRANCH  37  40
HETATM   40  O   UNL     1      -6.543   4.530  64.526  1.00  0.00    -0.041 OA 
BRANCH  40  41
HETATM   41  C   UNL     1      -6.605   4.605  65.950  1.00  0.00    -0.045 C  
BRANCH  41  42
HETATM   42  C   UNL     1      -7.326   3.376  66.517  1.00  0.00    -0.075 C  
HETATM   43  O   UNL     1      -6.808   3.114  67.826  1.00  0.00    -0.047 OA 
HETATM   44  C   UNL     1      -7.886   2.668  68.660  1.00  0.00    -0.053 C  
HETATM   45  C   UNL     1      -9.223   2.917  67.965  1.00  0.00    -0.198 C  
HETATM   46  H   UNL     1     -10.443   3.046  65.595  1.00  0.00     0.000 HD 
HETATM   47  C   UNL     1      -8.838   3.551  66.631  1.00  0.00    -0.134 C  
HETATM   48  O   UNL     1      -9.502   2.937  65.524  1.00  0.00    -0.120 OA 
HETATM   49  O   UNL     1      -9.961   1.700  67.748  1.00  0.00    -0.338 OA 
HETATM   50  H   UNL     1     -10.793   1.855  67.316  1.00  0.00     0.000 HD 
BRANCH  44  51
HETATM   51  N   UNL     1      -7.766   3.304  69.957  1.00  0.00    -0.044 NA 
HETATM   52  C   UNL     1      -6.711   4.033  70.435  1.00  0.00    -0.033 A  
HETATM   53  C   UNL     1      -7.821   3.348  72.130  1.00  0.00    -0.059 A  
HETATM   54  N   UNL     1      -6.696   4.057  71.752  1.00  0.00    -0.025 NA 
HETATM   55  C   UNL     1      -8.565   2.987  71.019  1.00  0.00    -0.067 A  
HETATM   56  N   UNL     1      -9.739   2.334  70.987  1.00  0.00    -0.126 NA 
HETATM   57  C   UNL     1     -10.134   2.020  72.238  1.00  0.00    -0.160 A  
HETATM   58  N   UNL     1      -9.483   2.238  73.403  1.00  0.00    -0.082 NA 
HETATM   59  C   UNL     1      -8.295   2.888  73.367  1.00  0.00    -0.072 A  
HETATM   60  N   UNL     1      -7.579   3.008  74.546  1.00  0.00    -0.055 NA 
HETATM   61  H2  UNL     1      -7.343   3.994  74.660  1.00  0.00     0.000 HD 
HETATM   62  H1  UNL     1      -7.924   2.673  75.446  1.00  0.00     0.000 HD 
ENDBRANCH  44  51
ENDBRANCH  41  42
ENDBRANCH  40  41
ENDBRANCH  37  40
ENDBRANCH  36  37
ENDBRANCH  33  36
ENDBRANCH  32  33
ENDBRANCH  31  32
ENDBRANCH  28  31
ENDBRANCH  25  28
ENDBRANCH  22  25
ENDBRANCH  21  22
ENDBRANCH   7  21
TORSDOF 13
ENDMDL
MODEL       45
REMARK 921   NORMALIZED FREE ENERGY PREDICTED BY IDOCK:   -5.17 KCAL/MOL
REMARK 922        TOTAL FREE ENERGY PREDICTED BY IDOCK:  -12.21 KCAL/MOL
REMARK 923 INTER-LIGAND FREE ENERGY PREDICTED BY IDOCK:  -10.02 KCAL/MOL
REMARK 924 INTRA-LIGAND FREE ENERGY PREDICTED BY IDOCK:   -2.19 KCAL/MOL
REMARK 927      BINDING AFFINITY PREDICTED BY RF-SCORE:    0.00 PKD
ROOT
HETATM    1  C   UNL     1      -9.363   1.492  71.580  1.00  0.00    -0.165 C  
HETATM    2  C   UNL     1      -9.460   2.950  71.226  1.00  0.00    -0.219 A  
HETATM    3  C   UNL     1      -9.329   3.333  69.882  1.00  0.00    -0.234 A  
HETATM    4  C   UNL     1      -9.555   4.650  69.471  1.00  0.00    -0.188 A  
HETATM    5  C   UNL     1     -10.023   5.598  70.403  1.00  0.00    -0.206 A  
HETATM    6  C   UNL     1     -10.023   5.244  71.761  1.00  0.00    -0.245 A  
HETATM    7  N   UNL     1     -10.436   6.870  69.945  1.00  0.00    -0.208 NA 
HETATM    8  H   UNL     1      -9.847   7.919  64.942  1.00  0.00     0.000 HD 
HETATM    9  C   UNL     1     -10.212   7.196  68.615  1.00  0.00    -0.179 A  
HETATM   10  C   UNL     1      -9.747   3.933  72.188  1.00  0.00    -0.225 A  
HETATM   11  C   UNL     1      -9.746   3.624  73.660  1.00  0.00    -0.143 C  
HETATM   12  O   UNL     1      -8.200   6.120  65.740  1.00  0.00    -0.124 OA 
HETATM   13  N   UNL     1     -10.622   8.310  68.075  1.00  0.00    -0.402 N  
HETATM   14  H   UNL     1     -11.171   8.952  68.645  1.00  0.00     0.000 HD 
HETATM   15  C   UNL     1      -9.492   6.205  67.744  1.00  0.00    -0.115 A  
HETATM   16  C   UNL     1     -10.353   8.655  66.790  1.00  0.00    -0.266 C  
HETATM   17  C   UNL     1      -9.104   6.643  66.370  1.00  0.00    -0.152 C  
HETATM   18  N   UNL     1      -9.262   4.983  68.131  1.00  0.00    -0.115 NA 
HETATM   19  N   UNL     1      -9.774   7.754  65.946  1.00  0.00     0.143 N  
HETATM   20  O   UNL     1     -10.571   9.789  66.369  1.00  0.00    -0.159 OA 
ENDROOT
BRANCH   7  21
HETATM   21  C   UNL     1     -11.575   7.501  70.638  1.00  0.00    -0.248 C  
BRANCH  21  22
HETATM   22  C   UNL     1     -11.152   8.781  71.390  1.00  0.00    -0.291 C  
HETATM   23  O   UNL     1     -11.314   8.550  72.791  1.00  0.00    -0.286 OA 
HETATM   24  H   UNL     1     -11.054   9.338  73.253  1.00  0.00     0.000 HD 
BRANCH  22  25
HETATM   25  C   UNL     1     -11.996   9.961  70.878  1.00  0.00    -0.345 C  
HETATM   26  H   UNL     1     -11.612  11.633  69.968  1.00  0.00     0.000 HD 
HETATM   27  O   UNL     1     -11.091  10.904  70.284  1.00  0.00    -0.248 OA 
BRANCH  25  28
HETATM   28  C   UNL     1     -12.847  10.671  71.959  1.00  0.00    -0.284 C  
HETATM   29  H   UNL     1     -14.368  10.227  73.146  1.00  0.00     0.000 HD 
HETATM   30  O   UNL     1     -13.846   9.792  72.483  1.00  0.00    -0.298 OA 
BRANCH  28  31
HETATM   31  C   UNL     1     -13.523  11.941  71.407  1.00  0.00     0.295 C  
BRANCH  31  32
HETATM   32  O   UNL     1     -13.600  12.937  72.404  1.00  0.00    -0.579 OA 
BRANCH  32  33
HETATM   33  P   UNL     1     -13.090  14.417  72.057  1.00  0.00    -0.427 P  
HETATM   34  O   UNL     1     -12.185  14.772  73.321  1.00  0.00    -0.312 OA 
HETATM   35  O   UNL     1     -14.176  15.446  71.907  1.00  0.00    -0.505 OA 
BRANCH  33  36
HETATM   36  O   UNL     1     -12.224  14.274  70.722  1.00  0.00    -0.309 OA 
BRANCH  36  37
HETATM   37  P   UNL     1     -10.898  15.317  70.338  1.00  0.00    -0.163 P  
HETATM   38  O   UNL     1     -10.217  14.150  69.423  1.00  0.00    -0.040 OA 
HETATM   39  O   UNL     1     -11.804  16.215  69.505  1.00  0.00    -0.272 OA 
BRANCH  37  40
HETATM   40  O   UNL     1      -9.572  16.360  69.953  1.00  0.00     0.089 OA 
BRANCH  40  41
HETATM   41  C   UNL     1      -9.956  17.658  69.503  1.00  0.00     0.139 C  
BRANCH  41  42
HETATM   42  C   UNL     1      -9.688  17.801  68.000  1.00  0.00    -0.304 C  
HETATM   43  O   UNL     1      -8.798  16.752  67.600  1.00  0.00    -0.202 OA 
HETATM   44  C   UNL     1      -9.181  16.305  66.293  1.00  0.00    -0.328 C  
HETATM   45  C   UNL     1     -10.550  16.873  65.926  1.00  0.00    -0.233 C  
HETATM   46  H   UNL     1     -12.190  18.954  66.243  1.00  0.00     0.000 HD 
HETATM   47  C   UNL     1     -10.946  17.708  67.140  1.00  0.00     0.023 C  
HETATM   48  O   UNL     1     -11.407  19.012  66.779  1.00  0.00     0.133 OA 
HETATM   49  O   UNL     1     -10.503  17.695  64.746  1.00  0.00    -0.025 OA 
HETATM   50  H   UNL     1     -11.355  18.048  64.517  1.00  0.00     0.000 HD 
BRANCH  44  51
HETATM   51  N   UNL     1      -9.111  14.858  66.257  1.00  0.00    -0.266 NA 
HETATM   52  C   UNL     1     -10.051  13.987  65.775  1.00  0.00    -0.327 A  
HETATM   53  C   UNL     1      -8.812  12.889  67.130  1.00  0.00    -0.210 A  
HETATM   54  N   UNL     1      -9.918  12.788  66.307  1.00  0.00    -0.260 NA 
HETATM   55  C   UNL     1      -8.224  14.136  67.007  1.00  0.00    -0.071 A  
HETATM   56  N   UNL     1      -7.112  14.589  67.609  1.00  0.00    -0.174 NA 
HETATM   57  C   UNL     1      -6.605  13.644  68.428  1.00  0.00    -0.096 A  
HETATM   58  N   UNL     1      -7.105  12.419  68.705  1.00  0.00    -0.099 NA 
HETATM   59  C   UNL     1      -8.239  12.027  68.077  1.00  0.00    -0.156 A  
HETATM   60  N   UNL     1      -8.810  10.821  68.448  1.00  0.00    -0.139 NA 
HETATM   61  H2  UNL     1      -8.959  10.280  67.596  1.00  0.00     0.000 HD 
HETATM   62  H1  UNL     1      -8.393  10.194  69.137  1.00  0.00     0.000 HD 
ENDBRANCH  44  51
ENDBRANCH  41  42
ENDBRANCH  40  41
ENDBRANCH  37  40
ENDBRANCH  36  37
ENDBRANCH  33  36
ENDBRANCH  32  33
ENDBRANCH  31  32
ENDBRANCH  28  31
ENDBRANCH  25  28
ENDBRANCH  22  25
ENDBRANCH  21  22
ENDBRANCH   7  21
TORSDOF 13
ENDMDL
MODEL       46
REMARK 921   NORMALIZED FREE ENERGY PREDICTED BY IDOCK:   -5.09 KCAL/MOL
REMARK 922        TOTAL FREE ENERGY PREDICTED BY IDOCK:  -12.08 KCAL/MOL
REMARK 923 INTER-LIGAND FREE ENERGY PREDICTED BY IDOCK:   -8.52 KCAL/MOL
REMARK 924 INTRA-LIGAND FREE ENERGY PREDICTED BY IDOCK:   -3.56 KCAL/MOL
REMARK 927      BINDING AFFINITY PREDICTED BY RF-SCORE:    0.00 PKD
ROOT
HETATM    1  C   UNL     1     -11.532  16.114  68.347  1.00  0.00    -0.298 C  
HETATM    2  C   UNL     1     -10.963  14.742  68.116  1.00  0.00    -0.274 A  
HETATM    3  C   UNL     1     -11.320  13.703  68.990  1.00  0.00    -0.333 A  
HETATM    4  C   UNL     1     -10.943  12.378  68.744  1.00  0.00    -0.246 A  
HETATM    5  C   UNL     1     -10.278  12.055  67.545  1.00  0.00    -0.198 A  
HETATM    6  C   UNL     1      -9.809  13.111  66.746  1.00  0.00    -0.251 A  
HETATM    7  N   UNL     1     -10.076  10.697  67.212  1.00  0.00    -0.191 NA 
HETATM    8  H   UNL     1     -11.543   7.150  70.637  1.00  0.00     0.000 HD 
HETATM    9  C   UNL     1     -10.394   9.733  68.156  1.00  0.00    -0.202 A  
HETATM   10  C   UNL     1     -10.141  14.450  67.014  1.00  0.00    -0.256 A  
HETATM   11  C   UNL     1      -9.592  15.535  66.128  1.00  0.00    -0.362 C  
HETATM   12  O   UNL     1     -11.040   9.404  71.755  1.00  0.00    -0.370 OA 
HETATM   13  N   UNL     1     -10.317   8.452  67.923  1.00  0.00    -0.232 N  
HETATM   14  H   UNL     1     -10.053   8.145  66.987  1.00  0.00     0.000 HD 
HETATM   15  C   UNL     1     -10.884  10.183  69.505  1.00  0.00    -0.255 A  
HETATM   16  C   UNL     1     -10.573   7.509  68.864  1.00  0.00    -0.169 C  
HETATM   17  C   UNL     1     -11.052   9.142  70.563  1.00  0.00    -0.260 C  
HETATM   18  N   UNL     1     -11.217  11.419  69.742  1.00  0.00    -0.230 NA 
HETATM   19  N   UNL     1     -11.095   7.870  70.071  1.00  0.00    -0.211 N  
HETATM   20  O   UNL     1     -10.298   6.325  68.682  1.00  0.00    -0.168 OA 
ENDROOT
BRANCH   7  21
HETATM   21  C   UNL     1     -10.154  10.332  65.785  1.00  0.00    -0.255 C  
BRANCH  21  22
HETATM   22  C   UNL     1      -8.891  10.763  65.011  1.00  0.00    -0.177 C  
HETATM   23  O   UNL     1      -9.292  11.629  63.947  1.00  0.00    -0.436 OA 
HETATM   24  H   UNL     1      -8.514  11.894  63.471  1.00  0.00     0.000 HD 
BRANCH  22  25
HETATM   25  C   UNL     1      -8.159   9.505  64.512  1.00  0.00    -0.142 C  
HETATM   26  H   UNL     1      -8.572   8.083  63.255  1.00  0.00     0.000 HD 
HETATM   27  O   UNL     1      -9.023   8.860  63.563  1.00  0.00    -0.019 OA 
BRANCH  25  28
HETATM   28  C   UNL     1      -7.764   8.498  65.619  1.00  0.00    -0.095 C  
HETATM   29  H   UNL     1      -6.103   7.830  66.463  1.00  0.00     0.000 HD 
HETATM   30  O   UNL     1      -6.345   8.448  65.784  1.00  0.00    -0.051 OA 
BRANCH  28  31
HETATM   31  C   UNL     1      -8.294   7.082  65.316  1.00  0.00    -0.096 C  
BRANCH  31  32
HETATM   32  O   UNL     1      -7.516   6.108  65.976  1.00  0.00    -0.079 OA 
BRANCH  32  33
HETATM   33  P   UNL     1      -6.950   4.869  65.130  1.00  0.00    -0.064 P  
HETATM   34  O   UNL     1      -5.372   5.074  65.237  1.00  0.00    -0.012 OA 
HETATM   35  O   UNL     1      -7.360   4.845  63.684  1.00  0.00    -0.049 OA 
BRANCH  33  36
HETATM   36  O   UNL     1      -7.437   3.558  65.903  1.00  0.00    -0.074 OA 
BRANCH  36  37
HETATM   37  P   UNL     1      -7.974   3.574  67.547  1.00  0.00    -0.082 P  
HETATM   38  O   UNL     1      -8.777   2.172  67.321  1.00  0.00    -0.101 OA 
HETATM   39  O   UNL     1      -6.555   3.325  68.045  1.00  0.00    -0.036 OA 
BRANCH  37  40
HETATM   40  O   UNL     1      -8.510   3.589  69.192  1.00  0.00    -0.063 OA 
BRANCH  40  41
HETATM   41  C   UNL     1      -7.537   3.134  70.132  1.00  0.00    -0.044 C  
BRANCH  41  42
HETATM   42  C   UNL     1      -7.985   3.461  71.562  1.00  0.00    -0.057 C  
HETATM   43  O   UNL     1      -7.084   4.434  72.105  1.00  0.00    -0.056 OA 
HETATM   44  C   UNL     1      -7.836   5.345  72.918  1.00  0.00    -0.098 C  
HETATM   45  C   UNL     1      -9.331   5.148  72.680  1.00  0.00    -0.137 C  
HETATM   46  H   UNL     1     -11.211   3.356  72.067  1.00  0.00     0.000 HD 
HETATM   47  C   UNL     1      -9.401   4.026  71.648  1.00  0.00    -0.135 C  
HETATM   48  O   UNL     1     -10.330   3.004  72.014  1.00  0.00    -0.097 OA 
HETATM   49  O   UNL     1     -10.031   4.769  73.879  1.00  0.00    -0.142 OA 
HETATM   50  H   UNL     1     -10.961   4.647  73.732  1.00  0.00     0.000 HD 
BRANCH  44  51
HETATM   51  N   UNL     1      -7.368   6.693  72.662  1.00  0.00    -0.088 NA 
HETATM   52  C   UNL     1      -7.375   7.757  73.522  1.00  0.00    -0.114 A  
HETATM   53  C   UNL     1      -7.268   8.552  71.539  1.00  0.00    -0.095 A  
HETATM   54  N   UNL     1      -7.346   8.904  72.874  1.00  0.00    -0.334 NA 
HETATM   55  C   UNL     1      -7.150   7.179  71.403  1.00  0.00    -0.065 A  
HETATM   56  N   UNL     1      -7.004   6.470  70.271  1.00  0.00    -0.064 NA 
HETATM   57  C   UNL     1      -7.015   7.290  69.200  1.00  0.00    -0.074 A  
HETATM   58  N   UNL     1      -7.196   8.629  69.172  1.00  0.00    -0.063 NA 
HETATM   59  C   UNL     1      -7.352   9.286  70.346  1.00  0.00    -0.111 A  
HETATM   60  N   UNL     1      -7.651  10.637  70.307  1.00  0.00    -0.407 NA 
HETATM   61  H2  UNL     1      -6.981  11.114  70.910  1.00  0.00     0.000 HD 
HETATM   62  H1  UNL     1      -7.712  11.171  69.439  1.00  0.00     0.000 HD 
ENDBRANCH  44  51
ENDBRANCH  41  42
ENDBRANCH  40  41
ENDBRANCH  37  40
ENDBRANCH  36  37
ENDBRANCH  33  36
ENDBRANCH  32  33
ENDBRANCH  31  32
ENDBRANCH  28  31
ENDBRANCH  25  28
ENDBRANCH  22  25
ENDBRANCH  21  22
ENDBRANCH   7  21
TORSDOF 13
ENDMDL
MODEL       47
REMARK 921   NORMALIZED FREE ENERGY PREDICTED BY IDOCK:   -5.05 KCAL/MOL
REMARK 922        TOTAL FREE ENERGY PREDICTED BY IDOCK:  -11.99 KCAL/MOL
REMARK 923 INTER-LIGAND FREE ENERGY PREDICTED BY IDOCK:  -10.40 KCAL/MOL
REMARK 924 INTRA-LIGAND FREE ENERGY PREDICTED BY IDOCK:   -1.59 KCAL/MOL
REMARK 927      BINDING AFFINITY PREDICTED BY RF-SCORE:    0.00 PKD
ROOT
HETATM    1  C   UNL     1     -13.632   8.611  71.869  1.00  0.00    -0.446 C  
HETATM    2  C   UNL     1     -12.229   8.168  71.561  1.00  0.00    -0.332 A  
HETATM    3  C   UNL     1     -11.895   6.813  71.716  1.00  0.00    -0.371 A  
HETATM    4  C   UNL     1     -10.654   6.314  71.307  1.00  0.00    -0.236 A  
HETATM    5  C   UNL     1      -9.752   7.160  70.632  1.00  0.00    -0.175 A  
HETATM    6  C   UNL     1     -10.035   8.535  70.602  1.00  0.00    -0.222 A  
HETATM    7  N   UNL     1      -8.590   6.606  70.050  1.00  0.00    -0.139 NA 
HETATM    8  H   UNL     1      -7.702   1.592  70.788  1.00  0.00     0.000 HD 
HETATM    9  C   UNL     1      -8.296   5.274  70.305  1.00  0.00    -0.106 A  
HETATM   10  C   UNL     1     -11.260   9.052  71.057  1.00  0.00    -0.361 A  
HETATM   11  C   UNL     1     -11.493  10.538  71.011  1.00  0.00    -0.207 C  
HETATM   12  O   UNL     1      -9.164   2.585  72.647  1.00  0.00    -0.080 OA 
HETATM   13  N   UNL     1      -7.293   4.648  69.757  1.00  0.00    -0.054 N  
HETATM   14  H   UNL     1      -6.723   5.147  69.074  1.00  0.00     0.000 HD 
HETATM   15  C   UNL     1      -9.196   4.505  71.231  1.00  0.00    -0.140 A  
HETATM   16  C   UNL     1      -6.970   3.362  70.050  1.00  0.00    -0.034 C  
HETATM   17  C   UNL     1      -8.767   3.132  71.631  1.00  0.00    -0.074 C  
HETATM   18  N   UNL     1     -10.343   4.975  71.629  1.00  0.00    -0.206 NA 
HETATM   19  N   UNL     1      -7.804   2.606  70.820  1.00  0.00    -0.042 N  
HETATM   20  O   UNL     1      -5.911   2.863  69.679  1.00  0.00    -0.021 OA 
ENDROOT
BRANCH   7  21
HETATM   21  C   UNL     1      -8.122   7.196  68.782  1.00  0.00    -0.121 C  
BRANCH  21  22
HETATM   22  C   UNL     1      -9.280   7.400  67.782  1.00  0.00    -0.131 C  
HETATM   23  O   UNL     1      -9.991   6.166  67.665  1.00  0.00    -0.118 OA 
HETATM   24  H   UNL     1     -10.704   6.292  67.049  1.00  0.00     0.000 HD 
BRANCH  22  25
HETATM   25  C   UNL     1      -8.700   7.884  66.441  1.00  0.00    -0.153 C  
HETATM   26  H   UNL     1      -7.070   7.535  65.443  1.00  0.00     0.000 HD 
HETATM   27  O   UNL     1      -7.428   7.237  66.271  1.00  0.00    -0.080 OA 
BRANCH  25  28
HETATM   28  C   UNL     1      -8.520   9.417  66.323  1.00  0.00    -0.126 C  
HETATM   29  H   UNL     1      -7.688  10.876  67.371  1.00  0.00     0.000 HD 
HETATM   30  O   UNL     1      -7.799   9.935  67.444  1.00  0.00    -0.098 OA 
BRANCH  28  31
HETATM   31  C   UNL     1      -9.875  10.141  66.208  1.00  0.00    -0.229 C  
BRANCH  31  32
HETATM   32  O   UNL     1      -9.692  11.479  65.797  1.00  0.00    -0.221 OA 
BRANCH  32  33
HETATM   33  P   UNL     1     -10.933  12.267  65.157  1.00  0.00    -0.326 P  
HETATM   34  O   UNL     1     -12.101  11.970  66.202  1.00  0.00    -0.582 OA 
HETATM   35  O   UNL     1     -11.347  11.800  63.789  1.00  0.00    -0.395 OA 
BRANCH  33  36
HETATM   36  O   UNL     1     -10.512  13.808  65.153  1.00  0.00    -0.340 OA 
BRANCH  36  37
HETATM   37  P   UNL     1     -11.053  14.940  66.343  1.00  0.00    -0.301 P  
HETATM   38  O   UNL     1     -10.242  14.136  67.508  1.00  0.00    -0.238 OA 
HETATM   39  O   UNL     1     -10.195  16.041  65.731  1.00  0.00    -0.333 OA 
BRANCH  37  40
HETATM   40  O   UNL     1     -11.593  16.073  67.534  1.00  0.00    -0.052 OA 
BRANCH  40  41
HETATM   41  C   UNL     1     -11.159  15.783  68.862  1.00  0.00    -0.298 C  
BRANCH  41  42
HETATM   42  C   UNL     1     -10.063  16.768  69.291  1.00  0.00    -0.240 C  
HETATM   43  O   UNL     1      -8.912  16.014  69.688  1.00  0.00    -0.162 OA 
HETATM   44  C   UNL     1      -7.738  16.720  69.263  1.00  0.00    -0.076 C  
HETATM   45  C   UNL     1      -8.122  17.837  68.296  1.00  0.00    -0.283 C  
HETATM   46  H   UNL     1     -10.023  19.600  67.663  1.00  0.00     0.000 HD 
HETATM   47  C   UNL     1      -9.640  17.734  68.188  1.00  0.00    -0.303 C  
HETATM   48  O   UNL     1     -10.286  18.998  68.350  1.00  0.00    -0.374 OA 
HETATM   49  O   UNL     1      -7.741  19.137  68.784  1.00  0.00    -0.339 OA 
HETATM   50  H   UNL     1      -7.979  19.832  68.182  1.00  0.00     0.000 HD 
BRANCH  44  51
HETATM   51  N   UNL     1      -6.792  15.766  68.721  1.00  0.00    -0.116 NA 
HETATM   52  C   UNL     1      -6.554  15.481  67.403  1.00  0.00    -0.139 A  
HETATM   53  C   UNL     1      -5.872  13.803  68.543  1.00  0.00    -0.090 A  
HETATM   54  N   UNL     1      -6.023  14.283  67.255  1.00  0.00    -0.220 NA 
HETATM   55  C   UNL     1      -6.227  14.770  69.468  1.00  0.00    -0.120 A  
HETATM   56  N   UNL     1      -6.170  14.692  70.809  1.00  0.00    -0.132 NA 
HETATM   57  C   UNL     1      -5.727  13.475  71.187  1.00  0.00    -0.172 A  
HETATM   58  N   UNL     1      -5.417  12.416  70.408  1.00  0.00    -0.134 NA 
HETATM   59  C   UNL     1      -5.509  12.552  69.064  1.00  0.00    -0.067 A  
HETATM   60  N   UNL     1      -5.302  11.433  68.276  1.00  0.00    -0.042 NA 
HETATM   61  H2  UNL     1      -4.607  11.682  67.572  1.00  0.00     0.000 HD 
HETATM   62  H1  UNL     1      -5.038  10.523  68.655  1.00  0.00     0.000 HD 
ENDBRANCH  44  51
ENDBRANCH  41  42
ENDBRANCH  40  41
ENDBRANCH  37  40
ENDBRANCH  36  37
ENDBRANCH  33  36
ENDBRANCH  32  33
ENDBRANCH  31  32
ENDBRANCH  28  31
ENDBRANCH  25  28
ENDBRANCH  22  25
ENDBRANCH  21  22
ENDBRANCH   7  21
TORSDOF 13
ENDMDL
MODEL       48
REMARK 921   NORMALIZED FREE ENERGY PREDICTED BY IDOCK:   -5.01 KCAL/MOL
REMARK 922        TOTAL FREE ENERGY PREDICTED BY IDOCK:  -11.93 KCAL/MOL
REMARK 923 INTER-LIGAND FREE ENERGY PREDICTED BY IDOCK:  -10.50 KCAL/MOL
REMARK 924 INTRA-LIGAND FREE ENERGY PREDICTED BY IDOCK:   -1.43 KCAL/MOL
REMARK 927      BINDING AFFINITY PREDICTED BY RF-SCORE:    0.00 PKD
ROOT
HETATM    1  C   UNL     1      -5.798   7.530  65.181  1.00  0.00    -0.038 C  
HETATM    2  C   UNL     1      -7.070   7.397  65.972  1.00  0.00    -0.066 A  
HETATM    3  C   UNL     1      -7.057   6.648  67.159  1.00  0.00    -0.076 A  
HETATM    4  C   UNL     1      -8.165   6.609  68.011  1.00  0.00    -0.117 A  
HETATM    5  C   UNL     1      -9.285   7.417  67.733  1.00  0.00    -0.131 A  
HETATM    6  C   UNL     1      -9.344   8.054  66.483  1.00  0.00    -0.261 A  
HETATM    7  N   UNL     1     -10.315   7.523  68.694  1.00  0.00    -0.198 NA 
HETATM    8  H   UNL     1      -9.920   4.660  72.951  1.00  0.00     0.000 HD 
HETATM    9  C   UNL     1     -10.262   6.701  69.810  1.00  0.00    -0.187 A  
HETATM   10  C   UNL     1      -8.253   8.056  65.597  1.00  0.00    -0.135 A  
HETATM   11  C   UNL     1      -8.388   8.744  64.266  1.00  0.00    -0.158 C  
HETATM   12  O   UNL     1      -8.624   3.635  70.989  1.00  0.00    -0.070 OA 
HETATM   13  N   UNL     1     -11.119   6.773  70.791  1.00  0.00    -0.260 N  
HETATM   14  H   UNL     1     -11.835   7.499  70.757  1.00  0.00     0.000 HD 
HETATM   15  C   UNL     1      -9.146   5.700  69.912  1.00  0.00    -0.136 A  
HETATM   16  C   UNL     1     -11.103   5.931  71.855  1.00  0.00    -0.268 C  
HETATM   17  C   UNL     1      -9.205   4.707  71.027  1.00  0.00    -0.138 C  
HETATM   18  N   UNL     1      -8.123   5.721  69.107  1.00  0.00    -0.100 NA 
HETATM   19  N   UNL     1     -10.064   5.064  72.025  1.00  0.00    -0.190 N  
HETATM   20  O   UNL     1     -12.033   5.887  72.656  1.00  0.00    -0.229 OA 
ENDROOT
BRANCH   7  21
HETATM   21  C   UNL     1     -10.992   8.829  68.818  1.00  0.00     0.128 C  
BRANCH  21  22
HETATM   22  C   UNL     1      -9.990   9.972  69.083  1.00  0.00    -0.204 C  
HETATM   23  O   UNL     1      -9.922  10.188  70.494  1.00  0.00    -0.377 OA 
HETATM   24  H   UNL     1      -9.305  10.893  70.657  1.00  0.00     0.000 HD 
BRANCH  22  25
HETATM   25  C   UNL     1     -10.446  11.222  68.309  1.00  0.00    -0.196 C  
HETATM   26  H   UNL     1     -12.164  11.970  67.797  1.00  0.00     0.000 HD 
HETATM   27  O   UNL     1     -11.882  11.199  68.274  1.00  0.00    -0.522 OA 
BRANCH  25  28
HETATM   28  C   UNL     1      -9.895  11.334  66.867  1.00  0.00    -0.193 C  
HETATM   29  H   UNL     1      -8.929  12.669  65.770  1.00  0.00     0.000 HD 
HETATM   30  O   UNL     1      -9.267  12.601  66.655  1.00  0.00    -0.225 OA 
BRANCH  28  31
HETATM   31  C   UNL     1     -11.004  11.131  65.816  1.00  0.00    -0.091 C  
BRANCH  31  32
HETATM   32  O   UNL     1     -11.667  12.347  65.550  1.00  0.00    -0.375 OA 
BRANCH  32  33
HETATM   33  P   UNL     1     -11.820  12.825  64.027  1.00  0.00    -0.520 P  
HETATM   34  O   UNL     1     -12.935  11.832  63.468  1.00  0.00    -0.625 OA 
HETATM   35  O   UNL     1     -10.574  12.709  63.195  1.00  0.00    -0.173 OA 
BRANCH  33  36
HETATM   36  O   UNL     1     -12.344  14.333  64.098  1.00  0.00    -0.630 OA 
BRANCH  36  37
HETATM   37  P   UNL     1     -11.502  15.588  64.941  1.00  0.00    -0.115 P  
HETATM   38  O   UNL     1     -10.069  14.891  64.592  1.00  0.00    -0.183 OA 
HETATM   39  O   UNL     1     -11.894  16.608  63.878  1.00  0.00    -1.047 OA 
BRANCH  37  40
HETATM   40  O   UNL     1     -10.661  16.844  65.782  1.00  0.00    -0.352 OA 
BRANCH  40  41
HETATM   41  C   UNL     1     -11.082  18.165  65.443  1.00  0.00     0.672 C  
BRANCH  41  42
HETATM   42  C   UNL     1     -10.402  19.191  66.357  1.00  0.00    -0.455 C  
HETATM   43  O   UNL     1     -10.186  18.583  67.636  1.00  0.00    -0.348 OA 
HETATM   44  C   UNL     1      -8.929  19.042  68.151  1.00  0.00    -0.314 C  
HETATM   45  C   UNL     1      -8.143  19.756  67.054  1.00  0.00    -0.293 C  
HETATM   46  H   UNL     1      -8.360  21.253  64.855  1.00  0.00     0.000 HD 
HETATM   47  C   UNL     1      -9.055  19.683  65.832  1.00  0.00    -0.103 C  
HETATM   48  O   UNL     1      -9.199  20.947  65.182  1.00  0.00     0.940 OA 
HETATM   49  O   UNL     1      -7.861  21.128  67.387  1.00  0.00    -0.524 OA 
HETATM   50  H   UNL     1      -7.372  21.572  66.705  1.00  0.00     0.000 HD 
BRANCH  44  51
HETATM   51  N   UNL     1      -8.231  17.920  68.745  1.00  0.00    -0.267 NA 
HETATM   52  C   UNL     1      -6.886  17.670  68.730  1.00  0.00    -0.235 A  
HETATM   53  C   UNL     1      -7.867  15.806  69.103  1.00  0.00    -0.227 A  
HETATM   54  N   UNL     1      -6.629  16.390  68.915  1.00  0.00    -0.154 NA 
HETATM   55  C   UNL     1      -8.862  16.769  69.129  1.00  0.00    -0.105 A  
HETATM   56  N   UNL     1     -10.178  16.593  69.336  1.00  0.00    -0.274 NA 
HETATM   57  C   UNL     1     -10.455  15.283  69.499  1.00  0.00    -0.260 A  
HETATM   58  N   UNL     1      -9.609  14.232  69.426  1.00  0.00     0.196 NA 
HETATM   59  C   UNL     1      -8.295  14.474  69.200  1.00  0.00    -0.001 A  
HETATM   60  N   UNL     1      -7.453  13.391  69.012  1.00  0.00    -0.294 NA 
HETATM   61  H2  UNL     1      -6.666  13.504  69.651  1.00  0.00     0.000 HD 
HETATM   62  H1  UNL     1      -7.764  12.422  69.082  1.00  0.00     0.000 HD 
ENDBRANCH  44  51
ENDBRANCH  41  42
ENDBRANCH  40  41
ENDBRANCH  37  40
ENDBRANCH  36  37
ENDBRANCH  33  36
ENDBRANCH  32  33
ENDBRANCH  31  32
ENDBRANCH  28  31
ENDBRANCH  25  28
ENDBRANCH  22  25
ENDBRANCH  21  22
ENDBRANCH   7  21
TORSDOF 13
ENDMDL
MODEL       49
REMARK 921   NORMALIZED FREE ENERGY PREDICTED BY IDOCK:   -4.84 KCAL/MOL
REMARK 922        TOTAL FREE ENERGY PREDICTED BY IDOCK:  -11.63 KCAL/MOL
REMARK 923 INTER-LIGAND FREE ENERGY PREDICTED BY IDOCK:   -9.57 KCAL/MOL
REMARK 924 INTRA-LIGAND FREE ENERGY PREDICTED BY IDOCK:   -2.07 KCAL/MOL
REMARK 927      BINDING AFFINITY PREDICTED BY RF-SCORE:    0.00 PKD
ROOT
HETATM    1  C   UNL     1     -12.910  12.128  63.459  1.00  0.00    -0.453 C  
HETATM    2  C   UNL     1     -11.813  12.859  64.182  1.00  0.00    -0.479 A  
HETATM    3  C   UNL     1     -11.964  14.231  64.436  1.00  0.00    -0.476 A  
HETATM    4  C   UNL     1     -11.051  14.933  65.230  1.00  0.00    -0.378 A  
HETATM    5  C   UNL     1     -10.011  14.236  65.876  1.00  0.00    -0.319 A  
HETATM    6  C   UNL     1      -9.789  12.898  65.512  1.00  0.00    -0.159 A  
HETATM    7  N   UNL     1      -9.214  14.911  66.827  1.00  0.00    -0.244 NA 
HETATM    8  H   UNL     1     -10.070  19.936  67.531  1.00  0.00     0.000 HD 
HETATM    9  C   UNL     1      -9.380  16.281  66.973  1.00  0.00    -0.221 A  
HETATM   10  C   UNL     1     -10.674  12.199  64.674  1.00  0.00    -0.346 A  
HETATM   11  C   UNL     1     -10.368  10.771  64.309  1.00  0.00    -0.401 C  
HETATM   12  O   UNL     1     -10.810  19.159  65.200  1.00  0.00    -0.458 OA 
HETATM   13  N   UNL     1      -8.751  16.984  67.872  1.00  0.00    -0.212 N  
HETATM   14  H   UNL     1      -8.142  16.498  68.530  1.00  0.00     0.000 HD 
HETATM   15  C   UNL     1     -10.356  16.985  66.072  1.00  0.00    -0.315 A  
HETATM   16  C   UNL     1      -8.869  18.332  67.977  1.00  0.00    -0.280 C  
HETATM   17  C   UNL     1     -10.391  18.477  66.121  1.00  0.00    -0.426 C  
HETATM   18  N   UNL     1     -11.194  16.334  65.317  1.00  0.00    -0.109 NA 
HETATM   19  N   UNL     1      -9.800  18.997  67.235  1.00  0.00    -0.315 N  
HETATM   20  O   UNL     1      -8.118  18.991  68.692  1.00  0.00    -0.344 OA 
ENDROOT
BRANCH   7  21
HETATM   21  C   UNL     1      -8.749  14.135  67.993  1.00  0.00    -0.177 C  
BRANCH  21  22
HETATM   22  C   UNL     1      -7.213  14.166  68.127  1.00  0.00    -0.128 C  
HETATM   23  O   UNL     1      -6.680  14.867  67.002  1.00  0.00    -0.323 OA 
HETATM   24  H   UNL     1      -5.733  14.886  67.084  1.00  0.00     0.000 HD 
BRANCH  22  25
HETATM   25  C   UNL     1      -6.693  12.720  68.228  1.00  0.00    -0.087 C  
HETATM   26  H   UNL     1      -5.305  11.694  67.338  1.00  0.00     0.000 HD 
HETATM   27  O   UNL     1      -5.626  12.586  67.276  1.00  0.00    -0.217 OA 
BRANCH  25  28
HETATM   28  C   UNL     1      -7.757  11.626  67.971  1.00  0.00    -0.121 C  
HETATM   29  H   UNL     1      -8.741  10.267  69.024  1.00  0.00     0.000 HD 
HETATM   30  O   UNL     1      -8.088  10.939  69.182  1.00  0.00    -0.149 OA 
BRANCH  28  31
HETATM   31  C   UNL     1      -7.281  10.605  66.919  1.00  0.00    -0.110 C  
BRANCH  31  32
HETATM   32  O   UNL     1      -8.229   9.572  66.763  1.00  0.00    -0.112 OA 
BRANCH  32  33
HETATM   33  P   UNL     1      -7.848   8.307  65.854  1.00  0.00    -0.102 P  
HETATM   34  O   UNL     1      -6.584   7.705  66.618  1.00  0.00    -0.054 OA 
HETATM   35  O   UNL     1      -7.474   8.632  64.434  1.00  0.00    -0.100 OA 
BRANCH  33  36
HETATM   36  O   UNL     1      -9.110   7.329  65.923  1.00  0.00    -0.128 OA 
BRANCH  36  37
HETATM   37  P   UNL     1      -9.175   5.940  66.952  1.00  0.00    -0.133 P  
HETATM   38  O   UNL     1     -10.089   6.754  68.030  1.00  0.00    -0.146 OA 
HETATM   39  O   UNL     1     -10.041   5.195  65.944  1.00  0.00    -0.172 OA 
BRANCH  37  40
HETATM   40  O   UNL     1      -9.242   4.550  67.981  1.00  0.00    -0.118 OA 
BRANCH  40  41
HETATM   41  C   UNL     1      -8.024   3.809  68.049  1.00  0.00    -0.076 C  
BRANCH  41  42
HETATM   42  C   UNL     1      -7.987   2.963  69.327  1.00  0.00    -0.045 C  
HETATM   43  O   UNL     1      -6.872   3.391  70.119  1.00  0.00    -0.033 OA 
HETATM   44  C   UNL     1      -7.250   3.339  71.501  1.00  0.00    -0.036 C  
HETATM   45  C   UNL     1      -8.759   3.145  71.624  1.00  0.00    -0.074 C  
HETATM   46  H   UNL     1     -10.906   2.051  70.477  1.00  0.00     0.000 HD 
HETATM   47  C   UNL     1      -9.247   3.083  70.180  1.00  0.00    -0.144 C  
HETATM   48  O   UNL     1     -10.121   1.977  69.946  1.00  0.00     0.310 OA 
HETATM   49  O   UNL     1      -9.100   1.933  72.322  1.00  0.00    -0.071 OA 
HETATM   50  H   UNL     1     -10.039   1.813  72.399  1.00  0.00     0.000 HD 
BRANCH  44  51
HETATM   51  N   UNL     1      -6.747   4.524  72.166  1.00  0.00    -0.040 NA 
HETATM   52  C   UNL     1      -6.218   4.615  73.425  1.00  0.00    -0.033 A  
HETATM   53  C   UNL     1      -6.877   6.576  72.876  1.00  0.00    -0.073 A  
HETATM   54  N   UNL     1      -6.307   5.842  73.900  1.00  0.00    -0.067 NA 
HETATM   55  C   UNL     1      -7.035   5.793  71.745  1.00  0.00    -0.073 A  
HETATM   56  N   UNL     1      -7.509   6.163  70.543  1.00  0.00    -0.088 NA 
HETATM   57  C   UNL     1      -7.867   7.464  70.562  1.00  0.00    -0.097 A  
HETATM   58  N   UNL     1      -7.841   8.325  71.603  1.00  0.00    -0.104 NA 
HETATM   59  C   UNL     1      -7.367   7.887  72.793  1.00  0.00    -0.101 A  
HETATM   60  N   UNL     1      -7.448   8.737  73.884  1.00  0.00    -0.410 NA 
HETATM   61  H2  UNL     1      -6.519   8.786  74.301  1.00  0.00     0.000 HD 
HETATM   62  H1  UNL     1      -7.805   9.691  73.823  1.00  0.00     0.000 HD 
ENDBRANCH  44  51
ENDBRANCH  41  42
ENDBRANCH  40  41
ENDBRANCH  37  40
ENDBRANCH  36  37
ENDBRANCH  33  36
ENDBRANCH  32  33
ENDBRANCH  31  32
ENDBRANCH  28  31
ENDBRANCH  25  28
ENDBRANCH  22  25
ENDBRANCH  21  22
ENDBRANCH   7  21
TORSDOF 13
ENDMDL
MODEL       50
REMARK 921   NORMALIZED FREE ENERGY PREDICTED BY IDOCK:   -4.83 KCAL/MOL
REMARK 922        TOTAL FREE ENERGY PREDICTED BY IDOCK:  -11.61 KCAL/MOL
REMARK 923 INTER-LIGAND FREE ENERGY PREDICTED BY IDOCK:  -11.42 KCAL/MOL
REMARK 924 INTRA-LIGAND FREE ENERGY PREDICTED BY IDOCK:   -0.19 KCAL/MOL
REMARK 927      BINDING AFFINITY PREDICTED BY RF-SCORE:    0.00 PKD
ROOT
HETATM    1  C   UNL     1     -13.201  15.652  73.409  1.00  0.00    -0.628 C  
HETATM    2  C   UNL     1     -12.624  15.512  72.028  1.00  0.00    -0.481 A  
HETATM    3  C   UNL     1     -11.836  16.553  71.513  1.00  0.00    -0.081 A  
HETATM    4  C   UNL     1     -11.153  16.422  70.299  1.00  0.00    -0.256 A  
HETATM    5  C   UNL     1     -11.168  15.186  69.623  1.00  0.00    -0.272 A  
HETATM    6  C   UNL     1     -12.061  14.200  70.072  1.00  0.00    -0.409 A  
HETATM    7  N   UNL     1     -10.322  15.000  68.507  1.00  0.00    -0.224 NA 
HETATM    8  H   UNL     1      -7.541  19.026  66.914  1.00  0.00     0.000 HD 
HETATM    9  C   UNL     1      -9.625  16.095  68.018  1.00  0.00    -0.220 A  
HETATM   10  C   UNL     1     -12.791  14.344  71.264  1.00  0.00    -0.412 A  
HETATM   11  C   UNL     1     -13.743  13.257  71.680  1.00  0.00    -0.152 C  
HETATM   12  O   UNL     1      -9.649  19.762  68.178  1.00  0.00    -0.355 OA 
HETATM   13  N   UNL     1      -8.762  16.015  67.044  1.00  0.00    -0.195 N  
HETATM   14  H   UNL     1      -8.557  15.096  66.652  1.00  0.00     0.000 HD 
HETATM   15  C   UNL     1      -9.849  17.435  68.663  1.00  0.00    -0.322 A  
HETATM   16  C   UNL     1      -8.124  17.096  66.526  1.00  0.00    -0.283 C  
HETATM   17  C   UNL     1      -9.230  18.628  68.013  1.00  0.00    -0.304 C  
HETATM   18  N   UNL     1     -10.502  17.563  69.782  1.00  0.00     0.156 NA 
HETATM   19  N   UNL     1      -8.238  18.312  67.132  1.00  0.00    -0.230 N  
HETATM   20  O   UNL     1      -7.477  17.024  65.485  1.00  0.00     0.084 OA 
ENDROOT
BRANCH   7  21
HETATM   21  C   UNL     1      -9.738  13.658  68.318  1.00  0.00    -0.231 C  
BRANCH  21  22
HETATM   22  C   UNL     1      -9.835  13.192  66.850  1.00  0.00    -0.249 C  
HETATM   23  O   UNL     1      -8.756  13.783  66.122  1.00  0.00    -0.358 OA 
HETATM   24  H   UNL     1      -8.815  13.496  65.218  1.00  0.00     0.000 HD 
BRANCH  22  25
HETATM   25  C   UNL     1     -11.215  13.585  66.293  1.00  0.00    -0.297 C  
HETATM   26  H   UNL     1     -13.023  13.618  67.000  1.00  0.00     0.000 HD 
HETATM   27  O   UNL     1     -12.171  13.377  67.344  1.00  0.00    -0.326 OA 
BRANCH  25  28
HETATM   28  C   UNL     1     -11.655  12.803  65.031  1.00  0.00    -0.337 C  
HETATM   29  H   UNL     1     -13.329  12.055  64.284  1.00  0.00     0.000 HD 
HETATM   30  O   UNL     1     -13.059  12.535  65.058  1.00  0.00    -0.765 OA 
BRANCH  28  31
HETATM   31  C   UNL     1     -10.883  11.477  64.885  1.00  0.00    -0.283 C  
BRANCH  31  32
HETATM   32  O   UNL     1      -9.534  11.719  64.552  1.00  0.00    -0.116 OA 
BRANCH  32  33
HETATM   33  P   UNL     1      -8.852  10.836  63.401  1.00  0.00    -0.099 P  
HETATM   34  O   UNL     1      -8.353  11.945  62.369  1.00  0.00     0.093 OA 
HETATM   35  O   UNL     1      -9.776   9.876  62.704  1.00  0.00    -0.124 OA 
BRANCH  33  36
HETATM   36  O   UNL     1      -7.633  10.078  64.101  1.00  0.00    -0.136 OA 
BRANCH  36  37
HETATM   37  P   UNL     1      -7.609   8.369  64.368  1.00  0.00    -0.129 P  
HETATM   38  O   UNL     1      -6.847   8.135  62.944  1.00  0.00    -0.084 OA 
HETATM   39  O   UNL     1      -6.611   8.529  65.508  1.00  0.00    -0.058 OA 
BRANCH  37  40
HETATM   40  O   UNL     1      -7.583   6.660  64.635  1.00  0.00    -0.089 OA 
BRANCH  40  41
HETATM   41  C   UNL     1      -6.570   6.220  65.539  1.00  0.00    -0.047 C  
BRANCH  41  42
HETATM   42  C   UNL     1      -7.197   5.452  66.709  1.00  0.00    -0.078 C  
HETATM   43  O   UNL     1      -7.663   6.404  67.674  1.00  0.00    -0.099 OA 
HETATM   44  C   UNL     1      -8.890   5.918  68.233  1.00  0.00    -0.110 C  
HETATM   45  C   UNL     1      -9.414   4.745  67.410  1.00  0.00    -0.146 C  
HETATM   46  H   UNL     1      -8.696   2.665  65.900  1.00  0.00     0.000 HD 
HETATM   47  C   UNL     1      -8.377   4.572  66.304  1.00  0.00    -0.110 C  
HETATM   48  O   UNL     1      -7.962   3.213  66.152  1.00  0.00    -0.083 OA 
HETATM   49  O   UNL     1      -9.525   3.538  68.186  1.00  0.00    -0.181 OA 
HETATM   50  H   UNL     1      -9.851   2.808  67.673  1.00  0.00     0.000 HD 
BRANCH  44  51
HETATM   51  N   UNL     1      -9.820   7.025  68.346  1.00  0.00    -0.143 NA 
HETATM   52  C   UNL     1      -9.997   8.060  67.469  1.00  0.00    -0.194 A  
HETATM   53  C   UNL     1     -10.751   8.706  69.365  1.00  0.00    -0.158 A  
HETATM   54  N   UNL     1     -10.532   9.109  68.061  1.00  0.00    -0.228 NA 
HETATM   55  C   UNL     1     -10.431   7.368  69.521  1.00  0.00    -0.232 A  
HETATM   56  N   UNL     1     -10.552   6.611  70.625  1.00  0.00    -0.220 NA 
HETATM   57  C   UNL     1     -11.026   7.352  71.648  1.00  0.00    -0.225 A  
HETATM   58  N   UNL     1     -11.309   8.673  71.667  1.00  0.00    -0.284 NA 
HETATM   59  C   UNL     1     -11.151   9.384  70.525  1.00  0.00    -0.273 A  
HETATM   60  N   UNL     1     -11.332  10.756  70.578  1.00  0.00    -0.434 NA 
HETATM   61  H2  UNL     1     -11.990  11.004  69.838  1.00  0.00     0.000 HD 
HETATM   62  H1  UNL     1     -11.624  11.249  71.422  1.00  0.00     0.000 HD 
ENDBRANCH  44  51
ENDBRANCH  41  42
ENDBRANCH  40  41
ENDBRANCH  37  40
ENDBRANCH  36  37
ENDBRANCH  33  36
ENDBRANCH  32  33
ENDBRANCH  31  32
ENDBRANCH  28  31
ENDBRANCH  25  28
ENDBRANCH  22  25
ENDBRANCH  21  22
ENDBRANCH   7  21
TORSDOF 13
ENDMDL
MODEL       51
REMARK 921   NORMALIZED FREE ENERGY PREDICTED BY IDOCK:   -4.83 KCAL/MOL
REMARK 922        TOTAL FREE ENERGY PREDICTED BY IDOCK:  -11.60 KCAL/MOL
REMARK 923 INTER-LIGAND FREE ENERGY PREDICTED BY IDOCK:  -10.48 KCAL/MOL
REMARK 924 INTRA-LIGAND FREE ENERGY PREDICTED BY IDOCK:   -1.12 KCAL/MOL
REMARK 927      BINDING AFFINITY PREDICTED BY RF-SCORE:    0.00 PKD
ROOT
HETATM    1  C   UNL     1     -10.196  20.449  68.427  1.00  0.00    -0.212 C  
HETATM    2  C   UNL     1      -9.732  19.179  67.770  1.00  0.00    -0.391 A  
HETATM    3  C   UNL     1      -8.985  18.259  68.523  1.00  0.00    -0.329 A  
HETATM    4  C   UNL     1      -8.651  16.999  68.016  1.00  0.00    -0.217 A  
HETATM    5  C   UNL     1      -9.156  16.596  66.764  1.00  0.00    -0.237 A  
HETATM    6  C   UNL     1      -9.785  17.565  65.964  1.00  0.00    -0.160 A  
HETATM    7  N   UNL     1      -8.980  15.258  66.346  1.00  0.00    -0.304 NA 
HETATM    8  H   UNL     1      -6.219  12.149  69.377  1.00  0.00     0.000 HD 
HETATM    9  C   UNL     1      -8.174  14.429  67.113  1.00  0.00    -0.178 A  
HETATM   10  C   UNL     1     -10.080  18.851  66.448  1.00  0.00    -0.457 A  
HETATM   11  C   UNL     1     -10.740  19.847  65.534  1.00  0.00    -0.305 C  
HETATM   12  O   UNL     1      -5.595  14.614  69.717  1.00  0.00    -0.094 OA 
HETATM   13  N   UNL     1      -8.008  13.161  66.858  1.00  0.00    -0.401 N  
HETATM   14  H   UNL     1      -8.531  12.749  66.085  1.00  0.00     0.000 HD 
HETATM   15  C   UNL     1      -7.484  15.011  68.315  1.00  0.00    -0.107 A  
HETATM   16  C   UNL     1      -7.174  12.363  67.572  1.00  0.00    -0.145 C  
HETATM   17  C   UNL     1      -6.485  14.154  69.022  1.00  0.00    -0.099 C  
HETATM   18  N   UNL     1      -7.779  16.192  68.777  1.00  0.00    -0.186 NA 
HETATM   19  N   UNL     1      -6.594  12.829  68.715  1.00  0.00    -0.084 N  
HETATM   20  O   UNL     1      -6.881  11.233  67.192  1.00  0.00    -0.095 OA 
ENDROOT
BRANCH   7  21
HETATM   21  C   UNL     1     -10.070  14.645  65.563  1.00  0.00    -0.377 C  
BRANCH  21  22
HETATM   22  C   UNL     1     -10.503  13.285  66.149  1.00  0.00    -0.293 C  
HETATM   23  O   UNL     1     -10.355  12.293  65.130  1.00  0.00    -0.273 OA 
HETATM   24  H   UNL     1     -10.622  11.455  65.491  1.00  0.00     0.000 HD 
BRANCH  22  25
HETATM   25  C   UNL     1     -11.950  13.401  66.662  1.00  0.00    -0.399 C  
HETATM   26  H   UNL     1     -13.526  14.394  66.113  1.00  0.00     0.000 HD 
HETATM   27  O   UNL     1     -12.634  14.322  65.797  1.00  0.00    -0.454 OA 
BRANCH  25  28
HETATM   28  C   UNL     1     -12.084  13.873  68.130  1.00  0.00    -0.282 C  
HETATM   29  H   UNL     1     -12.026  15.583  69.127  1.00  0.00     0.000 HD 
HETATM   30  O   UNL     1     -11.943  15.293  68.226  1.00  0.00    -0.297 OA 
BRANCH  28  31
HETATM   31  C   UNL     1     -11.047  13.193  69.044  1.00  0.00    -0.234 C  
BRANCH  31  32
HETATM   32  O   UNL     1     -10.638  11.957  68.500  1.00  0.00    -0.209 OA 
BRANCH  32  33
HETATM   33  P   UNL     1     -11.117  10.603  69.214  1.00  0.00    -0.291 P  
HETATM   34  O   UNL     1     -11.245   9.596  67.984  1.00  0.00    -0.129 OA 
HETATM   35  O   UNL     1     -12.435  10.695  69.932  1.00  0.00    -0.300 OA 
BRANCH  33  36
HETATM   36  O   UNL     1      -9.933  10.193  70.204  1.00  0.00    -0.229 OA 
BRANCH  36  37
HETATM   37  P   UNL     1      -9.892   8.689  71.058  1.00  0.00    -0.256 P  
HETATM   38  O   UNL     1      -8.955   8.030  69.897  1.00  0.00    -0.143 OA 
HETATM   39  O   UNL     1      -9.047   9.306  72.166  1.00  0.00    -0.197 OA 
BRANCH  37  40
HETATM   40  O   UNL     1      -9.850   7.185  71.913  1.00  0.00    -0.161 OA 
BRANCH  40  41
HETATM   41  C   UNL     1      -8.923   6.236  71.388  1.00  0.00    -0.139 C  
BRANCH  41  42
HETATM   42  C   UNL     1      -9.574   4.849  71.302  1.00  0.00    -0.168 C  
HETATM   43  O   UNL     1      -9.857   4.570  69.925  1.00  0.00    -0.203 OA 
HETATM   44  C   UNL     1      -9.619   3.176  69.687  1.00  0.00    -0.045 C  
HETATM   45  C   UNL     1      -8.875   2.562  70.870  1.00  0.00    -0.075 C  
HETATM   46  H   UNL     1      -8.531   2.683  73.514  1.00  0.00     0.000 HD 
HETATM   47  C   UNL     1      -8.695   3.724  71.843  1.00  0.00    -0.095 C  
HETATM   48  O   UNL     1      -9.077   3.384  73.177  1.00  0.00    -0.096 OA 
HETATM   49  O   UNL     1      -9.619   1.499  71.492  1.00  0.00    -0.103 OA 
HETATM   50  H   UNL     1      -9.156   1.116  72.228  1.00  0.00     0.000 HD 
BRANCH  44  51
HETATM   51  N   UNL     1      -8.935   3.031  68.417  1.00  0.00    -0.124 NA 
HETATM   52  C   UNL     1      -7.785   2.336  68.163  1.00  0.00    -0.054 A  
HETATM   53  C   UNL     1      -8.011   3.773  66.594  1.00  0.00    -0.096 A  
HETATM   54  N   UNL     1      -7.180   2.779  67.078  1.00  0.00    -0.056 NA 
HETATM   55  C   UNL     1      -9.170   3.850  67.347  1.00  0.00    -0.172 A  
HETATM   56  N   UNL     1     -10.228   4.656  67.157  1.00  0.00    -0.145 NA 
HETATM   57  C   UNL     1     -10.017   5.462  66.096  1.00  0.00    -0.132 A  
HETATM   58  N   UNL     1      -8.915   5.553  65.319  1.00  0.00    -0.115 NA 
HETATM   59  C   UNL     1      -7.875   4.723  65.571  1.00  0.00    -0.094 A  
HETATM   60  N   UNL     1      -6.707   4.897  64.848  1.00  0.00    -0.047 NA 
HETATM   61  H2  UNL     1      -6.455   3.990  64.455  1.00  0.00     0.000 HD 
HETATM   62  H1  UNL     1      -6.609   5.588  64.103  1.00  0.00     0.000 HD 
ENDBRANCH  44  51
ENDBRANCH  41  42
ENDBRANCH  40  41
ENDBRANCH  37  40
ENDBRANCH  36  37
ENDBRANCH  33  36
ENDBRANCH  32  33
ENDBRANCH  31  32
ENDBRANCH  28  31
ENDBRANCH  25  28
ENDBRANCH  22  25
ENDBRANCH  21  22
ENDBRANCH   7  21
TORSDOF 13
ENDMDL
MODEL       52
REMARK 921   NORMALIZED FREE ENERGY PREDICTED BY IDOCK:   -4.80 KCAL/MOL
REMARK 922        TOTAL FREE ENERGY PREDICTED BY IDOCK:  -11.55 KCAL/MOL
REMARK 923 INTER-LIGAND FREE ENERGY PREDICTED BY IDOCK:   -9.11 KCAL/MOL
REMARK 924 INTRA-LIGAND FREE ENERGY PREDICTED BY IDOCK:   -2.44 KCAL/MOL
REMARK 927      BINDING AFFINITY PREDICTED BY RF-SCORE:    0.00 PKD
ROOT
HETATM    1  C   UNL     1     -12.704  15.285  63.863  1.00  0.00     0.706 C  
HETATM    2  C   UNL     1     -11.452  14.990  64.642  1.00  0.00    -0.382 A  
HETATM    3  C   UNL     1     -10.861  16.019  65.392  1.00  0.00    -0.340 A  
HETATM    4  C   UNL     1      -9.785  15.772  66.251  1.00  0.00    -0.302 A  
HETATM    5  C   UNL     1      -9.343  14.450  66.451  1.00  0.00    -0.258 A  
HETATM    6  C   UNL     1      -9.847  13.451  65.601  1.00  0.00    -0.180 A  
HETATM    7  N   UNL     1      -8.393  14.185  67.461  1.00  0.00    -0.172 NA 
HETATM    8  H   UNL     1      -6.465  18.196  70.044  1.00  0.00     0.000 HD 
HETATM    9  C   UNL     1      -7.807  15.260  68.113  1.00  0.00    -0.120 A  
HETATM   10  C   UNL     1     -10.894  13.702  64.698  1.00  0.00    -0.416 A  
HETATM   11  C   UNL     1     -11.376  12.592  63.805  1.00  0.00    -0.534 C  
HETATM   12  O   UNL     1      -7.305  18.875  67.717  1.00  0.00    -0.230 OA 
HETATM   13  N   UNL     1      -6.977  15.125  69.110  1.00  0.00    -0.134 N  
HETATM   14  H   UNL     1      -6.784  14.185  69.456  1.00  0.00     0.000 HD 
HETATM   15  C   UNL     1      -8.169  16.651  67.672  1.00  0.00    -0.172 A  
HETATM   16  C   UNL     1      -6.358  16.173  69.709  1.00  0.00    -0.175 C  
HETATM   17  C   UNL     1      -7.399  17.787  68.261  1.00  0.00    -0.240 C  
HETATM   18  N   UNL     1      -9.158  16.882  66.857  1.00  0.00    -0.222 NA 
HETATM   19  N   UNL     1      -6.719  17.451  69.395  1.00  0.00    -0.227 N  
HETATM   20  O   UNL     1      -5.435  16.009  70.503  1.00  0.00    -0.169 OA 
ENDROOT
BRANCH   7  21
HETATM   21  C   UNL     1      -8.519  12.909  68.191  1.00  0.00    -0.176 C  
BRANCH  21  22
HETATM   22  C   UNL     1      -7.396  11.919  67.817  1.00  0.00    -0.109 C  
HETATM   23  O   UNL     1      -6.586  12.525  66.808  1.00  0.00    -0.444 OA 
HETATM   24  H   UNL     1      -5.894  11.915  66.577  1.00  0.00     0.000 HD 
BRANCH  22  25
HETATM   25  C   UNL     1      -8.032  10.596  67.355  1.00  0.00    -0.111 C  
HETATM   26  H   UNL     1      -9.661   9.630  67.787  1.00  0.00     0.000 HD 
HETATM   27  O   UNL     1      -9.269  10.447  68.071  1.00  0.00    -0.137 OA 
BRANCH  25  28
HETATM   28  C   UNL     1      -7.154   9.340  67.573  1.00  0.00    -0.079 C  
HETATM   29  H   UNL     1      -7.419   7.388  67.776  1.00  0.00     0.000 HD 
HETATM   30  O   UNL     1      -7.958   8.159  67.643  1.00  0.00    -0.118 OA 
BRANCH  28  31
HETATM   31  C   UNL     1      -6.304   9.455  68.854  1.00  0.00    -0.043 C  
BRANCH  31  32
HETATM   32  O   UNL     1      -7.108   9.296  70.002  1.00  0.00    -0.055 OA 
BRANCH  32  33
HETATM   33  P   UNL     1      -6.395   9.188  71.434  1.00  0.00    -0.011 P  
HETATM   34  O   UNL     1      -7.637   9.164  72.434  1.00  0.00    -0.271 OA 
HETATM   35  O   UNL     1      -5.487  10.335  71.782  1.00  0.00    -0.246 OA 
BRANCH  33  36
HETATM   36  O   UNL     1      -5.609   7.796  71.422  1.00  0.00    -0.034 OA 
BRANCH  36  37
HETATM   37  P   UNL     1      -6.368   6.279  71.758  1.00  0.00    -0.047 P  
HETATM   38  O   UNL     1      -7.427   6.514  70.538  1.00  0.00    -0.086 OA 
HETATM   39  O   UNL     1      -5.135   5.521  71.281  1.00  0.00    -0.008 OA 
BRANCH  37  40
HETATM   40  O   UNL     1      -7.127   4.760  72.092  1.00  0.00    -0.058 OA 
BRANCH  40  41
HETATM   41  C   UNL     1      -6.657   3.678  71.289  1.00  0.00    -0.026 C  
BRANCH  41  42
HETATM   42  C   UNL     1      -7.807   3.090  70.462  1.00  0.00    -0.043 C  
HETATM   43  O   UNL     1      -9.038   3.640  70.948  1.00  0.00    -0.090 OA 
HETATM   44  C   UNL     1      -9.910   3.858  69.831  1.00  0.00    -0.066 C  
HETATM   45  C   UNL     1      -9.132   3.721  68.525  1.00  0.00    -0.142 C  
HETATM   46  H   UNL     1      -7.098   2.470  67.334  1.00  0.00     0.000 HD 
HETATM   47  C   UNL     1      -7.709   3.394  68.969  1.00  0.00    -0.051 C  
HETATM   48  O   UNL     1      -7.159   2.281  68.263  1.00  0.00    -0.046 OA 
HETATM   49  O   UNL     1      -9.649   2.671  67.688  1.00  0.00    -0.366 OA 
HETATM   50  H   UNL     1      -9.165   2.586  66.875  1.00  0.00     0.000 HD 
BRANCH  44  51
HETATM   51  N   UNL     1     -10.567   5.139  69.998  1.00  0.00    -0.241 NA 
HETATM   52  C   UNL     1     -10.855   6.063  69.030  1.00  0.00    -0.342 A  
HETATM   53  C   UNL     1     -10.842   7.098  70.903  1.00  0.00    -0.244 A  
HETATM   54  N   UNL     1     -10.999   7.270  69.540  1.00  0.00    -0.205 NA 
HETATM   55  C   UNL     1     -10.702   5.755  71.211  1.00  0.00    -0.258 A  
HETATM   56  N   UNL     1     -10.575   5.195  72.426  1.00  0.00    -0.216 NA 
HETATM   57  C   UNL     1     -10.569   6.147  73.382  1.00  0.00    -0.269 A  
HETATM   58  N   UNL     1     -10.621   7.489  73.229  1.00  0.00    -0.382 NA 
HETATM   59  C   UNL     1     -10.733   7.993  71.977  1.00  0.00    -0.258 A  
HETATM   60  N   UNL     1     -10.671   9.367  71.816  1.00  0.00    -0.258 NA 
HETATM   61  H2  UNL     1     -11.485   9.646  71.269  1.00  0.00     0.000 HD 
HETATM   62  H1  UNL     1     -10.591  10.018  72.597  1.00  0.00     0.000 HD 
ENDBRANCH  44  51
ENDBRANCH  41  42
ENDBRANCH  40  41
ENDBRANCH  37  40
ENDBRANCH  36  37
ENDBRANCH  33  36
ENDBRANCH  32  33
ENDBRANCH  31  32
ENDBRANCH  28  31
ENDBRANCH  25  28
ENDBRANCH  22  25
ENDBRANCH  21  22
ENDBRANCH   7  21
TORSDOF 13
ENDMDL
MODEL       53
REMARK 921   NORMALIZED FREE ENERGY PREDICTED BY IDOCK:   -4.76 KCAL/MOL
REMARK 922        TOTAL FREE ENERGY PREDICTED BY IDOCK:  -11.48 KCAL/MOL
REMARK 923 INTER-LIGAND FREE ENERGY PREDICTED BY IDOCK:   -9.35 KCAL/MOL
REMARK 924 INTRA-LIGAND FREE ENERGY PREDICTED BY IDOCK:   -2.13 KCAL/MOL
REMARK 927      BINDING AFFINITY PREDICTED BY RF-SCORE:    0.00 PKD
ROOT
HETATM    1  C   UNL     1     -12.701  11.902  63.274  1.00  0.00    -0.407 C  
HETATM    2  C   UNL     1     -11.689  12.674  64.074  1.00  0.00    -0.496 A  
HETATM    3  C   UNL     1     -11.893  14.047  64.282  1.00  0.00    -0.435 A  
HETATM    4  C   UNL     1     -11.069  14.788  65.137  1.00  0.00    -0.384 A  
HETATM    5  C   UNL     1     -10.075  14.130  65.887  1.00  0.00    -0.321 A  
HETATM    6  C   UNL     1      -9.791  12.790  65.574  1.00  0.00    -0.169 A  
HETATM    7  N   UNL     1      -9.381  14.844  66.889  1.00  0.00    -0.229 NA 
HETATM    8  H   UNL     1     -10.409  19.860  67.400  1.00  0.00     0.000 HD 
HETATM    9  C   UNL     1      -9.590  16.212  66.988  1.00  0.00    -0.224 A  
HETATM   10  C   UNL     1     -10.583  12.052  64.678  1.00  0.00    -0.351 A  
HETATM   11  C   UNL     1     -10.214  10.626  64.374  1.00  0.00    -0.400 C  
HETATM   12  O   UNL     1     -10.923  19.017  65.032  1.00  0.00    -0.440 OA 
HETATM   13  N   UNL     1      -9.059  16.949  67.923  1.00  0.00    -0.229 N  
HETATM   14  H   UNL     1      -8.499  16.491  68.642  1.00  0.00     0.000 HD 
HETATM   15  C   UNL     1     -10.498  16.873  65.989  1.00  0.00    -0.290 A  
HETATM   16  C   UNL     1      -9.215  18.296  67.986  1.00  0.00    -0.290 C  
HETATM   17  C   UNL     1     -10.571  18.365  66.001  1.00  0.00    -0.309 C  
HETATM   18  N   UNL     1     -11.251  16.187  65.179  1.00  0.00    -0.207 NA 
HETATM   19  N   UNL     1     -10.093  18.922  67.151  1.00  0.00    -0.337 N  
HETATM   20  O   UNL     1      -8.545  18.988  68.749  1.00  0.00    -0.354 OA 
ENDROOT
BRANCH   7  21
HETATM   21  C   UNL     1      -9.003  14.104  68.108  1.00  0.00    -0.188 C  
BRANCH  21  22
HETATM   22  C   UNL     1      -7.478  13.886  68.197  1.00  0.00    -0.126 C  
HETATM   23  O   UNL     1      -6.848  14.738  67.238  1.00  0.00    -0.255 OA 
HETATM   24  H   UNL     1      -5.909  14.604  67.293  1.00  0.00     0.000 HD 
BRANCH  22  25
HETATM   25  C   UNL     1      -7.173  12.396  67.962  1.00  0.00    -0.105 C  
HETATM   26  H   UNL     1      -8.080  10.728  68.368  1.00  0.00     0.000 HD 
HETATM   27  O   UNL     1      -8.268  11.647  68.513  1.00  0.00    -0.149 OA 
BRANCH  25  28
HETATM   28  C   UNL     1      -5.843  11.898  68.579  1.00  0.00    -0.049 C  
HETATM   29  H   UNL     1      -4.451  10.553  68.161  1.00  0.00     0.000 HD 
HETATM   30  O   UNL     1      -5.267  10.859  67.782  1.00  0.00    -0.040 OA 
BRANCH  28  31
HETATM   31  C   UNL     1      -6.040  11.388  70.020  1.00  0.00    -0.145 C  
BRANCH  31  32
HETATM   32  O   UNL     1      -5.876   9.988  70.080  1.00  0.00    -0.041 OA 
BRANCH  32  33
HETATM   33  P   UNL     1      -6.102   9.244  71.482  1.00  0.00     0.018 P  
HETATM   34  O   UNL     1      -7.692   9.147  71.565  1.00  0.00    -0.325 OA 
HETATM   35  O   UNL     1      -5.576   9.977  72.684  1.00  0.00    -0.307 OA 
BRANCH  33  36
HETATM   36  O   UNL     1      -5.422   7.807  71.324  1.00  0.00    -0.034 OA 
BRANCH  36  37
HETATM   37  P   UNL     1      -6.310   6.380  70.912  1.00  0.00    -0.050 P  
HETATM   38  O   UNL     1      -5.986   6.609  69.330  1.00  0.00    -0.020 OA 
HETATM   39  O   UNL     1      -5.258   5.497  71.571  1.00  0.00    -0.008 OA 
BRANCH  37  40
HETATM   40  O   UNL     1      -7.197   4.953  70.500  1.00  0.00    -0.050 OA 
BRANCH  40  41
HETATM   41  C   UNL     1      -6.673   4.236  69.383  1.00  0.00    -0.045 C  
BRANCH  41  42
HETATM   42  C   UNL     1      -7.807   3.826  68.434  1.00  0.00    -0.068 C  
HETATM   43  O   UNL     1      -8.256   4.994  67.737  1.00  0.00    -0.098 OA 
HETATM   44  C   UNL     1      -8.581   4.623  66.392  1.00  0.00    -0.112 C  
HETATM   45  C   UNL     1      -8.059   3.219  66.095  1.00  0.00    -0.092 C  
HETATM   46  H   UNL     1      -7.540   0.829  67.162  1.00  0.00     0.000 HD 
HETATM   47  C   UNL     1      -7.393   2.785  67.397  1.00  0.00    -0.057 C  
HETATM   48  O   UNL     1      -7.797   1.477  67.807  1.00  0.00    -0.057 OA 
HETATM   49  O   UNL     1      -9.115   2.306  65.743  1.00  0.00    -0.170 OA 
HETATM   50  H   UNL     1      -8.790   1.433  65.558  1.00  0.00     0.000 HD 
BRANCH  44  51
HETATM   51  N   UNL     1      -8.080   5.644  65.493  1.00  0.00    -0.116 NA 
HETATM   52  C   UNL     1      -7.190   5.488  64.465  1.00  0.00    -0.055 A  
HETATM   53  C   UNL     1      -7.158   7.555  65.018  1.00  0.00    -0.060 A  
HETATM   54  N   UNL     1      -6.589   6.624  64.170  1.00  0.00    -0.040 NA 
HETATM   55  C   UNL     1      -8.180   6.982  65.756  1.00  0.00    -0.132 A  
HETATM   56  N   UNL     1      -8.992   7.577  66.646  1.00  0.00    -0.146 NA 
HETATM   57  C   UNL     1      -8.666   8.880  66.777  1.00  0.00    -0.119 A  
HETATM   58  N   UNL     1      -7.656   9.556  66.186  1.00  0.00    -0.099 NA 
HETATM   59  C   UNL     1      -6.862   8.895  65.309  1.00  0.00    -0.072 A  
HETATM   60  N   UNL     1      -5.762   9.558  64.794  1.00  0.00    -0.067 NA 
HETATM   61  H2  UNL     1      -5.802   9.470  63.779  1.00  0.00     0.000 HD 
HETATM   62  H1  UNL     1      -5.547  10.533  65.006  1.00  0.00     0.000 HD 
ENDBRANCH  44  51
ENDBRANCH  41  42
ENDBRANCH  40  41
ENDBRANCH  37  40
ENDBRANCH  36  37
ENDBRANCH  33  36
ENDBRANCH  32  33
ENDBRANCH  31  32
ENDBRANCH  28  31
ENDBRANCH  25  28
ENDBRANCH  22  25
ENDBRANCH  21  22
ENDBRANCH   7  21
TORSDOF 13
ENDMDL
MODEL       54
REMARK 921   NORMALIZED FREE ENERGY PREDICTED BY IDOCK:   -4.75 KCAL/MOL
REMARK 922        TOTAL FREE ENERGY PREDICTED BY IDOCK:  -11.47 KCAL/MOL
REMARK 923 INTER-LIGAND FREE ENERGY PREDICTED BY IDOCK:  -10.47 KCAL/MOL
REMARK 924 INTRA-LIGAND FREE ENERGY PREDICTED BY IDOCK:   -1.00 KCAL/MOL
REMARK 927      BINDING AFFINITY PREDICTED BY RF-SCORE:    0.00 PKD
ROOT
HETATM    1  C   UNL     1      -7.152   1.889  72.270  1.00  0.00    -0.030 C  
HETATM    2  C   UNL     1      -7.576   3.133  71.541  1.00  0.00    -0.048 A  
HETATM    3  C   UNL     1      -8.724   3.816  71.974  1.00  0.00    -0.119 A  
HETATM    4  C   UNL     1      -9.086   5.054  71.434  1.00  0.00    -0.143 A  
HETATM    5  C   UNL     1      -8.232   5.686  70.508  1.00  0.00    -0.116 A  
HETATM    6  C   UNL     1      -7.163   4.941  69.983  1.00  0.00    -0.054 A  
HETATM    7  N   UNL     1      -8.502   7.016  70.117  1.00  0.00    -0.138 NA 
HETATM    8  H   UNL     1     -12.782   9.223  71.930  1.00  0.00     0.000 HD 
HETATM    9  C   UNL     1      -9.690   7.598  70.535  1.00  0.00    -0.182 A  
HETATM   10  C   UNL     1      -6.823   3.674  70.485  1.00  0.00    -0.033 A  
HETATM   11  C   UNL     1      -5.676   2.922  69.867  1.00  0.00    -0.018 C  
HETATM   12  O   UNL     1     -12.975   6.665  71.879  1.00  0.00    -0.306 OA 
HETATM   13  N   UNL     1      -9.999   8.841  70.293  1.00  0.00    -0.180 N  
HETATM   14  H   UNL     1      -9.316   9.427  69.813  1.00  0.00     0.000 HD 
HETATM   15  C   UNL     1     -10.655   6.766  71.332  1.00  0.00    -0.221 A  
HETATM   16  C   UNL     1     -11.186   9.395  70.650  1.00  0.00    -0.284 C  
HETATM   17  C   UNL     1     -12.000   7.350  71.619  1.00  0.00    -0.307 C  
HETATM   18  N   UNL     1     -10.328   5.604  71.820  1.00  0.00    -0.208 NA 
HETATM   19  N   UNL     1     -12.053   8.702  71.443  1.00  0.00    -0.295 N  
HETATM   20  O   UNL     1     -11.533  10.498  70.236  1.00  0.00    -0.287 OA 
ENDROOT
BRANCH   7  21
HETATM   21  C   UNL     1      -7.344   7.894  69.864  1.00  0.00    -0.075 C  
BRANCH  21  22
HETATM   22  C   UNL     1      -7.382   8.501  68.446  1.00  0.00    -0.094 C  
HETATM   23  O   UNL     1      -7.113   7.459  67.507  1.00  0.00    -0.083 OA 
HETATM   24  H   UNL     1      -7.136   7.833  66.633  1.00  0.00     0.000 HD 
BRANCH  22  25
HETATM   25  C   UNL     1      -6.363   9.652  68.369  1.00  0.00    -0.051 C  
HETATM   26  H   UNL     1      -4.501   9.804  67.837  1.00  0.00     0.000 HD 
HETATM   27  O   UNL     1      -5.131   9.094  67.884  1.00  0.00    -0.034 OA 
BRANCH  25  28
HETATM   28  C   UNL     1      -6.107  10.387  69.707  1.00  0.00    -0.059 C  
HETATM   29  H   UNL     1      -7.094  10.759  71.382  1.00  0.00     0.000 HD 
HETATM   30  O   UNL     1      -7.251  10.308  70.561  1.00  0.00    -0.297 OA 
BRANCH  28  31
HETATM   31  C   UNL     1      -5.737  11.866  69.482  1.00  0.00    -0.080 C  
BRANCH  31  32
HETATM   32  O   UNL     1      -6.216  12.315  68.234  1.00  0.00    -0.050 OA 
BRANCH  32  33
HETATM   33  P   UNL     1      -6.623  13.858  68.073  1.00  0.00    -0.172 P  
HETATM   34  O   UNL     1      -5.272  14.513  67.536  1.00  0.00    -0.336 OA 
HETATM   35  O   UNL     1      -7.047  14.540  69.344  1.00  0.00    -0.143 OA 
BRANCH  33  36
HETATM   36  O   UNL     1      -7.782  13.888  66.973  1.00  0.00    -0.050 OA 
BRANCH  36  37
HETATM   37  P   UNL     1      -8.892  12.583  66.733  1.00  0.00    -0.075 P  
HETATM   38  O   UNL     1      -7.702  11.656  66.112  1.00  0.00     0.051 OA 
HETATM   39  O   UNL     1      -9.025  12.378  68.237  1.00  0.00    -0.190 OA 
BRANCH  37  40
HETATM   40  O   UNL     1     -10.002  11.278  66.494  1.00  0.00    -0.202 OA 
BRANCH  40  41
HETATM   41  C   UNL     1     -11.320  11.530  66.979  1.00  0.00    -0.269 C  
BRANCH  41  42
HETATM   42  C   UNL     1     -12.083  12.434  66.003  1.00  0.00    -0.254 C  
HETATM   43  O   UNL     1     -12.159  13.747  66.572  1.00  0.00    -0.414 OA 
HETATM   44  C   UNL     1     -12.025  14.708  65.516  1.00  0.00    -0.256 C  
HETATM   45  C   UNL     1     -11.554  14.019  64.238  1.00  0.00    -0.329 C  
HETATM   46  H   UNL     1     -11.645  11.748  62.839  1.00  0.00     0.000 HD 
HETATM   47  C   UNL     1     -11.423  12.550  64.631  1.00  0.00    -0.327 C  
HETATM   48  O   UNL     1     -12.055  11.676  63.694  1.00  0.00    -0.409 OA 
HETATM   49  O   UNL     1     -12.494  14.167  63.158  1.00  0.00    -1.126 OA 
HETATM   50  H   UNL     1     -12.201  13.739  62.363  1.00  0.00     0.000 HD 
BRANCH  44  51
HETATM   51  N   UNL     1     -11.157  15.777  65.968  1.00  0.00    -0.164 NA 
HETATM   52  C   UNL     1     -10.153  16.389  65.269  1.00  0.00     0.041 A  
HETATM   53  C   UNL     1      -9.766  16.722  67.346  1.00  0.00    -0.245 A  
HETATM   54  N   UNL     1      -9.272  16.948  66.075  1.00  0.00    -0.493 NA 
HETATM   55  C   UNL     1     -11.005  16.107  67.286  1.00  0.00    -0.175 A  
HETATM   56  N   UNL     1     -11.813  15.772  68.306  1.00  0.00    -0.221 NA 
HETATM   57  C   UNL     1     -11.237  16.094  69.483  1.00  0.00    -0.337 A  
HETATM   58  N   UNL     1     -10.013  16.624  69.701  1.00  0.00    -0.088 NA 
HETATM   59  C   UNL     1      -9.240  16.925  68.630  1.00  0.00    -0.265 A  
HETATM   60  N   UNL     1      -7.945  17.360  68.860  1.00  0.00    -0.231 NA 
HETATM   61  H2  UNL     1      -7.820  18.228  68.339  1.00  0.00     0.000 HD 
HETATM   62  H1  UNL     1      -7.563  17.509  69.794  1.00  0.00     0.000 HD 
ENDBRANCH  44  51
ENDBRANCH  41  42
ENDBRANCH  40  41
ENDBRANCH  37  40
ENDBRANCH  36  37
ENDBRANCH  33  36
ENDBRANCH  32  33
ENDBRANCH  31  32
ENDBRANCH  28  31
ENDBRANCH  25  28
ENDBRANCH  22  25
ENDBRANCH  21  22
ENDBRANCH   7  21
TORSDOF 13
ENDMDL
MODEL       55
REMARK 921   NORMALIZED FREE ENERGY PREDICTED BY IDOCK:   -4.75 KCAL/MOL
REMARK 922        TOTAL FREE ENERGY PREDICTED BY IDOCK:  -11.46 KCAL/MOL
REMARK 923 INTER-LIGAND FREE ENERGY PREDICTED BY IDOCK:  -11.29 KCAL/MOL
REMARK 924 INTRA-LIGAND FREE ENERGY PREDICTED BY IDOCK:   -0.18 KCAL/MOL
REMARK 927      BINDING AFFINITY PREDICTED BY RF-SCORE:    0.00 PKD
ROOT
HETATM    1  C   UNL     1      -9.127  19.168  67.465  1.00  0.00    -0.336 C  
HETATM    2  C   UNL     1      -9.383  17.822  68.083  1.00  0.00    -0.281 A  
HETATM    3  C   UNL     1     -10.369  17.707  69.076  1.00  0.00    -0.272 A  
HETATM    4  C   UNL     1     -10.754  16.462  69.584  1.00  0.00    -0.337 A  
HETATM    5  C   UNL     1     -10.221  15.286  69.021  1.00  0.00    -0.239 A  
HETATM    6  C   UNL     1      -9.145  15.412  68.128  1.00  0.00    -0.184 A  
HETATM    7  N   UNL     1     -10.758  14.035  69.399  1.00  0.00    -0.122 NA 
HETATM    8  H   UNL     1     -14.389  13.993  73.044  1.00  0.00     0.000 HD 
HETATM    9  C   UNL     1     -11.681  14.000  70.434  1.00  0.00    -0.222 A  
HETATM   10  C   UNL     1      -8.716  16.663  67.651  1.00  0.00    -0.206 A  
HETATM   11  C   UNL     1      -7.546  16.728  66.709  1.00  0.00    -0.283 C  
HETATM   12  O   UNL     1     -12.885  16.064  73.220  1.00  0.00    -0.472 OA 
HETATM   13  N   UNL     1     -12.291  12.910  70.809  1.00  0.00    -0.383 N  
HETATM   14  H   UNL     1     -12.115  12.052  70.288  1.00  0.00     0.000 HD 
HETATM   15  C   UNL     1     -12.020  15.284  71.138  1.00  0.00    -0.345 A  
HETATM   16  C   UNL     1     -13.150  12.864  71.859  1.00  0.00    -0.373 C  
HETATM   17  C   UNL     1     -12.876  15.201  72.359  1.00  0.00    -0.356 C  
HETATM   18  N   UNL     1     -11.645  16.444  70.679  1.00  0.00    -0.214 NA 
HETATM   19  N   UNL     1     -13.545  14.017  72.471  1.00  0.00    -0.541 N  
HETATM   20  O   UNL     1     -13.551  11.797  72.317  1.00  0.00    -0.328 OA 
ENDROOT
BRANCH   7  21
HETATM   21  C   UNL     1     -10.829  12.988  68.362  1.00  0.00    -0.258 C  
BRANCH  21  22
HETATM   22  C   UNL     1     -11.286  13.557  67.003  1.00  0.00    -0.312 C  
HETATM   23  O   UNL     1     -12.491  14.296  67.210  1.00  0.00    -0.589 OA 
HETATM   24  H   UNL     1     -12.772  14.646  66.373  1.00  0.00     0.000 HD 
BRANCH  22  25
HETATM   25  C   UNL     1     -11.464  12.393  66.011  1.00  0.00    -0.382 C  
HETATM   26  H   UNL     1     -11.895  10.506  66.170  1.00  0.00     0.000 HD 
HETATM   27  O   UNL     1     -11.785  11.224  66.782  1.00  0.00    -0.418 OA 
BRANCH  25  28
HETATM   28  C   UNL     1     -10.232  12.102  65.120  1.00  0.00    -0.278 C  
HETATM   29  H   UNL     1      -9.399  10.534  64.243  1.00  0.00     0.000 HD 
HETATM   30  O   UNL     1     -10.155  10.713  64.791  1.00  0.00    -0.304 OA 
BRANCH  28  31
HETATM   31  C   UNL     1      -8.920  12.540  65.801  1.00  0.00     0.358 C  
BRANCH  31  32
HETATM   32  O   UNL     1      -8.204  11.418  66.270  1.00  0.00    -0.160 OA 
BRANCH  32  33
HETATM   33  P   UNL     1      -7.299  11.576  67.584  1.00  0.00    -0.122 P  
HETATM   34  O   UNL     1      -8.200  10.886  68.705  1.00  0.00    -0.130 OA 
HETATM   35  O   UNL     1      -6.994  12.994  67.981  1.00  0.00    -0.085 OA 
BRANCH  33  36
HETATM   36  O   UNL     1      -5.965  10.745  67.293  1.00  0.00    -0.051 OA 
BRANCH  36  37
HETATM   37  P   UNL     1      -5.702   9.141  67.885  1.00  0.00    -0.038 P  
HETATM   38  O   UNL     1      -5.631   9.695  69.418  1.00  0.00    -0.035 OA 
HETATM   39  O   UNL     1      -7.121   8.735  67.508  1.00  0.00    -0.077 OA 
BRANCH  37  40
HETATM   40  O   UNL     1      -5.440   7.537  68.478  1.00  0.00    -0.024 OA 
BRANCH  40  41
HETATM   41  C   UNL     1      -5.418   7.431  69.901  1.00  0.00    -0.023 C  
BRANCH  41  42
HETATM   42  C   UNL     1      -6.471   6.422  70.375  1.00  0.00    -0.044 C  
HETATM   43  O   UNL     1      -7.741   6.808  69.834  1.00  0.00    -0.104 OA 
HETATM   44  C   UNL     1      -8.466   5.621  69.488  1.00  0.00    -0.110 C  
HETATM   45  C   UNL     1      -7.538   4.409  69.529  1.00  0.00    -0.054 C  
HETATM   46  H   UNL     1      -5.400   3.356  70.729  1.00  0.00     0.000 HD 
HETATM   47  C   UNL     1      -6.187   4.987  69.939  1.00  0.00    -0.026 C  
HETATM   48  O   UNL     1      -5.577   4.250  71.000  1.00  0.00    -0.011 OA 
HETATM   49  O   UNL     1      -7.971   3.421  70.482  1.00  0.00    -0.046 OA 
HETATM   50  H   UNL     1      -7.394   2.667  70.507  1.00  0.00     0.000 HD 
BRANCH  44  51
HETATM   51  N   UNL     1      -9.114   5.828  68.208  1.00  0.00    -0.117 NA 
HETATM   52  C   UNL     1     -10.204   6.611  67.940  1.00  0.00    -0.171 A  
HETATM   53  C   UNL     1     -10.058   5.175  66.361  1.00  0.00    -0.239 A  
HETATM   54  N   UNL     1     -10.820   6.224  66.841  1.00  0.00    -0.361 NA 
HETATM   55  C   UNL     1      -8.921   5.004  67.133  1.00  0.00    -0.112 A  
HETATM   56  N   UNL     1      -7.924   4.122  66.954  1.00  0.00    -0.097 NA 
HETATM   57  C   UNL     1      -8.176   3.344  65.881  1.00  0.00    -0.094 A  
HETATM   58  N   UNL     1      -9.266   3.343  65.083  1.00  0.00    -0.144 NA 
HETATM   59  C   UNL     1     -10.246   4.247  65.326  1.00  0.00    -0.217 A  
HETATM   60  N   UNL     1     -11.410   4.167  64.580  1.00  0.00    -0.917 NA 
HETATM   61  H2  UNL     1     -11.586   5.094  64.193  1.00  0.00     0.000 HD 
HETATM   62  H1  UNL     1     -11.546   3.492  63.827  1.00  0.00     0.000 HD 
ENDBRANCH  44  51
ENDBRANCH  41  42
ENDBRANCH  40  41
ENDBRANCH  37  40
ENDBRANCH  36  37
ENDBRANCH  33  36
ENDBRANCH  32  33
ENDBRANCH  31  32
ENDBRANCH  28  31
ENDBRANCH  25  28
ENDBRANCH  22  25
ENDBRANCH  21  22
ENDBRANCH   7  21
TORSDOF 13
ENDMDL
MODEL       56
REMARK 921   NORMALIZED FREE ENERGY PREDICTED BY IDOCK:   -4.71 KCAL/MOL
REMARK 922        TOTAL FREE ENERGY PREDICTED BY IDOCK:  -11.40 KCAL/MOL
REMARK 923 INTER-LIGAND FREE ENERGY PREDICTED BY IDOCK:   -8.77 KCAL/MOL
REMARK 924 INTRA-LIGAND FREE ENERGY PREDICTED BY IDOCK:   -2.63 KCAL/MOL
REMARK 927      BINDING AFFINITY PREDICTED BY RF-SCORE:    0.00 PKD
ROOT
HETATM    1  C   UNL     1      -5.969   8.676  63.650  1.00  0.00    -0.072 C  
HETATM    2  C   UNL     1      -6.720   8.430  64.929  1.00  0.00    -0.067 A  
HETATM    3  C   UNL     1      -6.069   7.768  65.982  1.00  0.00    -0.038 A  
HETATM    4  C   UNL     1      -6.661   7.639  67.242  1.00  0.00    -0.068 A  
HETATM    5  C   UNL     1      -7.893   8.272  67.500  1.00  0.00    -0.106 A  
HETATM    6  C   UNL     1      -8.596   8.814  66.412  1.00  0.00    -0.138 A  
HETATM    7  N   UNL     1      -8.389   8.305  68.822  1.00  0.00    -0.123 NA 
HETATM    8  H   UNL     1      -5.721   5.803  72.441  1.00  0.00     0.000 HD 
HETATM    9  C   UNL     1      -7.724   7.572  69.794  1.00  0.00    -0.095 A  
HETATM   10  C   UNL     1      -8.029   8.901  65.129  1.00  0.00    -0.122 A  
HETATM   11  C   UNL     1      -8.842   9.477  64.003  1.00  0.00    -0.243 C  
HETATM   12  O   UNL     1      -5.302   4.832  70.104  1.00  0.00    -0.003 OA 
HETATM   13  N   UNL     1      -8.053   7.595  71.055  1.00  0.00    -0.094 N  
HETATM   14  H   UNL     1      -8.807   8.216  71.349  1.00  0.00     0.000 HD 
HETATM   15  C   UNL     1      -6.546   6.735  69.381  1.00  0.00    -0.048 A  
HETATM   16  C   UNL     1      -7.441   6.833  71.997  1.00  0.00    -0.093 C  
HETATM   17  C   UNL     1      -5.955   5.818  70.401  1.00  0.00    -0.025 C  
HETATM   18  N   UNL     1      -6.005   6.837  68.201  1.00  0.00    -0.030 NA 
HETATM   19  N   UNL     1      -6.320   6.123  71.680  1.00  0.00    -0.044 N  
HETATM   20  O   UNL     1      -7.898   6.720  73.132  1.00  0.00    -0.097 OA 
ENDROOT
BRANCH   7  21
HETATM   21  C   UNL     1      -9.123   9.516  69.239  1.00  0.00    -0.161 C  
BRANCH  21  22
HETATM   22  C   UNL     1      -8.245  10.781  69.144  1.00  0.00    -0.120 C  
HETATM   23  O   UNL     1      -7.367  10.801  70.271  1.00  0.00    -0.452 OA 
HETATM   24  H   UNL     1      -6.826  11.581  70.212  1.00  0.00     0.000 HD 
BRANCH  22  25
HETATM   25  C   UNL     1      -9.159  12.017  69.078  1.00  0.00     0.352 C  
HETATM   26  H   UNL     1     -10.978  12.412  69.634  1.00  0.00     0.000 HD 
HETATM   27  O   UNL     1     -10.413  11.649  69.674  1.00  0.00     0.094 OA 
BRANCH  25  28
HETATM   28  C   UNL     1      -9.406  12.571  67.654  1.00  0.00    -0.189 C  
HETATM   29  H   UNL     1      -9.594  14.340  66.785  1.00  0.00     0.000 HD 
HETATM   30  O   UNL     1      -9.443  14.000  67.659  1.00  0.00    -0.200 OA 
BRANCH  28  31
HETATM   31  C   UNL     1     -10.717  12.028  67.052  1.00  0.00    -0.242 C  
BRANCH  31  32
HETATM   32  O   UNL     1     -11.535  13.087  66.603  1.00  0.00    -0.304 OA 
BRANCH  32  33
HETATM   33  P   UNL     1     -11.992  13.110  65.066  1.00  0.00    -0.441 P  
HETATM   34  O   UNL     1     -13.319  12.225  65.091  1.00  0.00    -0.096 OA 
HETATM   35  O   UNL     1     -11.006  12.516  64.099  1.00  0.00    -0.326 OA 
BRANCH  33  36
HETATM   36  O   UNL     1     -12.301  14.641  64.729  1.00  0.00    -0.427 OA 
BRANCH  36  37
HETATM   37  P   UNL     1     -11.285  15.945  65.241  1.00  0.00    -0.001 P  
HETATM   38  O   UNL     1      -9.955  15.030  65.007  1.00  0.00    -0.307 OA 
HETATM   39  O   UNL     1     -11.632  16.746  63.991  1.00  0.00    -1.195 OA 
BRANCH  37  40
HETATM   40  O   UNL     1     -10.269  17.249  65.750  1.00  0.00    -0.533 OA 
BRANCH  40  41
HETATM   41  C   UNL     1     -10.719  17.921  66.927  1.00  0.00    -0.176 C  
BRANCH  41  42
HETATM   42  C   UNL     1      -9.583  18.756  67.530  1.00  0.00    -0.301 C  
HETATM   43  O   UNL     1      -8.813  17.912  68.393  1.00  0.00    -0.278 OA 
HETATM   44  C   UNL     1      -7.431  18.275  68.269  1.00  0.00    -0.279 C  
HETATM   45  C   UNL     1      -7.238  19.197  67.068  1.00  0.00    -0.204 C  
HETATM   46  H   UNL     1      -8.389  21.092  65.582  1.00  0.00     0.000 HD 
HETATM   47  C   UNL     1      -8.641  19.354  66.488  1.00  0.00    -0.343 C  
HETATM   48  O   UNL     1      -8.976  20.720  66.231  1.00  0.00     0.154 OA 
HETATM   49  O   UNL     1      -6.705  20.480  67.443  1.00  0.00    -0.242 OA 
HETATM   50  H   UNL     1      -6.584  21.054  66.696  1.00  0.00     0.000 HD 
BRANCH  44  51
HETATM   51  N   UNL     1      -6.635  17.065  68.222  1.00  0.00    -0.152 NA 
HETATM   52  C   UNL     1      -6.575  16.143  67.212  1.00  0.00    -0.196 A  
HETATM   53  C   UNL     1      -5.904  15.168  68.995  1.00  0.00    -0.097 A  
HETATM   54  N   UNL     1      -6.164  14.970  67.652  1.00  0.00    -0.268 NA 
HETATM   55  C   UNL     1      -6.070  16.501  69.332  1.00  0.00    -0.182 A  
HETATM   56  N   UNL     1      -5.865  17.084  70.525  1.00  0.00    -0.037 NA 
HETATM   57  C   UNL     1      -5.481  16.165  71.435  1.00  0.00     0.243 A  
HETATM   58  N   UNL     1      -5.351  14.829  71.273  1.00  0.00    -0.137 NA 
HETATM   59  C   UNL     1      -5.587  14.300  70.049  1.00  0.00    -0.113 A  
HETATM   60  N   UNL     1      -5.563  12.922  69.916  1.00  0.00    -0.101 NA 
HETATM   61  H2  UNL     1      -4.937  12.702  69.142  1.00  0.00     0.000 HD 
HETATM   62  H1  UNL     1      -5.332  12.290  70.683  1.00  0.00     0.000 HD 
ENDBRANCH  44  51
ENDBRANCH  41  42
ENDBRANCH  40  41
ENDBRANCH  37  40
ENDBRANCH  36  37
ENDBRANCH  33  36
ENDBRANCH  32  33
ENDBRANCH  31  32
ENDBRANCH  28  31
ENDBRANCH  25  28
ENDBRANCH  22  25
ENDBRANCH  21  22
ENDBRANCH   7  21
TORSDOF 13
ENDMDL
MODEL       57
REMARK 921   NORMALIZED FREE ENERGY PREDICTED BY IDOCK:   -4.70 KCAL/MOL
REMARK 922        TOTAL FREE ENERGY PREDICTED BY IDOCK:  -11.38 KCAL/MOL
REMARK 923 INTER-LIGAND FREE ENERGY PREDICTED BY IDOCK:   -9.56 KCAL/MOL
REMARK 924 INTRA-LIGAND FREE ENERGY PREDICTED BY IDOCK:   -1.82 KCAL/MOL
REMARK 927      BINDING AFFINITY PREDICTED BY RF-SCORE:    0.00 PKD
ROOT
HETATM    1  C   UNL     1     -11.277  16.791  67.752  1.00  0.00    -0.026 C  
HETATM    2  C   UNL     1     -11.272  15.289  67.800  1.00  0.00    -0.327 A  
HETATM    3  C   UNL     1     -10.740  14.577  66.714  1.00  0.00    -0.291 A  
HETATM    4  C   UNL     1     -10.572  13.189  66.760  1.00  0.00    -0.263 A  
HETATM    5  C   UNL     1     -10.845  12.495  67.956  1.00  0.00    -0.225 A  
HETATM    6  C   UNL     1     -11.500  13.189  68.986  1.00  0.00    -0.345 A  
HETATM    7  N   UNL     1     -10.490  11.132  68.059  1.00  0.00    -0.181 NA 
HETATM    8  H   UNL     1      -8.525   8.849  63.887  1.00  0.00     0.000 HD 
HETATM    9  C   UNL     1     -10.031  10.482  66.922  1.00  0.00    -0.200 A  
HETATM   10  C   UNL     1     -11.718  14.576  68.926  1.00  0.00    -0.354 A  
HETATM   11  C   UNL     1     -12.441  15.256  70.057  1.00  0.00    -0.330 C  
HETATM   12  O   UNL     1      -9.989  10.863  63.271  1.00  0.00    -0.322 OA 
HETATM   13  N   UNL     1      -9.607   9.250  66.926  1.00  0.00    -0.163 N  
HETATM   14  H   UNL     1      -9.567   8.753  67.817  1.00  0.00     0.000 HD 
HETATM   15  C   UNL     1      -9.991  11.245  65.627  1.00  0.00    -0.247 A  
HETATM   16  C   UNL     1      -9.214   8.595  65.804  1.00  0.00    -0.181 C  
HETATM   17  C   UNL     1      -9.666  10.482  64.384  1.00  0.00    -0.328 C  
HETATM   18  N   UNL     1     -10.167  12.534  65.578  1.00  0.00    -0.273 NA 
HETATM   19  N   UNL     1      -9.086   9.272  64.627  1.00  0.00    -0.178 N  
HETATM   20  O   UNL     1      -9.013   7.383  65.802  1.00  0.00    -0.127 OA 
ENDROOT
BRANCH   7  21
HETATM   21  C   UNL     1     -10.024  10.652  69.374  1.00  0.00    -0.158 C  
BRANCH  21  22
HETATM   22  C   UNL     1     -10.918   9.520  69.921  1.00  0.00    -0.238 C  
HETATM   23  O   UNL     1     -11.165   8.594  68.861  1.00  0.00    -0.413 OA 
HETATM   24  H   UNL     1     -11.716   7.897  69.199  1.00  0.00     0.000 HD 
BRANCH  22  25
HETATM   25  C   UNL     1     -12.210  10.135  70.488  1.00  0.00    -0.264 C  
HETATM   26  H   UNL     1     -12.617  11.578  71.723  1.00  0.00     0.000 HD 
HETATM   27  O   UNL     1     -11.820  11.199  71.373  1.00  0.00    -0.006 OA 
BRANCH  25  28
HETATM   28  C   UNL     1     -13.127   9.144  71.244  1.00  0.00    -0.240 C  
HETATM   29  H   UNL     1     -14.234   9.137  72.886  1.00  0.00     0.000 HD 
HETATM   30  O   UNL     1     -13.671   9.746  72.422  1.00  0.00    -0.376 OA 
BRANCH  28  31
HETATM   31  C   UNL     1     -12.377   7.854  71.629  1.00  0.00    -0.315 C  
BRANCH  31  32
HETATM   32  O   UNL     1     -11.556   8.072  72.756  1.00  0.00    -0.405 OA 
BRANCH  32  33
HETATM   33  P   UNL     1     -10.273   7.134  72.969  1.00  0.00    -0.321 P  
HETATM   34  O   UNL     1     -10.483   6.010  71.858  1.00  0.00    -0.207 OA 
HETATM   35  O   UNL     1     -10.171   6.493  74.325  1.00  0.00    -0.339 OA 
BRANCH  33  36
HETATM   36  O   UNL     1      -9.007   8.056  72.655  1.00  0.00    -0.173 OA 
BRANCH  36  37
HETATM   37  P   UNL     1      -7.912   7.748  71.351  1.00  0.00    -0.105 P  
HETATM   38  O   UNL     1      -7.250   9.229  71.529  1.00  0.00    -0.308 OA 
HETATM   39  O   UNL     1      -7.169   6.708  72.180  1.00  0.00    -0.079 OA 
BRANCH  37  40
HETATM   40  O   UNL     1      -6.816   7.440  70.048  1.00  0.00    -0.052 OA 
BRANCH  40  41
HETATM   41  C   UNL     1      -5.785   6.503  70.356  1.00  0.00    -0.023 C  
BRANCH  41  42
HETATM   42  C   UNL     1      -5.905   5.266  69.457  1.00  0.00    -0.016 C  
HETATM   43  O   UNL     1      -6.095   4.118  70.293  1.00  0.00    -0.017 OA 
HETATM   44  C   UNL     1      -7.010   3.228  69.641  1.00  0.00    -0.041 C  
HETATM   45  C   UNL     1      -7.678   3.934  68.463  1.00  0.00    -0.061 C  
HETATM   46  H   UNL     1      -7.339   5.780  66.567  1.00  0.00     0.000 HD 
HETATM   47  C   UNL     1      -7.070   5.333  68.472  1.00  0.00    -0.062 C  
HETATM   48  O   UNL     1      -6.614   5.739  67.180  1.00  0.00    -0.052 OA 
HETATM   49  O   UNL     1      -7.411   3.279  67.210  1.00  0.00    -0.058 OA 
HETATM   50  H   UNL     1      -7.827   3.718  66.477  1.00  0.00     0.000 HD 
BRANCH  44  51
HETATM   51  N   UNL     1      -7.939   2.711  70.626  1.00  0.00    -0.042 NA 
HETATM   52  C   UNL     1      -9.198   2.221  70.411  1.00  0.00    -0.119 A  
HETATM   53  C   UNL     1      -9.091   2.798  72.468  1.00  0.00    -0.083 A  
HETATM   54  N   UNL     1      -9.936   2.287  71.501  1.00  0.00    -0.130 NA 
HETATM   55  C   UNL     1      -7.809   2.944  71.967  1.00  0.00    -0.054 A  
HETATM   56  N   UNL     1      -6.710   3.365  72.616  1.00  0.00    -0.028 NA 
HETATM   57  C   UNL     1      -7.014   3.682  73.892  1.00  0.00    -0.047 A  
HETATM   58  N   UNL     1      -8.223   3.664  74.495  1.00  0.00    -0.084 NA 
HETATM   59  C   UNL     1      -9.295   3.243  73.783  1.00  0.00    -0.091 A  
HETATM   60  N   UNL     1     -10.547   3.334  74.367  1.00  0.00    -0.192 NA 
HETATM   61  H2  UNL     1     -10.987   2.418  74.285  1.00  0.00     0.000 HD 
HETATM   62  H1  UNL     1     -10.695   3.658  75.324  1.00  0.00     0.000 HD 
ENDBRANCH  44  51
ENDBRANCH  41  42
ENDBRANCH  40  41
ENDBRANCH  37  40
ENDBRANCH  36  37
ENDBRANCH  33  36
ENDBRANCH  32  33
ENDBRANCH  31  32
ENDBRANCH  28  31
ENDBRANCH  25  28
ENDBRANCH  22  25
ENDBRANCH  21  22
ENDBRANCH   7  21
TORSDOF 13
ENDMDL
MODEL       58
REMARK 921   NORMALIZED FREE ENERGY PREDICTED BY IDOCK:   -4.65 KCAL/MOL
REMARK 922        TOTAL FREE ENERGY PREDICTED BY IDOCK:  -11.29 KCAL/MOL
REMARK 923 INTER-LIGAND FREE ENERGY PREDICTED BY IDOCK:   -7.91 KCAL/MOL
REMARK 924 INTRA-LIGAND FREE ENERGY PREDICTED BY IDOCK:   -3.38 KCAL/MOL
REMARK 927      BINDING AFFINITY PREDICTED BY RF-SCORE:    0.00 PKD
ROOT
HETATM    1  C   UNL     1     -11.940  15.966  70.316  1.00  0.00    -0.324 C  
HETATM    2  C   UNL     1     -11.405  14.798  69.534  1.00  0.00    -0.312 A  
HETATM    3  C   UNL     1     -11.569  13.503  70.050  1.00  0.00    -0.234 A  
HETATM    4  C   UNL     1     -11.226  12.370  69.305  1.00  0.00    -0.201 A  
HETATM    5  C   UNL     1     -10.800  12.518  67.970  1.00  0.00    -0.225 A  
HETATM    6  C   UNL     1     -10.512  13.813  67.510  1.00  0.00    -0.245 A  
HETATM    7  N   UNL     1     -10.645  11.369  67.164  1.00  0.00    -0.230 NA 
HETATM    8  H   UNL     1     -11.366   6.779  69.376  1.00  0.00     0.000 HD 
HETATM    9  C   UNL     1     -10.759  10.123  67.763  1.00  0.00    -0.277 A  
HETATM   10  C   UNL     1     -10.807  14.956  68.272  1.00  0.00    -0.257 A  
HETATM   11  C   UNL     1     -10.456  16.314  67.727  1.00  0.00    -0.295 C  
HETATM   12  O   UNL     1     -10.692   8.568  71.088  1.00  0.00    -0.217 OA 
HETATM   13  N   UNL     1     -10.709   9.003  67.097  1.00  0.00    -0.334 N  
HETATM   14  H   UNL     1     -10.625   9.046  66.082  1.00  0.00     0.000 HD 
HETATM   15  C   UNL     1     -10.986  10.059  69.248  1.00  0.00    -0.228 A  
HETATM   16  C   UNL     1     -10.762   7.783  67.690  1.00  0.00    -0.157 C  
HETATM   17  C   UNL     1     -10.930   8.716  69.900  1.00  0.00    -0.168 C  
HETATM   18  N   UNL     1     -11.286  11.115  69.948  1.00  0.00    -0.279 NA 
HETATM   19  N   UNL     1     -11.047   7.681  69.020  1.00  0.00     0.074 N  
HETATM   20  O   UNL     1     -10.510   6.753  67.069  1.00  0.00    -0.235 OA 
ENDROOT
BRANCH   7  21
HETATM   21  C   UNL     1     -10.992  11.492  65.735  1.00  0.00    -0.246 C  
BRANCH  21  22
HETATM   22  C   UNL     1      -9.765  11.863  64.876  1.00  0.00    -0.137 C  
HETATM   23  O   UNL     1     -10.202  12.045  63.528  1.00  0.00    -0.406 OA 
HETATM   24  H   UNL     1      -9.446  12.274  62.999  1.00  0.00     0.000 HD 
BRANCH  22  25
HETATM   25  C   UNL     1      -8.706  10.754  65.015  1.00  0.00    -0.151 C  
HETATM   26  H   UNL     1      -6.932  10.639  65.796  1.00  0.00     0.000 HD 
HETATM   27  O   UNL     1      -7.585  11.323  65.710  1.00  0.00     0.059 OA 
BRANCH  25  28
HETATM   28  C   UNL     1      -8.228  10.139  63.678  1.00  0.00    -0.166 C  
HETATM   29  H   UNL     1      -9.020   9.144  62.160  1.00  0.00     0.000 HD 
HETATM   30  O   UNL     1      -9.314   9.522  62.981  1.00  0.00    -0.155 OA 
BRANCH  28  31
HETATM   31  C   UNL     1      -7.107   9.103  63.896  1.00  0.00    -0.093 C  
BRANCH  31  32
HETATM   32  O   UNL     1      -7.627   7.792  63.868  1.00  0.00    -0.103 OA 
BRANCH  32  33
HETATM   33  P   UNL     1      -6.614   6.565  63.672  1.00  0.00    -0.042 P  
HETATM   34  O   UNL     1      -5.567   6.794  64.853  1.00  0.00    -0.029 OA 
HETATM   35  O   UNL     1      -5.893   6.538  62.353  1.00  0.00    -0.029 OA 
BRANCH  33  36
HETATM   36  O   UNL     1      -7.487   5.244  63.894  1.00  0.00    -0.054 OA 
BRANCH  36  37
HETATM   37  P   UNL     1      -7.316   4.219  65.277  1.00  0.00    -0.074 P  
HETATM   38  O   UNL     1      -8.063   5.324  66.216  1.00  0.00    -0.107 OA 
HETATM   39  O   UNL     1      -8.311   3.221  64.699  1.00  0.00    -0.090 OA 
BRANCH  37  40
HETATM   40  O   UNL     1      -7.146   3.193  66.660  1.00  0.00    -0.053 OA 
BRANCH  40  41
HETATM   41  C   UNL     1      -6.424   3.778  67.742  1.00  0.00    -0.038 C  
BRANCH  41  42
HETATM   42  C   UNL     1      -7.255   3.722  69.029  1.00  0.00    -0.050 C  
HETATM   43  O   UNL     1      -6.627   4.558  70.008  1.00  0.00    -0.031 OA 
HETATM   44  C   UNL     1      -7.650   5.210  70.772  1.00  0.00    -0.079 C  
HETATM   45  C   UNL     1      -9.006   5.028  70.095  1.00  0.00    -0.111 C  
HETATM   46  H   UNL     1     -10.475   3.383  68.592  1.00  0.00     0.000 HD 
HETATM   47  C   UNL     1      -8.695   4.199  68.852  1.00  0.00    -0.092 C  
HETATM   48  O   UNL     1      -9.579   3.087  68.702  1.00  0.00    -0.164 OA 
HETATM   49  O   UNL     1      -9.949   4.337  70.934  1.00  0.00    -0.197 OA 
HETATM   50  H   UNL     1     -10.793   4.225  70.513  1.00  0.00     0.000 HD 
BRANCH  44  51
HETATM   51  N   UNL     1      -7.270   6.594  70.975  1.00  0.00    -0.076 NA 
HETATM   52  C   UNL     1      -7.380   7.331  72.122  1.00  0.00    -0.079 A  
HETATM   53  C   UNL     1      -7.264   8.715  70.494  1.00  0.00    -0.053 A  
HETATM   54  N   UNL     1      -7.410   8.624  71.865  1.00  0.00    -0.212 NA 
HETATM   55  C   UNL     1      -7.045   7.463  69.943  1.00  0.00    -0.065 A  
HETATM   56  N   UNL     1      -6.814   7.155  68.656  1.00  0.00    -0.073 NA 
HETATM   57  C   UNL     1      -6.847   8.269  67.895  1.00  0.00    -0.066 A  
HETATM   58  N   UNL     1      -7.120   9.536  68.276  1.00  0.00    -0.074 NA 
HETATM   59  C   UNL     1      -7.361   9.780  69.587  1.00  0.00    -0.103 A  
HETATM   60  N   UNL     1      -7.752  11.056  69.954  1.00  0.00    -0.330 NA 
HETATM   61  H2  UNL     1      -7.137  11.356  70.711  1.00  0.00     0.000 HD 
HETATM   62  H1  UNL     1      -7.822  11.831  69.294  1.00  0.00     0.000 HD 
ENDBRANCH  44  51
ENDBRANCH  41  42
ENDBRANCH  40  41
ENDBRANCH  37  40
ENDBRANCH  36  37
ENDBRANCH  33  36
ENDBRANCH  32  33
ENDBRANCH  31  32
ENDBRANCH  28  31
ENDBRANCH  25  28
ENDBRANCH  22  25
ENDBRANCH  21  22
ENDBRANCH   7  21
TORSDOF 13
ENDMDL
MODEL       59
REMARK 921   NORMALIZED FREE ENERGY PREDICTED BY IDOCK:   -4.39 KCAL/MOL
REMARK 922        TOTAL FREE ENERGY PREDICTED BY IDOCK:  -10.84 KCAL/MOL
REMARK 923 INTER-LIGAND FREE ENERGY PREDICTED BY IDOCK:   -9.16 KCAL/MOL
REMARK 924 INTRA-LIGAND FREE ENERGY PREDICTED BY IDOCK:   -1.68 KCAL/MOL
REMARK 927      BINDING AFFINITY PREDICTED BY RF-SCORE:    0.00 PKD
ROOT
HETATM    1  C   UNL     1     -12.382  14.374  64.043  1.00  0.00    -0.243 C  
HETATM    2  C   UNL     1     -11.179  14.701  64.882  1.00  0.00    -0.400 A  
HETATM    3  C   UNL     1     -10.902  16.045  65.178  1.00  0.00    -0.411 A  
HETATM    4  C   UNL     1      -9.888  16.404  66.071  1.00  0.00    -0.335 A  
HETATM    5  C   UNL     1      -9.190  15.400  66.772  1.00  0.00    -0.249 A  
HETATM    6  C   UNL     1      -9.378  14.067  66.374  1.00  0.00    -0.242 A  
HETATM    7  N   UNL     1      -8.309  15.770  67.812  1.00  0.00    -0.152 NA 
HETATM    8  H   UNL     1      -7.563  20.792  68.645  1.00  0.00     0.000 HD 
HETATM    9  C   UNL     1      -8.037  17.118  67.998  1.00  0.00    -0.210 A  
HETATM   10  C   UNL     1     -10.362  13.702  65.438  1.00  0.00    -0.345 A  
HETATM   11  C   UNL     1     -10.500  12.257  65.043  1.00  0.00    -0.322 C  
HETATM   12  O   UNL     1      -8.298  20.325  66.232  1.00  0.00    -0.242 OA 
HETATM   13  N   UNL     1      -7.300  17.569  68.974  1.00  0.00    -0.233 N  
HETATM   14  H   UNL     1      -6.942  16.904  69.659  1.00  0.00     0.000 HD 
HETATM   15  C   UNL     1      -8.649  18.111  67.050  1.00  0.00    -0.254 A  
HETATM   16  C   UNL     1      -6.986  18.881  69.123  1.00  0.00    -0.281 C  
HETATM   17  C   UNL     1      -8.206  19.533  67.155  1.00  0.00    -0.277 C  
HETATM   18  N   UNL     1      -9.579  17.775  66.203  1.00  0.00    -0.502 NA 
HETATM   19  N   UNL     1      -7.583  19.820  68.335  1.00  0.00    -0.316 N  
HETATM   20  O   UNL     1      -6.131  19.253  69.923  1.00  0.00    -0.259 OA 
ENDROOT
BRANCH   7  21
HETATM   21  C   UNL     1      -8.226  14.871  68.979  1.00  0.00    -0.168 C  
BRANCH  21  22
HETATM   22  C   UNL     1      -6.893  14.094  69.012  1.00  0.00    -0.110 C  
HETATM   23  O   UNL     1      -5.898  14.886  68.358  1.00  0.00    -0.092 OA 
HETATM   24  H   UNL     1      -5.078  14.407  68.378  1.00  0.00     0.000 HD 
BRANCH  22  25
HETATM   25  C   UNL     1      -7.099  12.724  68.342  1.00  0.00    -0.102 C  
HETATM   26  H   UNL     1      -8.551  11.436  68.268  1.00  0.00     0.000 HD 
HETATM   27  O   UNL     1      -8.423  12.281  68.681  1.00  0.00    -0.108 OA 
BRANCH  25  28
HETATM   28  C   UNL     1      -6.072  11.639  68.747  1.00  0.00    -0.050 C  
HETATM   29  H   UNL     1      -5.713   9.737  68.331  1.00  0.00     0.000 HD 
HETATM   30  O   UNL     1      -6.344  10.403  68.083  1.00  0.00    -0.051 OA 
BRANCH  28  31
HETATM   31  C   UNL     1      -6.057  11.409  70.271  1.00  0.00    -0.145 C  
BRANCH  31  32
HETATM   32  O   UNL     1      -7.026  10.453  70.639  1.00  0.00    -0.324 OA 
BRANCH  32  33
HETATM   33  P   UNL     1      -6.698   9.446  71.844  1.00  0.00     0.633 P  
HETATM   34  O   UNL     1      -8.149   8.936  72.268  1.00  0.00    -0.376 OA 
HETATM   35  O   UNL     1      -6.015  10.072  73.028  1.00  0.00    -0.025 OA 
BRANCH  33  36
HETATM   36  O   UNL     1      -5.817   8.278  71.203  1.00  0.00    -0.033 OA 
BRANCH  36  37
HETATM   37  P   UNL     1      -6.502   6.872  70.465  1.00  0.00    -0.053 P  
HETATM   38  O   UNL     1      -6.873   7.729  69.126  1.00  0.00    -0.047 OA 
HETATM   39  O   UNL     1      -5.127   6.226  70.345  1.00  0.00    -0.012 OA 
BRANCH  37  40
HETATM   40  O   UNL     1      -7.187   5.465  69.725  1.00  0.00    -0.061 OA 
BRANCH  40  41
HETATM   41  C   UNL     1      -7.354   5.566  68.312  1.00  0.00    -0.073 C  
BRANCH  41  42
HETATM   42  C   UNL     1      -8.820   5.321  67.931  1.00  0.00    -0.105 C  
HETATM   43  O   UNL     1      -9.569   5.112  69.134  1.00  0.00    -0.124 OA 
HETATM   44  C   UNL     1     -10.857   5.722  68.978  1.00  0.00    -0.260 C  
HETATM   45  C   UNL     1     -10.867   6.618  67.742  1.00  0.00    -0.294 C  
HETATM   46  H   UNL     1      -9.861   6.941  65.291  1.00  0.00     0.000 HD 
HETATM   47  C   UNL     1      -9.458   6.480  67.170  1.00  0.00    -0.131 C  
HETATM   48  O   UNL     1      -9.463   6.220  65.765  1.00  0.00     0.000 OA 
HETATM   49  O   UNL     1     -11.844   6.201  66.772  1.00  0.00    -0.053 OA 
HETATM   50  H   UNL     1     -11.851   6.758  66.003  1.00  0.00     0.000 HD 
BRANCH  44  51
HETATM   51  N   UNL     1     -11.200   6.406  70.209  1.00  0.00    -0.351 NA 
HETATM   52  C   UNL     1     -11.377   7.750  70.396  1.00  0.00    -0.207 A  
HETATM   53  C   UNL     1     -10.948   6.901  72.312  1.00  0.00    -0.242 A  
HETATM   54  N   UNL     1     -11.202   8.091  71.657  1.00  0.00    -0.247 NA 
HETATM   55  C   UNL     1     -11.072   5.830  71.442  1.00  0.00    -0.204 A  
HETATM   56  N   UNL     1     -10.947   4.521  71.719  1.00  0.00     0.262 NA 
HETATM   57  C   UNL     1     -10.636   4.346  73.020  1.00  0.00    -0.195 A  
HETATM   58  N   UNL     1     -10.410   5.288  73.962  1.00  0.00    -0.246 NA 
HETATM   59  C   UNL     1     -10.537   6.592  73.617  1.00  0.00    -0.286 A  
HETATM   60  N   UNL     1     -10.194   7.554  74.552  1.00  0.00    -0.007 NA 
HETATM   61  H2  UNL     1     -10.980   8.200  74.626  1.00  0.00     0.000 HD 
HETATM   62  H1  UNL     1      -9.896   7.329  75.501  1.00  0.00     0.000 HD 
ENDBRANCH  44  51
ENDBRANCH  41  42
ENDBRANCH  40  41
ENDBRANCH  37  40
ENDBRANCH  36  37
ENDBRANCH  33  36
ENDBRANCH  32  33
ENDBRANCH  31  32
ENDBRANCH  28  31
ENDBRANCH  25  28
ENDBRANCH  22  25
ENDBRANCH  21  22
ENDBRANCH   7  21
TORSDOF 13
ENDMDL
MODEL       60
REMARK 921   NORMALIZED FREE ENERGY PREDICTED BY IDOCK:   -4.36 KCAL/MOL
REMARK 922        TOTAL FREE ENERGY PREDICTED BY IDOCK:  -10.78 KCAL/MOL
REMARK 923 INTER-LIGAND FREE ENERGY PREDICTED BY IDOCK:   -9.40 KCAL/MOL
REMARK 924 INTRA-LIGAND FREE ENERGY PREDICTED BY IDOCK:   -1.38 KCAL/MOL
REMARK 927      BINDING AFFINITY PREDICTED BY RF-SCORE:    0.00 PKD
ROOT
HETATM    1  C   UNL     1     -11.019   5.934  72.033  1.00  0.00    -0.319 C  
HETATM    2  C   UNL     1     -10.001   5.950  70.927  1.00  0.00    -0.238 A  
HETATM    3  C   UNL     1     -10.195   5.117  69.813  1.00  0.00    -0.357 A  
HETATM    4  C   UNL     1      -9.366   5.193  68.689  1.00  0.00    -0.125 A  
HETATM    5  C   UNL     1      -8.375   6.193  68.622  1.00  0.00    -0.114 A  
HETATM    6  C   UNL     1      -8.101   6.928  69.787  1.00  0.00    -0.126 A  
HETATM    7  N   UNL     1      -7.675   6.390  67.411  1.00  0.00    -0.103 NA 
HETATM    8  H   UNL     1      -8.669   3.173  63.520  1.00  0.00     0.000 HD 
HETATM    9  C   UNL     1      -7.875   5.485  66.379  1.00  0.00    -0.100 A  
HETATM   10  C   UNL     1      -8.898   6.821  70.939  1.00  0.00    -0.146 A  
HETATM   11  C   UNL     1      -8.540   7.625  72.158  1.00  0.00    -0.148 C  
HETATM   12  O   UNL     1      -9.190   2.108  65.796  1.00  0.00    -0.100 OA 
HETATM   13  N   UNL     1      -7.338   5.619  65.199  1.00  0.00    -0.073 N  
HETATM   14  H   UNL     1      -6.781   6.452  65.011  1.00  0.00     0.000 HD 
HETATM   15  C   UNL     1      -8.780   4.309  66.621  1.00  0.00    -0.113 A  
HETATM   16  C   UNL     1      -7.485   4.703  64.208  1.00  0.00    -0.071 C  
HETATM   17  C   UNL     1      -8.842   3.255  65.565  1.00  0.00    -0.136 C  
HETATM   18  N   UNL     1      -9.538   4.226  67.676  1.00  0.00    -0.173 NA 
HETATM   19  N   UNL     1      -8.359   3.667  64.358  1.00  0.00    -0.093 N  
HETATM   20  O   UNL     1      -6.810   4.749  63.182  1.00  0.00    -0.036 OA 
ENDROOT
BRANCH   7  21
HETATM   21  C   UNL     1      -7.301   7.775  67.065  1.00  0.00    -0.091 C  
BRANCH  21  22
HETATM   22  C   UNL     1      -8.534   8.629  66.703  1.00  0.00    -0.112 C  
HETATM   23  O   UNL     1      -8.113   9.670  65.820  1.00  0.00    -0.109 OA 
HETATM   24  H   UNL     1      -8.873  10.197  65.597  1.00  0.00     0.000 HD 
BRANCH  22  25
HETATM   25  C   UNL     1      -9.164   9.167  68.001  1.00  0.00    -0.134 C  
HETATM   26  H   UNL     1     -10.963   9.235  68.729  1.00  0.00     0.000 HD 
HETATM   27  O   UNL     1     -10.574   8.903  67.929  1.00  0.00    -0.230 OA 
BRANCH  25  28
HETATM   28  C   UNL     1      -8.934  10.676  68.260  1.00  0.00    -0.143 C  
HETATM   29  H   UNL     1      -7.398  11.892  68.548  1.00  0.00     0.000 HD 
HETATM   30  O   UNL     1      -7.539  10.966  68.388  1.00  0.00    -0.093 OA 
BRANCH  28  31
HETATM   31  C   UNL     1      -9.674  11.156  69.524  1.00  0.00     0.322 C  
BRANCH  31  32
HETATM   32  O   UNL     1     -11.052  11.312  69.265  1.00  0.00    -0.226 OA 
BRANCH  32  33
HETATM   33  P   UNL     1     -12.097  11.018  70.445  1.00  0.00    -0.402 P  
HETATM   34  O   UNL     1     -11.399   9.817  71.228  1.00  0.00    -0.361 OA 
HETATM   35  O   UNL     1     -13.468  10.598  69.992  1.00  0.00     0.134 OA 
BRANCH  33  36
HETATM   36  O   UNL     1     -12.149  12.353  71.321  1.00  0.00    -0.026 OA 
BRANCH  36  37
HETATM   37  P   UNL     1     -11.962  13.935  70.645  1.00  0.00    -0.162 P  
HETATM   38  O   UNL     1     -12.676  13.452  69.260  1.00  0.00     0.177 OA 
HETATM   39  O   UNL     1     -12.981  14.507  71.623  1.00  0.00    -0.306 OA 
BRANCH  37  40
HETATM   40  O   UNL     1     -11.776  15.517  69.970  1.00  0.00    -0.295 OA 
BRANCH  40  41
HETATM   41  C   UNL     1     -10.449  16.037  70.045  1.00  0.00    -0.258 C  
BRANCH  41  42
HETATM   42  C   UNL     1      -9.437  14.984  69.576  1.00  0.00    -0.073 C  
HETATM   43  O   UNL     1     -10.001  14.285  68.459  1.00  0.00    -0.226 OA 
HETATM   44  C   UNL     1      -8.952  14.002  67.524  1.00  0.00    -0.195 C  
HETATM   45  C   UNL     1      -7.697  14.791  67.891  1.00  0.00    -0.137 C  
HETATM   46  H   UNL     1      -6.298  15.820  69.917  1.00  0.00     0.000 HD 
HETATM   47  C   UNL     1      -8.097  15.571  69.140  1.00  0.00    -0.244 C  
HETATM   48  O   UNL     1      -7.133  15.455  70.188  1.00  0.00    -0.063 OA 
HETATM   49  O   UNL     1      -6.575  13.935  68.172  1.00  0.00    -0.097 OA 
HETATM   50  H   UNL     1      -5.794  14.426  68.400  1.00  0.00     0.000 HD 
BRANCH  44  51
HETATM   51  N   UNL     1      -9.441  14.257  66.184  1.00  0.00    -0.260 NA 
HETATM   52  C   UNL     1      -9.666  15.470  65.593  1.00  0.00    -0.320 A  
HETATM   53  C   UNL     1     -10.836  14.028  64.531  1.00  0.00    -0.347 A  
HETATM   54  N   UNL     1     -10.531  15.374  64.604  1.00  0.00    -0.253 NA 
HETATM   55  C   UNL     1     -10.065  13.305  65.426  1.00  0.00    -0.253 A  
HETATM   56  N   UNL     1     -10.043  11.974  65.612  1.00  0.00    -0.238 NA 
HETATM   57  C   UNL     1     -10.937  11.374  64.799  1.00  0.00    -0.234 A  
HETATM   58  N   UNL     1     -11.803  11.949  63.936  1.00  0.00    -0.418 NA 
HETATM   59  C   UNL     1     -11.787  13.297  63.804  1.00  0.00    -0.467 A  
HETATM   60  N   UNL     1     -12.752  13.889  63.007  1.00  0.00    -0.685 NA 
HETATM   61  H2  UNL     1     -12.268  14.498  62.347  1.00  0.00     0.000 HD 
HETATM   62  H1  UNL     1     -13.443  13.357  62.478  1.00  0.00     0.000 HD 
ENDBRANCH  44  51
ENDBRANCH  41  42
ENDBRANCH  40  41
ENDBRANCH  37  40
ENDBRANCH  36  37
ENDBRANCH  33  36
ENDBRANCH  32  33
ENDBRANCH  31  32
ENDBRANCH  28  31
ENDBRANCH  25  28
ENDBRANCH  22  25
ENDBRANCH  21  22
ENDBRANCH   7  21
TORSDOF 13
ENDMDL
MODEL       61
REMARK 921   NORMALIZED FREE ENERGY PREDICTED BY IDOCK:   -4.34 KCAL/MOL
REMARK 922        TOTAL FREE ENERGY PREDICTED BY IDOCK:  -10.75 KCAL/MOL
REMARK 923 INTER-LIGAND FREE ENERGY PREDICTED BY IDOCK:  -10.74 KCAL/MOL
REMARK 924 INTRA-LIGAND FREE ENERGY PREDICTED BY IDOCK:   -0.01 KCAL/MOL
REMARK 927      BINDING AFFINITY PREDICTED BY RF-SCORE:    0.00 PKD
ROOT
HETATM    1  C   UNL     1     -12.492  13.138  64.891  1.00  0.00    -0.490 C  
HETATM    2  C   UNL     1     -11.326  13.806  65.564  1.00  0.00    -0.313 A  
HETATM    3  C   UNL     1     -11.318  15.205  65.679  1.00  0.00    -0.255 A  
HETATM    4  C   UNL     1     -10.338  15.873  66.421  1.00  0.00    -0.306 A  
HETATM    5  C   UNL     1      -9.394  15.129  67.155  1.00  0.00    -0.212 A  
HETATM    6  C   UNL     1      -9.325  13.744  66.929  1.00  0.00    -0.267 A  
HETATM    7  N   UNL     1      -8.535  15.799  68.054  1.00  0.00    -0.159 NA 
HETATM    8  H   UNL     1      -8.807  20.934  68.245  1.00  0.00     0.000 HD 
HETATM    9  C   UNL     1      -8.541  17.187  68.061  1.00  0.00    -0.227 A  
HETATM   10  C   UNL     1     -10.277  13.072  66.143  1.00  0.00    -0.288 A  
HETATM   11  C   UNL     1     -10.135  11.590  65.927  1.00  0.00    -0.271 C  
HETATM   12  O   UNL     1      -9.606  20.020  65.985  1.00  0.00    -0.409 OA 
HETATM   13  N   UNL     1      -7.845  17.899  68.902  1.00  0.00    -0.234 N  
HETATM   14  H   UNL     1      -7.304  17.414  69.618  1.00  0.00     0.000 HD 
HETATM   15  C   UNL     1      -9.418  17.905  67.075  1.00  0.00    -0.272 A  
HETATM   16  C   UNL     1      -7.805  19.255  68.872  1.00  0.00    -0.332 C  
HETATM   17  C   UNL     1      -9.280  19.389  66.977  1.00  0.00    -0.318 C  
HETATM   18  N   UNL     1     -10.318  17.283  66.368  1.00  0.00    -0.333 NA 
HETATM   19  N   UNL     1      -8.645  19.946  68.049  1.00  0.00    -0.294 N  
HETATM   20  O   UNL     1      -6.991  19.892  69.536  1.00  0.00    -0.325 OA 
ENDROOT
BRANCH   7  21
HETATM   21  C   UNL     1      -8.176  15.095  69.300  1.00  0.00    -0.216 C  
BRANCH  21  22
HETATM   22  C   UNL     1      -6.650  15.059  69.520  1.00  0.00    -0.155 C  
HETATM   23  O   UNL     1      -6.149  16.391  69.394  1.00  0.00    -0.154 OA 
HETATM   24  H   UNL     1      -5.208  16.369  69.530  1.00  0.00     0.000 HD 
BRANCH  22  25
HETATM   25  C   UNL     1      -6.023  14.088  68.504  1.00  0.00    -0.092 C  
HETATM   26  H   UNL     1      -5.602  14.165  66.610  1.00  0.00     0.000 HD 
HETATM   27  O   UNL     1      -5.988  14.764  67.237  1.00  0.00    -0.305 OA 
BRANCH  25  28
HETATM   28  C   UNL     1      -6.764  12.738  68.350  1.00  0.00    -0.087 C  
HETATM   29  H   UNL     1      -7.135  11.139  69.457  1.00  0.00     0.000 HD 
HETATM   30  O   UNL     1      -6.680  11.968  69.552  1.00  0.00    -0.104 OA 
BRANCH  28  31
HETATM   31  C   UNL     1      -6.205  11.912  67.174  1.00  0.00    -0.154 C  
BRANCH  31  32
HETATM   32  O   UNL     1      -6.975  10.748  66.973  1.00  0.00    -0.088 OA 
BRANCH  32  33
HETATM   33  P   UNL     1      -6.252   9.433  66.406  1.00  0.00    -0.066 P  
HETATM   34  O   UNL     1      -5.426   8.925  67.672  1.00  0.00    -0.034 OA 
HETATM   35  O   UNL     1      -5.318   9.668  65.252  1.00  0.00    -0.043 OA 
BRANCH  33  36
HETATM   36  O   UNL     1      -7.430   8.426  66.016  1.00  0.00    -0.082 OA 
BRANCH  36  37
HETATM   37  P   UNL     1      -8.073   7.253  67.113  1.00  0.00    -0.116 P  
HETATM   38  O   UNL     1      -9.289   8.264  67.515  1.00  0.00    -0.138 OA 
HETATM   39  O   UNL     1      -8.470   6.343  65.957  1.00  0.00    -0.132 OA 
BRANCH  37  40
HETATM   40  O   UNL     1      -8.718   6.080  68.209  1.00  0.00    -0.114 OA 
BRANCH  40  41
HETATM   41  C   UNL     1      -8.020   4.835  68.216  1.00  0.00    -0.085 C  
BRANCH  41  42
HETATM   42  C   UNL     1      -8.101   4.187  69.604  1.00  0.00    -0.055 C  
HETATM   43  O   UNL     1      -7.903   5.208  70.590  1.00  0.00    -0.076 OA 
HETATM   44  C   UNL     1      -8.759   4.933  71.706  1.00  0.00    -0.128 C  
HETATM   45  C   UNL     1      -9.774   3.855  71.335  1.00  0.00    -0.176 C  
HETATM   46  H   UNL     1     -10.175   1.675  69.848  1.00  0.00     0.000 HD 
HETATM   47  C   UNL     1      -9.438   3.508  69.887  1.00  0.00    -0.184 C  
HETATM   48  O   UNL     1      -9.343   2.099  69.672  1.00  0.00    -0.112 OA 
HETATM   49  O   UNL     1      -9.661   2.687  72.169  1.00  0.00    -0.123 OA 
HETATM   50  H   UNL     1     -10.293   2.016  71.939  1.00  0.00     0.000 HD 
BRANCH  44  51
HETATM   51  N   UNL     1      -9.354   6.177  72.155  1.00  0.00    -0.152 NA 
HETATM   52  C   UNL     1      -9.203   6.783  73.372  1.00  0.00    -0.138 A  
HETATM   53  C   UNL     1     -11.010   7.540  72.512  1.00  0.00    -0.313 A  
HETATM   54  N   UNL     1     -10.206   7.596  73.636  1.00  0.00    -0.282 NA 
HETATM   55  C   UNL     1     -10.422   6.759  71.531  1.00  0.00    -0.213 A  
HETATM   56  N   UNL     1     -10.876   6.508  70.292  1.00  0.00    -0.255 NA 
HETATM   57  C   UNL     1     -12.065   7.116  70.097  1.00  0.00     0.072 A  
HETATM   58  N   UNL     1     -12.790   7.841  70.977  1.00  0.00    -0.132 NA 
HETATM   59  C   UNL     1     -12.285   8.046  72.217  1.00  0.00    -0.318 A  
HETATM   60  N   UNL     1     -13.079   8.690  73.150  1.00  0.00    -0.686 NA 
HETATM   61  H2  UNL     1     -12.531   9.457  73.539  1.00  0.00     0.000 HD 
HETATM   62  H1  UNL     1     -14.007   9.058  72.936  1.00  0.00     0.000 HD 
ENDBRANCH  44  51
ENDBRANCH  41  42
ENDBRANCH  40  41
ENDBRANCH  37  40
ENDBRANCH  36  37
ENDBRANCH  33  36
ENDBRANCH  32  33
ENDBRANCH  31  32
ENDBRANCH  28  31
ENDBRANCH  25  28
ENDBRANCH  22  25
ENDBRANCH  21  22
ENDBRANCH   7  21
TORSDOF 13
ENDMDL
MODEL       62
REMARK 921   NORMALIZED FREE ENERGY PREDICTED BY IDOCK:   -4.06 KCAL/MOL
REMARK 922        TOTAL FREE ENERGY PREDICTED BY IDOCK:  -10.26 KCAL/MOL
REMARK 923 INTER-LIGAND FREE ENERGY PREDICTED BY IDOCK:   -8.82 KCAL/MOL
REMARK 924 INTRA-LIGAND FREE ENERGY PREDICTED BY IDOCK:   -1.43 KCAL/MOL
REMARK 927      BINDING AFFINITY PREDICTED BY RF-SCORE:    0.00 PKD
ROOT
HETATM    1  C   UNL     1      -7.360  11.186  69.202  1.00  0.00    -0.115 C  
HETATM    2  C   UNL     1      -7.454   9.728  69.555  1.00  0.00    -0.101 A  
HETATM    3  C   UNL     1      -8.313   9.336  70.594  1.00  0.00    -0.245 A  
HETATM    4  C   UNL     1      -8.555   7.987  70.872  1.00  0.00    -0.133 A  
HETATM    5  C   UNL     1      -8.010   6.994  70.033  1.00  0.00    -0.115 A  
HETATM    6  C   UNL     1      -7.051   7.386  69.086  1.00  0.00    -0.079 A  
HETATM    7  N   UNL     1      -8.416   5.652  70.199  1.00  0.00    -0.117 NA 
HETATM    8  H   UNL     1     -11.607   4.579  74.091  1.00  0.00     0.000 HD 
HETATM    9  C   UNL     1      -9.213   5.333  71.289  1.00  0.00    -0.146 A  
HETATM   10  C   UNL     1      -6.763   8.739  68.835  1.00  0.00    -0.053 A  
HETATM   11  C   UNL     1      -5.712   9.091  67.818  1.00  0.00    -0.039 C  
HETATM   12  O   UNL     1     -10.235   6.700  74.539  1.00  0.00    -0.356 OA 
HETATM   13  N   UNL     1      -9.703   4.142  71.492  1.00  0.00    -0.164 N  
HETATM   14  H   UNL     1      -9.529   3.421  70.792  1.00  0.00     0.000 HD 
HETATM   15  C   UNL     1      -9.557   6.421  72.268  1.00  0.00    -0.150 A  
HETATM   16  C   UNL     1     -10.434   3.816  72.588  1.00  0.00    -0.116 C  
HETATM   17  C   UNL     1     -10.264   6.025  73.523  1.00  0.00    -0.221 C  
HETATM   18  N   UNL     1      -9.315   7.676  72.021  1.00  0.00    -0.138 NA 
HETATM   19  N   UNL     1     -10.836   4.788  73.456  1.00  0.00    -0.271 N  
HETATM   20  O   UNL     1     -10.710   2.649  72.855  1.00  0.00    -0.155 OA 
ENDROOT
BRANCH   7  21
HETATM   21  C   UNL     1      -8.531   4.825  68.983  1.00  0.00    -0.081 C  
BRANCH  21  22
HETATM   22  C   UNL     1      -7.385   3.797  68.876  1.00  0.00    -0.054 C  
HETATM   23  O   UNL     1      -6.343   4.371  68.084  1.00  0.00    -0.035 OA 
HETATM   24  H   UNL     1      -5.637   3.738  68.018  1.00  0.00     0.000 HD 
BRANCH  22  25
HETATM   25  C   UNL     1      -7.940   2.493  68.276  1.00  0.00    -0.057 C  
HETATM   26  H   UNL     1      -8.165   0.673  68.916  1.00  0.00     0.000 HD 
HETATM   27  O   UNL     1      -7.823   1.478  69.286  1.00  0.00    -0.042 OA 
BRANCH  25  28
HETATM   28  C   UNL     1      -7.235   2.019  66.982  1.00  0.00    -0.052 C  
HETATM   29  H   UNL     1      -5.381   1.736  66.347  1.00  0.00     0.000 HD 
HETATM   30  O   UNL     1      -5.814   2.027  67.141  1.00  0.00    -0.018 OA 
BRANCH  28  31
HETATM   31  C   UNL     1      -7.619   2.892  65.771  1.00  0.00    -0.073 C  
BRANCH  31  32
HETATM   32  O   UNL     1      -6.469   3.455  65.178  1.00  0.00    -0.033 OA 
BRANCH  32  33
HETATM   33  P   UNL     1      -6.628   4.788  64.302  1.00  0.00    -0.044 P  
HETATM   34  O   UNL     1      -7.152   4.220  62.907  1.00  0.00    -0.038 OA 
HETATM   35  O   UNL     1      -5.358   5.564  64.087  1.00  0.00    -0.012 OA 
BRANCH  33  36
HETATM   36  O   UNL     1      -7.736   5.666  65.045  1.00  0.00    -0.084 OA 
BRANCH  36  37
HETATM   37  P   UNL     1      -7.946   7.360  64.764  1.00  0.00    -0.068 P  
HETATM   38  O   UNL     1      -6.353   7.619  65.003  1.00  0.00    -0.038 OA 
HETATM   39  O   UNL     1      -8.251   7.111  63.293  1.00  0.00    -0.052 OA 
BRANCH  37  40
HETATM   40  O   UNL     1      -8.155   9.055  64.482  1.00  0.00    -0.127 OA 
BRANCH  40  41
HETATM   41  C   UNL     1      -8.492   9.808  65.647  1.00  0.00    -0.139 C  
BRANCH  41  42
HETATM   42  C   UNL     1      -9.920  10.355  65.532  1.00  0.00    -0.282 C  
HETATM   43  O   UNL     1     -10.630  10.013  66.729  1.00  0.00    -0.218 OA 
HETATM   44  C   UNL     1     -11.499  11.102  67.068  1.00  0.00    -0.026 C  
HETATM   45  C   UNL     1     -11.147  12.331  66.234  1.00  0.00    -0.302 C  
HETATM   46  H   UNL     1     -10.209  13.156  63.875  1.00  0.00     0.000 HD 
HETATM   47  C   UNL     1      -9.985  11.870  65.359  1.00  0.00    -0.252 C  
HETATM   48  O   UNL     1     -10.168  12.212  63.984  1.00  0.00    -0.329 OA 
HETATM   49  O   UNL     1     -12.247  12.770  65.416  1.00  0.00    -0.444 OA 
HETATM   50  H   UNL     1     -12.029  13.536  64.897  1.00  0.00     0.000 HD 
BRANCH  44  51
HETATM   51  N   UNL     1     -11.436  11.319  68.499  1.00  0.00    -0.277 NA 
HETATM   52  C   UNL     1     -11.469  10.375  69.490  1.00  0.00    -0.246 A  
HETATM   53  C   UNL     1     -12.060  12.233  70.372  1.00  0.00    -0.300 A  
HETATM   54  N   UNL     1     -11.872  10.889  70.635  1.00  0.00    -0.347 NA 
HETATM   55  C   UNL     1     -11.667  12.536  69.079  1.00  0.00    -0.318 A  
HETATM   56  N   UNL     1     -11.656  13.738  68.478  1.00  0.00    -0.314 NA 
HETATM   57  C   UNL     1     -12.130  14.683  69.316  1.00  0.00    -0.272 A  
HETATM   58  N   UNL     1     -12.616  14.527  70.567  1.00  0.00    -0.341 NA 
HETATM   59  C   UNL     1     -12.614  13.287  71.112  1.00  0.00    -0.325 A  
HETATM   60  N   UNL     1     -13.217  13.113  72.346  1.00  0.00    -0.467 NA 
HETATM   61  H2  UNL     1     -12.543  12.640  72.949  1.00  0.00     0.000 HD 
HETATM   62  H1  UNL     1     -13.620  13.881  72.885  1.00  0.00     0.000 HD 
ENDBRANCH  44  51
ENDBRANCH  41  42
ENDBRANCH  40  41
ENDBRANCH  37  40
ENDBRANCH  36  37
ENDBRANCH  33  36
ENDBRANCH  32  33
ENDBRANCH  31  32
ENDBRANCH  28  31
ENDBRANCH  25  28
ENDBRANCH  22  25
ENDBRANCH  21  22
ENDBRANCH   7  21
TORSDOF 13
ENDMDL
MODEL       63
REMARK 921   NORMALIZED FREE ENERGY PREDICTED BY IDOCK:   -3.78 KCAL/MOL
REMARK 922        TOTAL FREE ENERGY PREDICTED BY IDOCK:   -9.77 KCAL/MOL
REMARK 923 INTER-LIGAND FREE ENERGY PREDICTED BY IDOCK:   -8.27 KCAL/MOL
REMARK 924 INTRA-LIGAND FREE ENERGY PREDICTED BY IDOCK:   -1.50 KCAL/MOL
REMARK 927      BINDING AFFINITY PREDICTED BY RF-SCORE:    0.00 PKD
ROOT
HETATM    1  C   UNL     1     -10.310  20.072  67.462  1.00  0.00    -0.519 C  
HETATM    2  C   UNL     1      -9.670  18.712  67.411  1.00  0.00    -0.330 A  
HETATM    3  C   UNL     1      -8.864  18.300  68.484  1.00  0.00    -0.322 A  
HETATM    4  C   UNL     1      -8.363  16.997  68.563  1.00  0.00    -0.260 A  
HETATM    5  C   UNL     1      -8.752  16.042  67.604  1.00  0.00    -0.173 A  
HETATM    6  C   UNL     1      -9.444  16.492  66.468  1.00  0.00    -0.296 A  
HETATM    7  N   UNL     1      -8.404  14.687  67.798  1.00  0.00    -0.152 NA 
HETATM    8  H   UNL     1      -5.469  13.530  71.863  1.00  0.00     0.000 HD 
HETATM    9  C   UNL     1      -7.550  14.369  68.844  1.00  0.00    -0.128 A  
HETATM   10  C   UNL     1      -9.909  17.814  66.357  1.00  0.00    -0.328 A  
HETATM   11  C   UNL     1     -10.629  18.237  65.105  1.00  0.00     0.766 C  
HETATM   12  O   UNL     1      -5.148  15.963  71.117  1.00  0.00    -0.180 OA 
HETATM   13  N   UNL     1      -7.227  13.145  69.156  1.00  0.00    -0.291 N  
HETATM   14  H   UNL     1      -7.658  12.382  68.634  1.00  0.00     0.000 HD 
HETATM   15  C   UNL     1      -6.994  15.487  69.682  1.00  0.00    -0.173 A  
HETATM   16  C   UNL     1      -6.346  12.837  70.142  1.00  0.00     0.063 C  
HETATM   17  C   UNL     1      -5.942  15.144  70.685  1.00  0.00    -0.031 C  
HETATM   18  N   UNL     1      -7.445  16.706  69.595  1.00  0.00     0.100 NA 
HETATM   19  N   UNL     1      -5.883  13.812  70.974  1.00  0.00    -0.204 N  
HETATM   20  O   UNL     1      -5.907  11.698  70.280  1.00  0.00    -0.135 OA 
ENDROOT
BRANCH   7  21
HETATM   21  C   UNL     1      -9.374  13.668  67.354  1.00  0.00    -0.227 C  
BRANCH  21  22
HETATM   22  C   UNL     1     -10.714  13.783  68.110  1.00  0.00    -0.248 C  
HETATM   23  O   UNL     1     -10.509  13.337  69.452  1.00  0.00    -0.427 OA 
HETATM   24  H   UNL     1     -11.334  13.408  69.918  1.00  0.00     0.000 HD 
BRANCH  22  25
HETATM   25  C   UNL     1     -11.779  12.959  67.365  1.00  0.00    -0.372 C  
HETATM   26  H   UNL     1     -13.102  11.634  67.882  1.00  0.00     0.000 HD 
HETATM   27  O   UNL     1     -12.445  12.143  68.342  1.00  0.00    -0.049 OA 
BRANCH  25  28
HETATM   28  C   UNL     1     -11.231  12.062  66.228  1.00  0.00    -0.342 C  
HETATM   29  H   UNL     1     -11.868  11.344  64.497  1.00  0.00     0.000 HD 
HETATM   30  O   UNL     1     -12.205  11.894  65.194  1.00  0.00    -0.334 OA 
BRANCH  28  31
HETATM   31  C   UNL     1     -10.800  10.678  66.753  1.00  0.00    -0.169 C  
BRANCH  31  32
HETATM   32  O   UNL     1     -10.159   9.938  65.737  1.00  0.00    -0.284 OA 
BRANCH  32  33
HETATM   33  P   UNL     1      -8.556   9.893  65.709  1.00  0.00    -0.154 P  
HETATM   34  O   UNL     1      -8.203   9.396  67.182  1.00  0.00    -0.112 OA 
HETATM   35  O   UNL     1      -7.887  11.214  65.446  1.00  0.00     0.091 OA 
BRANCH  33  36
HETATM   36  O   UNL     1      -8.173   8.807  64.602  1.00  0.00    -0.149 OA 
BRANCH  36  37
HETATM   37  P   UNL     1      -8.347   7.103  64.849  1.00  0.00     0.148 P  
HETATM   38  O   UNL     1      -6.867   7.029  65.531  1.00  0.00    -0.050 OA 
HETATM   39  O   UNL     1      -9.428   7.334  65.898  1.00  0.00     0.007 OA 
BRANCH  37  40
HETATM   40  O   UNL     1      -8.522   5.400  65.098  1.00  0.00    -0.141 OA 
BRANCH  40  41
HETATM   41  C   UNL     1      -7.290   4.701  65.274  1.00  0.00    -0.076 C  
BRANCH  41  42
HETATM   42  C   UNL     1      -7.300   3.930  66.600  1.00  0.00    -0.072 C  
HETATM   43  O   UNL     1      -7.834   4.789  67.615  1.00  0.00    -0.089 OA 
HETATM   44  C   UNL     1      -8.632   3.997  68.505  1.00  0.00    -0.094 C  
HETATM   45  C   UNL     1      -8.877   2.617  67.901  1.00  0.00    -0.129 C  
HETATM   46  H   UNL     1      -7.839   0.719  66.338  1.00  0.00     0.000 HD 
HETATM   47  C   UNL     1      -8.143   2.658  66.564  1.00  0.00    -0.083 C  
HETATM   48  O   UNL     1      -7.315   1.511  66.360  1.00  0.00    -0.050 OA 
HETATM   49  O   UNL     1      -8.357   1.558  68.726  1.00  0.00    -0.051 OA 
HETATM   50  H   UNL     1      -8.510   0.699  68.350  1.00  0.00     0.000 HD 
BRANCH  44  51
HETATM   51  N   UNL     1      -9.843   4.729  68.820  1.00  0.00    -0.165 NA 
HETATM   52  C   UNL     1     -10.710   5.325  67.946  1.00  0.00     0.071 A  
HETATM   53  C   UNL     1     -10.995   6.260  69.849  1.00  0.00    -0.370 A  
HETATM   54  N   UNL     1     -11.406   6.281  68.529  1.00  0.00    -0.222 NA 
HETATM   55  C   UNL     1     -10.117   5.212  70.070  1.00  0.00    -0.275 A  
HETATM   56  N   UNL     1      -9.544   4.844  71.228  1.00  0.00    -0.159 NA 
HETATM   57  C   UNL     1      -9.916   5.679  72.220  1.00  0.00    -0.172 A  
HETATM   58  N   UNL     1     -10.699   6.778  72.142  1.00  0.00    -0.215 NA 
HETATM   59  C   UNL     1     -11.235   7.106  70.942  1.00  0.00    -0.276 A  
HETATM   60  N   UNL     1     -11.940   8.293  70.842  1.00  0.00    -0.439 NA 
HETATM   61  H2  UNL     1     -12.844   8.075  70.423  1.00  0.00     0.000 HD 
HETATM   62  H1  UNL     1     -12.115   8.908  71.638  1.00  0.00     0.000 HD 
ENDBRANCH  44  51
ENDBRANCH  41  42
ENDBRANCH  40  41
ENDBRANCH  37  40
ENDBRANCH  36  37
ENDBRANCH  33  36
ENDBRANCH  32  33
ENDBRANCH  31  32
ENDBRANCH  28  31
ENDBRANCH  25  28
ENDBRANCH  22  25
ENDBRANCH  21  22
ENDBRANCH   7  21
TORSDOF 13
ENDMDL
MODEL       64
REMARK 921   NORMALIZED FREE ENERGY PREDICTED BY IDOCK:   -3.77 KCAL/MOL
REMARK 922        TOTAL FREE ENERGY PREDICTED BY IDOCK:   -9.74 KCAL/MOL
REMARK 923 INTER-LIGAND FREE ENERGY PREDICTED BY IDOCK:   -8.45 KCAL/MOL
REMARK 924 INTRA-LIGAND FREE ENERGY PREDICTED BY IDOCK:   -1.29 KCAL/MOL
REMARK 927      BINDING AFFINITY PREDICTED BY RF-SCORE:    0.00 PKD
ROOT
HETATM    1  C   UNL     1      -7.935  11.886  69.186  1.00  0.00     0.249 C  
HETATM    2  C   UNL     1      -7.887  10.396  69.377  1.00  0.00    -0.163 A  
HETATM    3  C   UNL     1      -8.594   9.825  70.447  1.00  0.00    -0.099 A  
HETATM    4  C   UNL     1      -8.709   8.438  70.591  1.00  0.00    -0.146 A  
HETATM    5  C   UNL     1      -8.194   7.590  69.592  1.00  0.00    -0.129 A  
HETATM    6  C   UNL     1      -7.376   8.158  68.601  1.00  0.00    -0.089 A  
HETATM    7  N   UNL     1      -8.484   6.208  69.643  1.00  0.00    -0.126 NA 
HETATM    8  H   UNL     1     -11.136   4.467  73.694  1.00  0.00     0.000 HD 
HETATM    9  C   UNL     1      -9.130   5.711  70.765  1.00  0.00    -0.147 A  
HETATM   10  C   UNL     1      -7.214   9.549  68.480  1.00  0.00    -0.071 A  
HETATM   11  C   UNL     1      -6.310  10.092  67.407  1.00  0.00    -0.066 C  
HETATM   12  O   UNL     1      -9.874   6.634  74.239  1.00  0.00    -0.267 OA 
HETATM   13  N   UNL     1      -9.510   4.469  70.879  1.00  0.00    -0.153 N  
HETATM   14  H   UNL     1      -9.365   3.843  70.086  1.00  0.00     0.000 HD 
HETATM   15  C   UNL     1      -9.437   6.656  71.894  1.00  0.00    -0.150 A  
HETATM   16  C   UNL     1     -10.089   3.969  71.999  1.00  0.00    -0.157 C  
HETATM   17  C   UNL     1      -9.970   6.071  73.161  1.00  0.00    -0.178 C  
HETATM   18  N   UNL     1      -9.312   7.946  71.769  1.00  0.00    -0.143 NA 
HETATM   19  N   UNL     1     -10.458   4.806  73.011  1.00  0.00    -0.189 N  
HETATM   20  O   UNL     1     -10.251   2.761  72.157  1.00  0.00    -0.161 OA 
ENDROOT
BRANCH   7  21
HETATM   21  C   UNL     1      -8.677   5.510  68.358  1.00  0.00    -0.105 C  
BRANCH  21  22
HETATM   22  C   UNL     1      -7.471   4.614  68.004  1.00  0.00    -0.073 C  
HETATM   23  O   UNL     1      -6.466   5.435  67.406  1.00  0.00    -0.048 OA 
HETATM   24  H   UNL     1      -5.723   4.883  67.188  1.00  0.00     0.000 HD 
BRANCH  22  25
HETATM   25  C   UNL     1      -7.947   3.483  67.075  1.00  0.00    -0.083 C  
HETATM   26  H   UNL     1      -8.053   1.549  67.209  1.00  0.00     0.000 HD 
HETATM   27  O   UNL     1      -7.760   2.247  67.782  1.00  0.00    -0.059 OA 
BRANCH  25  28
HETATM   28  C   UNL     1      -7.222   3.413  65.709  1.00  0.00    -0.067 C  
HETATM   29  H   UNL     1      -5.360   3.290  65.046  1.00  0.00     0.000 HD 
HETATM   30  O   UNL     1      -5.805   3.333  65.885  1.00  0.00    -0.018 OA 
BRANCH  28  31
HETATM   31  C   UNL     1      -7.560   4.627  64.822  1.00  0.00    -0.076 C  
BRANCH  31  32
HETATM   32  O   UNL     1      -6.396   5.370  64.531  1.00  0.00    -0.028 OA 
BRANCH  32  33
HETATM   33  P   UNL     1      -6.554   6.833  63.893  1.00  0.00    -0.047 P  
HETATM   34  O   UNL     1      -6.795   6.509  62.350  1.00  0.00    -0.037 OA 
HETATM   35  O   UNL     1      -5.354   7.726  64.042  1.00  0.00    -0.036 OA 
BRANCH  33  36
HETATM   36  O   UNL     1      -7.850   7.467  64.581  1.00  0.00    -0.118 OA 
BRANCH  36  37
HETATM   37  P   UNL     1      -8.399   9.076  64.260  1.00  0.00    -0.133 P  
HETATM   38  O   UNL     1      -6.861   9.622  64.247  1.00  0.00    -0.101 OA 
HETATM   39  O   UNL     1      -8.856   8.675  62.863  1.00  0.00    -0.062 OA 
BRANCH  37  40
HETATM   40  O   UNL     1      -8.948  10.685  63.938  1.00  0.00    -0.185 OA 
BRANCH  40  41
HETATM   41  C   UNL     1      -8.954  11.544  65.078  1.00  0.00     0.147 C  
BRANCH  41  42
HETATM   42  C   UNL     1     -10.388  11.979  65.408  1.00  0.00    -0.266 C  
HETATM   43  O   UNL     1     -10.327  13.013  66.398  1.00  0.00    -0.271 OA 
HETATM   44  C   UNL     1     -11.355  13.972  66.117  1.00  0.00    -0.321 C  
HETATM   45  C   UNL     1     -11.936  13.724  64.727  1.00  0.00    -0.404 C  
HETATM   46  H   UNL     1     -12.491  11.848  62.912  1.00  0.00     0.000 HD 
HETATM   47  C   UNL     1     -11.157  12.519  64.205  1.00  0.00    -0.356 C  
HETATM   48  O   UNL     1     -12.012  11.512  63.660  1.00  0.00    -0.332 OA 
HETATM   49  O   UNL     1     -13.344  13.432  64.766  1.00  0.00    -0.426 OA 
HETATM   50  H   UNL     1     -13.706  13.278  63.902  1.00  0.00     0.000 HD 
BRANCH  44  51
HETATM   51  N   UNL     1     -10.814  15.303  66.304  1.00  0.00    -0.314 NA 
HETATM   52  C   UNL     1     -10.489  16.217  65.339  1.00  0.00    -0.373 A  
HETATM   53  C   UNL     1      -9.396  16.747  67.100  1.00  0.00    -0.229 A  
HETATM   54  N   UNL     1      -9.607  17.092  65.778  1.00  0.00    -0.543 NA 
HETATM   55  C   UNL     1     -10.239  15.715  67.475  1.00  0.00    -0.263 A  
HETATM   56  N   UNL     1     -10.360  15.144  68.685  1.00  0.00    -0.226 NA 
HETATM   57  C   UNL     1      -9.490  15.700  69.553  1.00  0.00    -0.275 A  
HETATM   58  N   UNL     1      -8.563  16.654  69.316  1.00  0.00    -0.110 NA 
HETATM   59  C   UNL     1      -8.480  17.180  68.070  1.00  0.00    -0.219 A  
HETATM   60  N   UNL     1      -7.456  18.072  67.802  1.00  0.00    -0.209 NA 
HETATM   61  H2  UNL     1      -7.877  18.904  67.390  1.00  0.00     0.000 HD 
HETATM   62  H1  UNL     1      -6.790  18.387  68.508  1.00  0.00     0.000 HD 
ENDBRANCH  44  51
ENDBRANCH  41  42
ENDBRANCH  40  41
ENDBRANCH  37  40
ENDBRANCH  36  37
ENDBRANCH  33  36
ENDBRANCH  32  33
ENDBRANCH  31  32
ENDBRANCH  28  31
ENDBRANCH  25  28
ENDBRANCH  22  25
ENDBRANCH  21  22
ENDBRANCH   7  21
TORSDOF 13
ENDMDL
MODEL       65
REMARK 921   NORMALIZED FREE ENERGY PREDICTED BY IDOCK:   -3.76 KCAL/MOL
REMARK 922        TOTAL FREE ENERGY PREDICTED BY IDOCK:   -9.72 KCAL/MOL
REMARK 923 INTER-LIGAND FREE ENERGY PREDICTED BY IDOCK:   -6.85 KCAL/MOL
REMARK 924 INTRA-LIGAND FREE ENERGY PREDICTED BY IDOCK:   -2.87 KCAL/MOL
REMARK 927      BINDING AFFINITY PREDICTED BY RF-SCORE:    0.00 PKD
ROOT
HETATM    1  C   UNL     1      -6.401   5.180  70.394  1.00  0.00    -0.030 C  
HETATM    2  C   UNL     1      -7.040   6.446  69.895  1.00  0.00    -0.072 A  
HETATM    3  C   UNL     1      -8.239   6.879  70.484  1.00  0.00    -0.120 A  
HETATM    4  C   UNL     1      -8.803   8.119  70.167  1.00  0.00    -0.145 A  
HETATM    5  C   UNL     1      -8.109   9.003  69.317  1.00  0.00    -0.105 A  
HETATM    6  C   UNL     1      -6.986   8.512  68.632  1.00  0.00    -0.064 A  
HETATM    7  N   UNL     1      -8.584  10.323  69.158  1.00  0.00    -0.154 NA 
HETATM    8  H   UNL     1     -12.993  11.577  71.495  1.00  0.00     0.000 HD 
HETATM    9  C   UNL     1      -9.810  10.655  69.717  1.00  0.00     0.096 A  
HETATM   10  C   UNL     1      -6.441   7.246  68.907  1.00  0.00    -0.040 A  
HETATM   11  C   UNL     1      -5.246   6.774  68.124  1.00  0.00    -0.011 C  
HETATM   12  O   UNL     1     -12.837   9.057  71.042  1.00  0.00    -0.210 OA 
HETATM   13  N   UNL     1     -10.302  11.862  69.694  1.00  0.00    -0.125 N  
HETATM   14  H   UNL     1      -9.739  12.607  69.284  1.00  0.00     0.000 HD 
HETATM   15  C   UNL     1     -10.595   9.579  70.414  1.00  0.00    -0.276 A  
HETATM   16  C   UNL     1     -11.527  12.174  70.189  1.00  0.00     0.019 C  
HETATM   17  C   UNL     1     -11.984   9.908  70.851  1.00  0.00    -0.345 C  
HETATM   18  N   UNL     1     -10.079   8.416  70.692  1.00  0.00    -0.190 NA 
HETATM   19  N   UNL     1     -12.234  11.249  70.897  1.00  0.00    -0.371 N  
HETATM   20  O   UNL     1     -12.049  13.265  69.974  1.00  0.00    -0.322 OA 
ENDROOT
BRANCH   7  21
HETATM   21  C   UNL     1      -7.577  11.390  68.998  1.00  0.00    -0.084 C  
BRANCH  21  22
HETATM   22  C   UNL     1      -8.110  12.559  68.144  1.00  0.00    -0.167 C  
HETATM   23  O   UNL     1      -8.101  12.152  66.774  1.00  0.00    -0.307 OA 
HETATM   24  H   UNL     1      -8.429  12.872  66.248  1.00  0.00     0.000 HD 
BRANCH  22  25
HETATM   25  C   UNL     1      -7.239  13.802  68.402  1.00  0.00    -0.108 C  
HETATM   26  H   UNL     1      -5.418  14.102  69.005  1.00  0.00     0.000 HD 
HETATM   27  O   UNL     1      -5.955  13.335  68.845  1.00  0.00    -0.072 OA 
BRANCH  25  28
HETATM   28  C   UNL     1      -7.814  14.796  69.440  1.00  0.00    -0.083 C  
HETATM   29  H   UNL     1      -9.480  15.017  70.487  1.00  0.00     0.000 HD 
HETATM   30  O   UNL     1      -9.128  14.406  69.850  1.00  0.00     0.588 OA 
BRANCH  28  31
HETATM   31  C   UNL     1      -7.857  16.234  68.887  1.00  0.00    -0.224 C  
BRANCH  31  32
HETATM   32  O   UNL     1      -8.541  16.274  67.654  1.00  0.00    -0.171 OA 
BRANCH  32  33
HETATM   33  P   UNL     1      -9.930  17.071  67.567  1.00  0.00    -0.291 P  
HETATM   34  O   UNL     1      -9.447  18.573  67.328  1.00  0.00    -0.281 OA 
HETATM   35  O   UNL     1     -10.781  17.004  68.804  1.00  0.00    -0.337 OA 
BRANCH  33  36
HETATM   36  O   UNL     1     -10.691  16.478  66.294  1.00  0.00    -0.259 OA 
BRANCH  36  37
HETATM   37  P   UNL     1     -10.339  14.923  65.621  1.00  0.00    -0.407 P  
HETATM   38  O   UNL     1      -8.745  15.269  65.600  1.00  0.00     0.314 OA 
HETATM   39  O   UNL     1     -10.738  14.236  66.921  1.00  0.00    -0.285 OA 
BRANCH  37  40
HETATM   40  O   UNL     1      -9.987  13.368  64.950  1.00  0.00    -0.247 OA 
BRANCH  40  41
HETATM   41  C   UNL     1     -11.086  12.753  64.280  1.00  0.00    -0.370 C  
BRANCH  41  42
HETATM   42  C   UNL     1     -11.285  11.319  64.786  1.00  0.00    -0.058 C  
HETATM   43  O   UNL     1     -10.525  10.437  63.951  1.00  0.00    -0.070 OA 
HETATM   44  C   UNL     1      -9.975   9.397  64.770  1.00  0.00     0.644 C  
HETATM   45  C   UNL     1     -10.132   9.755  66.246  1.00  0.00    -0.243 C  
HETATM   46  H   UNL     1     -11.672  11.026  68.017  1.00  0.00     0.000 HD 
HETATM   47  C   UNL     1     -10.834  11.110  66.230  1.00  0.00    -0.205 C  
HETATM   48  O   UNL     1     -11.952  11.156  67.118  1.00  0.00    -0.366 OA 
HETATM   49  O   UNL     1     -10.923   8.789  66.962  1.00  0.00    -0.316 OA 
HETATM   50  H   UNL     1     -11.021   9.012  67.880  1.00  0.00     0.000 HD 
BRANCH  44  51
HETATM   51  N   UNL     1      -8.606   9.157  64.361  1.00  0.00    -0.192 NA 
HETATM   52  C   UNL     1      -7.856   9.889  63.481  1.00  0.00    -0.150 A  
HETATM   53  C   UNL     1      -6.976   7.942  63.588  1.00  0.00    -0.075 A  
HETATM   54  N   UNL     1      -6.875   9.174  62.969  1.00  0.00    -0.093 NA 
HETATM   55  C   UNL     1      -7.970   7.961  64.552  1.00  0.00    -0.140 A  
HETATM   56  N   UNL     1      -8.331   6.973  65.388  1.00  0.00    -0.136 NA 
HETATM   57  C   UNL     1      -7.591   5.870  65.154  1.00  0.00    -0.088 A  
HETATM   58  N   UNL     1      -6.646   5.679  64.207  1.00  0.00    -0.043 NA 
HETATM   59  C   UNL     1      -6.338   6.710  63.384  1.00  0.00    -0.041 A  
HETATM   60  N   UNL     1      -5.454   6.476  62.344  1.00  0.00    -0.023 NA 
HETATM   61  H2  UNL     1      -4.727   7.190  62.397  1.00  0.00     0.000 HD 
HETATM   62  H1  UNL     1      -4.990   5.580  62.196  1.00  0.00     0.000 HD 
ENDBRANCH  44  51
ENDBRANCH  41  42
ENDBRANCH  40  41
ENDBRANCH  37  40
ENDBRANCH  36  37
ENDBRANCH  33  36
ENDBRANCH  32  33
ENDBRANCH  31  32
ENDBRANCH  28  31
ENDBRANCH  25  28
ENDBRANCH  22  25
ENDBRANCH  21  22
ENDBRANCH   7  21
TORSDOF 13
ENDMDL
MODEL       66
REMARK 921   NORMALIZED FREE ENERGY PREDICTED BY IDOCK:   -3.63 KCAL/MOL
REMARK 922        TOTAL FREE ENERGY PREDICTED BY IDOCK:   -9.50 KCAL/MOL
REMARK 923 INTER-LIGAND FREE ENERGY PREDICTED BY IDOCK:   -6.24 KCAL/MOL
REMARK 924 INTRA-LIGAND FREE ENERGY PREDICTED BY IDOCK:   -3.26 KCAL/MOL
REMARK 927      BINDING AFFINITY PREDICTED BY RF-SCORE:    0.00 PKD
ROOT
HETATM    1  C   UNL     1      -9.723  15.387  69.367  1.00  0.00    -0.273 C  
HETATM    2  C   UNL     1      -9.550  14.082  68.641  1.00  0.00    -0.159 A  
HETATM    3  C   UNL     1     -10.003  12.901  69.250  1.00  0.00     0.563 A  
HETATM    4  C   UNL     1     -10.004  11.680  68.567  1.00  0.00    -0.194 A  
HETATM    5  C   UNL     1      -9.640  11.644  67.206  1.00  0.00    -0.174 A  
HETATM    6  C   UNL     1      -9.064  12.796  66.647  1.00  0.00    -0.188 A  
HETATM    7  N   UNL     1      -9.830  10.451  66.473  1.00  0.00    -0.197 NA 
HETATM    8  H   UNL     1     -11.544   6.322  69.020  1.00  0.00     0.000 HD 
HETATM    9  C   UNL     1     -10.217   9.310  67.159  1.00  0.00    -0.257 A  
HETATM   10  C   UNL     1      -9.012  14.015  67.344  1.00  0.00    -0.208 A  
HETATM   11  C   UNL     1      -8.366  15.207  66.693  1.00  0.00    -0.162 C  
HETATM   12  O   UNL     1     -10.334   7.967  70.574  1.00  0.00    -0.198 OA 
HETATM   13  N   UNL     1     -10.492   8.181  66.569  1.00  0.00    -0.414 N  
HETATM   14  H   UNL     1     -10.465   8.147  65.550  1.00  0.00     0.000 HD 
HETATM   15  C   UNL     1     -10.358   9.384  68.654  1.00  0.00    -0.203 A  
HETATM   16  C   UNL     1     -10.814   7.048  67.244  1.00  0.00    -0.333 C  
HETATM   17  C   UNL     1     -10.601   8.109  69.392  1.00  0.00    -0.200 C  
HETATM   18  N   UNL     1     -10.338  10.518  69.295  1.00  0.00    -0.217 NA 
HETATM   19  N   UNL     1     -11.031   7.092  68.589  1.00  0.00    -0.095 N  
HETATM   20  O   UNL     1     -10.869   5.956  66.682  1.00  0.00    -0.301 OA 
ENDROOT
BRANCH   7  21
HETATM   21  C   UNL     1     -10.224  10.584  65.057  1.00  0.00    -0.295 C  
BRANCH  21  22
HETATM   22  C   UNL     1      -9.000  10.580  64.118  1.00  0.00    -0.218 C  
HETATM   23  O   UNL     1      -9.436  10.176  62.818  1.00  0.00    -0.344 OA 
HETATM   24  H   UNL     1      -8.682  10.173  62.240  1.00  0.00     0.000 HD 
BRANCH  22  25
HETATM   25  C   UNL     1      -7.926   9.646  64.704  1.00  0.00    -0.135 C  
HETATM   26  H   UNL     1      -6.008   9.763  64.982  1.00  0.00     0.000 HD 
HETATM   27  O   UNL     1      -6.671  10.339  64.621  1.00  0.00    -0.130 OA 
BRANCH  25  28
HETATM   28  C   UNL     1      -7.805   8.271  64.003  1.00  0.00    -0.146 C  
HETATM   29  H   UNL     1      -9.022   6.877  63.300  1.00  0.00     0.000 HD 
HETATM   30  O   UNL     1      -9.096   7.721  63.730  1.00  0.00     0.962 OA 
BRANCH  28  31
HETATM   31  C   UNL     1      -6.991   7.271  64.848  1.00  0.00    -0.051 C  
BRANCH  31  32
HETATM   32  O   UNL     1      -7.701   6.063  65.010  1.00  0.00    -0.085 OA 
BRANCH  32  33
HETATM   33  P   UNL     1      -6.972   4.831  65.733  1.00  0.00    -0.065 P  
HETATM   34  O   UNL     1      -6.523   5.469  67.124  1.00  0.00    -0.041 OA 
HETATM   35  O   UNL     1      -5.769   4.291  65.012  1.00  0.00    -0.013 OA 
BRANCH  33  36
HETATM   36  O   UNL     1      -8.098   3.713  65.924  1.00  0.00    -0.092 OA 
BRANCH  36  37
HETATM   37  P   UNL     1      -8.171   2.669  67.301  1.00  0.00    -0.088 P  
HETATM   38  O   UNL     1      -9.107   3.744  68.094  1.00  0.00    -0.119 OA 
HETATM   39  O   UNL     1      -9.016   1.662  66.531  1.00  0.00    -0.120 OA 
BRANCH  37  40
HETATM   40  O   UNL     1      -8.245   1.624  68.678  1.00  0.00    -0.052 OA 
BRANCH  40  41
HETATM   41  C   UNL     1      -7.221   1.851  69.645  1.00  0.00    -0.036 C  
BRANCH  41  42
HETATM   42  C   UNL     1      -7.839   2.241  70.993  1.00  0.00    -0.046 C  
HETATM   43  O   UNL     1      -7.145   3.392  71.490  1.00  0.00    -0.031 OA 
HETATM   44  C   UNL     1      -8.093   4.248  72.141  1.00  0.00    -0.091 C  
HETATM   45  C   UNL     1      -9.515   3.797  71.816  1.00  0.00    -0.146 C  
HETATM   46  H   UNL     1     -11.046   1.681  71.267  1.00  0.00     0.000 HD 
HETATM   47  C   UNL     1      -9.325   2.583  70.911  1.00  0.00    -0.145 C  
HETATM   48  O   UNL     1     -10.121   1.469  71.318  1.00  0.00    -0.113 OA 
HETATM   49  O   UNL     1     -10.256   3.432  72.995  1.00  0.00    -0.144 OA 
HETATM   50  H   UNL     1     -11.140   3.152  72.793  1.00  0.00     0.000 HD 
BRANCH  44  51
HETATM   51  N   UNL     1      -7.808   5.621  71.774  1.00  0.00    -0.108 NA 
HETATM   52  C   UNL     1      -7.068   6.066  70.712  1.00  0.00    -0.068 A  
HETATM   53  C   UNL     1      -7.116   7.647  72.153  1.00  0.00    -0.066 A  
HETATM   54  N   UNL     1      -6.605   7.282  70.921  1.00  0.00    -0.043 NA 
HETATM   55  C   UNL     1      -7.972   6.671  72.634  1.00  0.00    -0.101 A  
HETATM   56  N   UNL     1      -8.690   6.688  73.770  1.00  0.00    -0.130 NA 
HETATM   57  C   UNL     1      -8.450   7.823  74.458  1.00  0.00    -0.154 A  
HETATM   58  N   UNL     1      -7.592   8.822  74.154  1.00  0.00    -0.421 NA 
HETATM   59  C   UNL     1      -6.885   8.740  73.002  1.00  0.00     0.126 A  
HETATM   60  N   UNL     1      -5.926   9.706  72.751  1.00  0.00    -0.274 NA 
HETATM   61  H2  UNL     1      -6.106  10.079  71.819  1.00  0.00     0.000 HD 
HETATM   62  H1  UNL     1      -5.759  10.501  73.369  1.00  0.00     0.000 HD 
ENDBRANCH  44  51
ENDBRANCH  41  42
ENDBRANCH  40  41
ENDBRANCH  37  40
ENDBRANCH  36  37
ENDBRANCH  33  36
ENDBRANCH  32  33
ENDBRANCH  31  32
ENDBRANCH  28  31
ENDBRANCH  25  28
ENDBRANCH  22  25
ENDBRANCH  21  22
ENDBRANCH   7  21
TORSDOF 13
ENDMDL
MODEL       67
REMARK 921   NORMALIZED FREE ENERGY PREDICTED BY IDOCK:   -3.59 KCAL/MOL
REMARK 922        TOTAL FREE ENERGY PREDICTED BY IDOCK:   -9.42 KCAL/MOL
REMARK 923 INTER-LIGAND FREE ENERGY PREDICTED BY IDOCK:   -9.40 KCAL/MOL
REMARK 924 INTRA-LIGAND FREE ENERGY PREDICTED BY IDOCK:   -0.03 KCAL/MOL
REMARK 927      BINDING AFFINITY PREDICTED BY RF-SCORE:    0.00 PKD
ROOT
HETATM    1  C   UNL     1     -12.034  16.366  72.573  1.00  0.00    -0.579 C  
HETATM    2  C   UNL     1     -12.042  15.455  71.376  1.00  0.00    -0.436 A  
HETATM    3  C   UNL     1     -11.689  15.978  70.122  1.00  0.00    -0.290 A  
HETATM    4  C   UNL     1     -11.535  15.154  69.003  1.00  0.00    -0.309 A  
HETATM    5  C   UNL     1     -11.636  13.756  69.149  1.00  0.00    -0.317 A  
HETATM    6  C   UNL     1     -12.120  13.254  70.368  1.00  0.00    -0.401 A  
HETATM    7  N   UNL     1     -11.288  12.922  68.063  1.00  0.00    -0.272 NA 
HETATM    8  H   UNL     1     -10.002  15.184  63.624  1.00  0.00     0.000 HD 
HETATM    9  C   UNL     1     -11.014  13.514  66.839  1.00  0.00    -0.288 A  
HETATM   10  C   UNL     1     -12.325  14.083  71.484  1.00  0.00    -0.371 A  
HETATM   11  C   UNL     1     -12.861  13.484  72.756  1.00  0.00    -0.054 C  
HETATM   12  O   UNL     1     -11.515  16.683  65.055  1.00  0.00    -0.030 OA 
HETATM   13  N   UNL     1     -10.611  12.843  65.796  1.00  0.00    -0.271 N  
HETATM   14  H   UNL     1     -10.445  11.842  65.898  1.00  0.00     0.000 HD 
HETATM   15  C   UNL     1     -11.158  15.005  66.714  1.00  0.00    -0.326 A  
HETATM   16  C   UNL     1     -10.399  13.412  64.583  1.00  0.00    -0.381 C  
HETATM   17  C   UNL     1     -11.033  15.601  65.350  1.00  0.00    -0.333 C  
HETATM   18  N   UNL     1     -11.321  15.773  67.753  1.00  0.00    -0.290 NA 
HETATM   19  N   UNL     1     -10.440  14.769  64.447  1.00  0.00     0.092 N  
HETATM   20  O   UNL     1     -10.218  12.733  63.575  1.00  0.00    -0.367 OA 
ENDROOT
BRANCH   7  21
HETATM   21  C   UNL     1     -10.637  11.637  68.380  1.00  0.00    -0.211 C  
BRANCH  21  22
HETATM   22  C   UNL     1     -11.144  10.497  67.471  1.00  0.00    -0.290 C  
HETATM   23  O   UNL     1     -11.771   9.513  68.297  1.00  0.00    -0.137 OA 
HETATM   24  H   UNL     1     -12.083   8.811  67.737  1.00  0.00     0.000 HD 
BRANCH  22  25
HETATM   25  C   UNL     1      -9.957   9.935  66.669  1.00  0.00    -0.217 C  
HETATM   26  H   UNL     1      -9.219   8.164  66.367  1.00  0.00     0.000 HD 
HETATM   27  O   UNL     1      -9.952   8.512  66.862  1.00  0.00    -0.212 OA 
BRANCH  25  28
HETATM   28  C   UNL     1      -8.576  10.515  67.056  1.00  0.00    -0.127 C  
HETATM   29  H   UNL     1      -6.802  10.757  66.210  1.00  0.00     0.000 HD 
HETATM   30  O   UNL     1      -7.650  10.401  65.972  1.00  0.00    -0.125 OA 
BRANCH  28  31
HETATM   31  C   UNL     1      -7.993   9.818  68.301  1.00  0.00    -0.096 C  
BRANCH  31  32
HETATM   32  O   UNL     1      -6.863  10.513  68.779  1.00  0.00    -0.056 OA 
BRANCH  32  33
HETATM   33  P   UNL     1      -6.257  10.112  70.208  1.00  0.00    -0.127 P  
HETATM   34  O   UNL     1      -7.551   9.620  71.001  1.00  0.00    -0.326 OA 
HETATM   35  O   UNL     1      -5.600  11.236  70.960  1.00  0.00    -0.270 OA 
BRANCH  33  36
HETATM   36  O   UNL     1      -5.237   8.915  69.926  1.00  0.00    -0.029 OA 
BRANCH  36  37
HETATM   37  P   UNL     1      -5.346   7.375  70.708  1.00  0.00    -0.023 P  
HETATM   38  O   UNL     1      -6.115   8.051  71.979  1.00  0.00    -0.039 OA 
HETATM   39  O   UNL     1      -6.337   6.879  69.662  1.00  0.00    -0.036 OA 
BRANCH  37  40
HETATM   40  O   UNL     1      -5.456   5.836  71.490  1.00  0.00    -0.019 OA 
BRANCH  40  41
HETATM   41  C   UNL     1      -6.645   5.648  72.255  1.00  0.00    -0.062 C  
BRANCH  41  42
HETATM   42  C   UNL     1      -7.387   4.390  71.785  1.00  0.00    -0.068 C  
HETATM   43  O   UNL     1      -8.538   4.799  71.037  1.00  0.00    -0.108 OA 
HETATM   44  C   UNL     1      -8.720   3.884  69.948  1.00  0.00    -0.075 C  
HETATM   45  C   UNL     1      -7.484   3.002  69.793  1.00  0.00    -0.044 C  
HETATM   46  H   UNL     1      -5.482   1.823  71.108  1.00  0.00     0.000 HD 
HETATM   47  C   UNL     1      -6.545   3.476  70.899  1.00  0.00    -0.031 C  
HETATM   48  O   UNL     1      -6.006   2.393  71.660  1.00  0.00    -0.012 OA 
HETATM   49  O   UNL     1      -7.785   1.604  69.957  1.00  0.00    -0.042 OA 
HETATM   50  H   UNL     1      -7.016   1.055  69.860  1.00  0.00     0.000 HD 
BRANCH  44  51
HETATM   51  N   UNL     1      -9.063   4.637  68.759  1.00  0.00    -0.109 NA 
HETATM   52  C   UNL     1     -10.252   5.253  68.474  1.00  0.00    -0.144 A  
HETATM   53  C   UNL     1      -9.247   4.934  66.612  1.00  0.00    -0.126 A  
HETATM   54  N   UNL     1     -10.411   5.422  67.177  1.00  0.00    -0.226 NA 
HETATM   55  C   UNL     1      -8.347   4.562  67.597  1.00  0.00    -0.099 A  
HETATM   56  N   UNL     1      -7.099   4.088  67.440  1.00  0.00    -0.065 NA 
HETATM   57  C   UNL     1      -6.802   3.978  66.129  1.00  0.00    -0.054 A  
HETATM   58  N   UNL     1      -7.597   4.229  65.065  1.00  0.00    -0.077 NA 
HETATM   59  C   UNL     1      -8.851   4.689  65.289  1.00  0.00    -0.145 A  
HETATM   60  N   UNL     1      -9.699   4.835  64.204  1.00  0.00    -0.349 NA 
HETATM   61  H2  UNL     1     -10.076   5.783  64.239  1.00  0.00     0.000 HD 
HETATM   62  H1  UNL     1      -9.411   4.658  63.242  1.00  0.00     0.000 HD 
ENDBRANCH  44  51
ENDBRANCH  41  42
ENDBRANCH  40  41
ENDBRANCH  37  40
ENDBRANCH  36  37
ENDBRANCH  33  36
ENDBRANCH  32  33
ENDBRANCH  31  32
ENDBRANCH  28  31
ENDBRANCH  25  28
ENDBRANCH  22  25
ENDBRANCH  21  22
ENDBRANCH   7  21
TORSDOF 13
ENDMDL
MODEL       68
REMARK 921   NORMALIZED FREE ENERGY PREDICTED BY IDOCK:   -3.53 KCAL/MOL
REMARK 922        TOTAL FREE ENERGY PREDICTED BY IDOCK:   -9.32 KCAL/MOL
REMARK 923 INTER-LIGAND FREE ENERGY PREDICTED BY IDOCK:   -7.62 KCAL/MOL
REMARK 924 INTRA-LIGAND FREE ENERGY PREDICTED BY IDOCK:   -1.69 KCAL/MOL
REMARK 927      BINDING AFFINITY PREDICTED BY RF-SCORE:    0.00 PKD
ROOT
HETATM    1  C   UNL     1     -11.314  16.623  68.437  1.00  0.00    -0.142 C  
HETATM    2  C   UNL     1     -11.229  15.129  68.292  1.00  0.00    -0.315 A  
HETATM    3  C   UNL     1     -10.558  14.591  67.183  1.00  0.00    -0.274 A  
HETATM    4  C   UNL     1     -10.318  13.217  67.068  1.00  0.00    -0.246 A  
HETATM    5  C   UNL     1     -10.663  12.360  68.131  1.00  0.00    -0.221 A  
HETATM    6  C   UNL     1     -11.449  12.882  69.171  1.00  0.00    -0.360 A  
HETATM    7  N   UNL     1     -10.243  11.012  68.095  1.00  0.00    -0.176 NA 
HETATM    8  H   UNL     1      -7.771   9.390  63.883  1.00  0.00     0.000 HD 
HETATM    9  C   UNL     1      -9.644  10.539  66.936  1.00  0.00    -0.175 A  
HETATM   10  C   UNL     1     -11.738  14.254  69.267  1.00  0.00    -0.363 A  
HETATM   11  C   UNL     1     -12.601  14.746  70.398  1.00  0.00    -0.399 C  
HETATM   12  O   UNL     1      -9.282  11.403  63.386  1.00  0.00    -0.208 OA 
HETATM   13  N   UNL     1      -9.153   9.337  66.825  1.00  0.00    -0.137 N  
HETATM   14  H   UNL     1      -9.170   8.729  67.644  1.00  0.00     0.000 HD 
HETATM   15  C   UNL     1      -9.526  11.468  65.759  1.00  0.00    -0.234 A  
HETATM   16  C   UNL     1      -8.621   8.854  65.674  1.00  0.00    -0.166 C  
HETATM   17  C   UNL     1      -9.044  10.892  64.468  1.00  0.00    -0.163 C  
HETATM   18  N   UNL     1      -9.768  12.743  65.858  1.00  0.00    -0.237 NA 
HETATM   19  N   UNL     1      -8.422   9.686  64.611  1.00  0.00    -0.160 N  
HETATM   20  O   UNL     1      -8.353   7.663  65.536  1.00  0.00    -0.129 OA 
ENDROOT
BRANCH   7  21
HETATM   21  C   UNL     1      -9.876  10.383  69.378  1.00  0.00    -0.213 C  
BRANCH  21  22
HETATM   22  C   UNL     1     -10.665   9.080  69.624  1.00  0.00    -0.219 C  
HETATM   23  O   UNL     1     -10.914   8.462  68.360  1.00  0.00    -0.436 OA 
HETATM   24  H   UNL     1     -11.400   7.660  68.512  1.00  0.00     0.000 HD 
BRANCH  22  25
HETATM   25  C   UNL     1     -11.958   9.418  70.388  1.00  0.00    -0.029 C  
HETATM   26  H   UNL     1     -12.437  10.670  71.793  1.00  0.00     0.000 HD 
HETATM   27  O   UNL     1     -11.639  10.462  71.321  1.00  0.00    -0.311 OA 
BRANCH  25  28
HETATM   28  C   UNL     1     -12.600   8.228  71.142  1.00  0.00    -0.141 C  
HETATM   29  H   UNL     1     -12.866   7.659  73.020  1.00  0.00     0.000 HD 
HETATM   30  O   UNL     1     -12.472   8.390  72.557  1.00  0.00    -0.364 OA 
BRANCH  28  31
HETATM   31  C   UNL     1     -11.973   6.883  70.722  1.00  0.00    -0.373 C  
BRANCH  31  32
HETATM   32  O   UNL     1     -10.899   6.547  71.573  1.00  0.00    -0.233 OA 
BRANCH  32  33
HETATM   33  P   UNL     1      -9.679   5.695  70.975  1.00  0.00    -0.185 P  
HETATM   34  O   UNL     1     -10.321   5.054  69.663  1.00  0.00    -0.260 OA 
HETATM   35  O   UNL     1      -9.164   4.605  71.872  1.00  0.00    -0.131 OA 
BRANCH  33  36
HETATM   36  O   UNL     1      -8.539   6.759  70.625  1.00  0.00    -0.139 OA 
BRANCH  36  37
HETATM   37  P   UNL     1      -7.585   6.682  69.183  1.00  0.00    -0.103 P  
HETATM   38  O   UNL     1      -7.403   8.304  69.192  1.00  0.00    -0.077 OA 
HETATM   39  O   UNL     1      -6.451   5.995  69.934  1.00  0.00    -0.039 OA 
BRANCH  37  40
HETATM   40  O   UNL     1      -6.629   6.606  67.743  1.00  0.00    -0.053 OA 
BRANCH  40  41
HETATM   41  C   UNL     1      -5.379   5.937  67.901  1.00  0.00    -0.004 C  
BRANCH  41  42
HETATM   42  C   UNL     1      -5.240   4.816  66.864  1.00  0.00    -0.008 C  
HETATM   43  O   UNL     1      -5.572   3.574  67.496  1.00  0.00    -0.019 OA 
HETATM   44  C   UNL     1      -6.277   2.758  66.551  1.00  0.00    -0.024 C  
HETATM   45  C   UNL     1      -6.683   3.593  65.338  1.00  0.00    -0.048 C  
HETATM   46  H   UNL     1      -5.988   5.658  63.797  1.00  0.00     0.000 HD 
HETATM   47  C   UNL     1      -6.148   4.988  65.649  1.00  0.00    -0.033 C  
HETATM   48  O   UNL     1      -5.423   5.551  64.554  1.00  0.00    -0.013 OA 
HETATM   49  O   UNL     1      -6.108   3.097  64.115  1.00  0.00    -0.017 OA 
HETATM   50  H   UNL     1      -6.361   3.616  63.361  1.00  0.00     0.000 HD 
BRANCH  44  51
HETATM   51  N   UNL     1      -7.386   2.116  67.226  1.00  0.00    -0.055 NA 
HETATM   52  C   UNL     1      -8.654   1.918  66.749  1.00  0.00    -0.110 A  
HETATM   53  C   UNL     1      -8.762   1.814  68.883  1.00  0.00    -0.071 A  
HETATM   54  N   UNL     1      -9.521   1.761  67.729  1.00  0.00    -0.134 NA 
HETATM   55  C   UNL     1      -7.415   1.904  68.577  1.00  0.00    -0.043 A  
HETATM   56  N   UNL     1      -6.374   1.931  69.426  1.00  0.00    -0.025 NA 
HETATM   57  C   UNL     1      -6.810   1.886  70.702  1.00  0.00    -0.032 A  
HETATM   58  N   UNL     1      -8.084   1.872  71.152  1.00  0.00    -0.046 NA 
HETATM   59  C   UNL     1      -9.090   1.862  70.246  1.00  0.00    -0.093 A  
HETATM   60  N   UNL     1     -10.391   1.963  70.710  1.00  0.00     0.566 NA 
HETATM   61  H2  UNL     1     -10.921   1.196  70.297  1.00  0.00     0.000 HD 
HETATM   62  H1  UNL     1     -10.629   1.997  71.702  1.00  0.00     0.000 HD 
ENDBRANCH  44  51
ENDBRANCH  41  42
ENDBRANCH  40  41
ENDBRANCH  37  40
ENDBRANCH  36  37
ENDBRANCH  33  36
ENDBRANCH  32  33
ENDBRANCH  31  32
ENDBRANCH  28  31
ENDBRANCH  25  28
ENDBRANCH  22  25
ENDBRANCH  21  22
ENDBRANCH   7  21
TORSDOF 13
ENDMDL
MODEL       69
REMARK 921   NORMALIZED FREE ENERGY PREDICTED BY IDOCK:   -3.50 KCAL/MOL
REMARK 922        TOTAL FREE ENERGY PREDICTED BY IDOCK:   -9.27 KCAL/MOL
REMARK 923 INTER-LIGAND FREE ENERGY PREDICTED BY IDOCK:   -7.52 KCAL/MOL
REMARK 924 INTRA-LIGAND FREE ENERGY PREDICTED BY IDOCK:   -1.75 KCAL/MOL
REMARK 927      BINDING AFFINITY PREDICTED BY RF-SCORE:    0.00 PKD
ROOT
HETATM    1  C   UNL     1     -10.673   4.727  72.071  1.00  0.00    -0.116 C  
HETATM    2  C   UNL     1      -9.713   5.079  70.969  1.00  0.00    -0.249 A  
HETATM    3  C   UNL     1      -9.945   4.577  69.679  1.00  0.00    -0.251 A  
HETATM    4  C   UNL     1      -9.175   4.986  68.585  1.00  0.00    -0.122 A  
HETATM    5  C   UNL     1      -8.210   5.998  68.754  1.00  0.00    -0.104 A  
HETATM    6  C   UNL     1      -7.892   6.395  70.063  1.00  0.00    -0.111 A  
HETATM    7  N   UNL     1      -7.576   6.544  67.616  1.00  0.00    -0.103 NA 
HETATM    8  H   UNL     1      -8.698   4.485  63.035  1.00  0.00     0.000 HD 
HETATM    9  C   UNL     1      -7.808   5.950  66.384  1.00  0.00    -0.101 A  
HETATM   10  C   UNL     1      -8.629   5.950  71.174  1.00  0.00    -0.129 A  
HETATM   11  C   UNL     1      -8.226   6.400  72.552  1.00  0.00    -0.105 C  
HETATM   12  O   UNL     1      -9.083   2.821  64.949  1.00  0.00    -0.130 OA 
HETATM   13  N   UNL     1      -7.334   6.420  65.264  1.00  0.00    -0.074 N  
HETATM   14  H   UNL     1      -6.803   7.291  65.289  1.00  0.00     0.000 HD 
HETATM   15  C   UNL     1      -8.676   4.723  66.331  1.00  0.00    -0.112 A  
HETATM   16  C   UNL     1      -7.512   5.807  64.066  1.00  0.00    -0.069 C  
HETATM   17  C   UNL     1      -8.770   3.997  65.029  1.00  0.00    -0.117 C  
HETATM   18  N   UNL     1      -9.378   4.329  67.353  1.00  0.00    -0.151 NA 
HETATM   19  N   UNL     1      -8.356   4.741  63.962  1.00  0.00    -0.118 N  
HETATM   20  O   UNL     1      -6.890   6.155  63.065  1.00  0.00    -0.039 OA 
ENDROOT
BRANCH   7  21
HETATM   21  C   UNL     1      -7.247   7.982  67.648  1.00  0.00    -0.091 C  
BRANCH  21  22
HETATM   22  C   UNL     1      -8.442   8.853  67.208  1.00  0.00    -0.114 C  
HETATM   23  O   UNL     1      -7.946  10.148  66.862  1.00  0.00    -0.112 OA 
HETATM   24  H   UNL     1      -8.682  10.685  66.591  1.00  0.00     0.000 HD 
BRANCH  22  25
HETATM   25  C   UNL     1      -9.475   8.895  68.348  1.00  0.00    -0.140 C  
HETATM   26  H   UNL     1     -11.414   8.843  68.448  1.00  0.00     0.000 HD 
HETATM   27  O   UNL     1     -10.776   8.817  67.744  1.00  0.00    -0.218 OA 
BRANCH  25  28
HETATM   28  C   UNL     1      -9.398  10.150  69.251  1.00  0.00    -0.215 C  
HETATM   29  H   UNL     1      -8.041  11.075  70.357  1.00  0.00     0.000 HD 
HETATM   30  O   UNL     1      -8.088  10.305  69.802  1.00  0.00    -0.166 OA 
BRANCH  28  31
HETATM   31  C   UNL     1     -10.430  10.092  70.394  1.00  0.00    -0.240 C  
BRANCH  31  32
HETATM   32  O   UNL     1     -11.573  10.854  70.073  1.00  0.00    -0.284 OA 
BRANCH  32  33
HETATM   33  P   UNL     1     -12.907  10.648  70.939  1.00  0.00    -0.300 P  
HETATM   34  O   UNL     1     -12.489   9.474  71.935  1.00  0.00    -0.369 OA 
HETATM   35  O   UNL     1     -14.121  10.238  70.153  1.00  0.00     0.881 OA 
BRANCH  33  36
HETATM   36  O   UNL     1     -13.141  12.029  71.708  1.00  0.00    -0.445 OA 
BRANCH  36  37
HETATM   37  P   UNL     1     -12.472  13.533  71.175  1.00  0.00    -0.166 P  
HETATM   38  O   UNL     1     -13.406  13.500  69.838  1.00  0.00     0.771 OA 
HETATM   39  O   UNL     1     -13.160  14.278  72.312  1.00  0.00    -0.351 OA 
BRANCH  37  40
HETATM   40  O   UNL     1     -11.804  15.038  70.643  1.00  0.00    -0.273 OA 
BRANCH  40  41
HETATM   41  C   UNL     1     -10.381  15.110  70.718  1.00  0.00     0.288 C  
BRANCH  41  42
HETATM   42  C   UNL     1      -9.748  14.410  69.510  1.00  0.00     0.310 C  
HETATM   43  O   UNL     1     -10.659  14.502  68.408  1.00  0.00    -0.233 OA 
HETATM   44  C   UNL     1      -9.901  14.693  67.207  1.00  0.00    -0.231 C  
HETATM   45  C   UNL     1      -8.452  15.031  67.550  1.00  0.00    -0.174 C  
HETATM   46  H   UNL     1      -6.494  14.633  69.320  1.00  0.00     0.000 HD 
HETATM   47  C   UNL     1      -8.417  15.018  69.076  1.00  0.00    -0.200 C  
HETATM   48  O   UNL     1      -7.323  14.255  69.590  1.00  0.00    -0.031 OA 
HETATM   49  O   UNL     1      -7.525  14.067  67.019  1.00  0.00    -0.329 OA 
HETATM   50  H   UNL     1      -6.623  14.277  67.232  1.00  0.00     0.000 HD 
BRANCH  44  51
HETATM   51  N   UNL     1     -10.564  15.691  66.392  1.00  0.00    -0.305 NA 
HETATM   52  C   UNL     1     -10.829  15.633  65.050  1.00  0.00    -0.450 A  
HETATM   53  C   UNL     1     -10.865  17.698  65.609  1.00  0.00     0.035 A  
HETATM   54  N   UNL     1     -10.988  16.836  64.535  1.00  0.00    -0.964 NA 
HETATM   55  C   UNL     1     -10.731  16.989  66.791  1.00  0.00    -0.102 A  
HETATM   56  N   UNL     1     -10.633  17.474  68.040  1.00  0.00    -0.389 NA 
HETATM   57  C   UNL     1     -10.653  18.823  68.020  1.00  0.00    -0.296 A  
HETATM   58  N   UNL     1     -10.703  19.645  66.949  1.00  0.00    -0.480 NA 
HETATM   59  C   UNL     1     -10.784  19.094  65.714  1.00  0.00    -0.307 A  
HETATM   60  N   UNL     1     -10.720  19.935  64.617  1.00  0.00     0.371 NA 
HETATM   61  H2  UNL     1     -11.522  19.722  64.023  1.00  0.00     0.000 HD 
HETATM   62  H1  UNL     1     -10.662  20.951  64.693  1.00  0.00     0.000 HD 
ENDBRANCH  44  51
ENDBRANCH  41  42
ENDBRANCH  40  41
ENDBRANCH  37  40
ENDBRANCH  36  37
ENDBRANCH  33  36
ENDBRANCH  32  33
ENDBRANCH  31  32
ENDBRANCH  28  31
ENDBRANCH  25  28
ENDBRANCH  22  25
ENDBRANCH  21  22
ENDBRANCH   7  21
TORSDOF 13
ENDMDL
MODEL       70
REMARK 921   NORMALIZED FREE ENERGY PREDICTED BY IDOCK:   -3.22 KCAL/MOL
REMARK 922        TOTAL FREE ENERGY PREDICTED BY IDOCK:   -8.78 KCAL/MOL
REMARK 923 INTER-LIGAND FREE ENERGY PREDICTED BY IDOCK:   -5.32 KCAL/MOL
REMARK 924 INTRA-LIGAND FREE ENERGY PREDICTED BY IDOCK:   -3.46 KCAL/MOL
REMARK 927      BINDING AFFINITY PREDICTED BY RF-SCORE:    0.00 PKD
ROOT
HETATM    1  C   UNL     1      -8.900  15.566  69.509  1.00  0.00    -0.229 C  
HETATM    2  C   UNL     1      -8.802  14.331  68.658  1.00  0.00    -0.150 A  
HETATM    3  C   UNL     1      -9.196  13.098  69.202  1.00  0.00     0.640 A  
HETATM    4  C   UNL     1      -9.267  11.942  68.419  1.00  0.00    -0.173 A  
HETATM    5  C   UNL     1      -9.037  12.027  67.031  1.00  0.00    -0.191 A  
HETATM    6  C   UNL     1      -8.515  13.226  66.521  1.00  0.00     0.270 A  
HETATM    7  N   UNL     1      -9.301  10.902  66.218  1.00  0.00    -0.174 NA 
HETATM    8  H   UNL     1     -10.771   6.556  68.549  1.00  0.00     0.000 HD 
HETATM    9  C   UNL     1      -9.623   9.702  66.837  1.00  0.00    -0.167 A  
HETATM   10  C   UNL     1      -8.393  14.380  67.315  1.00  0.00    -0.228 A  
HETATM   11  C   UNL     1      -7.810  15.629  66.711  1.00  0.00    -0.211 C  
HETATM   12  O   UNL     1      -9.411   8.066  70.115  1.00  0.00    -0.160 OA 
HETATM   13  N   UNL     1      -9.957   8.628  66.179  1.00  0.00    -0.453 N  
HETATM   14  H   UNL     1     -10.029   8.683  65.163  1.00  0.00     0.000 HD 
HETATM   15  C   UNL     1      -9.618   9.645  68.339  1.00  0.00    -0.144 A  
HETATM   16  C   UNL     1     -10.215   7.439  66.780  1.00  0.00    -0.242 C  
HETATM   17  C   UNL     1      -9.791   8.309  68.982  1.00  0.00    -0.176 C  
HETATM   18  N   UNL     1      -9.532  10.719  69.071  1.00  0.00    -0.188 NA 
HETATM   19  N   UNL     1     -10.300   7.364  68.139  1.00  0.00    -0.187 N  
HETATM   20  O   UNL     1     -10.327   6.400  66.133  1.00  0.00     0.077 OA 
ENDROOT
BRANCH   7  21
HETATM   21  C   UNL     1      -9.831  11.155  64.865  1.00  0.00    -0.266 C  
BRANCH  21  22
HETATM   22  C   UNL     1      -8.708  11.193  63.807  1.00  0.00     0.157 C  
HETATM   23  O   UNL     1      -9.287  10.910  62.531  1.00  0.00    -0.390 OA 
HETATM   24  H   UNL     1      -8.595  10.933  61.880  1.00  0.00     0.000 HD 
BRANCH  22  25
HETATM   25  C   UNL     1      -7.616  10.184  64.204  1.00  0.00    -0.125 C  
HETATM   26  H   UNL     1      -5.675  10.214  64.264  1.00  0.00     0.000 HD 
HETATM   27  O   UNL     1      -6.349  10.836  64.020  1.00  0.00     0.075 OA 
BRANCH  25  28
HETATM   28  C   UNL     1      -7.635   8.857  63.408  1.00  0.00    -0.110 C  
HETATM   29  H   UNL     1      -8.974   7.521  62.823  1.00  0.00     0.000 HD 
HETATM   30  O   UNL     1      -8.963   8.336  63.312  1.00  0.00     0.364 OA 
BRANCH  28  31
HETATM   31  C   UNL     1      -6.715   7.797  64.046  1.00  0.00    -0.061 C  
BRANCH  31  32
HETATM   32  O   UNL     1      -7.456   6.659  64.428  1.00  0.00    -0.081 OA 
BRANCH  32  33
HETATM   33  P   UNL     1      -6.668   5.369  64.962  1.00  0.00    -0.049 P  
HETATM   34  O   UNL     1      -5.552   6.015  65.901  1.00  0.00    -0.015 OA 
HETATM   35  O   UNL     1      -6.013   4.536  63.896  1.00  0.00    -0.017 OA 
BRANCH  33  36
HETATM   36  O   UNL     1      -7.736   4.524  65.797  1.00  0.00    -0.091 OA 
BRANCH  36  37
HETATM   37  P   UNL     1      -7.372   3.770  67.311  1.00  0.00    -0.068 P  
HETATM   38  O   UNL     1      -7.805   5.122  68.114  1.00  0.00    -0.086 OA 
HETATM   39  O   UNL     1      -8.550   2.817  67.155  1.00  0.00    -0.093 OA 
BRANCH  37  40
HETATM   40  O   UNL     1      -7.008   3.015  68.825  1.00  0.00    -0.047 OA 
BRANCH  40  41
HETATM   41  C   UNL     1      -5.751   3.392  69.384  1.00  0.00    -0.018 C  
BRANCH  41  42
HETATM   42  C   UNL     1      -5.914   3.749  70.867  1.00  0.00    -0.014 C  
HETATM   43  O   UNL     1      -6.951   4.730  70.983  1.00  0.00    -0.041 OA 
HETATM   44  C   UNL     1      -7.697   4.462  72.178  1.00  0.00    -0.085 C  
HETATM   45  C   UNL     1      -7.329   3.086  72.728  1.00  0.00    -0.048 C  
HETATM   46  H   UNL     1      -5.362   1.297  72.955  1.00  0.00     0.000 HD 
HETATM   47  C   UNL     1      -6.286   2.558  71.747  1.00  0.00    -0.015 C  
HETATM   48  O   UNL     1      -5.131   2.038  72.407  1.00  0.00     0.000 OA 
HETATM   49  O   UNL     1      -6.778   3.157  74.056  1.00  0.00    -0.032 OA 
HETATM   50  H   UNL     1      -6.550   2.301  74.398  1.00  0.00     0.000 HD 
BRANCH  44  51
HETATM   51  N   UNL     1      -9.108   4.629  71.893  1.00  0.00    -0.129 NA 
HETATM   52  C   UNL     1      -9.809   4.134  70.827  1.00  0.00    -0.178 A  
HETATM   53  C   UNL     1     -10.924   5.789  71.599  1.00  0.00    -0.246 A  
HETATM   54  N   UNL     1     -10.904   4.833  70.600  1.00  0.00     0.289 NA 
HETATM   55  C   UNL     1      -9.879   5.590  72.486  1.00  0.00    -0.164 A  
HETATM   56  N   UNL     1      -9.599   6.283  73.602  1.00  0.00    -0.151 NA 
HETATM   57  C   UNL     1     -10.488   7.285  73.766  1.00  0.00    -0.288 A  
HETATM   58  N   UNL     1     -11.505   7.645  72.952  1.00  0.00    -0.335 NA 
HETATM   59  C   UNL     1     -11.727   6.915  71.833  1.00  0.00    -0.299 A  
HETATM   60  N   UNL     1     -12.694   7.355  70.945  1.00  0.00    -0.581 NA 
HETATM   61  H2  UNL     1     -13.319   6.569  70.763  1.00  0.00     0.000 HD 
HETATM   62  H1  UNL     1     -13.279   8.174  71.116  1.00  0.00     0.000 HD 
ENDBRANCH  44  51
ENDBRANCH  41  42
ENDBRANCH  40  41
ENDBRANCH  37  40
ENDBRANCH  36  37
ENDBRANCH  33  36
ENDBRANCH  32  33
ENDBRANCH  31  32
ENDBRANCH  28  31
ENDBRANCH  25  28
ENDBRANCH  22  25
ENDBRANCH  21  22
ENDBRANCH   7  21
TORSDOF 13
ENDMDL
MODEL       71
REMARK 921   NORMALIZED FREE ENERGY PREDICTED BY IDOCK:   -2.21 KCAL/MOL
REMARK 922        TOTAL FREE ENERGY PREDICTED BY IDOCK:   -7.00 KCAL/MOL
REMARK 923 INTER-LIGAND FREE ENERGY PREDICTED BY IDOCK:   -5.94 KCAL/MOL
REMARK 924 INTRA-LIGAND FREE ENERGY PREDICTED BY IDOCK:   -1.06 KCAL/MOL
REMARK 927      BINDING AFFINITY PREDICTED BY RF-SCORE:    0.00 PKD
ROOT
HETATM    1  C   UNL     1     -12.671  16.241  64.526  1.00  0.00     1.981 C  
HETATM    2  C   UNL     1     -11.534  15.451  65.111  1.00  0.00    -0.208 A  
HETATM    3  C   UNL     1     -10.731  16.044  66.098  1.00  0.00    -0.246 A  
HETATM    4  C   UNL     1      -9.755  15.314  66.784  1.00  0.00    -0.236 A  
HETATM    5  C   UNL     1      -9.636  13.929  66.558  1.00  0.00    -0.287 A  
HETATM    6  C   UNL     1     -10.345  13.373  65.481  1.00  0.00    -0.302 A  
HETATM    7  N   UNL     1      -8.789  13.165  67.391  1.00  0.00    -0.194 NA 
HETATM    8  H   UNL     1      -6.020  15.669  70.932  1.00  0.00     0.000 HD 
HETATM    9  C   UNL     1      -7.978  13.833  68.297  1.00  0.00    -0.146 A  
HETATM   10  C   UNL     1     -11.292  14.113  64.753  1.00  0.00    -0.371 A  
HETATM   11  C   UNL     1     -12.005  13.462  63.599  1.00  0.00    -0.504 C  
HETATM   12  O   UNL     1      -6.644  17.187  68.960  1.00  0.00    -0.194 OA 
HETATM   13  N   UNL     1      -7.218  13.220  69.161  1.00  0.00    -0.292 N  
HETATM   14  H   UNL     1      -7.254  12.201  69.203  1.00  0.00     0.000 HD 
HETATM   15  C   UNL     1      -8.001  15.336  68.308  1.00  0.00    -0.132 A  
HETATM   16  C   UNL     1      -6.381  13.872  70.008  1.00  0.00    -0.099 C  
HETATM   17  C   UNL     1      -6.997  16.037  69.163  1.00  0.00    -0.189 C  
HETATM   18  N   UNL     1      -8.896  16.019  67.655  1.00  0.00    -0.184 NA 
HETATM   19  N   UNL     1      -6.430  15.231  70.107  1.00  0.00    -0.129 N  
HETATM   20  O   UNL     1      -5.533  13.272  70.665  1.00  0.00    -0.134 OA 
ENDROOT
BRANCH   7  21
HETATM   21  C   UNL     1      -9.220  11.792  67.717  1.00  0.00    -0.181 C  
BRANCH  21  22
HETATM   22  C   UNL     1      -8.528  10.745  66.819  1.00  0.00    -0.134 C  
HETATM   23  O   UNL     1      -7.908  11.430  65.730  1.00  0.00    -0.370 OA 
HETATM   24  H   UNL     1      -7.482  10.785  65.176  1.00  0.00     0.000 HD 
BRANCH  22  25
HETATM   25  C   UNL     1      -9.575   9.716  66.357  1.00  0.00    -0.210 C  
HETATM   26  H   UNL     1     -11.174   8.938  67.138  1.00  0.00     0.000 HD 
HETATM   27  O   UNL     1     -10.528   9.573  67.422  1.00  0.00    -0.244 OA 
BRANCH  25  28
HETATM   28  C   UNL     1      -9.004   8.326  65.984  1.00  0.00    -0.181 C  
HETATM   29  H   UNL     1      -9.547   6.429  66.150  1.00  0.00     0.000 HD 
HETATM   30  O   UNL     1      -9.898   7.282  66.378  1.00  0.00    -0.156 OA 
BRANCH  28  31
HETATM   31  C   UNL     1      -7.624   8.087  66.628  1.00  0.00    -0.093 C  
BRANCH  31  32
HETATM   32  O   UNL     1      -7.762   7.727  67.985  1.00  0.00    -0.119 OA 
BRANCH  32  33
HETATM   33  P   UNL     1      -6.610   8.149  69.017  1.00  0.00    -0.049 P  
HETATM   34  O   UNL     1      -7.325   7.947  70.428  1.00  0.00    -0.065 OA 
HETATM   35  O   UNL     1      -6.130   9.568  68.890  1.00  0.00    -0.042 OA 
BRANCH  33  36
HETATM   36  O   UNL     1      -5.423   7.102  68.792  1.00  0.00    -0.017 OA 
BRANCH  36  37
HETATM   37  P   UNL     1      -5.512   5.449  69.295  1.00  0.00    -0.008 P  
HETATM   38  O   UNL     1      -7.119   5.587  69.541  1.00  0.00    -0.060 OA 
HETATM   39  O   UNL     1      -5.208   4.970  67.881  1.00  0.00    -0.006 OA 
BRANCH  37  40
HETATM   40  O   UNL     1      -5.601   3.796  69.797  1.00  0.00    -0.015 OA 
BRANCH  40  41
HETATM   41  C   UNL     1      -5.615   2.855  68.724  1.00  0.00    -0.021 C  
BRANCH  41  42
HETATM   42  C   UNL     1      -6.947   2.095  68.701  1.00  0.00    -0.040 C  
HETATM   43  O   UNL     1      -7.598   2.288  69.963  1.00  0.00    -0.043 OA 
HETATM   44  C   UNL     1      -9.008   2.401  69.733  1.00  0.00    -0.094 C  
HETATM   45  C   UNL     1      -9.283   2.579  68.242  1.00  0.00    -0.202 C  
HETATM   46  H   UNL     1      -8.425   1.967  65.791  1.00  0.00     0.000 HD 
HETATM   47  C   UNL     1      -7.899   2.557  67.601  1.00  0.00    -0.060 C  
HETATM   48  O   UNL     1      -7.833   1.679  66.476  1.00  0.00    -0.067 OA 
HETATM   49  O   UNL     1     -10.101   1.523  67.707  1.00  0.00    -0.231 OA 
HETATM   50  H   UNL     1     -10.273   1.634  66.779  1.00  0.00     0.000 HD 
BRANCH  44  51
HETATM   51  N   UNL     1      -9.531   3.467  70.564  1.00  0.00    -0.168 NA 
HETATM   52  C   UNL     1     -10.008   4.685  70.160  1.00  0.00    -0.233 A  
HETATM   53  C   UNL     1      -9.458   4.877  72.218  1.00  0.00    -0.139 A  
HETATM   54  N   UNL     1      -9.950   5.574  71.131  1.00  0.00    -0.187 NA 
HETATM   55  C   UNL     1      -9.316   3.534  71.913  1.00  0.00    -0.126 A  
HETATM   56  N   UNL     1      -8.911   2.541  72.722  1.00  0.00    -0.077 NA 
HETATM   57  C   UNL     1      -8.608   3.027  73.944  1.00  0.00    -0.073 A  
HETATM   58  N   UNL     1      -8.625   4.311  74.363  1.00  0.00    -0.096 NA 
HETATM   59  C   UNL     1      -9.028   5.270  73.495  1.00  0.00    -0.121 A  
HETATM   60  N   UNL     1      -8.935   6.593  73.890  1.00  0.00    -0.142 NA 
HETATM   61  H2  UNL     1      -9.847   7.022  73.732  1.00  0.00     0.000 HD 
HETATM   62  H1  UNL     1      -8.623   6.878  74.819  1.00  0.00     0.000 HD 
ENDBRANCH  44  51
ENDBRANCH  41  42
ENDBRANCH  40  41
ENDBRANCH  37  40
ENDBRANCH  36  37
ENDBRANCH  33  36
ENDBRANCH  32  33
ENDBRANCH  31  32
ENDBRANCH  28  31
ENDBRANCH  25  28
ENDBRANCH  22  25
ENDBRANCH  21  22
ENDBRANCH   7  21
TORSDOF 13
ENDMDL
MODEL       72
REMARK 921   NORMALIZED FREE ENERGY PREDICTED BY IDOCK:   -2.19 KCAL/MOL
REMARK 922        TOTAL FREE ENERGY PREDICTED BY IDOCK:   -6.97 KCAL/MOL
REMARK 923 INTER-LIGAND FREE ENERGY PREDICTED BY IDOCK:   -7.10 KCAL/MOL
REMARK 924 INTRA-LIGAND FREE ENERGY PREDICTED BY IDOCK:    0.13 KCAL/MOL
REMARK 927      BINDING AFFINITY PREDICTED BY RF-SCORE:    0.00 PKD
ROOT
HETATM    1  C   UNL     1      -5.933  11.944  69.103  1.00  0.00    -0.072 C  
HETATM    2  C   UNL     1      -6.472  10.561  69.338  1.00  0.00    -0.062 A  
HETATM    3  C   UNL     1      -7.277  10.328  70.465  1.00  0.00     0.153 A  
HETATM    4  C   UNL     1      -7.927   9.105  70.660  1.00  0.00    -0.154 A  
HETATM    5  C   UNL     1      -7.861   8.115  69.659  1.00  0.00    -0.103 A  
HETATM    6  C   UNL     1      -6.951   8.302  68.606  1.00  0.00    -0.068 A  
HETATM    7  N   UNL     1      -8.675   6.966  69.771  1.00  0.00    -0.141 NA 
HETATM    8  H   UNL     1     -11.529   6.458  74.022  1.00  0.00     0.000 HD 
HETATM    9  C   UNL     1      -9.390   6.776  70.944  1.00  0.00    -0.157 A  
HETATM   10  C   UNL     1      -6.255   9.510  68.430  1.00  0.00    -0.048 A  
HETATM   11  C   UNL     1      -5.282   9.639  67.290  1.00  0.00    -0.035 C  
HETATM   12  O   UNL     1      -9.473   7.940  74.424  1.00  0.00     0.266 OA 
HETATM   13  N   UNL     1     -10.227   5.792  71.118  1.00  0.00    -0.209 N  
HETATM   14  H   UNL     1     -10.397   5.156  70.339  1.00  0.00     0.000 HD 
HETATM   15  C   UNL     1      -9.219   7.772  72.058  1.00  0.00    -0.144 A  
HETATM   16  C   UNL     1     -10.883   5.572  72.286  1.00  0.00    -0.241 C  
HETATM   17  C   UNL     1      -9.856   7.457  73.371  1.00  0.00    -0.294 C  
HETATM   18  N   UNL     1      -8.597   8.902  71.885  1.00  0.00    -0.371 NA 
HETATM   19  N   UNL     1     -10.818   6.493  73.290  1.00  0.00    -0.265 N  
HETATM   20  O   UNL     1     -11.503   4.532  72.492  1.00  0.00     0.110 OA 
ENDROOT
BRANCH   7  21
HETATM   21  C   UNL     1      -9.216   6.396  68.522  1.00  0.00    -0.124 C  
BRANCH  21  22
HETATM   22  C   UNL     1      -8.444   5.134  68.085  1.00  0.00    -0.099 C  
HETATM   23  O   UNL     1      -7.757   5.429  66.868  1.00  0.00    -0.098 OA 
HETATM   24  H   UNL     1      -7.281   4.651  66.599  1.00  0.00     0.000 HD 
BRANCH  22  25
HETATM   25  C   UNL     1      -9.438   3.968  67.941  1.00  0.00    -0.173 C  
HETATM   26  H   UNL     1      -9.742   2.297  68.884  1.00  0.00     0.000 HD 
HETATM   27  O   UNL     1      -9.129   3.017  68.973  1.00  0.00    -0.116 OA 
BRANCH  25  28
HETATM   28  C   UNL     1      -9.419   3.261  66.564  1.00  0.00    -0.088 C  
HETATM   29  H   UNL     1      -8.740   1.565  65.800  1.00  0.00     0.000 HD 
HETATM   30  O   UNL     1      -8.752   1.999  66.645  1.00  0.00    -0.107 OA 
BRANCH  28  31
HETATM   31  C   UNL     1      -8.739   4.130  65.488  1.00  0.00    -0.120 C  
BRANCH  31  32
HETATM   32  O   UNL     1      -7.612   3.470  64.954  1.00  0.00    -0.075 OA 
BRANCH  32  33
HETATM   33  P   UNL     1      -6.524   4.331  64.150  1.00  0.00    -0.044 P  
HETATM   34  O   UNL     1      -7.202   4.484  62.714  1.00  0.00    -0.038 OA 
HETATM   35  O   UNL     1      -5.176   3.679  64.007  1.00  0.00    -0.008 OA 
BRANCH  33  36
HETATM   36  O   UNL     1      -6.425   5.729  64.917  1.00  0.00    -0.039 OA 
BRANCH  36  37
HETATM   37  P   UNL     1      -6.684   7.254  64.142  1.00  0.00    -0.049 P  
HETATM   38  O   UNL     1      -5.764   6.792  62.877  1.00  0.00    -0.034 OA 
HETATM   39  O   UNL     1      -8.153   6.920  63.909  1.00  0.00    -0.095 OA 
BRANCH  37  40
HETATM   40  O   UNL     1      -6.946   8.778  63.366  1.00  0.00    -0.089 OA 
BRANCH  40  41
HETATM   41  C   UNL     1      -7.380   9.817  64.242  1.00  0.00    -0.129 C  
BRANCH  41  42
HETATM   42  C   UNL     1      -8.902   9.983  64.157  1.00  0.00    -0.221 C  
HETATM   43  O   UNL     1      -9.459   9.698  65.446  1.00  0.00    -0.242 OA 
HETATM   44  C   UNL     1     -10.555  10.594  65.675  1.00  0.00    -0.105 C  
HETATM   45  C   UNL     1     -10.550  11.706  64.630  1.00  0.00    -0.312 C  
HETATM   46  H   UNL     1      -9.936  12.303  62.102  1.00  0.00     0.000 HD 
HETATM   47  C   UNL     1      -9.345  11.386  63.749  1.00  0.00    -0.101 C  
HETATM   48  O   UNL     1      -9.660  11.430  62.356  1.00  0.00    -0.140 OA 
HETATM   49  O   UNL     1     -11.755  11.724  63.843  1.00  0.00    -0.397 OA 
HETATM   50  H   UNL     1     -11.752  12.416  63.193  1.00  0.00     0.000 HD 
BRANCH  44  51
HETATM   51  N   UNL     1     -10.492  11.066  67.044  1.00  0.00    -0.228 NA 
HETATM   52  C   UNL     1     -11.318  10.731  68.082  1.00  0.00    -0.308 A  
HETATM   53  C   UNL     1     -10.399  12.597  68.586  1.00  0.00    -0.177 A  
HETATM   54  N   UNL     1     -11.309  11.653  69.024  1.00  0.00    -0.250 NA 
HETATM   55  C   UNL     1      -9.788  12.177  67.416  1.00  0.00    -0.189 A  
HETATM   56  N   UNL     1      -8.821  12.799  66.720  1.00  0.00    -0.195 NA 
HETATM   57  C   UNL     1      -8.506  13.973  67.304  1.00  0.00    -0.207 A  
HETATM   58  N   UNL     1      -9.063  14.544  68.395  1.00  0.00    -0.186 NA 
HETATM   59  C   UNL     1     -10.045  13.874  69.045  1.00  0.00    -0.018 A  
HETATM   60  N   UNL     1     -10.691  14.510  70.091  1.00  0.00    -0.463 NA 
HETATM   61  H2  UNL     1     -10.663  13.881  70.893  1.00  0.00     0.000 HD 
HETATM   62  H1  UNL     1     -10.433  15.439  70.425  1.00  0.00     0.000 HD 
ENDBRANCH  44  51
ENDBRANCH  41  42
ENDBRANCH  40  41
ENDBRANCH  37  40
ENDBRANCH  36  37
ENDBRANCH  33  36
ENDBRANCH  32  33
ENDBRANCH  31  32
ENDBRANCH  28  31
ENDBRANCH  25  28
ENDBRANCH  22  25
ENDBRANCH  21  22
ENDBRANCH   7  21
TORSDOF 13
ENDMDL
MODEL       73
REMARK 921   NORMALIZED FREE ENERGY PREDICTED BY IDOCK:   -2.16 KCAL/MOL
REMARK 922        TOTAL FREE ENERGY PREDICTED BY IDOCK:   -6.91 KCAL/MOL
REMARK 923 INTER-LIGAND FREE ENERGY PREDICTED BY IDOCK:   -8.00 KCAL/MOL
REMARK 924 INTRA-LIGAND FREE ENERGY PREDICTED BY IDOCK:    1.09 KCAL/MOL
REMARK 927      BINDING AFFINITY PREDICTED BY RF-SCORE:    0.00 PKD
ROOT
HETATM    1  C   UNL     1      -7.974  18.482  69.209  1.00  0.00     0.099 C  
HETATM    2  C   UNL     1      -8.062  17.362  68.209  1.00  0.00    -0.249 A  
HETATM    3  C   UNL     1      -7.584  16.092  68.568  1.00  0.00    -0.170 A  
HETATM    4  C   UNL     1      -7.770  14.980  67.741  1.00  0.00    -0.153 A  
HETATM    5  C   UNL     1      -8.542  15.106  66.569  1.00  0.00    -0.191 A  
HETATM    6  C   UNL     1      -8.900  16.398  66.151  1.00  0.00    -0.349 A  
HETATM    7  N   UNL     1      -8.890  13.944  65.845  1.00  0.00     0.538 NA 
HETATM    8  H   UNL     1      -6.988   9.448  67.470  1.00  0.00     0.000 HD 
HETATM    9  C   UNL     1      -8.324  12.736  66.223  1.00  0.00     0.566 A  
HETATM   10  C   UNL     1      -8.671  17.529  66.954  1.00  0.00    -0.269 A  
HETATM   11  C   UNL     1      -9.064  18.887  66.439  1.00  0.00    -0.317 C  
HETATM   12  O   UNL     1      -5.519  11.423  68.194  1.00  0.00    -0.043 OA 
HETATM   13  N   UNL     1      -8.636  11.597  65.671  1.00  0.00    -0.391 N  
HETATM   14  H   UNL     1      -9.365  11.588  64.957  1.00  0.00     0.000 HD 
HETATM   15  C   UNL     1      -7.325  12.733  67.347  1.00  0.00    -0.134 A  
HETATM   16  C   UNL     1      -8.040  10.423  66.001  1.00  0.00    -0.143 C  
HETATM   17  C   UNL     1      -6.596  11.459  67.622  1.00  0.00    -0.074 C  
HETATM   18  N   UNL     1      -7.135  13.773  68.106  1.00  0.00    -0.102 NA 
HETATM   19  N   UNL     1      -7.191  10.363  67.066  1.00  0.00    -0.090 N  
HETATM   20  O   UNL     1      -8.204   9.407  65.331  1.00  0.00    -0.116 OA 
ENDROOT
BRANCH   7  21
HETATM   21  C   UNL     1     -10.217  13.923  65.199  1.00  0.00    -0.358 C  
BRANCH  21  22
HETATM   22  C   UNL     1     -10.517  12.557  64.548  1.00  0.00    -0.341 C  
HETATM   23  O   UNL     1     -10.136  12.624  63.173  1.00  0.00    -0.449 OA 
HETATM   24  H   UNL     1     -10.321  11.782  62.772  1.00  0.00     0.000 HD 
BRANCH  22  25
HETATM   25  C   UNL     1     -12.010  12.232  64.739  1.00  0.00    -0.362 C  
HETATM   26  H   UNL     1     -13.579  12.264  63.595  1.00  0.00     0.000 HD 
HETATM   27  O   UNL     1     -12.658  12.464  63.478  1.00  0.00    -0.681 OA 
BRANCH  25  28
HETATM   28  C   UNL     1     -12.719  13.051  65.844  1.00  0.00     0.082 C  
HETATM   29  H   UNL     1     -13.108  14.953  66.232  1.00  0.00     0.000 HD 
HETATM   30  O   UNL     1     -12.672  14.451  65.553  1.00  0.00    -0.414 OA 
BRANCH  28  31
HETATM   31  C   UNL     1     -12.098  12.795  67.230  1.00  0.00    -0.162 C  
BRANCH  31  32
HETATM   32  O   UNL     1     -11.122  11.778  67.159  1.00  0.00    -0.262 OA 
BRANCH  32  33
HETATM   33  P   UNL     1     -11.125  10.627  68.275  1.00  0.00    -0.280 P  
HETATM   34  O   UNL     1     -11.347   9.309  67.405  1.00  0.00     0.269 OA 
HETATM   35  O   UNL     1     -12.213  10.742  69.306  1.00  0.00    -0.334 OA 
BRANCH  33  36
HETATM   36  O   UNL     1      -9.674  10.667  68.942  1.00  0.00    -0.186 OA 
BRANCH  36  37
HETATM   37  P   UNL     1      -9.206   9.637  70.251  1.00  0.00    -0.087 P  
HETATM   38  O   UNL     1      -9.005   8.386  69.224  1.00  0.00    -0.147 OA 
HETATM   39  O   UNL     1      -7.907  10.413  70.438  1.00  0.00    -0.072 OA 
BRANCH  37  40
HETATM   40  O   UNL     1      -8.736   8.608  71.560  1.00  0.00    -0.170 OA 
BRANCH  40  41
HETATM   41  C   UNL     1      -7.748   7.636  71.219  1.00  0.00    -0.085 C  
BRANCH  41  42
HETATM   42  C   UNL     1      -8.091   6.283  71.856  1.00  0.00    -0.109 C  
HETATM   43  O   UNL     1      -9.191   5.713  71.137  1.00  0.00    -0.146 OA 
HETATM   44  C   UNL     1      -8.993   4.295  71.056  1.00  0.00    -0.116 C  
HETATM   45  C   UNL     1      -7.570   3.939  71.482  1.00  0.00    -0.060 C  
HETATM   46  H   UNL     1      -5.547   4.636  73.077  1.00  0.00     0.000 HD 
HETATM   47  C   UNL     1      -6.938   5.283  71.831  1.00  0.00    -0.070 C  
HETATM   48  O   UNL     1      -6.265   5.259  73.092  1.00  0.00    -0.043 OA 
HETATM   49  O   UNL     1      -7.545   3.062  72.623  1.00  0.00    -0.050 OA 
HETATM   50  H   UNL     1      -6.660   2.840  72.888  1.00  0.00     0.000 HD 
BRANCH  44  51
HETATM   51  N   UNL     1      -9.339   3.852  69.720  1.00  0.00    -0.155 NA 
HETATM   52  C   UNL     1      -8.778   2.828  69.007  1.00  0.00    -0.084 A  
HETATM   53  C   UNL     1      -9.710   4.137  67.596  1.00  0.00    -0.122 A  
HETATM   54  N   UNL     1      -8.958   2.983  67.711  1.00  0.00    -0.139 NA 
HETATM   55  C   UNL     1     -10.064   4.616  68.847  1.00  0.00    -0.033 A  
HETATM   56  N   UNL     1     -10.826   5.683  69.139  1.00  0.00    -0.266 NA 
HETATM   57  C   UNL     1     -11.217   6.302  68.006  1.00  0.00    -0.115 A  
HETATM   58  N   UNL     1     -10.893   5.999  66.730  1.00  0.00    -0.316 NA 
HETATM   59  C   UNL     1     -10.107   4.919  66.501  1.00  0.00    -0.255 A  
HETATM   60  N   UNL     1      -9.684   4.680  65.205  1.00  0.00    -0.292 NA 
HETATM   61  H2  UNL     1      -9.914   3.710  64.985  1.00  0.00     0.000 HD 
HETATM   62  H1  UNL     1      -9.973   5.249  64.408  1.00  0.00     0.000 HD 
ENDBRANCH  44  51
ENDBRANCH  41  42
ENDBRANCH  40  41
ENDBRANCH  37  40
ENDBRANCH  36  37
ENDBRANCH  33  36
ENDBRANCH  32  33
ENDBRANCH  31  32
ENDBRANCH  28  31
ENDBRANCH  25  28
ENDBRANCH  22  25
ENDBRANCH  21  22
ENDBRANCH   7  21
TORSDOF 13
ENDMDL
MODEL       74
REMARK 921   NORMALIZED FREE ENERGY PREDICTED BY IDOCK:   -1.83 KCAL/MOL
REMARK 922        TOTAL FREE ENERGY PREDICTED BY IDOCK:   -6.32 KCAL/MOL
REMARK 923 INTER-LIGAND FREE ENERGY PREDICTED BY IDOCK:   -9.01 KCAL/MOL
REMARK 924 INTRA-LIGAND FREE ENERGY PREDICTED BY IDOCK:    2.68 KCAL/MOL
REMARK 927      BINDING AFFINITY PREDICTED BY RF-SCORE:    0.00 PKD
ROOT
HETATM    1  C   UNL     1     -12.844  11.827  72.272  1.00  0.00     0.180 C  
HETATM    2  C   UNL     1     -12.397  11.383  70.907  1.00  0.00    -0.483 A  
HETATM    3  C   UNL     1     -12.518  12.275  69.829  1.00  0.00     0.063 A  
HETATM    4  C   UNL     1     -11.986  11.978  68.570  1.00  0.00    -0.214 A  
HETATM    5  C   UNL     1     -11.224  10.806  68.396  1.00  0.00    -0.284 A  
HETATM    6  C   UNL     1     -11.222   9.860  69.435  1.00  0.00    -0.196 A  
HETATM    7  N   UNL     1     -10.529  10.609  67.182  1.00  0.00    -0.231 NA 
HETATM    8  H   UNL     1     -11.173  14.103  63.461  1.00  0.00     0.000 HD 
HETATM    9  C   UNL     1     -10.752  11.499  66.143  1.00  0.00    -0.274 A  
HETATM   10  C   UNL     1     -11.798  10.131  70.688  1.00  0.00    -0.431 A  
HETATM   11  C   UNL     1     -11.776   9.068  71.752  1.00  0.00    -0.440 C  
HETATM   12  O   UNL     1     -13.171  14.044  65.070  1.00  0.00    -0.720 OA 
HETATM   13  N   UNL     1     -10.106  11.452  65.011  1.00  0.00    -0.259 N  
HETATM   14  H   UNL     1      -9.370  10.755  64.901  1.00  0.00     0.000 HD 
HETATM   15  C   UNL     1     -11.764  12.593  66.340  1.00  0.00    -0.405 A  
HETATM   16  C   UNL     1     -10.366  12.286  63.972  1.00  0.00    -0.397 C  
HETATM   17  C   UNL     1     -12.120  13.430  65.155  1.00  0.00    -0.409 C  
HETATM   18  N   UNL     1     -12.276  12.860  67.507  1.00  0.00    -0.292 NA 
HETATM   19  N   UNL     1     -11.216  13.340  64.137  1.00  0.00    -0.386 N  
HETATM   20  O   UNL     1      -9.891  12.092  62.856  1.00  0.00    -0.270 OA 
ENDROOT
BRANCH   7  21
HETATM   21  C   UNL     1      -9.219   9.933  67.255  1.00  0.00    -0.138 C  
BRANCH  21  22
HETATM   22  C   UNL     1      -8.735   9.468  65.866  1.00  0.00    -0.147 C  
HETATM   23  O   UNL     1      -8.627   8.043  65.885  1.00  0.00    -0.138 OA 
HETATM   24  H   UNL     1      -8.328   7.757  65.029  1.00  0.00     0.000 HD 
BRANCH  22  25
HETATM   25  C   UNL     1      -7.400  10.163  65.546  1.00  0.00    -0.143 C  
HETATM   26  H   UNL     1      -5.839   9.716  64.480  1.00  0.00     0.000 HD 
HETATM   27  O   UNL     1      -6.663   9.287  64.677  1.00  0.00    -0.078 OA 
BRANCH  25  28
HETATM   28  C   UNL     1      -6.535  10.513  66.781  1.00  0.00    -0.081 C  
HETATM   29  H   UNL     1      -4.697  10.159  67.427  1.00  0.00     0.000 HD 
HETATM   30  O   UNL     1      -5.228   9.944  66.669  1.00  0.00    -0.039 OA 
BRANCH  28  31
HETATM   31  C   UNL     1      -7.191  10.034  68.090  1.00  0.00    -0.081 C  
BRANCH  31  32
HETATM   32  O   UNL     1      -6.454  10.477  69.209  1.00  0.00    -0.046 OA 
BRANCH  32  33
HETATM   33  P   UNL     1      -6.240   9.472  70.440  1.00  0.00    -0.084 P  
HETATM   34  O   UNL     1      -7.679   8.800  70.586  1.00  0.00    -0.071 OA 
HETATM   35  O   UNL     1      -5.853  10.127  71.737  1.00  0.00    -0.298 OA 
BRANCH  33  36
HETATM   36  O   UNL     1      -5.136   8.424  69.955  1.00  0.00    -0.023 OA 
BRANCH  36  37
HETATM   37  P   UNL     1      -5.499   6.777  69.571  1.00  0.00    -0.015 P  
HETATM   38  O   UNL     1      -6.706   6.764  70.668  1.00  0.00    -0.051 OA 
HETATM   39  O   UNL     1      -6.009   7.178  68.192  1.00  0.00    -0.027 OA 
BRANCH  37  40
HETATM   40  O   UNL     1      -5.864   5.130  69.186  1.00  0.00    -0.015 OA 
BRANCH  40  41
HETATM   41  C   UNL     1      -5.546   4.199  70.219  1.00  0.00    -0.013 C  
BRANCH  41  42
HETATM   42  C   UNL     1      -6.546   3.037  70.216  1.00  0.00    -0.033 C  
HETATM   43  O   UNL     1      -7.039   2.862  71.550  1.00  0.00    -0.031 OA 
HETATM   44  C   UNL     1      -8.427   2.511  71.479  1.00  0.00    -0.063 C  
HETATM   45  C   UNL     1      -8.954   2.741  70.064  1.00  0.00    -0.101 C  
HETATM   46  H   UNL     1      -8.299   2.719  67.477  1.00  0.00     0.000 HD 
HETATM   47  C   UNL     1      -7.743   3.260  69.294  1.00  0.00    -0.050 C  
HETATM   48  O   UNL     1      -7.555   2.581  68.051  1.00  0.00    -0.055 OA 
HETATM   49  O   UNL     1      -9.450   1.531  69.462  1.00  0.00    -0.105 OA 
HETATM   50  H   UNL     1      -9.778   1.674  68.582  1.00  0.00     0.000 HD 
BRANCH  44  51
HETATM   51  N   UNL     1      -9.145   3.241  72.504  1.00  0.00    -0.091 NA 
HETATM   52  C   UNL     1     -10.483   3.188  72.786  1.00  0.00    -0.128 A  
HETATM   53  C   UNL     1      -9.747   5.037  73.573  1.00  0.00    -0.141 A  
HETATM   54  N   UNL     1     -10.890   4.277  73.409  1.00  0.00    -0.229 NA 
HETATM   55  C   UNL     1      -8.633   4.345  73.130  1.00  0.00    -0.101 A  
HETATM   56  N   UNL     1      -7.348   4.735  73.168  1.00  0.00    -0.081 NA 
HETATM   57  C   UNL     1      -7.250   5.973  73.695  1.00  0.00    -0.088 A  
HETATM   58  N   UNL     1      -8.246   6.793  74.098  1.00  0.00    -0.127 NA 
HETATM   59  C   UNL     1      -9.522   6.348  74.020  1.00  0.00    -0.182 A  
HETATM   60  N   UNL     1     -10.544   7.231  74.325  1.00  0.00    -0.468 NA 
HETATM   61  H2  UNL     1     -11.145   6.774  75.012  1.00  0.00     0.000 HD 
HETATM   62  H1  UNL     1     -10.380   8.184  74.651  1.00  0.00     0.000 HD 
ENDBRANCH  44  51
ENDBRANCH  41  42
ENDBRANCH  40  41
ENDBRANCH  37  40
ENDBRANCH  36  37
ENDBRANCH  33  36
ENDBRANCH  32  33
ENDBRANCH  31  32
ENDBRANCH  28  31
ENDBRANCH  25  28
ENDBRANCH  22  25
ENDBRANCH  21  22
ENDBRANCH   7  21
TORSDOF 13
ENDMDL
MODEL       75
REMARK 921   NORMALIZED FREE ENERGY PREDICTED BY IDOCK:   -1.54 KCAL/MOL
REMARK 922        TOTAL FREE ENERGY PREDICTED BY IDOCK:   -5.83 KCAL/MOL
REMARK 923 INTER-LIGAND FREE ENERGY PREDICTED BY IDOCK:   -7.14 KCAL/MOL
REMARK 924 INTRA-LIGAND FREE ENERGY PREDICTED BY IDOCK:    1.32 KCAL/MOL
REMARK 927      BINDING AFFINITY PREDICTED BY RF-SCORE:    0.00 PKD
ROOT
HETATM    1  C   UNL     1     -13.646  13.886  65.714  1.00  0.00     1.415 C  
HETATM    2  C   UNL     1     -12.286  14.285  66.217  1.00  0.00    -0.399 A  
HETATM    3  C   UNL     1     -11.904  15.634  66.145  1.00  0.00     0.609 A  
HETATM    4  C   UNL     1     -10.718  16.090  66.728  1.00  0.00    -0.259 A  
HETATM    5  C   UNL     1      -9.933  15.205  67.493  1.00  0.00    -0.225 A  
HETATM    6  C   UNL     1     -10.248  13.837  67.447  1.00  0.00    -0.252 A  
HETATM    7  N   UNL     1      -8.846  15.714  68.238  1.00  0.00    -0.177 NA 
HETATM    8  H   UNL     1      -7.755  20.720  67.765  1.00  0.00     0.000 HD 
HETATM    9  C   UNL     1      -8.491  17.043  68.062  1.00  0.00    -0.216 A  
HETATM   10  C   UNL     1     -11.413  13.363  66.820  1.00  0.00    -0.376 A  
HETATM   11  C   UNL     1     -11.684  11.884  66.793  1.00  0.00    -0.281 C  
HETATM   12  O   UNL     1      -8.979  19.811  65.701  1.00  0.00    -0.325 OA 
HETATM   13  N   UNL     1      -7.556  17.630  68.755  1.00  0.00    -0.267 N  
HETATM   14  H   UNL     1      -7.093  17.099  69.493  1.00  0.00     0.000 HD 
HETATM   15  C   UNL     1      -9.243  17.858  67.047  1.00  0.00    -0.260 A  
HETATM   16  C   UNL     1      -7.168  18.913  68.543  1.00  0.00    -0.290 C  
HETATM   17  C   UNL     1      -8.733  19.230  66.745  1.00  0.00    -0.313 C  
HETATM   18  N   UNL     1     -10.337  17.428  66.488  1.00  0.00    -0.328 NA 
HETATM   19  N   UNL     1      -7.875  19.709  67.691  1.00  0.00    -0.275 N  
HETATM   20  O   UNL     1      -6.156  19.375  69.064  1.00  0.00    -0.229 OA 
ENDROOT
BRANCH   7  21
HETATM   21  C   UNL     1      -8.564  15.081  69.541  1.00  0.00    -0.068 C  
BRANCH  21  22
HETATM   22  C   UNL     1      -7.130  14.517  69.607  1.00  0.00    -0.090 C  
HETATM   23  O   UNL     1      -6.268  15.545  70.099  1.00  0.00    -0.153 OA 
HETATM   24  H   UNL     1      -5.384  15.198  70.139  1.00  0.00     0.000 HD 
BRANCH  22  25
HETATM   25  C   UNL     1      -6.726  14.020  68.207  1.00  0.00    -0.109 C  
HETATM   26  H   UNL     1      -7.095  14.589  66.387  1.00  0.00     0.000 HD 
HETATM   27  O   UNL     1      -7.344  14.896  67.251  1.00  0.00    -0.199 OA 
BRANCH  25  28
HETATM   28  C   UNL     1      -7.119  12.555  67.897  1.00  0.00    -0.111 C  
HETATM   29  H   UNL     1      -7.168  10.821  68.851  1.00  0.00     0.000 HD 
HETATM   30  O   UNL     1      -6.927  11.720  69.042  1.00  0.00    -0.100 OA 
BRANCH  28  31
HETATM   31  C   UNL     1      -6.315  11.989  66.710  1.00  0.00     0.029 C  
BRANCH  31  32
HETATM   32  O   UNL     1      -6.910  10.805  66.225  1.00  0.00    -0.124 OA 
BRANCH  32  33
HETATM   33  P   UNL     1      -6.174   9.996  65.052  1.00  0.00    -0.128 P  
HETATM   34  O   UNL     1      -5.134   9.096  65.859  1.00  0.00    -0.035 OA 
HETATM   35  O   UNL     1      -5.439  10.848  64.055  1.00  0.00    -0.092 OA 
BRANCH  33  36
HETATM   36  O   UNL     1      -7.311   9.118  64.353  1.00  0.00    -0.097 OA 
BRANCH  36  37
HETATM   37  P   UNL     1      -8.169   7.857  65.170  1.00  0.00    -0.081 P  
HETATM   38  O   UNL     1      -9.230   8.939  65.772  1.00  0.00    -0.209 OA 
HETATM   39  O   UNL     1      -8.654   7.285  63.844  1.00  0.00     0.240 OA 
BRANCH  37  40
HETATM   40  O   UNL     1      -9.027   6.596  65.986  1.00  0.00    -0.154 OA 
BRANCH  40  41
HETATM   41  C   UNL     1      -8.556   5.280  65.698  1.00  0.00    -0.143 C  
BRANCH  41  42
HETATM   42  C   UNL     1      -8.254   4.526  66.999  1.00  0.00    -0.102 C  
HETATM   43  O   UNL     1      -8.294   5.463  68.082  1.00  0.00    -0.099 OA 
HETATM   44  C   UNL     1      -8.873   4.814  69.222  1.00  0.00    -0.092 C  
HETATM   45  C   UNL     1      -9.507   3.490  68.805  1.00  0.00    -0.138 C  
HETATM   46  H   UNL     1      -9.332   1.443  67.101  1.00  0.00     0.000 HD 
HETATM   47  C   UNL     1      -9.247   3.407  67.303  1.00  0.00    -0.193 C  
HETATM   48  O   UNL     1      -8.714   2.140  66.911  1.00  0.00    -0.107 OA 
HETATM   49  O   UNL     1      -8.916   2.364  69.479  1.00  0.00    -0.083 OA 
HETATM   50  H   UNL     1      -9.311   1.540  69.220  1.00  0.00     0.000 HD 
BRANCH  44  51
HETATM   51  N   UNL     1      -9.790   5.734  69.864  1.00  0.00    -0.169 NA 
HETATM   52  C   UNL     1     -11.124   5.901  69.607  1.00  0.00    -0.343 A  
HETATM   53  C   UNL     1     -10.438   7.691  70.557  1.00  0.00    -0.220 A  
HETATM   54  N   UNL     1     -11.545   7.090  69.988  1.00  0.00    -0.222 NA 
HETATM   55  C   UNL     1      -9.373   6.807  70.603  1.00  0.00    -0.162 A  
HETATM   56  N   UNL     1      -8.151   7.010  71.124  1.00  0.00    -0.104 NA 
HETATM   57  C   UNL     1      -8.052   8.266  71.607  1.00  0.00    -0.134 A  
HETATM   58  N   UNL     1      -8.972   9.255  71.566  1.00  0.00    -0.289 NA 
HETATM   59  C   UNL     1     -10.180   8.992  71.013  1.00  0.00    -0.277 A  
HETATM   60  N   UNL     1     -11.077  10.038  70.870  1.00  0.00    -0.339 NA 
HETATM   61  H2  UNL     1     -11.960   9.740  71.284  1.00  0.00     0.000 HD 
HETATM   62  H1  UNL     1     -10.889  10.984  71.202  1.00  0.00     0.000 HD 
ENDBRANCH  44  51
ENDBRANCH  41  42
ENDBRANCH  40  41
ENDBRANCH  37  40
ENDBRANCH  36  37
ENDBRANCH  33  36
ENDBRANCH  32  33
ENDBRANCH  31  32
ENDBRANCH  28  31
ENDBRANCH  25  28
ENDBRANCH  22  25
ENDBRANCH  21  22
ENDBRANCH   7  21
TORSDOF 13
ENDMDL
MODEL       76
REMARK 921   NORMALIZED FREE ENERGY PREDICTED BY IDOCK:   -0.86 KCAL/MOL
REMARK 922        TOTAL FREE ENERGY PREDICTED BY IDOCK:   -4.62 KCAL/MOL
REMARK 923 INTER-LIGAND FREE ENERGY PREDICTED BY IDOCK:   -8.16 KCAL/MOL
REMARK 924 INTRA-LIGAND FREE ENERGY PREDICTED BY IDOCK:    3.53 KCAL/MOL
REMARK 927      BINDING AFFINITY PREDICTED BY RF-SCORE:    0.00 PKD
ROOT
HETATM    1  C   UNL     1     -13.178  15.793  72.782  1.00  0.00    -0.609 C  
HETATM    2  C   UNL     1     -12.356  15.454  71.570  1.00  0.00    -0.443 A  
HETATM    3  C   UNL     1     -10.989  15.773  71.565  1.00  0.00    -0.017 A  
HETATM    4  C   UNL     1     -10.143  15.353  70.534  1.00  0.00     0.244 A  
HETATM    5  C   UNL     1     -10.644  14.506  69.525  1.00  0.00    -0.107 A  
HETATM    6  C   UNL     1     -12.032  14.303  69.463  1.00  0.00    -0.384 A  
HETATM    7  N   UNL     1      -9.745  13.928  68.601  1.00  0.00    -0.199 NA 
HETATM    8  H   UNL     1      -4.794  15.295  68.902  1.00  0.00     0.000 HD 
HETATM    9  C   UNL     1      -8.422  14.345  68.619  1.00  0.00    -0.156 A  
HETATM   10  C   UNL     1     -12.896  14.765  70.470  1.00  0.00    -0.374 A  
HETATM   11  C   UNL     1     -14.376  14.529  70.334  1.00  0.00     1.611 C  
HETATM   12  O   UNL     1      -6.341  17.095  69.877  1.00  0.00    -0.209 OA 
HETATM   13  N   UNL     1      -7.499  13.822  67.862  1.00  0.00    -0.134 N  
HETATM   14  H   UNL     1      -7.751  13.039  67.259  1.00  0.00     0.000 HD 
HETATM   15  C   UNL     1      -8.025  15.430  69.581  1.00  0.00    -0.138 A  
HETATM   16  C   UNL     1      -6.217  14.269  67.837  1.00  0.00    -0.157 C  
HETATM   17  C   UNL     1      -6.644  15.987  69.464  1.00  0.00    -0.201 C  
HETATM   18  N   UNL     1      -8.817  15.837  70.530  1.00  0.00     1.340 NA 
HETATM   19  N   UNL     1      -5.797  15.192  68.748  1.00  0.00    -0.087 N  
HETATM   20  O   UNL     1      -5.422  13.899  66.976  1.00  0.00     0.068 OA 
ENDROOT
BRANCH   7  21
HETATM   21  C   UNL     1     -10.041  12.560  68.135  1.00  0.00    -0.225 C  
BRANCH  21  22
HETATM   22  C   UNL     1      -9.534  12.321  66.697  1.00  0.00    -0.226 C  
HETATM   23  O   UNL     1      -8.134  12.606  66.664  1.00  0.00    -0.405 OA 
HETATM   24  H   UNL     1      -7.822  12.459  65.779  1.00  0.00     0.000 HD 
BRANCH  22  25
HETATM   25  C   UNL     1     -10.345  13.203  65.730  1.00  0.00    -0.289 C  
HETATM   26  H   UNL     1     -11.541  14.720  65.930  1.00  0.00     0.000 HD 
HETATM   27  O   UNL     1     -11.041  14.176  66.526  1.00  0.00    -0.308 OA 
BRANCH  25  28
HETATM   28  C   UNL     1     -11.358  12.439  64.844  1.00  0.00    -0.317 C  
HETATM   29  H   UNL     1     -13.253  11.874  64.944  1.00  0.00     0.000 HD 
HETATM   30  O   UNL     1     -12.631  12.343  65.488  1.00  0.00    -0.616 OA 
BRANCH  28  31
HETATM   31  C   UNL     1     -10.855  11.024  64.494  1.00  0.00    -0.187 C  
BRANCH  31  32
HETATM   32  O   UNL     1      -9.468  10.916  64.732  1.00  0.00    -0.213 OA 
BRANCH  32  33
HETATM   33  P   UNL     1      -8.523  10.375  63.556  1.00  0.00    -0.124 P  
HETATM   34  O   UNL     1      -8.542  11.586  62.518  1.00  0.00    -0.265 OA 
HETATM   35  O   UNL     1      -9.004   9.121  62.879  1.00  0.00    -0.185 OA 
BRANCH  33  36
HETATM   36  O   UNL     1      -7.082  10.173  64.215  1.00  0.00    -0.130 OA 
BRANCH  36  37
HETATM   37  P   UNL     1      -6.825   9.271  65.669  1.00  0.00    -0.076 P  
HETATM   38  O   UNL     1      -8.260   8.518  65.481  1.00  0.00    -0.121 OA 
HETATM   39  O   UNL     1      -5.697   8.482  65.016  1.00  0.00    -0.047 OA 
BRANCH  37  40
HETATM   40  O   UNL     1      -6.567   8.367  67.122  1.00  0.00    -0.057 OA 
BRANCH  40  41
HETATM   41  C   UNL     1      -7.594   8.521  68.101  1.00  0.00    -0.098 C  
BRANCH  41  42
HETATM   42  C   UNL     1      -7.938   7.165  68.729  1.00  0.00    -0.123 C  
HETATM   43  O   UNL     1      -8.008   7.332  70.150  1.00  0.00    -0.108 OA 
HETATM   44  C   UNL     1      -9.068   6.508  70.652  1.00  0.00    -0.148 C  
HETATM   45  C   UNL     1      -9.923   5.994  69.497  1.00  0.00    -0.178 C  
HETATM   46  H   UNL     1      -9.885   5.253  66.933  1.00  0.00     0.000 HD 
HETATM   47  C   UNL     1      -9.268   6.587  68.253  1.00  0.00    -0.116 C  
HETATM   48  O   UNL     1      -9.057   5.613  67.230  1.00  0.00    -0.112 OA 
HETATM   49  O   UNL     1      -9.933   4.556  69.421  1.00  0.00    -0.204 OA 
HETATM   50  H   UNL     1     -10.465   4.236  68.702  1.00  0.00     0.000 HD 
BRANCH  44  51
HETATM   51  N   UNL     1      -9.807   7.256  71.649  1.00  0.00    -0.166 NA 
HETATM   52  C   UNL     1     -10.101   6.877  72.931  1.00  0.00    -0.189 A  
HETATM   53  C   UNL     1     -11.513   8.388  72.384  1.00  0.00    -0.380 A  
HETATM   54  N   UNL     1     -11.150   7.523  73.399  1.00  0.00    -0.289 NA 
HETATM   55  C   UNL     1     -10.605   8.323  71.340  1.00  0.00    -0.223 A  
HETATM   56  N   UNL     1     -10.595   9.044  70.206  1.00  0.00    -0.208 NA 
HETATM   57  C   UNL     1     -11.655   9.878  70.174  1.00  0.00    -0.218 A  
HETATM   58  N   UNL     1     -12.655   9.998  71.074  1.00  0.00    -0.347 NA 
HETATM   59  C   UNL     1     -12.616   9.232  72.190  1.00  0.00    -0.371 A  
HETATM   60  N   UNL     1     -13.699   9.275  73.052  1.00  0.00    -0.934 NA 
HETATM   61  H2  UNL     1     -13.336   9.460  73.987  1.00  0.00     0.000 HD 
HETATM   62  H1  UNL     1     -14.502   9.889  72.911  1.00  0.00     0.000 HD 
ENDBRANCH  44  51
ENDBRANCH  41  42
ENDBRANCH  40  41
ENDBRANCH  37  40
ENDBRANCH  36  37
ENDBRANCH  33  36
ENDBRANCH  32  33
ENDBRANCH  31  32
ENDBRANCH  28  31
ENDBRANCH  25  28
ENDBRANCH  22  25
ENDBRANCH  21  22
ENDBRANCH   7  21
TORSDOF 13
ENDMDL
MODEL       77
REMARK 921   NORMALIZED FREE ENERGY PREDICTED BY IDOCK:   -0.83 KCAL/MOL
REMARK 922        TOTAL FREE ENERGY PREDICTED BY IDOCK:   -4.57 KCAL/MOL
REMARK 923 INTER-LIGAND FREE ENERGY PREDICTED BY IDOCK:   -7.01 KCAL/MOL
REMARK 924 INTRA-LIGAND FREE ENERGY PREDICTED BY IDOCK:    2.44 KCAL/MOL
REMARK 927      BINDING AFFINITY PREDICTED BY RF-SCORE:    0.00 PKD
ROOT
HETATM    1  C   UNL     1      -6.871   1.843  72.238  1.00  0.00    -0.019 C  
HETATM    2  C   UNL     1      -6.866   3.000  71.278  1.00  0.00    -0.032 A  
HETATM    3  C   UNL     1      -7.010   2.745  69.905  1.00  0.00    -0.034 A  
HETATM    4  C   UNL     1      -7.160   3.783  68.980  1.00  0.00    -0.046 A  
HETATM    5  C   UNL     1      -7.272   5.111  69.437  1.00  0.00    -0.057 A  
HETATM    6  C   UNL     1      -6.993   5.369  70.789  1.00  0.00    -0.056 A  
HETATM    7  N   UNL     1      -7.618   6.129  68.520  1.00  0.00    -0.090 NA 
HETATM    8  H   UNL     1      -8.106   4.825  63.567  1.00  0.00     0.000 HD 
HETATM    9  C   UNL     1      -7.677   5.810  67.172  1.00  0.00    -0.101 A  
HETATM   10  C   UNL     1      -6.791   4.333  71.717  1.00  0.00    -0.034 A  
HETATM   11  C   UNL     1      -6.479   4.679  73.147  1.00  0.00    -0.050 C  
HETATM   12  O   UNL     1      -6.556   3.217  64.828  1.00  0.00    -0.037 OA 
HETATM   13  N   UNL     1      -8.060   6.654  66.255  1.00  0.00    -0.111 N  
HETATM   14  H   UNL     1      -8.374   7.579  66.547  1.00  0.00     0.000 HD 
HETATM   15  C   UNL     1      -7.314   4.414  66.748  1.00  0.00    -0.080 A  
HETATM   16  C   UNL     1      -8.062   6.360  64.930  1.00  0.00    -0.120 C  
HETATM   17  C   UNL     1      -7.212   4.139  65.284  1.00  0.00    -0.071 C  
HETATM   18  N   UNL     1      -7.154   3.450  67.609  1.00  0.00    -0.050 NA 
HETATM   19  N   UNL     1      -7.819   5.086  64.511  1.00  0.00    -0.089 N  
HETATM   20  O   UNL     1      -8.231   7.229  64.077  1.00  0.00    -0.065 OA 
ENDROOT
BRANCH   7  21
HETATM   21  C   UNL     1      -8.472   7.225  69.018  1.00  0.00    -0.129 C  
BRANCH  21  22
HETATM   22  C   UNL     1      -8.596   7.202  70.556  1.00  0.00    -0.144 C  
HETATM   23  O   UNL     1      -9.982   7.289  70.893  1.00  0.00    -0.185 OA 
HETATM   24  H   UNL     1     -10.058   7.275  71.841  1.00  0.00     0.000 HD 
BRANCH  22  25
HETATM   25  C   UNL     1      -7.767   8.361  71.139  1.00  0.00    -0.100 C  
HETATM   26  H   UNL     1      -7.939   9.535  72.676  1.00  0.00     0.000 HD 
HETATM   27  O   UNL     1      -8.450   8.820  72.316  1.00  0.00    -0.375 OA 
BRANCH  25  28
HETATM   28  C   UNL     1      -7.540   9.550  70.175  1.00  0.00    -0.142 C  
HETATM   29  H   UNL     1      -6.623  11.304  70.207  1.00  0.00     0.000 HD 
HETATM   30  O   UNL     1      -6.762  10.574  70.799  1.00  0.00    -0.343 OA 
BRANCH  28  31
HETATM   31  C   UNL     1      -8.874  10.149  69.686  1.00  0.00    -0.164 C  
BRANCH  31  32
HETATM   32  O   UNL     1      -8.664  10.988  68.571  1.00  0.00    -0.146 OA 
BRANCH  32  33
HETATM   33  P   UNL     1      -7.522  10.597  67.515  1.00  0.00    -0.096 P  
HETATM   34  O   UNL     1      -8.257  10.823  66.118  1.00  0.00    -0.154 OA 
HETATM   35  O   UNL     1      -7.030   9.179  67.605  1.00  0.00    -0.076 OA 
BRANCH  33  36
HETATM   36  O   UNL     1      -6.341  11.648  67.747  1.00  0.00    -0.058 OA 
BRANCH  36  37
HETATM   37  P   UNL     1      -6.616  13.325  68.067  1.00  0.00    -0.166 P  
HETATM   38  O   UNL     1      -7.641  12.948  69.279  1.00  0.00     0.168 OA 
HETATM   39  O   UNL     1      -5.191  13.493  68.580  1.00  0.00    -0.074 OA 
BRANCH  37  40
HETATM   40  O   UNL     1      -6.890  15.003  68.388  1.00  0.00    -0.100 OA 
BRANCH  40  41
HETATM   41  C   UNL     1      -5.936  15.880  67.791  1.00  0.00    -0.147 C  
BRANCH  41  42
HETATM   42  C   UNL     1      -6.601  16.725  66.697  1.00  0.00    -0.181 C  
HETATM   43  O   UNL     1      -7.844  16.107  66.344  1.00  0.00    -0.265 OA 
HETATM   44  C   UNL     1      -8.805  17.138  66.081  1.00  0.00    -0.185 C  
HETATM   45  C   UNL     1      -8.268  18.487  66.553  1.00  0.00    -0.281 C  
HETATM   46  H   UNL     1      -6.057  19.940  66.898  1.00  0.00     0.000 HD 
HETATM   47  C   UNL     1      -6.890  18.162  67.121  1.00  0.00    -0.191 C  
HETATM   48  O   UNL     1      -5.877  19.045  66.634  1.00  0.00    -0.161 OA 
HETATM   49  O   UNL     1      -8.156  19.438  65.479  1.00  0.00    -0.344 OA 
HETATM   50  H   UNL     1      -7.823  20.277  65.773  1.00  0.00     0.000 HD 
BRANCH  44  51
HETATM   51  N   UNL     1     -10.069  16.760  66.680  1.00  0.00    -0.289 NA 
HETATM   52  C   UNL     1     -10.519  17.056  67.938  1.00  0.00    -0.354 A  
HETATM   53  C   UNL     1     -11.617  15.348  67.263  1.00  0.00    -0.090 A  
HETATM   54  N   UNL     1     -11.439  16.200  68.337  1.00  0.00    -0.351 NA 
HETATM   55  C   UNL     1     -10.863  15.765  66.179  1.00  0.00    -0.240 A  
HETATM   56  N   UNL     1     -10.810  15.223  64.951  1.00  0.00    -0.434 NA 
HETATM   57  C   UNL     1     -11.602  14.133  64.887  1.00  0.00    -0.379 A  
HETATM   58  N   UNL     1     -12.331  13.567  65.874  1.00  0.00    -0.455 NA 
HETATM   59  C   UNL     1     -12.331  14.152  67.095  1.00  0.00    -0.178 A  
HETATM   60  N   UNL     1     -12.985  13.507  68.131  1.00  0.00     0.941 NA 
HETATM   61  H2  UNL     1     -13.620  14.183  68.557  1.00  0.00     0.000 HD 
HETATM   62  H1  UNL     1     -13.505  12.638  68.008  1.00  0.00     0.000 HD 
ENDBRANCH  44  51
ENDBRANCH  41  42
ENDBRANCH  40  41
ENDBRANCH  37  40
ENDBRANCH  36  37
ENDBRANCH  33  36
ENDBRANCH  32  33
ENDBRANCH  31  32
ENDBRANCH  28  31
ENDBRANCH  25  28
ENDBRANCH  22  25
ENDBRANCH  21  22
ENDBRANCH   7  21
TORSDOF 13
ENDMDL
MODEL       78
REMARK 921   NORMALIZED FREE ENERGY PREDICTED BY IDOCK:   -0.29 KCAL/MOL
REMARK 922        TOTAL FREE ENERGY PREDICTED BY IDOCK:   -3.62 KCAL/MOL
REMARK 923 INTER-LIGAND FREE ENERGY PREDICTED BY IDOCK:   -6.88 KCAL/MOL
REMARK 924 INTRA-LIGAND FREE ENERGY PREDICTED BY IDOCK:    3.26 KCAL/MOL
REMARK 927      BINDING AFFINITY PREDICTED BY RF-SCORE:    0.00 PKD
ROOT
HETATM    1  C   UNL     1     -13.171  15.781  72.772  1.00  0.00    -0.609 C  
HETATM    2  C   UNL     1     -12.355  15.397  71.568  1.00  0.00    -0.443 A  
HETATM    3  C   UNL     1     -10.989  15.718  71.544  1.00  0.00    -0.017 A  
HETATM    4  C   UNL     1     -10.148  15.260  70.524  1.00  0.00     0.266 A  
HETATM    5  C   UNL     1     -10.654  14.375  69.551  1.00  0.00    -0.060 A  
HETATM    6  C   UNL     1     -12.042  14.169  69.504  1.00  0.00    -0.388 A  
HETATM    7  N   UNL     1      -9.760  13.764  68.643  1.00  0.00    -0.186 NA 
HETATM    8  H   UNL     1      -4.808  15.145  68.864  1.00  0.00     0.000 HD 
HETATM    9  C   UNL     1      -8.437  14.182  68.638  1.00  0.00    -0.120 A  
HETATM   10  C   UNL     1     -12.901  14.668  70.498  1.00  0.00    -0.371 A  
HETATM   11  C   UNL     1     -14.381  14.425  70.380  1.00  0.00     1.780 C  
HETATM   12  O   UNL     1      -6.352  16.979  69.780  1.00  0.00    -0.234 OA 
HETATM   13  N   UNL     1      -7.518  13.632  67.896  1.00  0.00    -0.139 N  
HETATM   14  H   UNL     1      -7.773  12.827  67.324  1.00  0.00     0.000 HD 
HETATM   15  C   UNL     1      -8.035  15.302  69.556  1.00  0.00    -0.199 A  
HETATM   16  C   UNL     1      -6.237  14.078  67.846  1.00  0.00    -0.156 C  
HETATM   17  C   UNL     1      -6.656  15.857  69.410  1.00  0.00    -0.173 C  
HETATM   18  N   UNL     1      -8.823  15.744  70.494  1.00  0.00     1.340 NA 
HETATM   19  N   UNL     1      -5.812  15.036  68.719  1.00  0.00    -0.083 N  
HETATM   20  O   UNL     1      -5.447  13.678  66.995  1.00  0.00    -0.040 OA 
ENDROOT
BRANCH   7  21
HETATM   21  C   UNL     1     -10.057  12.379  68.230  1.00  0.00    -0.227 C  
BRANCH  21  22
HETATM   22  C   UNL     1      -9.542  12.081  66.807  1.00  0.00    -0.208 C  
HETATM   23  O   UNL     1      -8.114  12.144  66.827  1.00  0.00    -0.307 OA 
HETATM   24  H   UNL     1      -7.797  11.961  65.950  1.00  0.00     0.000 HD 
BRANCH  22  25
HETATM   25  C   UNL     1     -10.169  13.091  65.829  1.00  0.00    -0.290 C  
HETATM   26  H   UNL     1     -11.065  14.804  66.010  1.00  0.00     0.000 HD 
HETATM   27  O   UNL     1     -10.677  14.182  66.613  1.00  0.00    -0.285 OA 
BRANCH  25  28
HETATM   28  C   UNL     1     -11.302  12.520  64.941  1.00  0.00    -0.310 C  
HETATM   29  H   UNL     1     -13.242  12.157  65.100  1.00  0.00     0.000 HD 
HETATM   30  O   UNL     1     -12.547  12.507  65.645  1.00  0.00    -0.612 OA 
BRANCH  28  31
HETATM   31  C   UNL     1     -10.977  11.096  64.449  1.00  0.00    -0.200 C  
BRANCH  31  32
HETATM   32  O   UNL     1      -9.615  10.795  64.659  1.00  0.00    -0.223 OA 
BRANCH  32  33
HETATM   33  P   UNL     1      -8.724  10.340  63.406  1.00  0.00    -0.246 P  
HETATM   34  O   UNL     1      -8.937  11.542  62.380  1.00  0.00    -0.316 OA 
HETATM   35  O   UNL     1      -9.142   9.046  62.764  1.00  0.00    -0.098 OA 
BRANCH  33  36
HETATM   36  O   UNL     1      -7.222  10.272  63.945  1.00  0.00    -0.127 OA 
BRANCH  36  37
HETATM   37  P   UNL     1      -6.701   9.154  65.159  1.00  0.00    -0.075 P  
HETATM   38  O   UNL     1      -7.963   8.174  64.827  1.00  0.00    -0.132 OA 
HETATM   39  O   UNL     1      -5.477   8.779  64.332  1.00  0.00    -0.057 OA 
BRANCH  37  40
HETATM   40  O   UNL     1      -6.180   8.035  66.371  1.00  0.00    -0.044 OA 
BRANCH  40  41
HETATM   41  C   UNL     1      -7.156   7.757  67.374  1.00  0.00    -0.086 C  
BRANCH  41  42
HETATM   42  C   UNL     1      -7.144   8.854  68.446  1.00  0.00    -0.077 C  
HETATM   43  O   UNL     1      -8.493   9.284  68.666  1.00  0.00    -0.120 OA 
HETATM   44  C   UNL     1      -8.661   9.559  70.063  1.00  0.00    -0.215 C  
HETATM   45  C   UNL     1      -7.469   9.019  70.849  1.00  0.00    -0.116 C  
HETATM   46  H   UNL     1      -4.848   8.525  70.747  1.00  0.00     0.000 HD 
HETATM   47  C   UNL     1      -6.569   8.398  69.785  1.00  0.00    -0.039 C  
HETATM   48  O   UNL     1      -5.207   8.809  69.914  1.00  0.00    -0.029 OA 
HETATM   49  O   UNL     1      -6.765  10.056  71.557  1.00  0.00    -0.236 OA 
HETATM   50  H   UNL     1      -6.024   9.721  72.046  1.00  0.00     0.000 HD 
BRANCH  44  51
HETATM   51  N   UNL     1      -9.941   9.032  70.491  1.00  0.00    -0.200 NA 
HETATM   52  C   UNL     1     -10.861   9.632  71.307  1.00  0.00    -0.296 A  
HETATM   53  C   UNL     1     -11.248   7.529  71.363  1.00  0.00    -0.242 A  
HETATM   54  N   UNL     1     -11.653   8.746  71.877  1.00  0.00    -0.338 NA 
HETATM   55  C   UNL     1     -10.269   7.707  70.400  1.00  0.00    -0.203 A  
HETATM   56  N   UNL     1      -9.666   6.770  69.650  1.00  0.00    -0.155 NA 
HETATM   57  C   UNL     1     -10.127   5.544  69.975  1.00  0.00    -0.241 A  
HETATM   58  N   UNL     1     -11.017   5.210  70.935  1.00  0.00     0.027 NA 
HETATM   59  C   UNL     1     -11.578   6.200  71.669  1.00  0.00    -0.257 A  
HETATM   60  N   UNL     1     -12.401   5.847  72.725  1.00  0.00    -0.465 NA 
HETATM   61  H2  UNL     1     -13.276   6.359  72.614  1.00  0.00     0.000 HD 
HETATM   62  H1  UNL     1     -12.641   4.880  72.948  1.00  0.00     0.000 HD 
ENDBRANCH  44  51
ENDBRANCH  41  42
ENDBRANCH  40  41
ENDBRANCH  37  40
ENDBRANCH  36  37
ENDBRANCH  33  36
ENDBRANCH  32  33
ENDBRANCH  31  32
ENDBRANCH  28  31
ENDBRANCH  25  28
ENDBRANCH  22  25
ENDBRANCH  21  22
ENDBRANCH   7  21
TORSDOF 13
ENDMDL
MODEL       79
REMARK 921   NORMALIZED FREE ENERGY PREDICTED BY IDOCK:   -0.19 KCAL/MOL
REMARK 922        TOTAL FREE ENERGY PREDICTED BY IDOCK:   -3.43 KCAL/MOL
REMARK 923 INTER-LIGAND FREE ENERGY PREDICTED BY IDOCK:   -4.45 KCAL/MOL
REMARK 924 INTRA-LIGAND FREE ENERGY PREDICTED BY IDOCK:    1.02 KCAL/MOL
REMARK 927      BINDING AFFINITY PREDICTED BY RF-SCORE:    0.00 PKD
ROOT
HETATM    1  C   UNL     1     -13.987  15.925  72.380  1.00  0.00    -0.368 C  
HETATM    2  C   UNL     1     -12.956  15.053  71.719  1.00  0.00    -0.429 A  
HETATM    3  C   UNL     1     -13.056  13.660  71.858  1.00  0.00    -0.476 A  
HETATM    4  C   UNL     1     -12.219  12.792  71.149  1.00  0.00     0.003 A  
HETATM    5  C   UNL     1     -11.321  13.315  70.197  1.00  0.00     0.174 A  
HETATM    6  C   UNL     1     -11.133  14.706  70.162  1.00  0.00    -0.175 A  
HETATM    7  N   UNL     1     -10.622  12.428  69.348  1.00  0.00     0.135 NA 
HETATM    8  H   UNL     1     -11.258   7.380  70.114  1.00  0.00     0.000 HD 
HETATM    9  C   UNL     1     -10.722  11.066  69.591  1.00  0.00    -0.139 A  
HETATM   10  C   UNL     1     -11.937  15.584  70.910  1.00  0.00    -0.420 A  
HETATM   11  C   UNL     1     -11.672  17.063  70.840  1.00  0.00     1.364 C  
HETATM   12  O   UNL     1     -11.719   8.734  72.244  1.00  0.00    -0.363 OA 
HETATM   13  N   UNL     1     -10.180  10.162  68.824  1.00  0.00    -0.177 N  
HETATM   14  H   UNL     1      -9.697  10.469  67.980  1.00  0.00     0.000 HD 
HETATM   15  C   UNL     1     -11.522  10.606  70.778  1.00  0.00    -0.214 A  
HETATM   16  C   UNL     1     -10.228   8.833  69.093  1.00  0.00    -0.207 C  
HETATM   17  C   UNL     1     -11.472   9.154  71.126  1.00  0.00    -0.318 C  
HETATM   18  N   UNL     1     -12.287  11.415  71.453  1.00  0.00    -0.232 NA 
HETATM   19  N   UNL     1     -11.008   8.369  70.111  1.00  0.00    -0.238 N  
HETATM   20  O   UNL     1      -9.543   8.024  68.472  1.00  0.00    -0.151 OA 
ENDROOT
BRANCH   7  21
HETATM   21  C   UNL     1     -10.368  12.875  67.965  1.00  0.00    -0.227 C  
BRANCH  21  22
HETATM   22  C   UNL     1      -9.669  14.250  67.925  1.00  0.00    -0.222 C  
HETATM   23  O   UNL     1     -10.100  14.936  66.748  1.00  0.00    -0.244 OA 
HETATM   24  H   UNL     1      -9.669  15.783  66.724  1.00  0.00     0.000 HD 
BRANCH  22  25
HETATM   25  C   UNL     1      -8.145  14.035  67.966  1.00  0.00    -0.152 C  
HETATM   26  H   UNL     1      -6.591  15.169  67.708  1.00  0.00     0.000 HD 
HETATM   27  O   UNL     1      -7.531  15.302  67.683  1.00  0.00    -0.141 OA 
BRANCH  25  28
HETATM   28  C   UNL     1      -7.611  12.968  66.980  1.00  0.00     0.105 C  
HETATM   29  H   UNL     1      -8.309  11.383  66.021  1.00  0.00     0.000 HD 
HETATM   30  O   UNL     1      -8.637  12.038  66.626  1.00  0.00    -0.187 OA 
BRANCH  28  31
HETATM   31  C   UNL     1      -6.407  12.204  67.565  1.00  0.00    -0.129 C  
BRANCH  31  32
HETATM   32  O   UNL     1      -5.647  11.609  66.536  1.00  0.00    -0.188 OA 
BRANCH  32  33
HETATM   33  P   UNL     1      -6.007  10.115  66.077  1.00  0.00    -0.100 P  
HETATM   34  O   UNL     1      -5.771   9.280  67.414  1.00  0.00    -0.041 OA 
HETATM   35  O   UNL     1      -5.145   9.563  64.975  1.00  0.00    -0.042 OA 
BRANCH  33  36
HETATM   36  O   UNL     1      -7.548  10.151  65.658  1.00  0.00    -0.130 OA 
BRANCH  36  37
HETATM   37  P   UNL     1      -8.328   8.861  64.809  1.00  0.00    -0.157 P  
HETATM   38  O   UNL     1      -9.789   9.533  65.084  1.00  0.00    -0.248 OA 
HETATM   39  O   UNL     1      -7.742   9.336  63.485  1.00  0.00    -0.111 OA 
BRANCH  37  40
HETATM   40  O   UNL     1      -9.108   7.572  63.958  1.00  0.00     0.988 OA 
BRANCH  40  41
HETATM   41  C   UNL     1      -8.268   6.450  63.691  1.00  0.00     0.044 C  
BRANCH  41  42
HETATM   42  C   UNL     1      -7.256   6.259  64.829  1.00  0.00    -0.064 C  
HETATM   43  O   UNL     1      -7.939   6.447  66.074  1.00  0.00    -0.106 OA 
HETATM   44  C   UNL     1      -7.408   5.517  67.027  1.00  0.00    -0.080 C  
HETATM   45  C   UNL     1      -6.544   4.477  66.318  1.00  0.00    -0.045 C  
HETATM   46  H   UNL     1      -4.909   4.061  64.250  1.00  0.00     0.000 HD 
HETATM   47  C   UNL     1      -6.606   4.878  64.847  1.00  0.00    -0.043 C  
HETATM   48  O   UNL     1      -5.315   4.921  64.238  1.00  0.00    -0.012 OA 
HETATM   49  O   UNL     1      -5.182   4.487  66.784  1.00  0.00    -0.008 OA 
HETATM   50  H   UNL     1      -4.645   3.840  66.343  1.00  0.00     0.000 HD 
BRANCH  44  51
HETATM   51  N   UNL     1      -8.505   4.956  67.790  1.00  0.00    -0.104 NA 
HETATM   52  C   UNL     1      -9.841   5.021  67.504  1.00  0.00    -0.165 A  
HETATM   53  C   UNL     1      -9.666   4.625  69.600  1.00  0.00    -0.213 A  
HETATM   54  N   UNL     1     -10.577   4.854  68.586  1.00  0.00     0.126 NA 
HETATM   55  C   UNL     1      -8.379   4.557  69.092  1.00  0.00    -0.079 A  
HETATM   56  N   UNL     1      -7.240   4.303  69.759  1.00  0.00    -0.049 NA 
HETATM   57  C   UNL     1      -7.494   4.139  71.073  1.00  0.00    -0.047 A  
HETATM   58  N   UNL     1      -8.676   4.249  71.719  1.00  0.00    -0.108 NA 
HETATM   59  C   UNL     1      -9.786   4.522  70.993  1.00  0.00    -0.196 A  
HETATM   60  N   UNL     1     -10.972   4.748  71.670  1.00  0.00     0.152 NA 
HETATM   61  H2  UNL     1     -11.678   4.137  71.259  1.00  0.00     0.000 HD 
HETATM   62  H1  UNL     1     -11.060   4.673  72.685  1.00  0.00     0.000 HD 
ENDBRANCH  44  51
ENDBRANCH  41  42
ENDBRANCH  40  41
ENDBRANCH  37  40
ENDBRANCH  36  37
ENDBRANCH  33  36
ENDBRANCH  32  33
ENDBRANCH  31  32
ENDBRANCH  28  31
ENDBRANCH  25  28
ENDBRANCH  22  25
ENDBRANCH  21  22
ENDBRANCH   7  21
TORSDOF 13
ENDMDL
MODEL       80
REMARK 921   NORMALIZED FREE ENERGY PREDICTED BY IDOCK:    0.25 KCAL/MOL
REMARK 922        TOTAL FREE ENERGY PREDICTED BY IDOCK:   -2.67 KCAL/MOL
REMARK 923 INTER-LIGAND FREE ENERGY PREDICTED BY IDOCK:   -7.10 KCAL/MOL
REMARK 924 INTRA-LIGAND FREE ENERGY PREDICTED BY IDOCK:    4.43 KCAL/MOL
REMARK 927      BINDING AFFINITY PREDICTED BY RF-SCORE:    0.00 PKD
ROOT
HETATM    1  C   UNL     1     -12.972  15.919  73.140  1.00  0.00    -0.653 C  
HETATM    2  C   UNL     1     -12.199  15.631  71.883  1.00  0.00    -0.506 A  
HETATM    3  C   UNL     1     -10.811  15.839  71.876  1.00  0.00     0.469 A  
HETATM    4  C   UNL     1     -10.019  15.452  70.790  1.00  0.00     0.753 A  
HETATM    5  C   UNL     1     -10.602  14.746  69.720  1.00  0.00    -0.112 A  
HETATM    6  C   UNL     1     -12.003  14.661  69.672  1.00  0.00    -0.368 A  
HETATM    7  N   UNL     1      -9.768  14.188  68.726  1.00  0.00    -0.190 NA 
HETATM    8  H   UNL     1      -4.718  15.122  69.037  1.00  0.00     0.000 HD 
HETATM    9  C   UNL     1      -8.415  14.495  68.751  1.00  0.00    -0.145 A  
HETATM   10  C   UNL     1     -12.811  15.094  70.737  1.00  0.00    -0.473 A  
HETATM   11  C   UNL     1     -14.307  14.990  70.614  1.00  0.00     0.464 C  
HETATM   12  O   UNL     1      -6.098  16.939  70.209  1.00  0.00    -0.146 OA 
HETATM   13  N   UNL     1      -7.549  13.973  67.928  1.00  0.00    -0.137 N  
HETATM   14  H   UNL     1      -7.875  13.273  67.261  1.00  0.00     0.000 HD 
HETATM   15  C   UNL     1      -7.916  15.449  69.800  1.00  0.00    -0.041 A  
HETATM   16  C   UNL     1      -6.237  14.317  67.915  1.00  0.00    -0.157 C  
HETATM   17  C   UNL     1      -6.496  15.904  69.703  1.00  0.00    -0.186 C  
HETATM   18  N   UNL     1      -8.658  15.827  70.801  1.00  0.00     2.173 NA 
HETATM   19  N   UNL     1      -5.728  15.115  68.897  1.00  0.00    -0.093 N  
HETATM   20  O   UNL     1      -5.488  13.968  67.005  1.00  0.00     0.109 OA 
ENDROOT
BRANCH   7  21
HETATM   21  C   UNL     1     -10.182  12.898  68.142  1.00  0.00    -0.239 C  
BRANCH  21  22
HETATM   22  C   UNL     1     -10.007  12.879  66.609  1.00  0.00    -0.251 C  
HETATM   23  O   UNL     1      -8.631  12.626  66.319  1.00  0.00    -0.410 OA 
HETATM   24  H   UNL     1      -8.523  12.614  65.375  1.00  0.00     0.000 HD 
BRANCH  22  25
HETATM   25  C   UNL     1     -10.500  14.220  66.035  1.00  0.00    -0.301 C  
HETATM   26  H   UNL     1     -10.239  16.089  66.493  1.00  0.00     0.000 HD 
HETATM   27  O   UNL     1      -9.935  15.261  66.847  1.00  0.00    -0.234 OA 
BRANCH  25  28
HETATM   28  C   UNL     1     -12.039  14.381  65.984  1.00  0.00    -0.357 C  
HETATM   29  H   UNL     1     -13.482  15.023  67.177  1.00  0.00     0.000 HD 
HETATM   30  O   UNL     1     -12.538  14.924  67.209  1.00  0.00     0.316 OA 
BRANCH  28  31
HETATM   31  C   UNL     1     -12.742  13.040  65.695  1.00  0.00    -0.132 C  
BRANCH  31  32
HETATM   32  O   UNL     1     -11.892  12.177  64.972  1.00  0.00    -0.352 OA 
BRANCH  32  33
HETATM   33  P   UNL     1     -11.972  12.179  63.370  1.00  0.00    -0.322 P  
HETATM   34  O   UNL     1     -12.380  13.687  63.050  1.00  0.00    -0.672 OA 
HETATM   35  O   UNL     1     -12.992  11.243  62.782  1.00  0.00     0.242 OA 
BRANCH  33  36
HETATM   36  O   UNL     1     -10.496  11.837  62.863  1.00  0.00    -0.236 OA 
BRANCH  36  37
HETATM   37  P   UNL     1      -9.443  10.738  63.685  1.00  0.00    -0.341 P  
HETATM   38  O   UNL     1     -10.660  10.276  64.670  1.00  0.00    -0.066 OA 
HETATM   39  O   UNL     1      -9.360   9.846  62.453  1.00  0.00    -0.292 OA 
BRANCH  37  40
HETATM   40  O   UNL     1      -8.391   9.638  64.507  1.00  0.00    -0.146 OA 
BRANCH  40  41
HETATM   41  C   UNL     1      -9.031   8.850  65.511  1.00  0.00    -0.197 C  
BRANCH  41  42
HETATM   42  C   UNL     1      -9.091   9.623  66.835  1.00  0.00    -0.138 C  
HETATM   43  O   UNL     1     -10.159   9.082  67.623  1.00  0.00    -0.188 OA 
HETATM   44  C   UNL     1      -9.754   9.085  68.998  1.00  0.00    -0.167 C  
HETATM   45  C   UNL     1      -8.257   9.367  69.103  1.00  0.00    -0.112 C  
HETATM   46  H   UNL     1      -6.210  10.656  67.976  1.00  0.00     0.000 HD 
HETATM   47  C   UNL     1      -7.807   9.538  67.655  1.00  0.00    -0.102 C  
HETATM   48  O   UNL     1      -7.010  10.709  67.465  1.00  0.00    -0.080 OA 
HETATM   49  O   UNL     1      -7.976  10.559  69.859  1.00  0.00    -0.355 OA 
HETATM   50  H   UNL     1      -7.045  10.735  69.924  1.00  0.00     0.000 HD 
BRANCH  44  51
HETATM   51  N   UNL     1     -10.165   7.836  69.607  1.00  0.00    -0.201 NA 
HETATM   52  C   UNL     1     -10.920   6.842  69.046  1.00  0.00    -0.233 A  
HETATM   53  C   UNL     1     -11.067   6.621  71.169  1.00  0.00    -0.279 A  
HETATM   54  N   UNL     1     -11.507   6.102  69.966  1.00  0.00    -0.382 NA 
HETATM   55  C   UNL     1     -10.129   7.617  70.957  1.00  0.00    -0.189 A  
HETATM   56  N   UNL     1      -9.446   8.320  71.876  1.00  0.00    -0.196 NA 
HETATM   57  C   UNL     1      -9.816   7.947  73.119  1.00  0.00    -0.290 A  
HETATM   58  N   UNL     1     -10.761   7.051  73.479  1.00  0.00    -0.360 NA 
HETATM   59  C   UNL     1     -11.427   6.386  72.504  1.00  0.00    -0.247 A  
HETATM   60  N   UNL     1     -12.472   5.556  72.874  1.00  0.00    -0.350 NA 
HETATM   61  H2  UNL     1     -12.306   4.648  72.440  1.00  0.00     0.000 HD 
HETATM   62  H1  UNL     1     -12.734   5.386  73.845  1.00  0.00     0.000 HD 
ENDBRANCH  44  51
ENDBRANCH  41  42
ENDBRANCH  40  41
ENDBRANCH  37  40
ENDBRANCH  36  37
ENDBRANCH  33  36
ENDBRANCH  32  33
ENDBRANCH  31  32
ENDBRANCH  28  31
ENDBRANCH  25  28
ENDBRANCH  22  25
ENDBRANCH  21  22
ENDBRANCH   7  21
TORSDOF 13
ENDMDL
MODEL       81
REMARK 921   NORMALIZED FREE ENERGY PREDICTED BY IDOCK:    0.26 KCAL/MOL
REMARK 922        TOTAL FREE ENERGY PREDICTED BY IDOCK:   -2.64 KCAL/MOL
REMARK 923 INTER-LIGAND FREE ENERGY PREDICTED BY IDOCK:   -3.85 KCAL/MOL
REMARK 924 INTRA-LIGAND FREE ENERGY PREDICTED BY IDOCK:    1.21 KCAL/MOL
REMARK 927      BINDING AFFINITY PREDICTED BY RF-SCORE:    0.00 PKD
ROOT
HETATM    1  C   UNL     1      -6.613   9.540  68.007  1.00  0.00    -0.062 C  
HETATM    2  C   UNL     1      -7.378  10.825  68.162  1.00  0.00    -0.088 A  
HETATM    3  C   UNL     1      -8.609  10.805  68.836  1.00  0.00    -0.155 A  
HETATM    4  C   UNL     1      -9.295  11.986  69.141  1.00  0.00     0.494 A  
HETATM    5  C   UNL     1      -8.697  13.230  68.860  1.00  0.00     0.278 A  
HETATM    6  C   UNL     1      -7.536  13.240  68.070  1.00  0.00    -0.145 A  
HETATM    7  N   UNL     1      -9.302  14.411  69.345  1.00  0.00     0.176 NA 
HETATM    8  H   UNL     1     -13.796  13.961  71.809  1.00  0.00     0.000 HD 
HETATM    9  C   UNL     1     -10.550  14.315  69.942  1.00  0.00     0.247 A  
HETATM   10  C   UNL     1      -6.867  12.056  67.716  1.00  0.00    -0.100 A  
HETATM   11  C   UNL     1      -5.638  12.136  66.853  1.00  0.00    -0.009 C  
HETATM   12  O   UNL     1     -13.396  12.010  70.192  1.00  0.00     0.871 OA 
HETATM   13  N   UNL     1     -11.159  15.330  70.489  1.00  0.00    -0.345 N  
HETATM   14  H   UNL     1     -10.676  16.228  70.519  1.00  0.00     0.000 HD 
HETATM   15  C   UNL     1     -11.220  12.971  69.992  1.00  0.00     0.273 A  
HETATM   16  C   UNL     1     -12.405  15.249  71.022  1.00  0.00    -0.367 C  
HETATM   17  C   UNL     1     -12.632  12.918  70.477  1.00  0.00    -0.129 C  
HETATM   18  N   UNL     1     -10.590  11.872  69.690  1.00  0.00     0.243 NA 
HETATM   19  N   UNL     1     -13.013  14.037  71.159  1.00  0.00    -0.337 N  
HETATM   20  O   UNL     1     -13.034  16.254  71.344  1.00  0.00    -0.066 OA 
ENDROOT
BRANCH   7  21
HETATM   21  C   UNL     1      -8.406  15.505  69.767  1.00  0.00     0.016 C  
BRANCH  21  22
HETATM   22  C   UNL     1      -7.689  16.156  68.565  1.00  0.00    -0.170 C  
HETATM   23  O   UNL     1      -6.335  15.699  68.552  1.00  0.00    -0.099 OA 
HETATM   24  H   UNL     1      -5.893  16.100  67.812  1.00  0.00     0.000 HD 
BRANCH  22  25
HETATM   25  C   UNL     1      -7.801  17.686  68.688  1.00  0.00    -0.280 C  
HETATM   26  H   UNL     1      -6.687  19.089  69.438  1.00  0.00     0.000 HD 
HETATM   27  O   UNL     1      -6.618  18.145  69.361  1.00  0.00    -0.256 OA 
BRANCH  25  28
HETATM   28  C   UNL     1      -9.055  18.189  69.444  1.00  0.00     0.419 C  
HETATM   29  H   UNL     1     -10.954  17.665  69.638  1.00  0.00     0.000 HD 
HETATM   30  O   UNL     1     -10.185  17.356  69.174  1.00  0.00    -0.329 OA 
BRANCH  28  31
HETATM   31  C   UNL     1      -9.394  19.647  69.076  1.00  0.00    -0.232 C  
BRANCH  31  32
HETATM   32  O   UNL     1      -8.998  19.932  67.753  1.00  0.00    -0.318 OA 
BRANCH  32  33
HETATM   33  P   UNL     1     -10.025  19.635  66.558  1.00  0.00    -0.517 P  
HETATM   34  O   UNL     1     -10.216  21.077  65.905  1.00  0.00     0.717 OA 
HETATM   35  O   UNL     1     -11.360  19.092  66.987  1.00  0.00    -0.059 OA 
BRANCH  33  36
HETATM   36  O   UNL     1      -9.267  18.629  65.575  1.00  0.00    -0.040 OA 
BRANCH  36  37
HETATM   37  P   UNL     1      -9.656  16.947  65.459  1.00  0.00     0.811 P  
HETATM   38  O   UNL     1      -8.143  16.543  65.913  1.00  0.00    -0.289 OA 
HETATM   39  O   UNL     1     -10.587  17.047  66.662  1.00  0.00    -0.279 OA 
BRANCH  37  40
HETATM   40  O   UNL     1     -10.046  15.265  65.344  1.00  0.00    -0.354 OA 
BRANCH  40  41
HETATM   41  C   UNL     1     -11.175  14.978  64.520  1.00  0.00    -0.265 C  
BRANCH  41  42
HETATM   42  C   UNL     1     -11.722  13.580  64.835  1.00  0.00    -0.357 C  
HETATM   43  O   UNL     1     -11.232  12.670  63.842  1.00  0.00    -0.381 OA 
HETATM   44  C   UNL     1     -10.948  11.416  64.476  1.00  0.00    -0.277 C  
HETATM   45  C   UNL     1     -10.973  11.579  65.994  1.00  0.00    -0.259 C  
HETATM   46  H   UNL     1     -12.095  12.916  68.012  1.00  0.00     0.000 HD 
HETATM   47  C   UNL     1     -11.306  13.053  66.206  1.00  0.00    -0.317 C  
HETATM   48  O   UNL     1     -12.353  13.244  67.159  1.00  0.00    -0.280 OA 
HETATM   49  O   UNL     1     -11.968  10.746  66.616  1.00  0.00     0.486 OA 
HETATM   50  H   UNL     1     -11.984  10.846  67.561  1.00  0.00     0.000 HD 
BRANCH  44  51
HETATM   51  N   UNL     1      -9.695  10.905  63.955  1.00  0.00    -0.272 NA 
HETATM   52  C   UNL     1      -9.059  11.271  62.801  1.00  0.00    -0.291 A  
HETATM   53  C   UNL     1      -8.328   9.333  63.334  1.00  0.00    -0.193 A  
HETATM   54  N   UNL     1      -8.242  10.327  62.377  1.00  0.00    -0.150 NA 
HETATM   55  C   UNL     1      -9.130   9.737  64.387  1.00  0.00    -0.248 A  
HETATM   56  N   UNL     1      -9.413   9.067  65.517  1.00  0.00    -0.203 NA 
HETATM   57  C   UNL     1      -8.813   7.858  65.506  1.00  0.00    -0.031 A  
HETATM   58  N   UNL     1      -8.069   7.301  64.525  1.00  0.00    -0.109 NA 
HETATM   59  C   UNL     1      -7.833   8.022  63.403  1.00  0.00    -0.147 A  
HETATM   60  N   UNL     1      -7.168   7.406  62.356  1.00  0.00    -0.079 NA 
HETATM   61  H2  UNL     1      -6.391   8.011  62.092  1.00  0.00     0.000 HD 
HETATM   62  H1  UNL     1      -6.808   6.453  62.406  1.00  0.00     0.000 HD 
ENDBRANCH  44  51
ENDBRANCH  41  42
ENDBRANCH  40  41
ENDBRANCH  37  40
ENDBRANCH  36  37
ENDBRANCH  33  36
ENDBRANCH  32  33
ENDBRANCH  31  32
ENDBRANCH  28  31
ENDBRANCH  25  28
ENDBRANCH  22  25
ENDBRANCH  21  22
ENDBRANCH   7  21
TORSDOF 13
ENDMDL
MODEL       82
REMARK 921   NORMALIZED FREE ENERGY PREDICTED BY IDOCK:    0.28 KCAL/MOL
REMARK 922        TOTAL FREE ENERGY PREDICTED BY IDOCK:   -2.62 KCAL/MOL
REMARK 923 INTER-LIGAND FREE ENERGY PREDICTED BY IDOCK:   -7.91 KCAL/MOL
REMARK 924 INTRA-LIGAND FREE ENERGY PREDICTED BY IDOCK:    5.28 KCAL/MOL
REMARK 927      BINDING AFFINITY PREDICTED BY RF-SCORE:    0.00 PKD
ROOT
HETATM    1  C   UNL     1     -12.550  14.780  64.612  1.00  0.00    -0.116 C  
HETATM    2  C   UNL     1     -11.343  15.025  65.473  1.00  0.00    -0.312 A  
HETATM    3  C   UNL     1     -10.593  16.195  65.274  1.00  0.00    -0.390 A  
HETATM    4  C   UNL     1      -9.550  16.551  66.136  1.00  0.00    -0.315 A  
HETATM    5  C   UNL     1      -9.306  15.779  67.289  1.00  0.00    -0.211 A  
HETATM    6  C   UNL     1      -9.966  14.545  67.408  1.00  0.00    -0.227 A  
HETATM    7  N   UNL     1      -8.388  16.251  68.253  1.00  0.00    -0.179 NA 
HETATM    8  H   UNL     1      -5.842  20.598  67.208  1.00  0.00     0.000 HD 
HETATM    9  C   UNL     1      -7.637  17.378  67.953  1.00  0.00    -0.194 A  
HETATM   10  C   UNL     1     -10.981  14.156  66.517  1.00  0.00    -0.309 A  
HETATM   11  C   UNL     1     -11.637  12.814  66.691  1.00  0.00    -0.430 C  
HETATM   12  O   UNL     1      -6.613  19.407  65.071  1.00  0.00    -0.370 OA 
HETATM   13  N   UNL     1      -6.820  17.938  68.800  1.00  0.00    -0.246 N  
HETATM   14  H   UNL     1      -6.762  17.555  69.744  1.00  0.00     0.000 HD 
HETATM   15  C   UNL     1      -7.797  18.006  66.596  1.00  0.00    -0.243 A  
HETATM   16  C   UNL     1      -6.042  19.005  68.488  1.00  0.00    -0.215 C  
HETATM   17  C   UNL     1      -6.857  19.107  66.228  1.00  0.00    -0.217 C  
HETATM   18  N   UNL     1      -8.755  17.663  65.784  1.00  0.00    -0.434 NA 
HETATM   19  N   UNL     1      -6.214  19.653  67.300  1.00  0.00    -0.186 N  
HETATM   20  O   UNL     1      -5.139  19.384  69.230  1.00  0.00    -0.177 OA 
ENDROOT
BRANCH   7  21
HETATM   21  C   UNL     1      -8.689  15.968  69.669  1.00  0.00     0.112 C  
BRANCH  21  22
HETATM   22  C   UNL     1      -8.044  14.648  70.141  1.00  0.00     0.796 C  
HETATM   23  O   UNL     1      -7.263  14.923  71.305  1.00  0.00     0.577 OA 
HETATM   24  H   UNL     1      -6.866  14.110  71.596  1.00  0.00     0.000 HD 
BRANCH  22  25
HETATM   25  C   UNL     1      -7.209  14.062  68.988  1.00  0.00    -0.092 C  
HETATM   26  H   UNL     1      -7.205  14.260  67.056  1.00  0.00     0.000 HD 
HETATM   27  O   UNL     1      -7.720  14.622  67.768  1.00  0.00    -0.127 OA 
BRANCH  25  28
HETATM   28  C   UNL     1      -7.222  12.517  68.894  1.00  0.00    -0.050 C  
HETATM   29  H   UNL     1      -6.853  10.976  70.081  1.00  0.00     0.000 HD 
HETATM   30  O   UNL     1      -6.845  11.925  70.139  1.00  0.00     0.074 OA 
BRANCH  28  31
HETATM   31  C   UNL     1      -6.285  12.007  67.781  1.00  0.00    -0.081 C  
BRANCH  31  32
HETATM   32  O   UNL     1      -6.860  10.906  67.111  1.00  0.00    -0.082 OA 
BRANCH  32  33
HETATM   33  P   UNL     1      -6.119  10.317  65.817  1.00  0.00    -0.129 P  
HETATM   34  O   UNL     1      -5.141   9.228  66.450  1.00  0.00    -0.035 OA 
HETATM   35  O   UNL     1      -5.320  11.318  65.030  1.00  0.00    -0.166 OA 
BRANCH  33  36
HETATM   36  O   UNL     1      -7.266   9.648  64.929  1.00  0.00    -0.106 OA 
BRANCH  36  37
HETATM   37  P   UNL     1      -8.358   8.452  65.538  1.00  0.00    -0.161 P  
HETATM   38  O   UNL     1      -9.593   9.128  64.713  1.00  0.00     0.040 OA 
HETATM   39  O   UNL     1      -7.674   7.365  64.717  1.00  0.00    -0.100 OA 
BRANCH  37  40
HETATM   40  O   UNL     1      -9.450   7.255  66.145  1.00  0.00    -0.118 OA 
BRANCH  40  41
HETATM   41  C   UNL     1      -8.823   6.041  66.557  1.00  0.00    -0.131 C  
BRANCH  41  42
HETATM   42  C   UNL     1      -8.703   5.997  68.086  1.00  0.00    -0.113 C  
HETATM   43  O   UNL     1      -8.621   7.343  68.570  1.00  0.00    -0.128 OA 
HETATM   44  C   UNL     1      -9.343   7.425  69.806  1.00  0.00    -0.146 C  
HETATM   45  C   UNL     1     -10.180   6.164  70.008  1.00  0.00    -0.196 C  
HETATM   46  H   UNL     1     -10.295   3.540  69.535  1.00  0.00     0.000 HD 
HETATM   47  C   UNL     1      -9.882   5.316  68.775  1.00  0.00    -0.161 C  
HETATM   48  O   UNL     1      -9.561   3.964  69.106  1.00  0.00    -0.178 OA 
HETATM   49  O   UNL     1      -9.815   5.452  71.205  1.00  0.00    -0.170 OA 
HETATM   50  H   UNL     1     -10.335   4.668  71.331  1.00  0.00     0.000 HD 
BRANCH  44  51
HETATM   51  N   UNL     1     -10.112   8.653  69.814  1.00  0.00    -0.194 NA 
HETATM   52  C   UNL     1      -9.668   9.919  69.544  1.00  0.00    -0.220 A  
HETATM   53  C   UNL     1     -11.462  10.114  70.694  1.00  0.00    -0.349 A  
HETATM   54  N   UNL     1     -10.447  10.832  70.089  1.00  0.00     0.063 NA 
HETATM   55  C   UNL     1     -11.334   8.763  70.419  1.00  0.00    -0.192 A  
HETATM   56  N   UNL     1     -12.150   7.763  70.791  1.00  0.00    -0.170 NA 
HETATM   57  C   UNL     1     -13.165   8.242  71.541  1.00  0.00    -0.287 A  
HETATM   58  N   UNL     1     -13.377   9.511  71.951  1.00  0.00    -0.410 NA 
HETATM   59  C   UNL     1     -12.510  10.473  71.554  1.00  0.00    -0.387 A  
HETATM   60  N   UNL     1     -12.666  11.749  72.069  1.00  0.00    -0.121 NA 
HETATM   61  H2  UNL     1     -12.686  12.395  71.280  1.00  0.00     0.000 HD 
HETATM   62  H1  UNL     1     -13.429  12.010  72.695  1.00  0.00     0.000 HD 
ENDBRANCH  44  51
ENDBRANCH  41  42
ENDBRANCH  40  41
ENDBRANCH  37  40
ENDBRANCH  36  37
ENDBRANCH  33  36
ENDBRANCH  32  33
ENDBRANCH  31  32
ENDBRANCH  28  31
ENDBRANCH  25  28
ENDBRANCH  22  25
ENDBRANCH  21  22
ENDBRANCH   7  21
TORSDOF 13
ENDMDL
MODEL       83
REMARK 921   NORMALIZED FREE ENERGY PREDICTED BY IDOCK:    0.37 KCAL/MOL
REMARK 922        TOTAL FREE ENERGY PREDICTED BY IDOCK:   -2.46 KCAL/MOL
REMARK 923 INTER-LIGAND FREE ENERGY PREDICTED BY IDOCK:   -2.93 KCAL/MOL
REMARK 924 INTRA-LIGAND FREE ENERGY PREDICTED BY IDOCK:    0.46 KCAL/MOL
REMARK 927      BINDING AFFINITY PREDICTED BY RF-SCORE:    0.00 PKD
ROOT
HETATM    1  C   UNL     1     -12.129   9.010  72.209  1.00  0.00    -0.358 C  
HETATM    2  C   UNL     1     -10.882   9.054  71.370  1.00  0.00    -0.400 A  
HETATM    3  C   UNL     1     -10.999   9.289  69.991  1.00  0.00    -0.254 A  
HETATM    4  C   UNL     1      -9.873   9.486  69.185  1.00  0.00    -0.176 A  
HETATM    5  C   UNL     1      -8.597   9.554  69.777  1.00  0.00    -0.192 A  
HETATM    6  C   UNL     1      -8.476   9.187  71.127  1.00  0.00    -0.175 A  
HETATM    7  N   UNL     1      -7.491   9.948  68.991  1.00  0.00    -0.078 NA 
HETATM    8  H   UNL     1      -8.293  10.766  63.975  1.00  0.00     0.000 HD 
HETATM    9  C   UNL     1      -7.674  10.097  67.624  1.00  0.00    -0.091 A  
HETATM   10  C   UNL     1      -9.600   8.937  71.933  1.00  0.00    -0.326 A  
HETATM   11  C   UNL     1      -9.400   8.531  73.368  1.00  0.00     0.132 C  
HETATM   12  O   UNL     1     -10.026   9.155  64.968  1.00  0.00     0.228 OA 
HETATM   13  N   UNL     1      -6.742  10.528  66.822  1.00  0.00    -0.085 N  
HETATM   14  H   UNL     1      -5.849  10.813  67.224  1.00  0.00     0.000 HD 
HETATM   15  C   UNL     1      -9.023   9.776  67.041  1.00  0.00    -0.138 A  
HETATM   16  C   UNL     1      -6.902  10.619  65.477  1.00  0.00    -0.052 C  
HETATM   17  C   UNL     1      -9.151   9.771  65.553  1.00  0.00    -0.196 C  
HETATM   18  N   UNL     1     -10.068   9.572  67.790  1.00  0.00    -0.185 NA 
HETATM   19  N   UNL     1      -8.129  10.416  64.919  1.00  0.00    -0.153 N  
HETATM   20  O   UNL     1      -5.951  10.832  64.727  1.00  0.00    -0.063 OA 
ENDROOT
BRANCH   7  21
HETATM   21  C   UNL     1      -6.447  10.756  69.649  1.00  0.00    -0.103 C  
BRANCH  21  22
HETATM   22  C   UNL     1      -6.414  12.201  69.110  1.00  0.00    -0.099 C  
HETATM   23  O   UNL     1      -5.142  12.768  69.428  1.00  0.00    -0.073 OA 
HETATM   24  H   UNL     1      -5.122  13.659  69.096  1.00  0.00     0.000 HD 
BRANCH  22  25
HETATM   25  C   UNL     1      -7.587  12.987  69.722  1.00  0.00     1.164 C  
HETATM   26  H   UNL     1      -9.457  13.244  69.263  1.00  0.00     0.000 HD 
HETATM   27  O   UNL     1      -8.733  12.759  68.886  1.00  0.00     0.118 OA 
BRANCH  25  28
HETATM   28  C   UNL     1      -7.347  14.510  69.865  1.00  0.00     0.111 C  
HETATM   29  H   UNL     1      -6.149  15.712  70.885  1.00  0.00     0.000 HD 
HETATM   30  O   UNL     1      -6.296  14.777  70.797  1.00  0.00    -0.107 OA 
BRANCH  28  31
HETATM   31  C   UNL     1      -8.625  15.248  70.310  1.00  0.00     0.855 C  
BRANCH  31  32
HETATM   32  O   UNL     1      -9.561  15.305  69.256  1.00  0.00    -0.227 OA 
BRANCH  32  33
HETATM   33  P   UNL     1     -10.890  16.181  69.450  1.00  0.00    -0.357 P  
HETATM   34  O   UNL     1     -11.692  15.346  70.547  1.00  0.00    -0.269 OA 
HETATM   35  O   UNL     1     -11.734  16.339  68.217  1.00  0.00    -0.238 OA 
BRANCH  33  36
HETATM   36  O   UNL     1     -10.399  17.593  70.014  1.00  0.00     0.281 OA 
BRANCH  36  37
HETATM   37  P   UNL     1     -10.012  18.936  68.994  1.00  0.00    -0.016 P  
HETATM   38  O   UNL     1     -11.517  18.919  68.364  1.00  0.00     1.019 OA 
HETATM   39  O   UNL     1      -9.927  19.866  70.198  1.00  0.00     0.079 OA 
BRANCH  37  40
HETATM   40  O   UNL     1      -9.627  20.280  67.975  1.00  0.00    -0.330 OA 
BRANCH  40  41
HETATM   41  C   UNL     1      -9.085  19.920  66.705  1.00  0.00    -0.376 C  
BRANCH  41  42
HETATM   42  C   UNL     1      -7.925  18.933  66.882  1.00  0.00    -0.256 C  
HETATM   43  O   UNL     1      -8.451  17.707  67.404  1.00  0.00    -0.217 OA 
HETATM   44  C   UNL     1      -7.739  16.616  66.806  1.00  0.00    -0.257 C  
HETATM   45  C   UNL     1      -6.905  17.118  65.629  1.00  0.00     0.673 C  
HETATM   46  H   UNL     1      -5.527  19.196  64.678  1.00  0.00     0.000 HD 
HETATM   47  C   UNL     1      -7.184  18.617  65.585  1.00  0.00    -0.121 C  
HETATM   48  O   UNL     1      -5.988  19.393  65.486  1.00  0.00    -0.177 OA 
HETATM   49  O   UNL     1      -5.498  16.875  65.814  1.00  0.00     0.039 OA 
HETATM   50  H   UNL     1      -4.979  17.187  65.082  1.00  0.00     0.000 HD 
BRANCH  44  51
HETATM   51  N   UNL     1      -8.686  15.576  66.459  1.00  0.00    -0.289 NA 
HETATM   52  C   UNL     1      -8.480  14.223  66.464  1.00  0.00     0.256 A  
HETATM   53  C   UNL     1     -10.142  14.601  65.171  1.00  0.00    -0.324 A  
HETATM   54  N   UNL     1      -9.328  13.601  65.668  1.00  0.00     0.132 NA 
HETATM   55  C   UNL     1      -9.835  15.817  65.757  1.00  0.00    -0.348 A  
HETATM   56  N   UNL     1     -10.436  17.004  65.565  1.00  0.00    -0.604 NA 
HETATM   57  C   UNL     1     -11.423  16.885  64.654  1.00  0.00     0.517 A  
HETATM   58  N   UNL     1     -11.787  15.791  63.949  1.00  0.00    -0.540 NA 
HETATM   59  C   UNL     1     -11.132  14.628  64.177  1.00  0.00     0.252 A  
HETATM   60  N   UNL     1     -11.429  13.540  63.373  1.00  0.00    -0.531 NA 
HETATM   61  H2  UNL     1     -11.639  12.755  63.990  1.00  0.00     0.000 HD 
HETATM   62  H1  UNL     1     -12.149  13.559  62.650  1.00  0.00     0.000 HD 
ENDBRANCH  44  51
ENDBRANCH  41  42
ENDBRANCH  40  41
ENDBRANCH  37  40
ENDBRANCH  36  37
ENDBRANCH  33  36
ENDBRANCH  32  33
ENDBRANCH  31  32
ENDBRANCH  28  31
ENDBRANCH  25  28
ENDBRANCH  22  25
ENDBRANCH  21  22
ENDBRANCH   7  21
TORSDOF 13
ENDMDL
MODEL       84
REMARK 921   NORMALIZED FREE ENERGY PREDICTED BY IDOCK:    0.63 KCAL/MOL
REMARK 922        TOTAL FREE ENERGY PREDICTED BY IDOCK:   -2.01 KCAL/MOL
REMARK 923 INTER-LIGAND FREE ENERGY PREDICTED BY IDOCK:   -2.74 KCAL/MOL
REMARK 924 INTRA-LIGAND FREE ENERGY PREDICTED BY IDOCK:    0.73 KCAL/MOL
REMARK 927      BINDING AFFINITY PREDICTED BY RF-SCORE:    0.00 PKD
ROOT
HETATM    1  C   UNL     1      -6.813   9.174  64.627  1.00  0.00    -0.086 C  
HETATM    2  C   UNL     1      -7.867   8.726  65.601  1.00  0.00    -0.097 A  
HETATM    3  C   UNL     1      -7.476   8.013  66.746  1.00  0.00    -0.090 A  
HETATM    4  C   UNL     1      -8.388   7.699  67.759  1.00  0.00    -0.118 A  
HETATM    5  C   UNL     1      -9.706   8.191  67.686  1.00  0.00    -0.159 A  
HETATM    6  C   UNL     1     -10.123   8.784  66.483  1.00  0.00    -0.349 A  
HETATM    7  N   UNL     1     -10.562   8.038  68.799  1.00  0.00    -0.165 NA 
HETATM    8  H   UNL     1      -8.782   5.400  72.842  1.00  0.00     0.000 HD 
HETATM    9  C   UNL     1     -10.126   7.264  69.865  1.00  0.00    -0.194 A  
HETATM   10  C   UNL     1      -9.223   9.058  65.439  1.00  0.00    -0.241 A  
HETATM   11  C   UNL     1      -9.738   9.680  64.169  1.00  0.00     0.268 C  
HETATM   12  O   UNL     1      -7.598   4.726  70.668  1.00  0.00    -0.056 OA 
HETATM   13  N   UNL     1     -10.805   7.122  70.969  1.00  0.00    -0.236 N  
HETATM   14  H   UNL     1     -11.677   7.640  71.072  1.00  0.00     0.000 HD 
HETATM   15  C   UNL     1      -8.791   6.582  69.757  1.00  0.00    -0.143 A  
HETATM   16  C   UNL     1     -10.407   6.319  71.988  1.00  0.00    -0.202 C  
HETATM   17  C   UNL     1      -8.418   5.615  70.832  1.00  0.00    -0.125 C  
HETATM   18  N   UNL     1      -7.948   6.858  68.803  1.00  0.00    -0.118 NA 
HETATM   19  N   UNL     1      -9.169   5.748  71.964  1.00  0.00    -0.147 N  
HETATM   20  O   UNL     1     -11.155   6.045  72.922  1.00  0.00    -0.253 OA 
ENDROOT
BRANCH   7  21
HETATM   21  C   UNL     1     -11.518   9.128  69.071  1.00  0.00     0.517 C  
BRANCH  21  22
HETATM   22  C   UNL     1     -10.980  10.114  70.129  1.00  0.00    -0.316 C  
HETATM   23  O   UNL     1     -11.795  10.005  71.298  1.00  0.00    -0.354 OA 
HETATM   24  H   UNL     1     -11.463  10.612  71.949  1.00  0.00     0.000 HD 
BRANCH  22  25
HETATM   25  C   UNL     1     -10.980  11.533  69.533  1.00  0.00    -0.125 C  
HETATM   26  H   UNL     1     -12.353  12.789  68.975  1.00  0.00     0.000 HD 
HETATM   27  O   UNL     1     -12.352  11.913  69.344  1.00  0.00    -0.164 OA 
BRANCH  25  28
HETATM   28  C   UNL     1     -10.214  11.678  68.196  1.00  0.00    -0.197 C  
HETATM   29  H   UNL     1      -9.087  13.035  67.296  1.00  0.00     0.000 HD 
HETATM   30  O   UNL     1      -9.557  12.946  68.117  1.00  0.00    -0.214 OA 
BRANCH  28  31
HETATM   31  C   UNL     1     -11.150  11.511  66.982  1.00  0.00    -0.307 C  
BRANCH  31  32
HETATM   32  O   UNL     1     -11.017  12.601  66.096  1.00  0.00    -0.271 OA 
BRANCH  32  33
HETATM   33  P   UNL     1     -12.247  12.968  65.135  1.00  0.00    -0.492 P  
HETATM   34  O   UNL     1     -13.505  12.734  66.087  1.00  0.00     1.396 OA 
HETATM   35  O   UNL     1     -12.374  12.110  63.907  1.00  0.00    -0.461 OA 
BRANCH  33  36
HETATM   36  O   UNL     1     -12.058  14.510  64.761  1.00  0.00    -0.418 OA 
BRANCH  36  37
HETATM   37  P   UNL     1     -10.724  15.462  65.316  1.00  0.00    -0.435 P  
HETATM   38  O   UNL     1      -9.690  14.578  64.415  1.00  0.00     0.364 OA 
HETATM   39  O   UNL     1     -11.230  16.676  64.547  1.00  0.00    -0.909 OA 
BRANCH  37  40
HETATM   40  O   UNL     1      -9.390  16.415  65.870  1.00  0.00    -0.409 OA 
BRANCH  40  41
HETATM   41  C   UNL     1      -9.356  17.741  65.344  1.00  0.00     1.235 C  
BRANCH  41  42
HETATM   42  C   UNL     1      -8.798  18.714  66.391  1.00  0.00    -0.275 C  
HETATM   43  O   UNL     1      -9.844  19.024  67.319  1.00  0.00    -0.308 OA 
HETATM   44  C   UNL     1      -9.270  19.135  68.628  1.00  0.00    -0.380 C  
HETATM   45  C   UNL     1      -7.841  18.596  68.621  1.00  0.00    -0.321 C  
HETATM   46  H   UNL     1      -5.644  18.297  67.136  1.00  0.00     0.000 HD 
HETATM   47  C   UNL     1      -7.615  18.156  67.178  1.00  0.00    -0.211 C  
HETATM   48  O   UNL     1      -6.381  18.643  66.646  1.00  0.00    -0.175 OA 
HETATM   49  O   UNL     1      -6.877  19.597  68.997  1.00  0.00    -0.316 OA 
HETATM   50  H   UNL     1      -5.989  19.262  68.993  1.00  0.00     0.000 HD 
BRANCH  44  51
HETATM   51  N   UNL     1     -10.146  18.479  69.578  1.00  0.00     0.077 NA 
HETATM   52  C   UNL     1     -10.212  18.678  70.930  1.00  0.00     2.588 A  
HETATM   53  C   UNL     1     -11.052  16.750  70.537  1.00  0.00     0.219 A  
HETATM   54  N   UNL     1     -10.730  17.636  71.549  1.00  0.00     2.116 NA 
HETATM   55  C   UNL     1     -10.812  17.318  69.297  1.00  0.00     0.076 A  
HETATM   56  N   UNL     1     -11.044  16.786  68.085  1.00  0.00    -0.326 NA 
HETATM   57  C   UNL     1     -11.543  15.539  68.210  1.00  0.00    -0.334 A  
HETATM   58  N   UNL     1     -11.758  14.831  69.341  1.00  0.00    -0.305 NA 
HETATM   59  C   UNL     1     -11.490  15.418  70.532  1.00  0.00    -0.327 A  
HETATM   60  N   UNL     1     -11.603  14.651  71.680  1.00  0.00    -0.466 NA 
HETATM   61  H2  UNL     1     -12.198  15.164  72.330  1.00  0.00     0.000 HD 
HETATM   62  H1  UNL     1     -11.922  13.682  71.676  1.00  0.00     0.000 HD 
ENDBRANCH  44  51
ENDBRANCH  41  42
ENDBRANCH  40  41
ENDBRANCH  37  40
ENDBRANCH  36  37
ENDBRANCH  33  36
ENDBRANCH  32  33
ENDBRANCH  31  32
ENDBRANCH  28  31
ENDBRANCH  25  28
ENDBRANCH  22  25
ENDBRANCH  21  22
ENDBRANCH   7  21
TORSDOF 13
ENDMDL
MODEL       85
REMARK 921   NORMALIZED FREE ENERGY PREDICTED BY IDOCK:    1.95 KCAL/MOL
REMARK 922        TOTAL FREE ENERGY PREDICTED BY IDOCK:    0.33 KCAL/MOL
REMARK 923 INTER-LIGAND FREE ENERGY PREDICTED BY IDOCK:   -5.98 KCAL/MOL
REMARK 924 INTRA-LIGAND FREE ENERGY PREDICTED BY IDOCK:    6.31 KCAL/MOL
REMARK 927      BINDING AFFINITY PREDICTED BY RF-SCORE:    0.00 PKD
ROOT
HETATM    1  C   UNL     1      -6.719   1.753  72.513  1.00  0.00    -0.018 C  
HETATM    2  C   UNL     1      -6.985   2.672  71.353  1.00  0.00    -0.032 A  
HETATM    3  C   UNL     1      -7.254   2.114  70.093  1.00  0.00    -0.033 A  
HETATM    4  C   UNL     1      -7.652   2.907  69.012  1.00  0.00    -0.047 A  
HETATM    5  C   UNL     1      -7.889   4.282  69.208  1.00  0.00    -0.057 A  
HETATM    6  C   UNL     1      -7.491   4.853  70.428  1.00  0.00    -0.058 A  
HETATM    7  N   UNL     1      -8.477   5.036  68.168  1.00  0.00    -0.099 NA 
HETATM    8  H   UNL     1      -9.363   2.657  63.693  1.00  0.00     0.000 HD 
HETATM    9  C   UNL     1      -8.651   4.431  66.932  1.00  0.00    -0.104 A  
HETATM   10  C   UNL     1      -7.041   4.068  71.504  1.00  0.00    -0.038 A  
HETATM   11  C   UNL     1      -6.613   4.743  72.778  1.00  0.00    -0.051 C  
HETATM   12  O   UNL     1      -7.470   1.534  65.012  1.00  0.00    -0.055 OA 
HETATM   13  N   UNL     1      -9.251   5.012  65.931  1.00  0.00    -0.152 N  
HETATM   14  H   UNL     1      -9.651   5.939  66.077  1.00  0.00     0.000 HD 
HETATM   15  C   UNL     1      -8.153   3.025  66.746  1.00  0.00    -0.081 A  
HETATM   16  C   UNL     1      -9.369   4.443  64.705  1.00  0.00    -0.150 C  
HETATM   17  C   UNL     1      -8.187   2.455  65.365  1.00  0.00    -0.086 C  
HETATM   18  N   UNL     1      -7.763   2.291  67.748  1.00  0.00    -0.059 NA 
HETATM   19  N   UNL     1      -9.005   3.143  64.516  1.00  0.00    -0.116 N  
HETATM   20  O   UNL     1      -9.753   5.086  63.730  1.00  0.00     0.322 OA 
ENDROOT
BRANCH   7  21
HETATM   21  C   UNL     1      -9.407   6.114  68.557  1.00  0.00    -0.117 C  
BRANCH  21  22
HETATM   22  C   UNL     1      -9.523   6.247  70.090  1.00  0.00    -0.159 C  
HETATM   23  O   UNL     1     -10.863   6.633  70.404  1.00  0.00    -0.234 OA 
HETATM   24  H   UNL     1     -10.934   6.715  71.349  1.00  0.00     0.000 HD 
BRANCH  22  25
HETATM   25  C   UNL     1      -8.479   7.265  70.581  1.00  0.00    -0.140 C  
HETATM   26  H   UNL     1      -8.487   8.740  71.844  1.00  0.00     0.000 HD 
HETATM   27  O   UNL     1      -9.131   8.112  71.541  1.00  0.00    -0.137 OA 
BRANCH  25  28
HETATM   28  C   UNL     1      -7.843   8.135  69.470  1.00  0.00    -0.104 C  
HETATM   29  H   UNL     1      -6.670   9.725  69.350  1.00  0.00     0.000 HD 
HETATM   30  O   UNL     1      -7.060   9.191  70.032  1.00  0.00    -0.049 OA 
BRANCH  28  31
HETATM   31  C   UNL     1      -8.912   8.733  68.534  1.00  0.00    -0.138 C  
BRANCH  31  32
HETATM   32  O   UNL     1      -8.308   9.485  67.505  1.00  0.00    -0.123 OA 
BRANCH  32  33
HETATM   33  P   UNL     1      -6.709   9.604  67.472  1.00  0.00    -0.071 P  
HETATM   34  O   UNL     1      -6.421   9.911  65.934  1.00  0.00    -0.077 OA 
HETATM   35  O   UNL     1      -5.970   8.363  67.888  1.00  0.00    -0.045 OA 
BRANCH  33  36
HETATM   36  O   UNL     1      -6.349  10.848  68.408  1.00  0.00    -0.052 OA 
BRANCH  36  37
HETATM   37  P   UNL     1      -7.201  12.353  68.352  1.00  0.00    -0.122 P  
HETATM   38  O   UNL     1      -8.529  11.649  68.987  1.00  0.00    -0.003 OA 
HETATM   39  O   UNL     1      -6.308  12.934  69.442  1.00  0.00    -0.103 OA 
BRANCH  37  40
HETATM   40  O   UNL     1      -8.052  13.858  68.297  1.00  0.00    -0.135 OA 
BRANCH  40  41
HETATM   41  C   UNL     1      -8.354  14.316  66.980  1.00  0.00    -0.131 C  
BRANCH  41  42
HETATM   42  C   UNL     1      -9.711  13.766  66.523  1.00  0.00    -0.293 C  
HETATM   43  O   UNL     1     -10.422  13.307  67.678  1.00  0.00    -0.225 OA 
HETATM   44  C   UNL     1     -11.812  13.611  67.506  1.00  0.00    -0.381 C  
HETATM   45  C   UNL     1     -11.997  14.565  66.328  1.00  0.00    -0.322 C  
HETATM   46  H   UNL     1     -11.029  15.282  63.947  1.00  0.00     0.000 HD 
HETATM   47  C   UNL     1     -10.581  14.797  65.809  1.00  0.00    -0.327 C  
HETATM   48  O   UNL     1     -10.487  14.641  64.392  1.00  0.00    -0.137 OA 
HETATM   49  O   UNL     1     -12.825  14.002  65.293  1.00  0.00    -0.686 OA 
HETATM   50  H   UNL     1     -12.940  14.595  64.561  1.00  0.00     0.000 HD 
BRANCH  44  51
HETATM   51  N   UNL     1     -12.338  14.111  68.761  1.00  0.00    -0.186 NA 
HETATM   52  C   UNL     1     -12.336  15.403  69.213  1.00  0.00    -0.093 A  
HETATM   53  C   UNL     1     -12.548  14.137  70.925  1.00  0.00    -0.363 A  
HETATM   54  N   UNL     1     -12.431  15.456  70.526  1.00  0.00    -0.399 NA 
HETATM   55  C   UNL     1     -12.622  13.300  69.825  1.00  0.00     0.126 A  
HETATM   56  N   UNL     1     -12.786  11.966  69.810  1.00  0.00     0.411 NA 
HETATM   57  C   UNL     1     -12.846  11.489  71.070  1.00  0.00    -0.263 A  
HETATM   58  N   UNL     1     -12.715  12.168  72.231  1.00  0.00     0.092 NA 
HETATM   59  C   UNL     1     -12.537  13.509  72.179  1.00  0.00    -0.014 A  
HETATM   60  N   UNL     1     -12.289  14.183  73.363  1.00  0.00    -0.067 NA 
HETATM   61  H2  UNL     1     -12.952  14.957  73.417  1.00  0.00     0.000 HD 
HETATM   62  H1  UNL     1     -12.281  13.726  74.275  1.00  0.00     0.000 HD 
ENDBRANCH  44  51
ENDBRANCH  41  42
ENDBRANCH  40  41
ENDBRANCH  37  40
ENDBRANCH  36  37
ENDBRANCH  33  36
ENDBRANCH  32  33
ENDBRANCH  31  32
ENDBRANCH  28  31
ENDBRANCH  25  28
ENDBRANCH  22  25
ENDBRANCH  21  22
ENDBRANCH   7  21
TORSDOF 13
ENDMDL
MODEL       86
REMARK 921   NORMALIZED FREE ENERGY PREDICTED BY IDOCK:    2.20 KCAL/MOL
REMARK 922        TOTAL FREE ENERGY PREDICTED BY IDOCK:    0.77 KCAL/MOL
REMARK 923 INTER-LIGAND FREE ENERGY PREDICTED BY IDOCK:   -5.24 KCAL/MOL
REMARK 924 INTRA-LIGAND FREE ENERGY PREDICTED BY IDOCK:    6.01 KCAL/MOL
REMARK 927      BINDING AFFINITY PREDICTED BY RF-SCORE:    0.00 PKD
ROOT
HETATM    1  C   UNL     1     -12.550  14.780  64.612  1.00  0.00    -0.116 C  
HETATM    2  C   UNL     1     -11.344  15.017  65.477  1.00  0.00    -0.312 A  
HETATM    3  C   UNL     1     -10.589  16.185  65.283  1.00  0.00    -0.390 A  
HETATM    4  C   UNL     1      -9.547  16.534  66.148  1.00  0.00    -0.315 A  
HETATM    5  C   UNL     1      -9.309  15.758  67.300  1.00  0.00    -0.211 A  
HETATM    6  C   UNL     1      -9.975  14.527  67.414  1.00  0.00    -0.227 A  
HETATM    7  N   UNL     1      -8.391  16.223  68.268  1.00  0.00    -0.179 NA 
HETATM    8  H   UNL     1      -5.824  20.563  67.242  1.00  0.00     0.000 HD 
HETATM    9  C   UNL     1      -7.635  17.348  67.973  1.00  0.00    -0.206 A  
HETATM   10  C   UNL     1     -10.989  14.144  66.519  1.00  0.00    -0.309 A  
HETATM   11  C   UNL     1     -11.650  12.804  66.688  1.00  0.00    -0.430 C  
HETATM   12  O   UNL     1      -6.594  19.381  65.099  1.00  0.00    -0.310 OA 
HETATM   13  N   UNL     1      -6.817  17.902  68.824  1.00  0.00    -0.246 N  
HETATM   14  H   UNL     1      -6.763  17.516  69.766  1.00  0.00     0.000 HD 
HETATM   15  C   UNL     1      -7.789  17.981  66.618  1.00  0.00    -0.243 A  
HETATM   16  C   UNL     1      -6.034  18.967  68.516  1.00  0.00    -0.214 C  
HETATM   17  C   UNL     1      -6.843  19.078  66.254  1.00  0.00    -0.219 C  
HETATM   18  N   UNL     1      -8.746  17.643  65.802  1.00  0.00    -0.434 NA 
HETATM   19  N   UNL     1      -6.201  19.619  67.330  1.00  0.00    -0.186 N  
HETATM   20  O   UNL     1      -5.132  19.340  69.262  1.00  0.00    -0.183 OA 
ENDROOT
BRANCH   7  21
HETATM   21  C   UNL     1      -8.697  15.937  69.682  1.00  0.00     0.030 C  
BRANCH  21  22
HETATM   22  C   UNL     1      -8.059  14.613  70.152  1.00  0.00     0.796 C  
HETATM   23  O   UNL     1      -7.280  14.882  71.319  1.00  0.00     0.577 OA 
HETATM   24  H   UNL     1      -6.887  14.066  71.608  1.00  0.00     0.000 HD 
BRANCH  22  25
HETATM   25  C   UNL     1      -7.224  14.027  69.000  1.00  0.00    -0.092 C  
HETATM   26  H   UNL     1      -7.213  14.231  67.068  1.00  0.00     0.000 HD 
HETATM   27  O   UNL     1      -7.729  14.592  67.780  1.00  0.00    -0.127 OA 
BRANCH  25  28
HETATM   28  C   UNL     1      -7.242  12.482  68.901  1.00  0.00    -0.050 C  
HETATM   29  H   UNL     1      -6.883  10.937  70.085  1.00  0.00     0.000 HD 
HETATM   30  O   UNL     1      -6.871  11.885  70.146  1.00  0.00     0.074 OA 
BRANCH  28  31
HETATM   31  C   UNL     1      -6.305  11.972  67.789  1.00  0.00    -0.081 C  
BRANCH  31  32
HETATM   32  O   UNL     1      -6.883  10.875  67.115  1.00  0.00    -0.082 OA 
BRANCH  32  33
HETATM   33  P   UNL     1      -6.237  10.394  65.728  1.00  0.00    -0.129 P  
HETATM   34  O   UNL     1      -5.149   9.331  66.209  1.00  0.00    -0.038 OA 
HETATM   35  O   UNL     1      -5.567  11.477  64.928  1.00  0.00     0.393 OA 
BRANCH  33  36
HETATM   36  O   UNL     1      -7.426   9.707  64.912  1.00  0.00    -0.107 OA 
BRANCH  36  37
HETATM   37  P   UNL     1      -7.758   8.010  64.973  1.00  0.00    -0.126 P  
HETATM   38  O   UNL     1      -9.363   8.303  64.987  1.00  0.00     0.298 OA 
HETATM   39  O   UNL     1      -7.242   7.826  63.552  1.00  0.00    -0.077 OA 
BRANCH  37  40
HETATM   40  O   UNL     1      -8.091   6.313  65.033  1.00  0.00    -0.128 OA 
BRANCH  40  41
HETATM   41  C   UNL     1      -6.992   5.484  64.658  1.00  0.00    -0.049 C  
BRANCH  41  42
HETATM   42  C   UNL     1      -6.262   4.972  65.906  1.00  0.00    -0.034 C  
HETATM   43  O   UNL     1      -6.439   5.930  66.956  1.00  0.00    -0.046 OA 
HETATM   44  C   UNL     1      -6.589   5.223  68.195  1.00  0.00    -0.049 C  
HETATM   45  C   UNL     1      -6.810   3.737  67.926  1.00  0.00    -0.047 C  
HETATM   46  H   UNL     1      -6.238   1.725  66.268  1.00  0.00     0.000 HD 
HETATM   47  C   UNL     1      -6.772   3.622  66.404  1.00  0.00    -0.049 C  
HETATM   48  O   UNL     1      -5.921   2.565  65.958  1.00  0.00    -0.021 OA 
HETATM   49  O   UNL     1      -5.786   2.916  68.516  1.00  0.00    -0.021 OA 
HETATM   50  H   UNL     1      -5.923   1.991  68.349  1.00  0.00     0.000 HD 
BRANCH  44  51
HETATM   51  N   UNL     1      -7.647   5.850  68.963  1.00  0.00    -0.088 NA 
HETATM   52  C   UNL     1      -7.789   7.178  69.259  1.00  0.00    -0.117 A  
HETATM   53  C   UNL     1      -8.927   6.086  70.704  1.00  0.00    -0.146 A  
HETATM   54  N   UNL     1      -8.537   7.358  70.329  1.00  0.00    -0.143 NA 
HETATM   55  C   UNL     1      -8.486   5.150  69.785  1.00  0.00    -0.096 A  
HETATM   56  N   UNL     1      -8.707   3.824  69.783  1.00  0.00    -0.072 NA 
HETATM   57  C   UNL     1      -9.432   3.470  70.864  1.00  0.00    -0.166 A  
HETATM   58  N   UNL     1      -9.866   4.253  71.876  1.00  0.00    -0.172 NA 
HETATM   59  C   UNL     1      -9.597   5.580  71.828  1.00  0.00    -0.151 A  
HETATM   60  N   UNL     1      -9.943   6.358  72.919  1.00  0.00    -0.171 NA 
HETATM   61  H2  UNL     1     -10.488   7.146  72.570  1.00  0.00     0.000 HD 
HETATM   62  H1  UNL     1     -10.430   5.990  73.737  1.00  0.00     0.000 HD 
ENDBRANCH  44  51
ENDBRANCH  41  42
ENDBRANCH  40  41
ENDBRANCH  37  40
ENDBRANCH  36  37
ENDBRANCH  33  36
ENDBRANCH  32  33
ENDBRANCH  31  32
ENDBRANCH  28  31
ENDBRANCH  25  28
ENDBRANCH  22  25
ENDBRANCH  21  22
ENDBRANCH   7  21
TORSDOF 13
ENDMDL
MODEL       87
REMARK 921   NORMALIZED FREE ENERGY PREDICTED BY IDOCK:    2.24 KCAL/MOL
REMARK 922        TOTAL FREE ENERGY PREDICTED BY IDOCK:    0.83 KCAL/MOL
REMARK 923 INTER-LIGAND FREE ENERGY PREDICTED BY IDOCK:   -3.28 KCAL/MOL
REMARK 924 INTRA-LIGAND FREE ENERGY PREDICTED BY IDOCK:    4.11 KCAL/MOL
REMARK 927      BINDING AFFINITY PREDICTED BY RF-SCORE:    0.00 PKD
ROOT
HETATM    1  C   UNL     1     -13.014  15.523  73.315  1.00  0.00    -0.654 C  
HETATM    2  C   UNL     1     -12.251  15.396  72.026  1.00  0.00    -0.460 A  
HETATM    3  C   UNL     1     -10.870  15.647  72.027  1.00  0.00     0.455 A  
HETATM    4  C   UNL     1     -10.081  15.404  70.897  1.00  0.00     0.746 A  
HETATM    5  C   UNL     1     -10.658  14.799  69.763  1.00  0.00    -0.112 A  
HETATM    6  C   UNL     1     -12.056  14.676  69.721  1.00  0.00    -0.371 A  
HETATM    7  N   UNL     1      -9.821  14.378  68.706  1.00  0.00    -0.232 NA 
HETATM    8  H   UNL     1      -4.798  15.430  69.062  1.00  0.00     0.000 HD 
HETATM    9  C   UNL     1      -8.478  14.722  68.750  1.00  0.00    -0.170 A  
HETATM   10  C   UNL     1     -12.862  14.966  70.835  1.00  0.00    -0.432 A  
HETATM   11  C   UNL     1     -14.355  14.830  70.718  1.00  0.00     0.340 C  
HETATM   12  O   UNL     1      -6.215  17.067  70.438  1.00  0.00     0.056 OA 
HETATM   13  N   UNL     1      -7.609  14.319  67.866  1.00  0.00    -0.136 N  
HETATM   14  H   UNL     1      -7.922  13.685  67.131  1.00  0.00     0.000 HD 
HETATM   15  C   UNL     1      -7.993  15.573  69.890  1.00  0.00     0.139 A  
HETATM   16  C   UNL     1      -6.307  14.703  67.876  1.00  0.00    -0.159 C  
HETATM   17  C   UNL     1      -6.589  16.079  69.828  1.00  0.00    -0.143 C  
HETATM   18  N   UNL     1      -8.732  15.818  70.934  1.00  0.00     2.499 NA 
HETATM   19  N   UNL     1      -5.809  15.406  68.933  1.00  0.00    -0.097 N  
HETATM   20  O   UNL     1      -5.561  14.477  66.926  1.00  0.00     0.441 OA 
ENDROOT
BRANCH   7  21
HETATM   21  C   UNL     1     -10.205  13.145  67.991  1.00  0.00    -0.233 C  
BRANCH  21  22
HETATM   22  C   UNL     1     -10.203  13.345  66.461  1.00  0.00    -0.282 C  
HETATM   23  O   UNL     1      -8.848  13.325  66.009  1.00  0.00    -0.366 OA 
HETATM   24  H   UNL     1      -8.847  13.449  65.066  1.00  0.00     0.000 HD 
BRANCH  22  25
HETATM   25  C   UNL     1     -10.922  14.666  66.131  1.00  0.00    -0.329 C  
HETATM   26  H   UNL     1     -10.934  16.452  66.894  1.00  0.00     0.000 HD 
HETATM   27  O   UNL     1     -10.490  15.637  67.097  1.00  0.00    -0.290 OA 
BRANCH  25  28
HETATM   28  C   UNL     1     -12.468  14.585  66.135  1.00  0.00    -0.138 C  
HETATM   29  H   UNL     1     -13.935  14.700  67.459  1.00  0.00     0.000 HD 
HETATM   30  O   UNL     1     -12.986  14.750  67.457  1.00  0.00     1.146 OA 
BRANCH  28  31
HETATM   31  C   UNL     1     -12.970  13.249  65.552  1.00  0.00    -0.045 C  
BRANCH  31  32
HETATM   32  O   UNL     1     -11.912  12.544  64.940  1.00  0.00    -0.372 OA 
BRANCH  32  33
HETATM   33  P   UNL     1     -11.954  12.314  63.353  1.00  0.00    -0.354 P  
HETATM   34  O   UNL     1     -12.481  13.721  62.818  1.00  0.00    -0.424 OA 
HETATM   35  O   UNL     1     -12.875  11.219  62.892  1.00  0.00     0.096 OA 
BRANCH  33  36
HETATM   36  O   UNL     1     -10.442  12.037  62.916  1.00  0.00    -0.198 OA 
BRANCH  36  37
HETATM   37  P   UNL     1      -9.423  10.889  63.714  1.00  0.00    -0.304 P  
HETATM   38  O   UNL     1     -10.647  10.453  64.700  1.00  0.00    -0.173 OA 
HETATM   39  O   UNL     1      -9.379  10.015  62.467  1.00  0.00    -0.290 OA 
BRANCH  37  40
HETATM   40  O   UNL     1      -8.403   9.740  64.511  1.00  0.00    -0.143 OA 
BRANCH  40  41
HETATM   41  C   UNL     1      -8.900   9.286  65.769  1.00  0.00    -0.177 C  
BRANCH  41  42
HETATM   42  C   UNL     1      -8.060   8.108  66.278  1.00  0.00    -0.107 C  
HETATM   43  O   UNL     1      -7.774   8.326  67.665  1.00  0.00    -0.097 OA 
HETATM   44  C   UNL     1      -7.816   7.062  68.341  1.00  0.00    -0.122 C  
HETATM   45  C   UNL     1      -8.435   6.003  67.433  1.00  0.00    -0.104 C  
HETATM   46  H   UNL     1      -8.729   5.223  64.897  1.00  0.00     0.000 HD 
HETATM   47  C   UNL     1      -8.755   6.755  66.145  1.00  0.00    -0.148 C  
HETATM   48  O   UNL     1      -8.296   6.066  64.981  1.00  0.00    -0.139 OA 
HETATM   49  O   UNL     1      -7.531   4.914  67.166  1.00  0.00    -0.084 OA 
HETATM   50  H   UNL     1      -7.917   4.255  66.602  1.00  0.00     0.000 HD 
BRANCH  44  51
HETATM   51  N   UNL     1      -8.502   7.233  69.606  1.00  0.00    -0.132 NA 
HETATM   52  C   UNL     1      -9.493   8.129  69.904  1.00  0.00    -0.160 A  
HETATM   53  C   UNL     1      -8.600   7.540  71.757  1.00  0.00    -0.115 A  
HETATM   54  N   UNL     1      -9.562   8.362  71.199  1.00  0.00    -0.166 NA 
HETATM   55  C   UNL     1      -8.023   6.737  70.787  1.00  0.00    -0.110 A  
HETATM   56  N   UNL     1      -7.090   5.785  70.949  1.00  0.00    -0.068 NA 
HETATM   57  C   UNL     1      -6.724   5.705  72.246  1.00  0.00    -0.071 A  
HETATM   58  N   UNL     1      -7.140   6.465  73.282  1.00  0.00    -0.082 NA 
HETATM   59  C   UNL     1      -8.072   7.420  73.051  1.00  0.00    -0.105 A  
HETATM   60  N   UNL     1      -8.410   8.271  74.089  1.00  0.00    -0.308 NA 
HETATM   61  H2  UNL     1      -9.427   8.259  74.174  1.00  0.00     0.000 HD 
HETATM   62  H1  UNL     1      -8.027   8.184  75.031  1.00  0.00     0.000 HD 
ENDBRANCH  44  51
ENDBRANCH  41  42
ENDBRANCH  40  41
ENDBRANCH  37  40
ENDBRANCH  36  37
ENDBRANCH  33  36
ENDBRANCH  32  33
ENDBRANCH  31  32
ENDBRANCH  28  31
ENDBRANCH  25  28
ENDBRANCH  22  25
ENDBRANCH  21  22
ENDBRANCH   7  21
TORSDOF 13
ENDMDL
MODEL       88
REMARK 921   NORMALIZED FREE ENERGY PREDICTED BY IDOCK:    2.65 KCAL/MOL
REMARK 922        TOTAL FREE ENERGY PREDICTED BY IDOCK:    1.55 KCAL/MOL
REMARK 923 INTER-LIGAND FREE ENERGY PREDICTED BY IDOCK:   -2.82 KCAL/MOL
REMARK 924 INTRA-LIGAND FREE ENERGY PREDICTED BY IDOCK:    4.37 KCAL/MOL
REMARK 927      BINDING AFFINITY PREDICTED BY RF-SCORE:    0.00 PKD
ROOT
HETATM    1  C   UNL     1     -12.979  15.411  73.270  1.00  0.00    -0.648 C  
HETATM    2  C   UNL     1     -12.203  15.227  71.996  1.00  0.00    -0.441 A  
HETATM    3  C   UNL     1     -10.815  15.434  72.010  1.00  0.00     0.298 A  
HETATM    4  C   UNL     1     -10.020  15.137  70.898  1.00  0.00     0.992 A  
HETATM    5  C   UNL     1     -10.601  14.523  69.771  1.00  0.00     0.014 A  
HETATM    6  C   UNL     1     -12.002  14.444  69.712  1.00  0.00    -0.385 A  
HETATM    7  N   UNL     1      -9.765  14.049  68.736  1.00  0.00    -0.172 NA 
HETATM    8  H   UNL     1      -4.714  14.948  69.137  1.00  0.00     0.000 HD 
HETATM    9  C   UNL     1      -8.412  14.351  68.791  1.00  0.00    -0.120 A  
HETATM   10  C   UNL     1     -12.812  14.788  70.808  1.00  0.00    -0.418 A  
HETATM   11  C   UNL     1     -14.308  14.696  70.673  1.00  0.00     0.719 C  
HETATM   12  O   UNL     1      -6.096  16.663  70.453  1.00  0.00    -0.072 OA 
HETATM   13  N   UNL     1      -7.544  13.898  67.929  1.00  0.00    -0.138 N  
HETATM   14  H   UNL     1      -7.868  13.256  67.206  1.00  0.00     0.000 HD 
HETATM   15  C   UNL     1      -7.914  15.214  69.916  1.00  0.00     0.116 A  
HETATM   16  C   UNL     1      -6.231  14.240  67.948  1.00  0.00    -0.157 C  
HETATM   17  C   UNL     1      -6.494  15.673  69.861  1.00  0.00    -0.137 C  
HETATM   18  N   UNL     1      -8.659  15.508  70.943  1.00  0.00     2.197 NA 
HETATM   19  N   UNL     1      -5.725  14.953  68.994  1.00  0.00    -0.095 N  
HETATM   20  O   UNL     1      -5.480  13.967  67.014  1.00  0.00     0.109 OA 
ENDROOT
BRANCH   7  21
HETATM   21  C   UNL     1     -10.178  12.812  68.046  1.00  0.00    -0.228 C  
BRANCH  21  22
HETATM   22  C   UNL     1     -10.046  12.938  66.514  1.00  0.00    -0.261 C  
HETATM   23  O   UNL     1      -8.668  12.780  66.170  1.00  0.00    -0.408 OA 
HETATM   24  H   UNL     1      -8.586  12.858  65.226  1.00  0.00     0.000 HD 
BRANCH  22  25
HETATM   25  C   UNL     1     -10.618  14.298  66.075  1.00  0.00    -0.300 C  
HETATM   26  H   UNL     1     -10.441  16.129  66.699  1.00  0.00     0.000 HD 
HETATM   27  O   UNL     1     -10.088  15.289  66.969  1.00  0.00    -0.243 OA 
BRANCH  25  28
HETATM   28  C   UNL     1     -12.163  14.383  66.065  1.00  0.00    -0.336 C  
HETATM   29  H   UNL     1     -13.613  14.790  67.350  1.00  0.00     0.000 HD 
HETATM   30  O   UNL     1     -12.665  14.738  67.356  1.00  0.00     0.442 OA 
BRANCH  28  31
HETATM   31  C   UNL     1     -12.804  13.055  65.615  1.00  0.00     0.066 C  
BRANCH  31  32
HETATM   32  O   UNL     1     -11.854  12.238  64.966  1.00  0.00    -0.371 OA 
BRANCH  32  33
HETATM   33  P   UNL     1     -11.908  12.113  63.368  1.00  0.00    -0.322 P  
HETATM   34  O   UNL     1     -12.364  13.576  62.926  1.00  0.00    -0.542 OA 
HETATM   35  O   UNL     1     -12.883  11.097  62.842  1.00  0.00     0.340 OA 
BRANCH  33  36
HETATM   36  O   UNL     1     -10.412  11.788  62.909  1.00  0.00    -0.236 OA 
BRANCH  36  37
HETATM   37  P   UNL     1      -9.454  10.538  63.624  1.00  0.00    -0.327 P  
HETATM   38  O   UNL     1     -10.680  10.139  64.624  1.00  0.00     0.278 OA 
HETATM   39  O   UNL     1      -9.502   9.722  62.337  1.00  0.00    -0.259 OA 
BRANCH  37  40
HETATM   40  O   UNL     1      -8.496   9.286  64.338  1.00  0.00    -0.168 OA 
BRANCH  40  41
HETATM   41  C   UNL     1      -9.052   8.724  65.525  1.00  0.00    -0.163 C  
BRANCH  41  42
HETATM   42  C   UNL     1      -8.489   9.433  66.764  1.00  0.00    -0.127 C  
HETATM   43  O   UNL     1      -8.911   8.711  67.927  1.00  0.00    -0.136 OA 
HETATM   44  C   UNL     1      -7.843   8.728  68.883  1.00  0.00    -0.104 C  
HETATM   45  C   UNL     1      -6.560   9.230  68.227  1.00  0.00    -0.059 C  
HETATM   46  H   UNL     1      -5.576  10.853  66.350  1.00  0.00     0.000 HD 
HETATM   47  C   UNL     1      -6.965   9.516  66.784  1.00  0.00    -0.081 C  
HETATM   48  O   UNL     1      -6.525  10.800  66.337  1.00  0.00    -0.105 OA 
HETATM   49  O   UNL     1      -6.057  10.425  68.852  1.00  0.00    -0.041 OA 
HETATM   50  H   UNL     1      -5.258  10.737  68.444  1.00  0.00     0.000 HD 
BRANCH  44  51
HETATM   51  N   UNL     1      -7.729   7.411  69.477  1.00  0.00    -0.106 NA 
HETATM   52  C   UNL     1      -6.967   7.043  70.553  1.00  0.00    -0.062 A  
HETATM   53  C   UNL     1      -7.376   5.266  69.433  1.00  0.00    -0.061 A  
HETATM   54  N   UNL     1      -6.707   5.750  70.542  1.00  0.00    -0.046 NA 
HETATM   55  C   UNL     1      -8.122   6.268  68.837  1.00  0.00    -0.110 A  
HETATM   56  N   UNL     1      -8.935   6.172  67.771  1.00  0.00    -0.116 NA 
HETATM   57  C   UNL     1      -8.926   4.912  67.290  1.00  0.00    -0.111 A  
HETATM   58  N   UNL     1      -8.199   3.856  67.716  1.00  0.00    -0.092 NA 
HETATM   59  C   UNL     1      -7.385   4.021  68.786  1.00  0.00    -0.055 A  
HETATM   60  N   UNL     1      -6.558   2.972  69.148  1.00  0.00    -0.033 NA 
HETATM   61  H2  UNL     1      -6.704   2.798  70.143  1.00  0.00     0.000 HD 
HETATM   62  H1  UNL     1      -6.565   2.066  68.678  1.00  0.00     0.000 HD 
ENDBRANCH  44  51
ENDBRANCH  41  42
ENDBRANCH  40  41
ENDBRANCH  37  40
ENDBRANCH  36  37
ENDBRANCH  33  36
ENDBRANCH  32  33
ENDBRANCH  31  32
ENDBRANCH  28  31
ENDBRANCH  25  28
ENDBRANCH  22  25
ENDBRANCH  21  22
ENDBRANCH   7  21
TORSDOF 13
ENDMDL
MODEL       89
REMARK 921   NORMALIZED FREE ENERGY PREDICTED BY IDOCK:    2.73 KCAL/MOL
REMARK 922        TOTAL FREE ENERGY PREDICTED BY IDOCK:    1.69 KCAL/MOL
REMARK 923 INTER-LIGAND FREE ENERGY PREDICTED BY IDOCK:   -4.45 KCAL/MOL
REMARK 924 INTRA-LIGAND FREE ENERGY PREDICTED BY IDOCK:    6.13 KCAL/MOL
REMARK 927      BINDING AFFINITY PREDICTED BY RF-SCORE:    0.00 PKD
ROOT
HETATM    1  C   UNL     1      -5.998  17.376  69.610  1.00  0.00    -0.248 C  
HETATM    2  C   UNL     1      -6.698  16.479  68.627  1.00  0.00    -0.152 A  
HETATM    3  C   UNL     1      -6.234  15.165  68.458  1.00  0.00    -0.093 A  
HETATM    4  C   UNL     1      -6.929  14.240  67.671  1.00  0.00    -0.184 A  
HETATM    5  C   UNL     1      -8.173  14.595  67.115  1.00  0.00    -0.201 A  
HETATM    6  C   UNL     1      -8.562  15.944  67.175  1.00  0.00    -0.221 A  
HETATM    7  N   UNL     1      -8.959  13.602  66.489  1.00  0.00    -0.118 NA 
HETATM    8  H   UNL     1      -6.961   8.878  66.080  1.00  0.00     0.000 HD 
HETATM    9  C   UNL     1      -8.404  12.344  66.302  1.00  0.00     0.341 A  
HETATM   10  C   UNL     1      -7.842  16.892  67.922  1.00  0.00    -0.180 A  
HETATM   11  C   UNL     1      -8.302  18.324  67.932  1.00  0.00    -0.259 C  
HETATM   12  O   UNL     1      -5.137  10.672  66.262  1.00  0.00    -0.051 OA 
HETATM   13  N   UNL     1      -9.069  11.338  65.806  1.00  0.00    -0.210 N  
HETATM   14  H   UNL     1     -10.056  11.469  65.587  1.00  0.00     0.000 HD 
HETATM   15  C   UNL     1      -6.978  12.119  66.721  1.00  0.00     0.110 A  
HETATM   16  C   UNL     1      -8.510  10.124  65.568  1.00  0.00    -0.153 C  
HETATM   17  C   UNL     1      -6.345  10.818  66.351  1.00  0.00    -0.122 C  
HETATM   18  N   UNL     1      -6.323  12.987  67.436  1.00  0.00    -0.249 NA 
HETATM   19  N   UNL     1      -7.247   9.854  66.006  1.00  0.00    -0.101 N  
HETATM   20  O   UNL     1      -9.095   9.261  64.918  1.00  0.00    -0.218 OA 
ENDROOT
BRANCH   7  21
HETATM   21  C   UNL     1     -10.424  13.706  66.636  1.00  0.00    -0.272 C  
BRANCH  21  22
HETATM   22  C   UNL     1     -11.166  12.762  65.667  1.00  0.00    -0.301 C  
HETATM   23  O   UNL     1     -10.657  12.984  64.351  1.00  0.00    -0.367 OA 
HETATM   24  H   UNL     1     -11.115  12.403  63.754  1.00  0.00     0.000 HD 
BRANCH  22  25
HETATM   25  C   UNL     1     -12.678  13.028  65.775  1.00  0.00    -0.025 C  
HETATM   26  H   UNL     1     -13.990  13.960  64.687  1.00  0.00     0.000 HD 
HETATM   27  O   UNL     1     -13.057  13.795  64.620  1.00  0.00    -0.546 OA 
BRANCH  25  28
HETATM   28  C   UNL     1     -13.120  13.773  67.058  1.00  0.00     1.860 C  
HETATM   29  H   UNL     1     -13.150  15.635  67.731  1.00  0.00     0.000 HD 
HETATM   30  O   UNL     1     -12.879  15.178  66.943  1.00  0.00     1.071 OA 
BRANCH  28  31
HETATM   31  C   UNL     1     -12.398  13.231  68.307  1.00  0.00     0.146 C  
BRANCH  31  32
HETATM   32  O   UNL     1     -11.326  12.392  67.939  1.00  0.00    -0.249 OA 
BRANCH  32  33
HETATM   33  P   UNL     1     -11.189  10.959  68.647  1.00  0.00    -0.312 P  
HETATM   34  O   UNL     1     -11.653   9.962  67.492  1.00  0.00     0.080 OA 
HETATM   35  O   UNL     1     -12.052  10.765  69.862  1.00  0.00    -0.309 OA 
BRANCH  33  36
HETATM   36  O   UNL     1      -9.638  10.794  68.992  1.00  0.00    -0.197 OA 
BRANCH  36  37
HETATM   37  P   UNL     1      -9.044   9.666  70.161  1.00  0.00    -0.137 P  
HETATM   38  O   UNL     1      -8.987   8.491  69.031  1.00  0.00    -0.144 OA 
HETATM   39  O   UNL     1      -7.717  10.410  70.252  1.00  0.00    -0.144 OA 
BRANCH  37  40
HETATM   40  O   UNL     1      -8.448   8.537  71.330  1.00  0.00    -0.132 OA 
BRANCH  40  41
HETATM   41  C   UNL     1      -7.284   7.823  70.918  1.00  0.00    -0.054 C  
BRANCH  41  42
HETATM   42  C   UNL     1      -7.175   6.497  71.682  1.00  0.00    -0.086 C  
HETATM   43  O   UNL     1      -8.129   6.514  72.750  1.00  0.00    -0.106 OA 
HETATM   44  C   UNL     1      -8.673   5.195  72.893  1.00  0.00    -0.118 C  
HETATM   45  C   UNL     1      -8.283   4.335  71.693  1.00  0.00    -0.092 C  
HETATM   46  H   UNL     1      -6.393   3.901  69.859  1.00  0.00     0.000 HD 
HETATM   47  C   UNL     1      -7.448   5.268  70.820  1.00  0.00    -0.075 C  
HETATM   48  O   UNL     1      -6.223   4.667  70.396  1.00  0.00    -0.020 OA 
HETATM   49  O   UNL     1      -7.512   3.181  72.074  1.00  0.00    -0.049 OA 
HETATM   50  H   UNL     1      -7.270   2.646  71.328  1.00  0.00     0.000 HD 
BRANCH  44  51
HETATM   51  N   UNL     1     -10.103   5.301  73.106  1.00  0.00    -0.174 NA 
HETATM   52  C   UNL     1     -10.991   4.286  73.336  1.00  0.00    -0.278 A  
HETATM   53  C   UNL     1     -12.116   5.951  72.601  1.00  0.00     0.009 A  
HETATM   54  N   UNL     1     -12.220   4.636  73.013  1.00  0.00     0.164 NA 
HETATM   55  C   UNL     1     -10.824   6.416  72.778  1.00  0.00    -0.248 A  
HETATM   56  N   UNL     1     -10.349   7.650  72.538  1.00  0.00    -0.232 NA 
HETATM   57  C   UNL     1     -11.325   8.439  72.044  1.00  0.00    -0.342 A  
HETATM   58  N   UNL     1     -12.602   8.108  71.750  1.00  0.00    -0.320 NA 
HETATM   59  C   UNL     1     -13.016   6.843  72.000  1.00  0.00    -0.133 A  
HETATM   60  N   UNL     1     -14.288   6.477  71.592  1.00  0.00    -0.007 NA 
HETATM   61  H2  UNL     1     -14.759   6.067  72.398  1.00  0.00     0.000 HD 
HETATM   62  H1  UNL     1     -14.943   7.126  71.154  1.00  0.00     0.000 HD 
ENDBRANCH  44  51
ENDBRANCH  41  42
ENDBRANCH  40  41
ENDBRANCH  37  40
ENDBRANCH  36  37
ENDBRANCH  33  36
ENDBRANCH  32  33
ENDBRANCH  31  32
ENDBRANCH  28  31
ENDBRANCH  25  28
ENDBRANCH  22  25
ENDBRANCH  21  22
ENDBRANCH   7  21
TORSDOF 13
ENDMDL
MODEL       90
REMARK 921   NORMALIZED FREE ENERGY PREDICTED BY IDOCK:    2.83 KCAL/MOL
REMARK 922        TOTAL FREE ENERGY PREDICTED BY IDOCK:    1.88 KCAL/MOL
REMARK 923 INTER-LIGAND FREE ENERGY PREDICTED BY IDOCK:   -2.95 KCAL/MOL
REMARK 924 INTRA-LIGAND FREE ENERGY PREDICTED BY IDOCK:    4.82 KCAL/MOL
REMARK 927      BINDING AFFINITY PREDICTED BY RF-SCORE:    0.00 PKD
ROOT
HETATM    1  C   UNL     1      -5.659  10.828  69.168  1.00  0.00    -0.040 C  
HETATM    2  C   UNL     1      -6.172   9.428  69.365  1.00  0.00    -0.040 A  
HETATM    3  C   UNL     1      -6.840   9.112  70.558  1.00  0.00    -0.074 A  
HETATM    4  C   UNL     1      -7.467   7.874  70.739  1.00  0.00    -0.072 A  
HETATM    5  C   UNL     1      -7.520   6.958  69.670  1.00  0.00    -0.099 A  
HETATM    6  C   UNL     1      -6.739   7.225  68.534  1.00  0.00    -0.057 A  
HETATM    7  N   UNL     1      -8.319   5.800  69.794  1.00  0.00    -0.111 NA 
HETATM    8  H   UNL     1     -10.660   4.976  74.301  1.00  0.00     0.000 HD 
HETATM    9  C   UNL     1      -8.894   5.524  71.026  1.00  0.00    -0.140 A  
HETATM   10  C   UNL     1      -6.064   8.446  68.366  1.00  0.00    -0.046 A  
HETATM   11  C   UNL     1      -5.231   8.661  67.132  1.00  0.00    -0.033 C  
HETATM   12  O   UNL     1      -8.568   6.437  74.566  1.00  0.00    -0.131 OA 
HETATM   13  N   UNL     1      -9.707   4.525  71.226  1.00  0.00    -0.171 N  
HETATM   14  H   UNL     1      -9.969   3.944  70.429  1.00  0.00     0.000 HD 
HETATM   15  C   UNL     1      -8.591   6.438  72.180  1.00  0.00    -0.125 A  
HETATM   16  C   UNL     1     -10.223   4.219  72.444  1.00  0.00    -0.181 C  
HETATM   17  C   UNL     1      -9.072   6.028  73.533  1.00  0.00    -0.131 C  
HETATM   18  N   UNL     1      -7.990   7.582  72.017  1.00  0.00    -0.092 NA 
HETATM   19  N   UNL     1     -10.040   5.066  73.496  1.00  0.00    -0.157 N  
HETATM   20  O   UNL     1     -10.818   3.163  72.645  1.00  0.00    -0.041 OA 
ENDROOT
BRANCH   7  21
HETATM   21  C   UNL     1      -9.003   5.317  68.579  1.00  0.00    -0.108 C  
BRANCH  21  22
HETATM   22  C   UNL     1      -8.137   4.309  67.795  1.00  0.00    -0.094 C  
HETATM   23  O   UNL     1      -7.606   4.975  66.647  1.00  0.00    -0.086 OA 
HETATM   24  H   UNL     1      -7.073   4.354  66.164  1.00  0.00     0.000 HD 
BRANCH  22  25
HETATM   25  C   UNL     1      -9.002   3.089  67.429  1.00  0.00    -0.161 C  
HETATM   26  H   UNL     1      -8.850   1.171  67.688  1.00  0.00     0.000 HD 
HETATM   27  O   UNL     1      -8.317   1.924  67.914  1.00  0.00    -0.062 OA 
BRANCH  25  28
HETATM   28  C   UNL     1      -9.293   2.927  65.917  1.00  0.00    -0.051 C  
HETATM   29  H   UNL     1      -8.682   1.777  64.426  1.00  0.00     0.000 HD 
HETATM   30  O   UNL     1      -8.503   1.877  65.353  1.00  0.00    -0.091 OA 
BRANCH  28  31
HETATM   31  C   UNL     1      -9.034   4.234  65.144  1.00  0.00    -0.139 C  
BRANCH  31  32
HETATM   32  O   UNL     1      -8.221   3.993  64.016  1.00  0.00    -0.089 OA 
BRANCH  32  33
HETATM   33  P   UNL     1      -7.140   5.099  63.594  1.00  0.00    -0.051 P  
HETATM   34  O   UNL     1      -7.980   6.047  62.625  1.00  0.00    -0.090 OA 
HETATM   35  O   UNL     1      -5.937   4.568  62.865  1.00  0.00    -0.016 OA 
BRANCH  33  36
HETATM   36  O   UNL     1      -6.728   5.841  64.948  1.00  0.00    -0.044 OA 
BRANCH  36  37
HETATM   37  P   UNL     1      -7.137   7.487  65.286  1.00  0.00    -0.068 P  
HETATM   38  O   UNL     1      -6.030   8.007  64.207  1.00  0.00    -0.055 OA 
HETATM   39  O   UNL     1      -8.505   7.314  64.636  1.00  0.00    -0.006 OA 
BRANCH  37  40
HETATM   40  O   UNL     1      -7.547   9.134  65.623  1.00  0.00    -0.092 OA 
BRANCH  40  41
HETATM   41  C   UNL     1      -8.509   9.300  66.665  1.00  0.00    -0.126 C  
BRANCH  41  42
HETATM   42  C   UNL     1      -9.254  10.630  66.494  1.00  0.00    -0.166 C  
HETATM   43  O   UNL     1     -10.562  10.488  67.061  1.00  0.00    -0.240 OA 
HETATM   44  C   UNL     1     -10.917  11.724  67.696  1.00  0.00    -0.233 C  
HETATM   45  C   UNL     1      -9.690  12.626  67.809  1.00  0.00    -0.206 C  
HETATM   46  H   UNL     1      -7.384  13.304  66.650  1.00  0.00     0.000 HD 
HETATM   47  C   UNL     1      -8.567  11.811  67.174  1.00  0.00    -0.168 C  
HETATM   48  O   UNL     1      -7.812  12.568  66.227  1.00  0.00     0.450 OA 
HETATM   49  O   UNL     1      -9.862  13.872  67.110  1.00  0.00    -0.232 OA 
HETATM   50  H   UNL     1      -9.100  14.434  67.180  1.00  0.00     0.000 HD 
BRANCH  44  51
HETATM   51  N   UNL     1     -11.554  11.429  68.964  1.00  0.00    -0.286 NA 
HETATM   52  C   UNL     1     -11.985  12.319  69.910  1.00  0.00    -0.306 A  
HETATM   53  C   UNL     1     -11.712  10.439  70.894  1.00  0.00    -0.360 A  
HETATM   54  N   UNL     1     -12.064  11.760  71.101  1.00  0.00    -0.095 NA 
HETATM   55  C   UNL     1     -11.519  10.191  69.546  1.00  0.00    -0.168 A  
HETATM   56  N   UNL     1     -11.215   9.023  68.954  1.00  0.00     0.179 NA 
HETATM   57  C   UNL     1     -11.080   8.052  69.881  1.00  0.00    -0.108 A  
HETATM   58  N   UNL     1     -11.163   8.158  71.225  1.00  0.00    -0.254 NA 
HETATM   59  C   UNL     1     -11.457   9.366  71.762  1.00  0.00    -0.343 A  
HETATM   60  N   UNL     1     -11.429   9.495  73.140  1.00  0.00     2.758 NA 
HETATM   61  H2  UNL     1     -12.316   9.912  73.424  1.00  0.00     0.000 HD 
HETATM   62  H1  UNL     1     -11.244   8.715  73.771  1.00  0.00     0.000 HD 
ENDBRANCH  44  51
ENDBRANCH  41  42
ENDBRANCH  40  41
ENDBRANCH  37  40
ENDBRANCH  36  37
ENDBRANCH  33  36
ENDBRANCH  32  33
ENDBRANCH  31  32
ENDBRANCH  28  31
ENDBRANCH  25  28
ENDBRANCH  22  25
ENDBRANCH  21  22
ENDBRANCH   7  21
TORSDOF 13
ENDMDL
MODEL       91
REMARK 921   NORMALIZED FREE ENERGY PREDICTED BY IDOCK:    3.81 KCAL/MOL
REMARK 922        TOTAL FREE ENERGY PREDICTED BY IDOCK:    3.60 KCAL/MOL
REMARK 923 INTER-LIGAND FREE ENERGY PREDICTED BY IDOCK:    2.75 KCAL/MOL
REMARK 924 INTRA-LIGAND FREE ENERGY PREDICTED BY IDOCK:    0.85 KCAL/MOL
REMARK 927      BINDING AFFINITY PREDICTED BY RF-SCORE:    0.00 PKD
ROOT
HETATM    1  C   UNL     1     -12.685  17.770  67.143  1.00  0.00     6.185 C  
HETATM    2  C   UNL     1     -11.664  16.667  67.193  1.00  0.00     1.002 A  
HETATM    3  C   UNL     1     -10.508  16.847  67.968  1.00  0.00    -0.347 A  
HETATM    4  C   UNL     1      -9.595  15.807  68.173  1.00  0.00    -0.199 A  
HETATM    5  C   UNL     1      -9.886  14.519  67.680  1.00  0.00    -0.223 A  
HETATM    6  C   UNL     1     -10.970  14.380  66.798  1.00  0.00    -0.314 A  
HETATM    7  N   UNL     1      -9.063  13.434  68.056  1.00  0.00    -0.198 NA 
HETATM    8  H   UNL     1      -4.925  14.456  70.938  1.00  0.00     0.000 HD 
HETATM    9  C   UNL     1      -7.902  13.703  68.767  1.00  0.00    -0.043 A  
HETATM   10  C   UNL     1     -11.863  15.435  66.546  1.00  0.00     0.306 A  
HETATM   11  C   UNL     1     -12.995  15.225  65.577  1.00  0.00     1.100 C  
HETATM   12  O   UNL     1      -5.656  16.495  69.562  1.00  0.00    -0.139 OA 
HETATM   13  N   UNL     1      -7.115  12.771  69.227  1.00  0.00    -0.308 N  
HETATM   14  H   UNL     1      -7.389  11.797  69.096  1.00  0.00     0.000 HD 
HETATM   15  C   UNL     1      -7.550  15.136  69.051  1.00  0.00    -0.162 A  
HETATM   16  C   UNL     1      -5.950  13.033  69.871  1.00  0.00    -0.136 C  
HETATM   17  C   UNL     1      -6.214  15.414  69.658  1.00  0.00    -0.153 C  
HETATM   18  N   UNL     1      -8.390  16.109  68.842  1.00  0.00    -0.221 NA 
HETATM   19  N   UNL     1      -5.634  14.313  70.218  1.00  0.00    -0.112 N  
HETATM   20  O   UNL     1      -5.133  12.148  70.112  1.00  0.00    -0.072 OA 
ENDROOT
BRANCH   7  21
HETATM   21  C   UNL     1      -9.717  12.126  68.252  1.00  0.00    -0.216 C  
BRANCH  21  22
HETATM   22  C   UNL     1      -9.105  11.038  67.345  1.00  0.00    -0.141 C  
HETATM   23  O   UNL     1      -8.402  11.685  66.282  1.00  0.00    -0.319 OA 
HETATM   24  H   UNL     1      -8.025  11.014  65.724  1.00  0.00     0.000 HD 
BRANCH  22  25
HETATM   25  C   UNL     1     -10.232  10.118  66.841  1.00  0.00    -0.236 C  
HETATM   26  H   UNL     1     -11.743   9.220  67.666  1.00  0.00     0.000 HD 
HETATM   27  O   UNL     1     -11.048   9.787  67.976  1.00  0.00    -0.222 OA 
BRANCH  25  28
HETATM   28  C   UNL     1      -9.753   8.818  66.152  1.00  0.00    -0.250 C  
HETATM   29  H   UNL     1     -10.328   6.927  66.036  1.00  0.00     0.000 HD 
HETATM   30  O   UNL     1     -10.623   7.725  66.459  1.00  0.00    -0.179 OA 
BRANCH  28  31
HETATM   31  C   UNL     1      -8.312   8.454  66.560  1.00  0.00    -0.111 C  
BRANCH  31  32
HETATM   32  O   UNL     1      -8.233   8.212  67.948  1.00  0.00    -0.125 OA 
BRANCH  32  33
HETATM   33  P   UNL     1      -6.908   8.654  68.735  1.00  0.00    -0.064 P  
HETATM   34  O   UNL     1      -7.313   8.401  70.256  1.00  0.00    -0.053 OA 
HETATM   35  O   UNL     1      -6.507  10.092  68.550  1.00  0.00    -0.049 OA 
BRANCH  33  36
HETATM   36  O   UNL     1      -5.761   7.655  68.246  1.00  0.00    -0.026 OA 
BRANCH  36  37
HETATM   37  P   UNL     1      -5.631   6.021  68.799  1.00  0.00    -0.013 P  
HETATM   38  O   UNL     1      -7.194   6.032  69.268  1.00  0.00    -0.070 OA 
HETATM   39  O   UNL     1      -5.486   5.516  67.369  1.00  0.00    -0.011 OA 
BRANCH  37  40
HETATM   40  O   UNL     1      -5.502   4.386  69.351  1.00  0.00    -0.010 OA 
BRANCH  40  41
HETATM   41  C   UNL     1      -5.837   3.406  68.370  1.00  0.00    -0.023 C  
BRANCH  41  42
HETATM   42  C   UNL     1      -7.292   2.952  68.546  1.00  0.00    -0.049 C  
HETATM   43  O   UNL     1      -7.685   3.215  69.899  1.00  0.00    -0.044 OA 
HETATM   44  C   UNL     1      -9.053   3.642  69.900  1.00  0.00    -0.122 C  
HETATM   45  C   UNL     1      -9.505   3.953  68.475  1.00  0.00    -0.148 C  
HETATM   46  H   UNL     1      -9.187   3.299  65.907  1.00  0.00     0.000 HD 
HETATM   47  C   UNL     1      -8.274   3.666  67.621  1.00  0.00    -0.089 C  
HETATM   48  O   UNL     1      -8.575   2.855  66.484  1.00  0.00    -0.100 OA 
HETATM   49  O   UNL     1     -10.608   3.127  68.058  1.00  0.00     1.504 OA 
HETATM   50  H   UNL     1     -10.890   3.321  67.172  1.00  0.00     0.000 HD 
BRANCH  44  51
HETATM   51  N   UNL     1      -9.195   4.750  70.822  1.00  0.00    -0.132 NA 
HETATM   52  C   UNL     1      -8.738   4.830  72.110  1.00  0.00    -0.124 A  
HETATM   53  C   UNL     1     -10.316   6.261  71.913  1.00  0.00    -0.204 A  
HETATM   54  N   UNL     1      -9.417   5.716  72.810  1.00  0.00    -0.148 NA 
HETATM   55  C   UNL     1     -10.099   5.760  70.640  1.00  0.00    -0.203 A  
HETATM   56  N   UNL     1     -10.738   6.084  69.504  1.00  0.00    -0.299 NA 
HETATM   57  C   UNL     1     -11.703   6.993  69.753  1.00  0.00     0.002 A  
HETATM   58  N   UNL     1     -12.078   7.513  70.943  1.00  0.00    -0.266 NA 
HETATM   59  C   UNL     1     -11.404   7.135  72.055  1.00  0.00    -0.258 A  
HETATM   60  N   UNL     1     -11.864   7.581  73.283  1.00  0.00    -0.417 NA 
HETATM   61  H2  UNL     1     -11.072   8.000  73.769  1.00  0.00     0.000 HD 
HETATM   62  H1  UNL     1     -12.655   8.216  73.386  1.00  0.00     0.000 HD 
ENDBRANCH  44  51
ENDBRANCH  41  42
ENDBRANCH  40  41
ENDBRANCH  37  40
ENDBRANCH  36  37
ENDBRANCH  33  36
ENDBRANCH  32  33
ENDBRANCH  31  32
ENDBRANCH  28  31
ENDBRANCH  25  28
ENDBRANCH  22  25
ENDBRANCH  21  22
ENDBRANCH   7  21
TORSDOF 13
ENDMDL
MODEL       92
REMARK 921   NORMALIZED FREE ENERGY PREDICTED BY IDOCK:    4.24 KCAL/MOL
REMARK 922        TOTAL FREE ENERGY PREDICTED BY IDOCK:    4.35 KCAL/MOL
REMARK 923 INTER-LIGAND FREE ENERGY PREDICTED BY IDOCK:    1.97 KCAL/MOL
REMARK 924 INTRA-LIGAND FREE ENERGY PREDICTED BY IDOCK:    2.38 KCAL/MOL
REMARK 927      BINDING AFFINITY PREDICTED BY RF-SCORE:    0.00 PKD
ROOT
HETATM    1  C   UNL     1     -12.418   9.786  71.007  1.00  0.00    -0.414 C  
HETATM    2  C   UNL     1     -11.323   9.691  69.983  1.00  0.00    -0.239 A  
HETATM    3  C   UNL     1     -10.735   8.441  69.730  1.00  0.00    -0.211 A  
HETATM    4  C   UNL     1      -9.818   8.260  68.690  1.00  0.00    -0.176 A  
HETATM    5  C   UNL     1      -9.548   9.325  67.808  1.00  0.00    -0.142 A  
HETATM    6  C   UNL     1     -10.032  10.600  68.145  1.00  0.00    -0.176 A  
HETATM    7  N   UNL     1      -8.777   9.083  66.649  1.00  0.00    -0.125 NA 
HETATM    8  H   UNL     1      -6.812   4.368  66.025  1.00  0.00     0.000 HD 
HETATM    9  C   UNL     1      -8.177   7.840  66.505  1.00  0.00    -0.124 A  
HETATM   10  C   UNL     1     -10.915  10.799  69.220  1.00  0.00    -0.292 A  
HETATM   11  C   UNL     1     -11.383  12.193  69.538  1.00  0.00    -0.277 C  
HETATM   12  O   UNL     1      -7.252   4.899  68.496  1.00  0.00    -0.060 OA 
HETATM   13  N   UNL     1      -7.510   7.490  65.441  1.00  0.00    -0.078 N  
HETATM   14  H   UNL     1      -7.465   8.143  64.659  1.00  0.00     0.000 HD 
HETATM   15  C   UNL     1      -8.329   6.837  67.614  1.00  0.00    -0.123 A  
HETATM   16  C   UNL     1      -6.873   6.297  65.324  1.00  0.00    -0.048 C  
HETATM   17  C   UNL     1      -7.532   5.577  67.521  1.00  0.00    -0.084 C  
HETATM   18  N   UNL     1      -9.167   7.012  68.594  1.00  0.00    -0.132 NA 
HETATM   19  N   UNL     1      -7.051   5.330  66.268  1.00  0.00    -0.071 N  
HETATM   20  O   UNL     1      -6.088   6.073  64.405  1.00  0.00    -0.025 OA 
ENDROOT
BRANCH   7  21
HETATM   21  C   UNL     1      -9.135   9.833  65.430  1.00  0.00    -0.204 C  
BRANCH  21  22
HETATM   22  C   UNL     1     -10.625  10.235  65.420  1.00  0.00     0.068 C  
HETATM   23  O   UNL     1     -11.410   9.044  65.494  1.00  0.00     2.902 OA 
HETATM   24  H   UNL     1     -12.327   9.292  65.487  1.00  0.00     0.000 HD 
BRANCH  22  25
HETATM   25  C   UNL     1     -10.909  11.058  64.150  1.00  0.00    -0.180 C  
HETATM   26  H   UNL     1     -10.236  11.052  62.329  1.00  0.00     0.000 HD 
HETATM   27  O   UNL     1     -10.061  10.544  63.112  1.00  0.00    -0.242 OA 
BRANCH  25  28
HETATM   28  C   UNL     1     -10.681  12.582  64.297  1.00  0.00    -0.369 C  
HETATM   29  H   UNL     1      -9.187  13.864  64.086  1.00  0.00     0.000 HD 
HETATM   30  O   UNL     1      -9.327  12.929  63.996  1.00  0.00     0.339 OA 
BRANCH  28  31
HETATM   31  C   UNL     1     -11.031  13.077  65.714  1.00  0.00    -0.277 C  
BRANCH  31  32
HETATM   32  O   UNL     1     -11.072  14.486  65.754  1.00  0.00    -0.310 OA 
BRANCH  32  33
HETATM   33  P   UNL     1     -11.672  15.204  67.057  1.00  0.00     0.146 P  
HETATM   34  O   UNL     1     -10.647  14.759  68.195  1.00  0.00    -0.235 OA 
HETATM   35  O   UNL     1     -13.063  14.779  67.435  1.00  0.00     1.514 OA 
BRANCH  33  36
HETATM   36  O   UNL     1     -11.594  16.773  66.761  1.00  0.00     0.683 OA 
BRANCH  36  37
HETATM   37  P   UNL     1     -11.277  17.952  67.987  1.00  0.00     0.961 P  
HETATM   38  O   UNL     1     -10.426  16.859  68.849  1.00  0.00    -0.307 OA 
HETATM   39  O   UNL     1     -10.374  18.736  67.043  1.00  0.00    -0.359 OA 
BRANCH  37  40
HETATM   40  O   UNL     1     -10.960  19.131  69.212  1.00  0.00     1.084 OA 
BRANCH  40  41
HETATM   41  C   UNL     1      -9.832  18.836  70.035  1.00  0.00     0.993 C  
BRANCH  41  42
HETATM   42  C   UNL     1      -8.601  19.611  69.548  1.00  0.00     0.365 C  
HETATM   43  O   UNL     1      -7.443  18.793  69.757  1.00  0.00     0.200 OA 
HETATM   44  C   UNL     1      -6.542  18.993  68.659  1.00  0.00    -0.265 C  
HETATM   45  C   UNL     1      -7.247  19.749  67.535  1.00  0.00    -0.244 C  
HETATM   46  H   UNL     1      -9.115  21.574  66.988  1.00  0.00     0.000 HD 
HETATM   47  C   UNL     1      -8.656  19.986  68.070  1.00  0.00    -0.210 C  
HETATM   48  O   UNL     1      -9.080  21.341  67.909  1.00  0.00     0.229 OA 
HETATM   49  O   UNL     1      -6.607  21.003  67.235  1.00  0.00    -0.309 OA 
HETATM   50  H   UNL     1      -7.045  21.473  66.535  1.00  0.00     0.000 HD 
BRANCH  44  51
HETATM   51  N   UNL     1      -6.001  17.709  68.262  1.00  0.00    -0.159 NA 
HETATM   52  C   UNL     1      -5.214  17.434  67.177  1.00  0.00    -0.135 A  
HETATM   53  C   UNL     1      -6.132  15.595  67.769  1.00  0.00    -0.157 A  
HETATM   54  N   UNL     1      -5.292  16.164  66.831  1.00  0.00    -0.315 NA 
HETATM   55  C   UNL     1      -6.476  16.519  68.741  1.00  0.00    -0.152 A  
HETATM   56  N   UNL     1      -7.233  16.328  69.834  1.00  0.00     0.169 NA 
HETATM   57  C   UNL     1      -7.681  15.056  69.875  1.00  0.00     0.069 A  
HETATM   58  N   UNL     1      -7.492  14.071  68.970  1.00  0.00    -0.098 NA 
HETATM   59  C   UNL     1      -6.731  14.331  67.880  1.00  0.00    -0.167 A  
HETATM   60  N   UNL     1      -6.635  13.358  66.900  1.00  0.00    -0.258 NA 
HETATM   61  H2  UNL     1      -5.643  13.208  66.716  1.00  0.00     0.000 HD 
HETATM   62  H1  UNL     1      -7.071  12.439  66.980  1.00  0.00     0.000 HD 
ENDBRANCH  44  51
ENDBRANCH  41  42
ENDBRANCH  40  41
ENDBRANCH  37  40
ENDBRANCH  36  37
ENDBRANCH  33  36
ENDBRANCH  32  33
ENDBRANCH  31  32
ENDBRANCH  28  31
ENDBRANCH  25  28
ENDBRANCH  22  25
ENDBRANCH  21  22
ENDBRANCH   7  21
TORSDOF 13
ENDMDL
MODEL       93
REMARK 921   NORMALIZED FREE ENERGY PREDICTED BY IDOCK:    6.44 KCAL/MOL
REMARK 922        TOTAL FREE ENERGY PREDICTED BY IDOCK:    8.23 KCAL/MOL
REMARK 923 INTER-LIGAND FREE ENERGY PREDICTED BY IDOCK:   -1.82 KCAL/MOL
REMARK 924 INTRA-LIGAND FREE ENERGY PREDICTED BY IDOCK:   10.05 KCAL/MOL
REMARK 927      BINDING AFFINITY PREDICTED BY RF-SCORE:    0.00 PKD
ROOT
HETATM    1  C   UNL     1      -6.035  17.368  69.604  1.00  0.00    -0.248 C  
HETATM    2  C   UNL     1      -6.773  16.474  68.647  1.00  0.00    -0.152 A  
HETATM    3  C   UNL     1      -6.261  15.194  68.382  1.00  0.00    -0.108 A  
HETATM    4  C   UNL     1      -6.975  14.264  67.619  1.00  0.00    -0.184 A  
HETATM    5  C   UNL     1      -8.280  14.573  67.189  1.00  0.00    -0.188 A  
HETATM    6  C   UNL     1      -8.729  15.895  67.341  1.00  0.00    -0.197 A  
HETATM    7  N   UNL     1      -9.067  13.564  66.592  1.00  0.00    -0.210 NA 
HETATM    8  H   UNL     1      -6.878   8.974  65.806  1.00  0.00     0.000 HD 
HETATM    9  C   UNL     1      -8.469  12.346  66.303  1.00  0.00     0.263 A  
HETATM   10  C   UNL     1      -7.994  16.851  68.063  1.00  0.00    -0.185 A  
HETATM   11  C   UNL     1      -8.524  18.255  68.175  1.00  0.00    -0.290 C  
HETATM   12  O   UNL     1      -5.137  10.856  65.907  1.00  0.00    -0.094 OA 
HETATM   13  N   UNL     1      -9.123  11.325  65.823  1.00  0.00    -0.210 N  
HETATM   14  H   UNL     1     -10.131  11.411  65.696  1.00  0.00     0.000 HD 
HETATM   15  C   UNL     1      -7.001  12.182  66.586  1.00  0.00     0.252 A  
HETATM   16  C   UNL     1      -8.527  10.153  65.485  1.00  0.00    -0.153 C  
HETATM   17  C   UNL     1      -6.339  10.933  66.106  1.00  0.00    -0.123 C  
HETATM   18  N   UNL     1      -6.329  13.056  67.279  1.00  0.00    -0.264 NA 
HETATM   19  N   UNL     1      -7.218   9.936  65.800  1.00  0.00    -0.105 N  
HETATM   20  O   UNL     1      -9.124   9.286  64.851  1.00  0.00    -0.218 OA 
ENDROOT
BRANCH   7  21
HETATM   21  C   UNL     1     -10.516  13.583  66.870  1.00  0.00    -0.271 C  
BRANCH  21  22
HETATM   22  C   UNL     1     -11.261  12.467  66.108  1.00  0.00    -0.322 C  
HETATM   23  O   UNL     1     -10.883  12.535  64.732  1.00  0.00    -0.277 OA 
HETATM   24  H   UNL     1     -11.342  11.848  64.263  1.00  0.00     0.000 HD 
BRANCH  22  25
HETATM   25  C   UNL     1     -12.775  12.645  66.320  1.00  0.00     0.904 C  
HETATM   26  H   UNL     1     -14.254  13.256  65.218  1.00  0.00     0.000 HD 
HETATM   27  O   UNL     1     -13.320  13.145  65.088  1.00  0.00    -0.618 OA 
BRANCH  25  28
HETATM   28  C   UNL     1     -13.164  13.593  67.480  1.00  0.00     3.415 C  
HETATM   29  H   UNL     1     -13.265  15.544  67.803  1.00  0.00     0.000 HD 
HETATM   30  O   UNL     1     -13.026  14.962  67.091  1.00  0.00     1.154 OA 
BRANCH  28  31
HETATM   31  C   UNL     1     -12.314  13.331  68.739  1.00  0.00     0.099 C  
BRANCH  31  32
HETATM   32  O   UNL     1     -11.156  12.595  68.413  1.00  0.00    -0.235 OA 
BRANCH  32  33
HETATM   33  P   UNL     1     -11.169  11.005  68.619  1.00  0.00    -0.319 P  
HETATM   34  O   UNL     1     -11.148  10.465  67.119  1.00  0.00    -0.244 OA 
HETATM   35  O   UNL     1     -12.376  10.465  69.335  1.00  0.00    -0.120 OA 
BRANCH  33  36
HETATM   36  O   UNL     1      -9.817  10.659  69.398  1.00  0.00    -0.210 OA 
BRANCH  36  37
HETATM   37  P   UNL     1      -9.563   9.165  70.233  1.00  0.00    -0.248 P  
HETATM   38  O   UNL     1      -9.426   8.370  68.815  1.00  0.00    -0.147 OA 
HETATM   39  O   UNL     1      -8.204   9.640  70.734  1.00  0.00    -0.273 OA 
BRANCH  37  40
HETATM   40  O   UNL     1      -9.307   7.671  71.068  1.00  0.00    -0.152 OA 
BRANCH  40  41
HETATM   41  C   UNL     1      -8.458   6.752  70.383  1.00  0.00    -0.135 C  
BRANCH  41  42
HETATM   42  C   UNL     1      -9.253   5.511  69.957  1.00  0.00    -0.140 C  
HETATM   43  O   UNL     1      -9.601   5.652  68.574  1.00  0.00    -0.121 OA 
HETATM   44  C   UNL     1      -9.517   4.363  67.951  1.00  0.00    -0.161 C  
HETATM   45  C   UNL     1      -8.810   3.378  68.879  1.00  0.00    -0.112 C  
HETATM   46  H   UNL     1      -8.383   2.728  71.432  1.00  0.00     0.000 HD 
HETATM   47  C   UNL     1      -8.483   4.203  70.120  1.00  0.00    -0.064 C  
HETATM   48  O   UNL     1      -8.862   3.543  71.330  1.00  0.00    -0.079 OA 
HETATM   49  O   UNL     1      -9.645   2.258  69.227  1.00  0.00    -0.096 OA 
HETATM   50  H   UNL     1      -9.204   1.645  69.803  1.00  0.00     0.000 HD 
BRANCH  44  51
HETATM   51  N   UNL     1      -8.888   4.513  66.655  1.00  0.00    -0.111 NA 
HETATM   52  C   UNL     1      -9.166   3.824  65.506  1.00  0.00    -0.153 A  
HETATM   53  C   UNL     1      -7.188   4.614  65.302  1.00  0.00    -0.068 A  
HETATM   54  N   UNL     1      -8.144   3.838  64.673  1.00  0.00    -0.089 NA 
HETATM   55  C   UNL     1      -7.689   5.147  66.478  1.00  0.00    -0.092 A  
HETATM   56  N   UNL     1      -7.076   5.982  67.333  1.00  0.00    -0.072 NA 
HETATM   57  C   UNL     1      -5.822   6.245  66.913  1.00  0.00    -0.020 A  
HETATM   58  N   UNL     1      -5.176   5.745  65.837  1.00  0.00    -0.009 NA 
HETATM   59  C   UNL     1      -5.843   4.894  65.021  1.00  0.00    -0.017 A  
HETATM   60  N   UNL     1      -5.143   4.295  63.986  1.00  0.00    -0.005 NA 
HETATM   61  H2  UNL     1      -5.672   4.455  63.129  1.00  0.00     0.000 HD 
HETATM   62  H1  UNL     1      -4.165   4.499  63.782  1.00  0.00     0.000 HD 
ENDBRANCH  44  51
ENDBRANCH  41  42
ENDBRANCH  40  41
ENDBRANCH  37  40
ENDBRANCH  36  37
ENDBRANCH  33  36
ENDBRANCH  32  33
ENDBRANCH  31  32
ENDBRANCH  28  31
ENDBRANCH  25  28
ENDBRANCH  22  25
ENDBRANCH  21  22
ENDBRANCH   7  21
TORSDOF 13
ENDMDL
MODEL       94
REMARK 921   NORMALIZED FREE ENERGY PREDICTED BY IDOCK:    6.80 KCAL/MOL
REMARK 922        TOTAL FREE ENERGY PREDICTED BY IDOCK:    8.86 KCAL/MOL
REMARK 923 INTER-LIGAND FREE ENERGY PREDICTED BY IDOCK:    3.99 KCAL/MOL
REMARK 924 INTRA-LIGAND FREE ENERGY PREDICTED BY IDOCK:    4.87 KCAL/MOL
REMARK 927      BINDING AFFINITY PREDICTED BY RF-SCORE:    0.00 PKD
ROOT
HETATM    1  C   UNL     1     -14.149  16.369  72.471  1.00  0.00     0.844 C  
HETATM    2  C   UNL     1     -13.080  15.645  71.701  1.00  0.00    -0.554 A  
HETATM    3  C   UNL     1     -13.017  14.245  71.778  1.00  0.00    -0.430 A  
HETATM    4  C   UNL     1     -12.142  13.507  70.974  1.00  0.00    -0.146 A  
HETATM    5  C   UNL     1     -11.376  14.166  69.992  1.00  0.00    -0.134 A  
HETATM    6  C   UNL     1     -11.345  15.570  70.013  1.00  0.00    -0.332 A  
HETATM    7  N   UNL     1     -10.647  13.399  69.057  1.00  0.00    -0.140 NA 
HETATM    8  H   UNL     1     -10.673   8.284  69.616  1.00  0.00     0.000 HD 
HETATM    9  C   UNL     1     -10.580  12.025  69.239  1.00  0.00     0.054 A  
HETATM   10  C   UNL     1     -12.184  16.320  70.854  1.00  0.00     0.132 A  
HETATM   11  C   UNL     1     -12.088  17.821  70.839  1.00  0.00     6.749 C  
HETATM   12  O   UNL     1     -11.126   9.489  71.835  1.00  0.00    -0.290 OA 
HETATM   13  N   UNL     1      -9.999  11.220  68.394  1.00  0.00    -0.191 N  
HETATM   14  H   UNL     1      -9.613  11.614  67.536  1.00  0.00     0.000 HD 
HETATM   15  C   UNL     1     -11.238  11.430  70.452  1.00  0.00     0.293 A  
HETATM   16  C   UNL     1      -9.882   9.884  68.601  1.00  0.00    -0.158 C  
HETATM   17  C   UNL     1     -11.006   9.980  70.725  1.00  0.00    -0.305 C  
HETATM   18  N   UNL     1     -12.038  12.120  71.214  1.00  0.00     0.126 NA 
HETATM   19  N   UNL     1     -10.532   9.294  69.645  1.00  0.00    -0.216 N  
HETATM   20  O   UNL     1      -9.159   9.184  67.897  1.00  0.00    -0.128 OA 
ENDROOT
BRANCH   7  21
HETATM   21  C   UNL     1     -10.542  13.928  67.683  1.00  0.00    -0.245 C  
BRANCH  21  22
HETATM   22  C   UNL     1     -10.004  15.374  67.665  1.00  0.00    -0.225 C  
HETATM   23  O   UNL     1     -10.550  16.040  66.524  1.00  0.00    -0.308 OA 
HETATM   24  H   UNL     1     -10.218  16.930  66.513  1.00  0.00     0.000 HD 
BRANCH  22  25
HETATM   25  C   UNL     1      -8.465  15.332  67.650  1.00  0.00    -0.161 C  
HETATM   26  H   UNL     1      -7.063  16.550  67.083  1.00  0.00     0.000 HD 
HETATM   27  O   UNL     1      -8.012  16.576  67.092  1.00  0.00    -0.155 OA 
BRANCH  25  28
HETATM   28  C   UNL     1      -7.853  14.155  66.854  1.00  0.00     0.278 C  
HETATM   29  H   UNL     1      -8.438  12.392  66.168  1.00  0.00     0.000 HD 
HETATM   30  O   UNL     1      -8.814  13.114  66.657  1.00  0.00    -0.174 OA 
BRANCH  28  31
HETATM   31  C   UNL     1      -6.610  13.576  67.559  1.00  0.00    -0.117 C  
BRANCH  31  32
HETATM   32  O   UNL     1      -5.959  12.638  66.730  1.00  0.00    -0.164 OA 
BRANCH  32  33
HETATM   33  P   UNL     1      -6.480  11.121  66.724  1.00  0.00    -0.130 P  
HETATM   34  O   UNL     1      -6.138  10.636  68.204  1.00  0.00    -0.050 OA 
HETATM   35  O   UNL     1      -5.805  10.220  65.727  1.00  0.00    -0.072 OA 
BRANCH  33  36
HETATM   36  O   UNL     1      -8.055  11.206  66.470  1.00  0.00    -0.156 OA 
BRANCH  36  37
HETATM   37  P   UNL     1      -8.837  10.463  65.118  1.00  0.00    -0.207 P  
HETATM   38  O   UNL     1     -10.301  10.764  65.770  1.00  0.00    -0.251 OA 
HETATM   39  O   UNL     1      -8.396  11.597  64.200  1.00  0.00     0.786 OA 
BRANCH  37  40
HETATM   40  O   UNL     1      -9.619   9.721  63.764  1.00  0.00    -0.156 OA 
BRANCH  40  41
HETATM   41  C   UNL     1      -8.736   9.031  62.880  1.00  0.00    -0.136 C  
BRANCH  41  42
HETATM   42  C   UNL     1      -7.589   8.387  63.668  1.00  0.00    -0.132 C  
HETATM   43  O   UNL     1      -8.143   7.733  64.816  1.00  0.00    -0.141 OA 
HETATM   44  C   UNL     1      -7.413   6.521  65.044  1.00  0.00    -0.085 C  
HETATM   45  C   UNL     1      -6.529   6.207  63.839  1.00  0.00    -0.030 C  
HETATM   46  H   UNL     1      -5.103   7.286  61.858  1.00  0.00     0.000 HD 
HETATM   47  C   UNL     1      -6.799   7.355  62.869  1.00  0.00    -0.066 C  
HETATM   48  O   UNL     1      -5.595   7.928  62.355  1.00  0.00    -0.062 OA 
HETATM   49  O   UNL     1      -5.132   6.159  64.183  1.00  0.00    -0.016 OA 
HETATM   50  H   UNL     1      -4.583   5.964  63.433  1.00  0.00     0.000 HD 
BRANCH  44  51
HETATM   51  N   UNL     1      -8.351   5.468  65.380  1.00  0.00    -0.136 NA 
HETATM   52  C   UNL     1      -9.701   5.450  65.157  1.00  0.00     0.372 A  
HETATM   53  C   UNL     1      -9.304   4.048  66.723  1.00  0.00    -0.183 A  
HETATM   54  N   UNL     1     -10.316   4.620  65.976  1.00  0.00    -0.287 NA 
HETATM   55  C   UNL     1      -8.065   4.472  66.272  1.00  0.00    -0.103 A  
HETATM   56  N   UNL     1      -6.852   4.101  66.715  1.00  0.00    -0.054 NA 
HETATM   57  C   UNL     1      -6.975   3.230  67.738  1.00  0.00    -0.050 A  
HETATM   58  N   UNL     1      -8.105   2.786  68.330  1.00  0.00    -0.060 NA 
HETATM   59  C   UNL     1      -9.298   3.210  67.848  1.00  0.00    -0.201 A  
HETATM   60  N   UNL     1     -10.447   2.844  68.528  1.00  0.00     1.694 NA 
HETATM   61  H2  UNL     1     -11.085   2.433  67.847  1.00  0.00     0.000 HD 
HETATM   62  H1  UNL     1     -10.442   2.234  69.346  1.00  0.00     0.000 HD 
ENDBRANCH  44  51
ENDBRANCH  41  42
ENDBRANCH  40  41
ENDBRANCH  37  40
ENDBRANCH  36  37
ENDBRANCH  33  36
ENDBRANCH  32  33
ENDBRANCH  31  32
ENDBRANCH  28  31
ENDBRANCH  25  28
ENDBRANCH  22  25
ENDBRANCH  21  22
ENDBRANCH   7  21
TORSDOF 13
ENDMDL
MODEL       95
REMARK 921   NORMALIZED FREE ENERGY PREDICTED BY IDOCK:    8.42 KCAL/MOL
REMARK 922        TOTAL FREE ENERGY PREDICTED BY IDOCK:   11.71 KCAL/MOL
REMARK 923 INTER-LIGAND FREE ENERGY PREDICTED BY IDOCK:    7.31 KCAL/MOL
REMARK 924 INTRA-LIGAND FREE ENERGY PREDICTED BY IDOCK:    4.39 KCAL/MOL
REMARK 927      BINDING AFFINITY PREDICTED BY RF-SCORE:    0.00 PKD
ROOT
HETATM    1  C   UNL     1      -7.666  19.960  65.542  1.00  0.00    -0.064 C  
HETATM    2  C   UNL     1      -7.150  18.752  66.275  1.00  0.00    -0.274 A  
HETATM    3  C   UNL     1      -7.014  18.812  67.671  1.00  0.00    -0.217 A  
HETATM    4  C   UNL     1      -6.681  17.680  68.422  1.00  0.00    -0.203 A  
HETATM    5  C   UNL     1      -6.578  16.427  67.784  1.00  0.00    -0.139 A  
HETATM    6  C   UNL     1      -6.582  16.400  66.380  1.00  0.00     0.440 A  
HETATM    7  N   UNL     1      -6.436  15.263  68.571  1.00  0.00    -0.089 NA 
HETATM    8  H   UNL     1      -6.006  15.851  73.664  1.00  0.00     0.000 HD 
HETATM    9  C   UNL     1      -6.241  15.409  69.937  1.00  0.00    -0.160 A  
HETATM   10  C   UNL     1      -6.866  17.544  65.615  1.00  0.00     0.099 A  
HETATM   11  C   UNL     1      -6.837  17.450  64.114  1.00  0.00     7.229 C  
HETATM   12  O   UNL     1      -5.242  17.945  72.394  1.00  0.00    -0.217 OA 
HETATM   13  N   UNL     1      -6.176  14.400  70.760  1.00  0.00    -0.305 N  
HETATM   14  H   UNL     1      -6.319  13.461  70.389  1.00  0.00     0.000 HD 
HETATM   15  C   UNL     1      -6.133  16.798  70.501  1.00  0.00     0.357 A  
HETATM   16  C   UNL     1      -5.927  14.539  72.087  1.00  0.00     0.297 C  
HETATM   17  C   UNL     1      -5.747  16.933  71.938  1.00  0.00     1.269 C  
HETATM   18  N   UNL     1      -6.423  17.855  69.798  1.00  0.00    -0.131 NA 
HETATM   19  N   UNL     1      -5.903  15.780  72.652  1.00  0.00     1.237 N  
HETATM   20  O   UNL     1      -5.670  13.572  72.800  1.00  0.00    -0.414 OA 
ENDROOT
BRANCH   7  21
HETATM   21  C   UNL     1      -7.096  14.035  68.086  1.00  0.00    -0.125 C  
BRANCH  21  22
HETATM   22  C   UNL     1      -8.632  14.183  68.054  1.00  0.00    -0.172 C  
HETATM   23  O   UNL     1      -9.156  13.658  69.275  1.00  0.00    -0.204 OA 
HETATM   24  H   UNL     1     -10.102  13.748  69.255  1.00  0.00     0.000 HD 
BRANCH  22  25
HETATM   25  C   UNL     1      -9.176  13.457  66.810  1.00  0.00    -0.236 C  
HETATM   26  H   UNL     1     -10.587  12.164  66.482  1.00  0.00     0.000 HD 
HETATM   27  O   UNL     1     -10.251  12.612  67.250  1.00  0.00    -0.222 OA 
BRANCH  25  28
HETATM   28  C   UNL     1      -8.133  12.610  66.042  1.00  0.00     1.220 C  
HETATM   29  H   UNL     1      -7.895  11.892  64.212  1.00  0.00     0.000 HD 
HETATM   30  O   UNL     1      -8.535  12.412  64.683  1.00  0.00     1.761 OA 
BRANCH  28  31
HETATM   31  C   UNL     1      -7.906  11.241  66.712  1.00  0.00    -0.155 C  
BRANCH  31  32
HETATM   32  O   UNL     1      -7.934  10.206  65.753  1.00  0.00    -0.128 OA 
BRANCH  32  33
HETATM   33  P   UNL     1      -6.561   9.473  65.369  1.00  0.00    -0.086 P  
HETATM   34  O   UNL     1      -6.139   8.792  66.749  1.00  0.00    -0.055 OA 
HETATM   35  O   UNL     1      -5.462  10.384  64.898  1.00  0.00    -0.106 OA 
BRANCH  33  36
HETATM   36  O   UNL     1      -6.945   8.389  64.260  1.00  0.00    -0.078 OA 
BRANCH  36  37
HETATM   37  P   UNL     1      -7.900   6.987  64.598  1.00  0.00    -0.089 P  
HETATM   38  O   UNL     1      -6.794   6.466  65.677  1.00  0.00    -0.050 OA 
HETATM   39  O   UNL     1      -8.970   7.840  65.270  1.00  0.00     0.021 OA 
BRANCH  37  40
HETATM   40  O   UNL     1      -8.857   5.586  64.937  1.00  0.00    -0.119 OA 
BRANCH  40  41
HETATM   41  C   UNL     1      -8.160   4.550  65.629  1.00  0.00    -0.106 C  
BRANCH  41  42
HETATM   42  C   UNL     1      -7.569   5.089  66.938  1.00  0.00    -0.088 C  
HETATM   43  O   UNL     1      -8.190   6.347  67.228  1.00  0.00    -0.112 OA 
HETATM   44  C   UNL     1      -8.377   6.444  68.646  1.00  0.00    -0.121 C  
HETATM   45  C   UNL     1      -8.137   5.086  69.300  1.00  0.00    -0.083 C  
HETATM   46  H   UNL     1      -6.746   2.814  69.133  1.00  0.00     0.000 HD 
HETATM   47  C   UNL     1      -7.784   4.167  68.134  1.00  0.00    -0.071 C  
HETATM   48  O   UNL     1      -6.613   3.389  68.388  1.00  0.00    -0.039 OA 
HETATM   49  O   UNL     1      -7.061   5.121  70.255  1.00  0.00    -0.051 OA 
HETATM   50  H   UNL     1      -6.912   4.276  70.662  1.00  0.00     0.000 HD 
BRANCH  44  51
HETATM   51  N   UNL     1      -9.688   7.004  68.905  1.00  0.00    -0.144 NA 
HETATM   52  C   UNL     1     -10.256   8.106  68.325  1.00  0.00    -0.206 A  
HETATM   53  C   UNL     1     -11.271   7.778  70.180  1.00  0.00    -0.159 A  
HETATM   54  N   UNL     1     -11.201   8.621  69.086  1.00  0.00     0.197 NA 
HETATM   55  C   UNL     1     -10.423   6.696  70.016  1.00  0.00    -0.212 A  
HETATM   56  N   UNL     1     -10.251   5.648  70.840  1.00  0.00    -0.211 NA 
HETATM   57  C   UNL     1     -11.024   5.785  71.938  1.00  0.00    -0.259 A  
HETATM   58  N   UNL     1     -11.837   6.812  72.268  1.00  0.00    -0.271 NA 
HETATM   59  C   UNL     1     -11.956   7.847  71.402  1.00  0.00    -0.303 A  
HETATM   60  N   UNL     1     -12.698   8.948  71.795  1.00  0.00    -0.342 NA 
HETATM   61  H2  UNL     1     -13.376   9.137  71.056  1.00  0.00     0.000 HD 
HETATM   62  H1  UNL     1     -13.197   8.997  72.684  1.00  0.00     0.000 HD 
ENDBRANCH  44  51
ENDBRANCH  41  42
ENDBRANCH  40  41
ENDBRANCH  37  40
ENDBRANCH  36  37
ENDBRANCH  33  36
ENDBRANCH  32  33
ENDBRANCH  31  32
ENDBRANCH  28  31
ENDBRANCH  25  28
ENDBRANCH  22  25
ENDBRANCH  21  22
ENDBRANCH   7  21
TORSDOF 13
ENDMDL
MODEL       96
REMARK 921   NORMALIZED FREE ENERGY PREDICTED BY IDOCK:    8.85 KCAL/MOL
REMARK 922        TOTAL FREE ENERGY PREDICTED BY IDOCK:   12.46 KCAL/MOL
REMARK 923 INTER-LIGAND FREE ENERGY PREDICTED BY IDOCK:   -2.28 KCAL/MOL
REMARK 924 INTRA-LIGAND FREE ENERGY PREDICTED BY IDOCK:   14.74 KCAL/MOL
REMARK 927      BINDING AFFINITY PREDICTED BY RF-SCORE:    0.00 PKD
ROOT
HETATM    1  C   UNL     1     -12.412   9.888  70.904  1.00  0.00    -0.401 C  
HETATM    2  C   UNL     1     -11.528  10.180  69.724  1.00  0.00    -0.288 A  
HETATM    3  C   UNL     1     -10.891   9.113  69.072  1.00  0.00    -0.115 A  
HETATM    4  C   UNL     1     -10.177   9.303  67.884  1.00  0.00    -0.214 A  
HETATM    5  C   UNL     1     -10.176  10.570  67.268  1.00  0.00    -0.215 A  
HETATM    6  C   UNL     1     -10.698  11.655  67.991  1.00  0.00    -0.246 A  
HETATM    7  N   UNL     1      -9.622  10.709  65.976  1.00  0.00    -0.189 NA 
HETATM    8  H   UNL     1      -7.401   6.574  63.868  1.00  0.00     0.000 HD 
HETATM    9  C   UNL     1      -8.952   9.626  65.426  1.00  0.00    -0.190 A  
HETATM   10  C   UNL     1     -11.373  11.479  69.211  1.00  0.00    -0.353 A  
HETATM   11  C   UNL     1     -11.894  12.686  69.943  1.00  0.00    -0.364 C  
HETATM   12  O   UNL     1      -7.406   6.452  66.431  1.00  0.00    -0.077 OA 
HETATM   13  N   UNL     1      -8.472   9.624  64.214  1.00  0.00    -0.166 N  
HETATM   14  H   UNL     1      -8.635  10.441  63.626  1.00  0.00     0.000 HD 
HETATM   15  C   UNL     1      -8.799   8.381  66.255  1.00  0.00    -0.159 A  
HETATM   16  C   UNL     1      -7.765   8.587  63.697  1.00  0.00    -0.142 C  
HETATM   17  C   UNL     1      -7.926   7.294  65.718  1.00  0.00    -0.122 C  
HETATM   18  N   UNL     1      -9.448   8.209  67.371  1.00  0.00    -0.150 NA 
HETATM   19  N   UNL     1      -7.674   7.412  64.382  1.00  0.00    -0.115 N  
HETATM   20  O   UNL     1      -7.154   8.689  62.636  1.00  0.00    -0.097 OA 
ENDROOT
BRANCH   7  21
HETATM   21  C   UNL     1     -10.271  11.668  65.061  1.00  0.00    -0.275 C  
BRANCH  21  22
HETATM   22  C   UNL     1     -11.680  12.064  65.551  1.00  0.00    -0.251 C  
HETATM   23  O   UNL     1     -12.475  10.880  65.628  1.00  0.00     2.291 OA 
HETATM   24  H   UNL     1     -13.343  11.124  65.929  1.00  0.00     0.000 HD 
BRANCH  22  25
HETATM   25  C   UNL     1     -12.264  13.113  64.588  1.00  0.00    -0.414 C  
HETATM   26  H   UNL     1     -12.163  13.429  62.674  1.00  0.00     0.000 HD 
HETATM   27  O   UNL     1     -11.803  12.781  63.268  1.00  0.00    -0.525 OA 
BRANCH  25  28
HETATM   28  C   UNL     1     -11.887  14.579  64.914  1.00  0.00    -0.416 C  
HETATM   29  H   UNL     1     -10.546  15.910  64.324  1.00  0.00     0.000 HD 
HETATM   30  O   UNL     1     -10.777  15.010  64.123  1.00  0.00     0.234 OA 
BRANCH  28  31
HETATM   31  C   UNL     1     -11.554  14.762  66.407  1.00  0.00    -0.299 C  
BRANCH  31  32
HETATM   32  O   UNL     1     -10.783  15.927  66.607  1.00  0.00    -0.316 OA 
BRANCH  32  33
HETATM   33  P   UNL     1     -10.526  16.435  68.106  1.00  0.00    -0.329 P  
HETATM   34  O   UNL     1      -9.408  15.422  68.623  1.00  0.00    -0.186 OA 
HETATM   35  O   UNL     1     -11.723  16.373  69.013  1.00  0.00    -0.240 OA 
BRANCH  33  36
HETATM   36  O   UNL     1      -9.966  17.925  67.968  1.00  0.00    -0.300 OA 
BRANCH  36  37
HETATM   37  P   UNL     1      -8.893  18.642  69.119  1.00  0.00     0.281 P  
HETATM   38  O   UNL     1      -8.222  17.189  69.433  1.00  0.00     0.030 OA 
HETATM   39  O   UNL     1      -8.141  19.370  68.011  1.00  0.00    -0.291 OA 
BRANCH  37  40
HETATM   40  O   UNL     1      -7.818  19.360  70.269  1.00  0.00     0.701 OA 
BRANCH  40  41
HETATM   41  C   UNL     1      -6.507  18.797  70.282  1.00  0.00     0.227 C  
BRANCH  41  42
HETATM   42  C   UNL     1      -5.948  18.719  68.856  1.00  0.00    -0.217 C  
HETATM   43  O   UNL     1      -5.172  17.520  68.742  1.00  0.00    -0.149 OA 
HETATM   44  C   UNL     1      -5.373  16.973  67.432  1.00  0.00    -0.139 C  
HETATM   45  C   UNL     1      -6.546  17.669  66.747  1.00  0.00    -0.191 C  
HETATM   46  H   UNL     1      -7.875  19.974  66.535  1.00  0.00     0.000 HD 
HETATM   47  C   UNL     1      -7.025  18.691  67.775  1.00  0.00    -0.215 C  
HETATM   48  O   UNL     1      -7.205  19.991  67.209  1.00  0.00    -0.231 OA 
HETATM   49  O   UNL     1      -6.156  18.328  65.529  1.00  0.00    -0.216 OA 
HETATM   50  H   UNL     1      -6.886  18.761  65.103  1.00  0.00     0.000 HD 
BRANCH  44  51
HETATM   51  N   UNL     1      -5.522  15.535  67.546  1.00  0.00    -0.318 NA 
HETATM   52  C   UNL     1      -5.822  14.645  66.552  1.00  0.00     3.316 A  
HETATM   53  C   UNL     1      -6.336  13.712  68.408  1.00  0.00    -0.098 A  
HETATM   54  N   UNL     1      -6.347  13.537  67.036  1.00  0.00     0.083 NA 
HETATM   55  C   UNL     1      -5.705  14.898  68.742  1.00  0.00    -0.086 A  
HETATM   56  N   UNL     1      -5.460  15.387  69.970  1.00  0.00    -0.118 NA 
HETATM   57  C   UNL     1      -5.955  14.557  70.911  1.00  0.00    -0.152 A  
HETATM   58  N   UNL     1      -6.654  13.413  70.736  1.00  0.00     0.373 NA 
HETATM   59  C   UNL     1      -6.882  12.981  69.473  1.00  0.00     0.099 A  
HETATM   60  N   UNL     1      -7.694  11.874  69.296  1.00  0.00    -0.337 NA 
HETATM   61  H2  UNL     1      -7.186  11.216  68.704  1.00  0.00     0.000 HD 
HETATM   62  H1  UNL     1      -8.090  11.342  70.071  1.00  0.00     0.000 HD 
ENDBRANCH  44  51
ENDBRANCH  41  42
ENDBRANCH  40  41
ENDBRANCH  37  40
ENDBRANCH  36  37
ENDBRANCH  33  36
ENDBRANCH  32  33
ENDBRANCH  31  32
ENDBRANCH  28  31
ENDBRANCH  25  28
ENDBRANCH  22  25
ENDBRANCH  21  22
ENDBRANCH   7  21
TORSDOF 13
ENDMDL
MODEL       97
REMARK 921   NORMALIZED FREE ENERGY PREDICTED BY IDOCK:    9.45 KCAL/MOL
REMARK 922        TOTAL FREE ENERGY PREDICTED BY IDOCK:   13.53 KCAL/MOL
REMARK 923 INTER-LIGAND FREE ENERGY PREDICTED BY IDOCK:   12.80 KCAL/MOL
REMARK 924 INTRA-LIGAND FREE ENERGY PREDICTED BY IDOCK:    0.73 KCAL/MOL
REMARK 927      BINDING AFFINITY PREDICTED BY RF-SCORE:    0.00 PKD
ROOT
HETATM    1  C   UNL     1     -13.743  17.208  72.003  1.00  0.00     7.026 C  
HETATM    2  C   UNL     1     -12.789  16.088  71.697  1.00  0.00    -0.236 A  
HETATM    3  C   UNL     1     -13.287  14.910  71.118  1.00  0.00    -0.480 A  
HETATM    4  C   UNL     1     -12.433  13.895  70.676  1.00  0.00    -0.366 A  
HETATM    5  C   UNL     1     -11.039  14.092  70.715  1.00  0.00     0.759 A  
HETATM    6  C   UNL     1     -10.550  15.207  71.415  1.00  0.00     0.429 A  
HETATM    7  N   UNL     1     -10.191  13.150  70.090  1.00  0.00     1.956 NA 
HETATM    8  H   UNL     1     -12.366   8.966  68.033  1.00  0.00     0.000 HD 
HETATM    9  C   UNL     1     -10.753  11.981  69.599  1.00  0.00     0.331 A  
HETATM   10  C   UNL     1     -11.405  16.208  71.907  1.00  0.00    -0.184 A  
HETATM   11  C   UNL     1     -10.817  17.369  72.663  1.00  0.00     3.015 C  
HETATM   12  O   UNL     1     -13.803   9.963  69.909  1.00  0.00     0.695 OA 
HETATM   13  N   UNL     1     -10.073  11.085  68.940  1.00  0.00    -0.203 N  
HETATM   14  H   UNL     1      -9.092  11.273  68.736  1.00  0.00     0.000 HD 
HETATM   15  C   UNL     1     -12.223  11.748  69.809  1.00  0.00    -0.203 A  
HETATM   16  C   UNL     1     -10.609   9.914  68.511  1.00  0.00    -0.217 C  
HETATM   17  C   UNL     1     -12.773  10.411  69.434  1.00  0.00     0.700 C  
HETATM   18  N   UNL     1     -13.017  12.686  70.239  1.00  0.00     0.365 NA 
HETATM   19  N   UNL     1     -11.952   9.699  68.609  1.00  0.00     0.974 N  
HETATM   20  O   UNL     1      -9.906   9.005  68.075  1.00  0.00    -0.155 OA 
ENDROOT
BRANCH   7  21
HETATM   21  C   UNL     1      -8.970  13.666  69.441  1.00  0.00     0.913 C  
BRANCH  21  22
HETATM   22  C   UNL     1      -8.054  12.525  68.953  1.00  0.00     0.202 C  
HETATM   23  O   UNL     1      -7.192  12.153  70.030  1.00  0.00    -0.094 OA 
HETATM   24  H   UNL     1      -6.627  11.450  69.729  1.00  0.00     0.000 HD 
BRANCH  22  25
HETATM   25  C   UNL     1      -7.282  13.004  67.710  1.00  0.00    -0.139 C  
HETATM   26  H   UNL     1      -7.682  14.168  66.208  1.00  0.00     0.000 HD 
HETATM   27  O   UNL     1      -8.158  13.873  66.975  1.00  0.00    -0.128 OA 
BRANCH  25  28
HETATM   28  C   UNL     1      -6.777  11.873  66.781  1.00  0.00    -0.008 C  
HETATM   29  H   UNL     1      -5.183  11.499  65.667  1.00  0.00     0.000 HD 
HETATM   30  O   UNL     1      -5.493  12.193  66.237  1.00  0.00    -0.141 OA 
BRANCH  28  31
HETATM   31  C   UNL     1      -7.765  11.596  65.632  1.00  0.00     0.763 C  
BRANCH  31  32
HETATM   32  O   UNL     1      -8.084  10.223  65.569  1.00  0.00    -0.145 OA 
BRANCH  32  33
HETATM   33  P   UNL     1      -7.775   9.420  64.216  1.00  0.00    -0.134 P  
HETATM   34  O   UNL     1      -6.196   9.589  64.072  1.00  0.00    -0.089 OA 
HETATM   35  O   UNL     1      -8.456   9.957  62.987  1.00  0.00    -0.146 OA 
BRANCH  33  36
HETATM   36  O   UNL     1      -8.192   7.905  64.507  1.00  0.00    -0.136 OA 
BRANCH  36  37
HETATM   37  P   UNL     1      -7.911   7.122  66.024  1.00  0.00    -0.126 P  
HETATM   38  O   UNL     1      -6.419   6.672  65.540  1.00  0.00    -0.046 OA 
HETATM   39  O   UNL     1      -7.877   8.463  66.746  1.00  0.00    -0.093 OA 
BRANCH  37  40
HETATM   40  O   UNL     1      -7.630   6.340  67.541  1.00  0.00    -0.093 OA 
BRANCH  40  41
HETATM   41  C   UNL     1      -6.253   6.236  67.904  1.00  0.00    -0.028 C  
BRANCH  41  42
HETATM   42  C   UNL     1      -5.974   4.873  68.548  1.00  0.00    -0.026 C  
HETATM   43  O   UNL     1      -5.855   5.059  69.963  1.00  0.00    -0.015 OA 
HETATM   44  C   UNL     1      -6.446   3.930  70.621  1.00  0.00    -0.031 C  
HETATM   45  C   UNL     1      -7.244   3.099  69.619  1.00  0.00    -0.044 C  
HETATM   46  H   UNL     1      -7.382   2.322  67.070  1.00  0.00     0.000 HD 
HETATM   47  C   UNL     1      -7.069   3.839  68.296  1.00  0.00    -0.051 C  
HETATM   48  O   UNL     1      -6.701   2.966  67.227  1.00  0.00    -0.039 OA 
HETATM   49  O   UNL     1      -6.749   1.752  69.509  1.00  0.00    -0.029 OA 
HETATM   50  H   UNL     1      -7.246   1.235  68.886  1.00  0.00     0.000 HD 
BRANCH  44  51
HETATM   51  N   UNL     1      -7.222   4.403  71.750  1.00  0.00    -0.060 NA 
HETATM   52  C   UNL     1      -7.589   3.699  72.864  1.00  0.00    -0.061 A  
HETATM   53  C   UNL     1      -8.941   5.348  72.688  1.00  0.00    -0.132 A  
HETATM   54  N   UNL     1      -8.649   4.227  73.443  1.00  0.00    -0.093 NA 
HETATM   55  C   UNL     1      -7.981   5.539  71.708  1.00  0.00    -0.114 A  
HETATM   56  N   UNL     1      -7.898   6.540  70.816  1.00  0.00    -0.104 NA 
HETATM   57  C   UNL     1      -8.939   7.386  70.965  1.00  0.00    -0.151 A  
HETATM   58  N   UNL     1      -9.983   7.289  71.817  1.00  0.00    -0.172 NA 
HETATM   59  C   UNL     1     -10.017   6.248  72.682  1.00  0.00    -0.172 A  
HETATM   60  N   UNL     1     -11.142   6.089  73.473  1.00  0.00    -0.445 NA 
HETATM   61  H2  UNL     1     -10.825   6.001  74.439  1.00  0.00     0.000 HD 
HETATM   62  H1  UNL     1     -11.925   6.744  73.469  1.00  0.00     0.000 HD 
ENDBRANCH  44  51
ENDBRANCH  41  42
ENDBRANCH  40  41
ENDBRANCH  37  40
ENDBRANCH  36  37
ENDBRANCH  33  36
ENDBRANCH  32  33
ENDBRANCH  31  32
ENDBRANCH  28  31
ENDBRANCH  25  28
ENDBRANCH  22  25
ENDBRANCH  21  22
ENDBRANCH   7  21
TORSDOF 13
ENDMDL
MODEL       98
REMARK 921   NORMALIZED FREE ENERGY PREDICTED BY IDOCK:   10.75 KCAL/MOL
REMARK 922        TOTAL FREE ENERGY PREDICTED BY IDOCK:   15.82 KCAL/MOL
REMARK 923 INTER-LIGAND FREE ENERGY PREDICTED BY IDOCK:   -0.96 KCAL/MOL
REMARK 924 INTRA-LIGAND FREE ENERGY PREDICTED BY IDOCK:   16.77 KCAL/MOL
REMARK 927      BINDING AFFINITY PREDICTED BY RF-SCORE:    0.00 PKD
ROOT
HETATM    1  C   UNL     1     -12.753  15.157  66.639  1.00  0.00     1.343 C  
HETATM    2  C   UNL     1     -12.169  13.778  66.769  1.00  0.00    -0.440 A  
HETATM    3  C   UNL     1     -11.554  13.193  65.651  1.00  0.00    -0.371 A  
HETATM    4  C   UNL     1     -10.866  11.979  65.747  1.00  0.00    -0.287 A  
HETATM    5  C   UNL     1     -10.694  11.375  67.008  1.00  0.00    -0.261 A  
HETATM    6  C   UNL     1     -11.421  11.892  68.092  1.00  0.00    -0.384 A  
HETATM    7  N   UNL     1      -9.835  10.260  67.128  1.00  0.00    -0.179 NA 
HETATM    8  H   UNL     1      -7.717   8.399  62.823  1.00  0.00     0.000 HD 
HETATM    9  C   UNL     1      -9.318   9.699  65.969  1.00  0.00    -0.207 A  
HETATM   10  C   UNL     1     -12.158  13.085  67.991  1.00  0.00    -0.220 A  
HETATM   11  C   UNL     1     -12.929  13.576  69.186  1.00  0.00     1.404 C  
HETATM   12  O   UNL     1      -9.906   9.648  62.346  1.00  0.00     0.227 OA 
HETATM   13  N   UNL     1      -8.458   8.718  65.972  1.00  0.00    -0.127 N  
HETATM   14  H   UNL     1      -8.116   8.376  66.870  1.00  0.00     0.000 HD 
HETATM   15  C   UNL     1      -9.742  10.269  64.644  1.00  0.00    -0.333 A  
HETATM   16  C   UNL     1      -7.997   8.130  64.839  1.00  0.00    -0.145 C  
HETATM   17  C   UNL     1      -9.318   9.543  63.410  1.00  0.00     0.186 C  
HETATM   18  N   UNL     1     -10.401  11.388  64.553  1.00  0.00    -0.290 NA 
HETATM   19  N   UNL     1      -8.294   8.667  63.621  1.00  0.00    -0.149 N  
HETATM   20  O   UNL     1      -7.352   7.085  64.872  1.00  0.00    -0.074 OA 
ENDROOT
BRANCH   7  21
HETATM   21  C   UNL     1      -9.052  10.139  68.373  1.00  0.00    -0.133 C  
BRANCH  21  22
HETATM   22  C   UNL     1      -9.717   9.174  69.377  1.00  0.00    -0.170 C  
HETATM   23  O   UNL     1      -9.582   7.843  68.874  1.00  0.00    -0.153 OA 
HETATM   24  H   UNL     1      -9.991   7.249  69.492  1.00  0.00     0.000 HD 
BRANCH  22  25
HETATM   25  C   UNL     1     -11.185   9.591  69.571  1.00  0.00    -0.074 C  
HETATM   26  H   UNL     1     -12.112  10.869  70.703  1.00  0.00     0.000 HD 
HETATM   27  O   UNL     1     -11.206  10.611  70.582  1.00  0.00    -0.289 OA 
BRANCH  25  28
HETATM   28  C   UNL     1     -12.142   8.443  69.975  1.00  0.00     0.739 C  
HETATM   29  H   UNL     1     -13.744   8.207  71.114  1.00  0.00     0.000 HD 
HETATM   30  O   UNL     1     -13.157   8.912  70.866  1.00  0.00    -0.053 OA 
BRANCH  28  31
HETATM   31  C   UNL     1     -11.382   7.275  70.635  1.00  0.00    -0.284 C  
BRANCH  31  32
HETATM   32  O   UNL     1     -10.890   7.653  71.902  1.00  0.00    -0.224 OA 
BRANCH  32  33
HETATM   33  P   UNL     1      -9.806   6.716  72.620  1.00  0.00    -0.173 P  
HETATM   34  O   UNL     1      -9.700   5.483  71.613  1.00  0.00    -0.156 OA 
HETATM   35  O   UNL     1     -10.195   6.221  73.985  1.00  0.00    -0.255 OA 
BRANCH  33  36
HETATM   36  O   UNL     1      -8.457   7.570  72.664  1.00  0.00    -0.108 OA 
BRANCH  36  37
HETATM   37  P   UNL     1      -7.931   8.576  71.359  1.00  0.00    -0.137 P  
HETATM   38  O   UNL     1      -8.065   9.903  72.299  1.00  0.00     1.734 OA 
HETATM   39  O   UNL     1      -6.527   7.988  71.430  1.00  0.00    -0.037 OA 
BRANCH  37  40
HETATM   40  O   UNL     1      -7.403   9.582  70.054  1.00  0.00    -0.083 OA 
BRANCH  40  41
HETATM   41  C   UNL     1      -5.986   9.645  69.895  1.00  0.00    -0.041 C  
BRANCH  41  42
HETATM   42  C   UNL     1      -5.523   8.625  68.847  1.00  0.00    -0.036 C  
HETATM   43  O   UNL     1      -5.160   7.416  69.525  1.00  0.00    -0.015 OA 
HETATM   44  C   UNL     1      -5.562   6.304  68.715  1.00  0.00    -0.011 C  
HETATM   45  C   UNL     1      -6.482   6.777  67.593  1.00  0.00    -0.049 C  
HETATM   46  H   UNL     1      -7.038   8.812  65.959  1.00  0.00     0.000 HD 
HETATM   47  C   UNL     1      -6.589   8.284  67.809  1.00  0.00    -0.061 C  
HETATM   48  O   UNL     1      -6.375   9.024  66.605  1.00  0.00    -0.064 OA 
HETATM   49  O   UNL     1      -5.945   6.495  66.288  1.00  0.00    -0.023 OA 
HETATM   50  H   UNL     1      -6.519   6.789  65.590  1.00  0.00     0.000 HD 
BRANCH  44  51
HETATM   51  N   UNL     1      -6.144   5.290  69.572  1.00  0.00    -0.020 NA 
HETATM   52  C   UNL     1      -7.091   4.359  69.240  1.00  0.00    -0.051 A  
HETATM   53  C   UNL     1      -7.147   4.583  71.368  1.00  0.00    -0.043 A  
HETATM   54  N   UNL     1      -7.740   3.929  70.304  1.00  0.00    -0.048 NA 
HETATM   55  C   UNL     1      -6.066   5.334  70.936  1.00  0.00    -0.022 A  
HETATM   56  N   UNL     1      -5.219   6.065  71.679  1.00  0.00    -0.020 NA 
HETATM   57  C   UNL     1      -5.572   6.012  72.980  1.00  0.00    -0.036 A  
HETATM   58  N   UNL     1      -6.634   5.388  73.536  1.00  0.00    -0.074 NA 
HETATM   59  C   UNL     1      -7.461   4.679  72.731  1.00  0.00    -0.086 A  
HETATM   60  N   UNL     1      -8.609   4.138  73.285  1.00  0.00    -0.089 NA 
HETATM   61  H2  UNL     1      -8.628   3.148  73.038  1.00  0.00     0.000 HD 
HETATM   62  H1  UNL     1      -8.838   4.208  74.277  1.00  0.00     0.000 HD 
ENDBRANCH  44  51
ENDBRANCH  41  42
ENDBRANCH  40  41
ENDBRANCH  37  40
ENDBRANCH  36  37
ENDBRANCH  33  36
ENDBRANCH  32  33
ENDBRANCH  31  32
ENDBRANCH  28  31
ENDBRANCH  25  28
ENDBRANCH  22  25
ENDBRANCH  21  22
ENDBRANCH   7  21
TORSDOF 13
ENDMDL
MODEL       99
REMARK 921   NORMALIZED FREE ENERGY PREDICTED BY IDOCK:   11.35 KCAL/MOL
REMARK 922        TOTAL FREE ENERGY PREDICTED BY IDOCK:   16.87 KCAL/MOL
REMARK 923 INTER-LIGAND FREE ENERGY PREDICTED BY IDOCK:    6.26 KCAL/MOL
REMARK 924 INTRA-LIGAND FREE ENERGY PREDICTED BY IDOCK:   10.61 KCAL/MOL
REMARK 927      BINDING AFFINITY PREDICTED BY RF-SCORE:    0.00 PKD
ROOT
HETATM    1  C   UNL     1      -7.742   9.809  64.285  1.00  0.00    -0.134 C  
HETATM    2  C   UNL     1      -8.355   9.078  65.448  1.00  0.00    -0.151 A  
HETATM    3  C   UNL     1      -7.510   8.460  66.383  1.00  0.00    -0.083 A  
HETATM    4  C   UNL     1      -8.012   7.893  67.559  1.00  0.00    -0.123 A  
HETATM    5  C   UNL     1      -9.379   8.031  67.870  1.00  0.00    -0.138 A  
HETATM    6  C   UNL     1     -10.235   8.529  66.874  1.00  0.00    -0.375 A  
HETATM    7  N   UNL     1      -9.841   7.632  69.144  1.00  0.00    -0.168 NA 
HETATM    8  H   UNL     1      -6.456   5.434  72.336  1.00  0.00     0.000 HD 
HETATM    9  C   UNL     1      -8.961   6.968  69.986  1.00  0.00    -0.142 A  
HETATM   10  C   UNL     1      -9.743   9.054  65.666  1.00  0.00    -0.178 A  
HETATM   11  C   UNL     1     -10.715   9.556  64.633  1.00  0.00     3.091 C  
HETATM   12  O   UNL     1      -5.775   5.148  69.879  1.00  0.00    -0.014 OA 
HETATM   13  N   UNL     1      -9.262   6.626  71.207  1.00  0.00    -0.155 N  
HETATM   14  H   UNL     1     -10.173   6.899  71.577  1.00  0.00     0.000 HD 
HETATM   15  C   UNL     1      -7.580   6.657  69.479  1.00  0.00    -0.095 A  
HETATM   16  C   UNL     1      -8.423   5.926  72.011  1.00  0.00    -0.125 C  
HETATM   17  C   UNL     1      -6.710   5.790  70.329  1.00  0.00    -0.048 C  
HETATM   18  N   UNL     1      -7.117   7.167  68.374  1.00  0.00    -0.082 NA 
HETATM   19  N   UNL     1      -7.137   5.694  71.621  1.00  0.00    -0.078 N  
HETATM   20  O   UNL     1      -8.803   5.442  73.075  1.00  0.00    -0.121 OA 
ENDROOT
BRANCH   7  21
HETATM   21  C   UNL     1     -10.923   8.431  69.751  1.00  0.00    -0.127 C  
BRANCH  21  22
HETATM   22  C   UNL     1     -10.519   8.987  71.133  1.00  0.00    -0.293 C  
HETATM   23  O   UNL     1     -11.709   9.187  71.899  1.00  0.00    -0.357 OA 
HETATM   24  H   UNL     1     -11.461   9.530  72.750  1.00  0.00     0.000 HD 
BRANCH  22  25
HETATM   25  C   UNL     1      -9.715  10.283  70.932  1.00  0.00     1.282 C  
HETATM   26  H   UNL     1     -10.106  12.180  71.081  1.00  0.00     0.000 HD 
HETATM   27  O   UNL     1     -10.602  11.380  71.205  1.00  0.00     3.065 OA 
BRANCH  25  28
HETATM   28  C   UNL     1      -9.098  10.456  69.523  1.00  0.00    -0.107 C  
HETATM   29  H   UNL     1      -8.310  11.914  68.441  1.00  0.00     0.000 HD 
HETATM   30  O   UNL     1      -8.688  11.809  69.306  1.00  0.00     0.298 OA 
BRANCH  28  31
HETATM   31  C   UNL     1     -10.083  10.035  68.415  1.00  0.00    -0.165 C  
BRANCH  31  32
HETATM   32  O   UNL     1     -10.536  11.162  67.697  1.00  0.00    -0.182 OA 
BRANCH  32  33
HETATM   33  P   UNL     1     -12.085  11.565  67.792  1.00  0.00     0.898 P  
HETATM   34  O   UNL     1     -12.585  10.708  69.040  1.00  0.00    -0.232 OA 
HETATM   35  O   UNL     1     -12.907  11.224  66.580  1.00  0.00     3.108 OA 
BRANCH  33  36
HETATM   36  O   UNL     1     -12.106  13.134  68.097  1.00  0.00    -0.319 OA 
BRANCH  36  37
HETATM   37  P   UNL     1     -10.825  14.203  67.640  1.00  0.00    -0.269 P  
HETATM   38  O   UNL     1     -11.271  14.103  66.073  1.00  0.00    -0.310 OA 
HETATM   39  O   UNL     1     -11.510  15.372  68.336  1.00  0.00    -0.326 OA 
BRANCH  37  40
HETATM   40  O   UNL     1      -9.545  15.274  67.183  1.00  0.00    -0.212 OA 
BRANCH  40  41
HETATM   41  C   UNL     1      -9.970  16.599  66.866  1.00  0.00    -0.271 C  
BRANCH  41  42
HETATM   42  C   UNL     1      -9.754  17.528  68.067  1.00  0.00    -0.287 C  
HETATM   43  O   UNL     1      -8.346  17.734  68.229  1.00  0.00    -0.259 OA 
HETATM   44  C   UNL     1      -8.130  19.092  68.636  1.00  0.00    -0.361 C  
HETATM   45  C   UNL     1      -9.412  19.901  68.461  1.00  0.00    -0.242 C  
HETATM   46  H   UNL     1     -12.077  19.780  68.519  1.00  0.00     0.000 HD 
HETATM   47  C   UNL     1     -10.419  18.894  67.913  1.00  0.00    -0.388 C  
HETATM   48  O   UNL     1     -11.664  18.930  68.614  1.00  0.00     2.160 OA 
HETATM   49  O   UNL     1      -9.883  20.455  69.703  1.00  0.00     0.191 OA 
HETATM   50  H   UNL     1     -10.680  20.960  69.595  1.00  0.00     0.000 HD 
BRANCH  44  51
HETATM   51  N   UNL     1      -6.992  19.620  67.910  1.00  0.00    -0.248 NA 
HETATM   52  C   UNL     1      -6.302  20.775  68.163  1.00  0.00    -0.313 A  
HETATM   53  C   UNL     1      -5.933  20.256  66.120  1.00  0.00    -0.177 A  
HETATM   54  N   UNL     1      -5.671  21.207  67.090  1.00  0.00    -0.253 NA 
HETATM   55  C   UNL     1      -6.647  19.198  66.656  1.00  0.00    -0.190 A  
HETATM   56  N   UNL     1      -7.043  18.071  66.040  1.00  0.00    -0.339 NA 
HETATM   57  C   UNL     1      -6.672  18.093  64.743  1.00  0.00     1.371 A  
HETATM   58  N   UNL     1      -6.043  19.080  64.067  1.00  0.00    -0.368 NA 
HETATM   59  C   UNL     1      -5.683  20.198  64.742  1.00  0.00    -0.200 A  
HETATM   60  N   UNL     1      -5.144  21.251  64.023  1.00  0.00    -0.196 NA 
HETATM   61  H2  UNL     1      -4.270  21.514  64.479  1.00  0.00     0.000 HD 
HETATM   62  H1  UNL     1      -4.962  21.208  63.020  1.00  0.00     0.000 HD 
ENDBRANCH  44  51
ENDBRANCH  41  42
ENDBRANCH  40  41
ENDBRANCH  37  40
ENDBRANCH  36  37
ENDBRANCH  33  36
ENDBRANCH  32  33
ENDBRANCH  31  32
ENDBRANCH  28  31
ENDBRANCH  25  28
ENDBRANCH  22  25
ENDBRANCH  21  22
ENDBRANCH   7  21
TORSDOF 13
ENDMDL
MODEL      100
REMARK 921   NORMALIZED FREE ENERGY PREDICTED BY IDOCK:   11.99 KCAL/MOL
REMARK 922        TOTAL FREE ENERGY PREDICTED BY IDOCK:   17.99 KCAL/MOL
REMARK 923 INTER-LIGAND FREE ENERGY PREDICTED BY IDOCK:    7.37 KCAL/MOL
REMARK 924 INTRA-LIGAND FREE ENERGY PREDICTED BY IDOCK:   10.62 KCAL/MOL
REMARK 927      BINDING AFFINITY PREDICTED BY RF-SCORE:    0.00 PKD
ROOT
HETATM    1  C   UNL     1     -12.754  15.158  66.639  1.00  0.00     1.343 C  
HETATM    2  C   UNL     1     -12.172  13.778  66.773  1.00  0.00    -0.440 A  
HETATM    3  C   UNL     1     -11.556  13.190  65.657  1.00  0.00    -0.371 A  
HETATM    4  C   UNL     1     -10.869  11.975  65.756  1.00  0.00    -0.287 A  
HETATM    5  C   UNL     1     -10.699  11.374  67.019  1.00  0.00    -0.261 A  
HETATM    6  C   UNL     1     -11.427  11.894  68.101  1.00  0.00    -0.384 A  
HETATM    7  N   UNL     1      -9.841  10.258  67.142  1.00  0.00    -0.179 NA 
HETATM    8  H   UNL     1      -7.721   8.385  62.844  1.00  0.00     0.000 HD 
HETATM    9  C   UNL     1      -9.324   9.694  65.985  1.00  0.00    -0.207 A  
HETATM   10  C   UNL     1     -12.162  13.088  67.997  1.00  0.00    -0.057 A  
HETATM   11  C   UNL     1     -12.934  13.582  69.190  1.00  0.00     1.404 C  
HETATM   12  O   UNL     1      -9.909   9.636  62.361  1.00  0.00     0.227 OA 
HETATM   13  N   UNL     1      -8.465   8.713  65.991  1.00  0.00    -0.133 N  
HETATM   14  H   UNL     1      -8.124   8.372  66.890  1.00  0.00     0.000 HD 
HETATM   15  C   UNL     1      -9.747  10.261  64.658  1.00  0.00    -0.333 A  
HETATM   16  C   UNL     1      -8.004   8.122  64.860  1.00  0.00    -0.145 C  
HETATM   17  C   UNL     1      -9.322   9.533  63.426  1.00  0.00     0.186 C  
HETATM   18  N   UNL     1     -10.404  11.382  64.564  1.00  0.00    -0.290 NA 
HETATM   19  N   UNL     1      -8.298   8.656  63.640  1.00  0.00    -0.149 N  
HETATM   20  O   UNL     1      -7.360   7.076  64.895  1.00  0.00    -0.074 OA 
ENDROOT
BRANCH   7  21
HETATM   21  C   UNL     1      -9.060  10.139  68.388  1.00  0.00    -0.133 C  
BRANCH  21  22
HETATM   22  C   UNL     1      -9.728   9.178  69.394  1.00  0.00    -0.170 C  
HETATM   23  O   UNL     1      -9.600   7.847  68.892  1.00  0.00    -0.153 OA 
HETATM   24  H   UNL     1     -10.011   7.255  69.512  1.00  0.00     0.000 HD 
BRANCH  22  25
HETATM   25  C   UNL     1     -11.194   9.603  69.590  1.00  0.00    -0.141 C  
HETATM   26  H   UNL     1     -12.113  10.887  70.721  1.00  0.00     0.000 HD 
HETATM   27  O   UNL     1     -11.208  10.625  70.599  1.00  0.00    -0.289 OA 
BRANCH  25  28
HETATM   28  C   UNL     1     -12.155   8.460  69.998  1.00  0.00     0.739 C  
HETATM   29  H   UNL     1     -13.750   8.231  71.148  1.00  0.00     0.000 HD 
HETATM   30  O   UNL     1     -13.161   8.933  70.898  1.00  0.00    -0.053 OA 
BRANCH  28  31
HETATM   31  C   UNL     1     -11.398   7.285  70.649  1.00  0.00    -0.284 C  
BRANCH  31  32
HETATM   32  O   UNL     1     -10.886   7.660  71.909  1.00  0.00    -0.224 OA 
BRANCH  32  33
HETATM   33  P   UNL     1      -9.793   6.717  72.608  1.00  0.00    -0.175 P  
HETATM   34  O   UNL     1      -9.713   5.482  71.603  1.00  0.00    -0.156 OA 
HETATM   35  O   UNL     1     -10.160   6.228  73.982  1.00  0.00    -0.226 OA 
BRANCH  33  36
HETATM   36  O   UNL     1      -8.439   7.564  72.626  1.00  0.00    -0.108 OA 
BRANCH  36  37
HETATM   37  P   UNL     1      -7.936   8.572  71.312  1.00  0.00    -0.148 P  
HETATM   38  O   UNL     1      -8.031   9.895  72.263  1.00  0.00     1.630 OA 
HETATM   39  O   UNL     1      -6.538   7.968  71.343  1.00  0.00    -0.041 OA 
BRANCH  37  40
HETATM   40  O   UNL     1      -7.432   9.580  69.999  1.00  0.00    -0.091 OA 
BRANCH  40  41
HETATM   41  C   UNL     1      -6.020   9.621  69.797  1.00  0.00    -0.040 C  
BRANCH  41  42
HETATM   42  C   UNL     1      -5.348  10.441  70.906  1.00  0.00    -0.082 C  
HETATM   43  O   UNL     1      -5.227  11.795  70.454  1.00  0.00    -0.084 OA 
HETATM   44  C   UNL     1      -5.455  12.668  71.568  1.00  0.00     0.052 C  
HETATM   45  C   UNL     1      -6.032  11.880  72.741  1.00  0.00     2.758 C  
HETATM   46  H   UNL     1      -6.056   9.503  73.954  1.00  0.00     0.000 HD 
HETATM   47  C   UNL     1      -6.124  10.448  72.221  1.00  0.00     1.176 C  
HETATM   48  O   UNL     1      -5.573   9.499  73.135  1.00  0.00    -0.275 OA 
HETATM   49  O   UNL     1      -5.190  11.937  73.906  1.00  0.00    -0.267 OA 
HETATM   50  H   UNL     1      -5.549  11.447  74.636  1.00  0.00     0.000 HD 
BRANCH  44  51
HETATM   51  N   UNL     1      -6.284  13.774  71.131  1.00  0.00    -0.109 NA 
HETATM   52  C   UNL     1      -7.150  14.517  71.886  1.00  0.00     2.707 A  
HETATM   53  C   UNL     1      -7.749  14.735  69.843  1.00  0.00     0.176 A  
HETATM   54  N   UNL     1      -8.072  15.092  71.139  1.00  0.00     2.401 NA 
HETATM   55  C   UNL     1      -6.562  14.022  69.816  1.00  0.00    -0.081 A  
HETATM   56  N   UNL     1      -5.907  13.548  68.743  1.00  0.00    -0.079 NA 
HETATM   57  C   UNL     1      -6.589  13.835  67.614  1.00  0.00    -0.168 A  
HETATM   58  N   UNL     1      -7.785  14.452  67.491  1.00  0.00    -0.180 NA 
HETATM   59  C   UNL     1      -8.403  14.893  68.613  1.00  0.00    -0.164 A  
HETATM   60  N   UNL     1      -9.678  15.420  68.494  1.00  0.00    -0.200 NA 
HETATM   61  H2  UNL     1      -9.675  16.330  68.955  1.00  0.00     0.000 HD 
HETATM   62  H1  UNL     1     -10.154  15.535  67.598  1.00  0.00     0.000 HD 
ENDBRANCH  44  51
ENDBRANCH  41  42
ENDBRANCH  40  41
ENDBRANCH  37  40
ENDBRANCH  36  37
ENDBRANCH  33  36
ENDBRANCH  32  33
ENDBRANCH  31  32
ENDBRANCH  28  31
ENDBRANCH  25  28
ENDBRANCH  22  25
ENDBRANCH  21  22
ENDBRANCH   7  21
TORSDOF 13
ENDMDL
MODEL      101
REMARK 921   NORMALIZED FREE ENERGY PREDICTED BY IDOCK:   14.13 KCAL/MOL
REMARK 922        TOTAL FREE ENERGY PREDICTED BY IDOCK:   21.75 KCAL/MOL
REMARK 923 INTER-LIGAND FREE ENERGY PREDICTED BY IDOCK:   13.33 KCAL/MOL
REMARK 924 INTRA-LIGAND FREE ENERGY PREDICTED BY IDOCK:    8.42 KCAL/MOL
REMARK 927      BINDING AFFINITY PREDICTED BY RF-SCORE:    0.00 PKD
ROOT
HETATM    1  C   UNL     1      -9.980   4.827  63.815  1.00  0.00     0.450 C  
HETATM    2  C   UNL     1      -9.404   5.730  64.871  1.00  0.00     0.487 A  
HETATM    3  C   UNL     1      -9.692   7.103  64.821  1.00  0.00     2.544 A  
HETATM    4  C   UNL     1      -9.310   7.968  65.851  1.00  0.00    -0.024 A  
HETATM    5  C   UNL     1      -8.712   7.444  67.015  1.00  0.00    -0.123 A  
HETATM    6  C   UNL     1      -8.308   6.099  66.999  1.00  0.00    -0.105 A  
HETATM    7  N   UNL     1      -8.509   8.290  68.127  1.00  0.00    -0.131 NA 
HETATM    8  H   UNL     1      -9.716  13.264  67.604  1.00  0.00     0.000 HD 
HETATM    9  C   UNL     1      -8.756   9.647  67.978  1.00  0.00    -0.119 A  
HETATM   10  C   UNL     1      -8.644   5.234  65.944  1.00  0.00    -0.128 A  
HETATM   11  C   UNL     1      -8.166   3.808  65.981  1.00  0.00    -0.101 C  
HETATM   12  O   UNL     1      -9.182  12.169  65.346  1.00  0.00    -0.021 OA 
HETATM   13  N   UNL     1      -8.673  10.500  68.960  1.00  0.00    -0.154 N  
HETATM   14  H   UNL     1      -8.460  10.146  69.893  1.00  0.00     0.000 HD 
HETATM   15  C   UNL     1      -9.172  10.155  66.626  1.00  0.00    -0.155 A  
HETATM   16  C   UNL     1      -8.858  11.835  68.802  1.00  0.00     0.024 C  
HETATM   17  C   UNL     1      -9.260  11.635  66.440  1.00  0.00    -0.212 C  
HETATM   18  N   UNL     1      -9.509   9.352  65.658  1.00  0.00    -0.250 NA 
HETATM   19  N   UNL     1      -9.313  12.327  67.614  1.00  0.00    -0.180 N  
HETATM   20  O   UNL     1      -8.576  12.634  69.692  1.00  0.00     1.362 OA 
ENDROOT
BRANCH   7  21
HETATM   21  C   UNL     1      -8.666   7.693  69.468  1.00  0.00    -0.136 C  
BRANCH  21  22
HETATM   22  C   UNL     1      -9.295   8.686  70.468  1.00  0.00    -0.175 C  
HETATM   23  O   UNL     1      -9.215   8.115  71.775  1.00  0.00    -0.145 OA 
HETATM   24  H   UNL     1      -9.603   8.727  72.391  1.00  0.00     0.000 HD 
BRANCH  22  25
HETATM   25  C   UNL     1     -10.742   8.981  70.033  1.00  0.00    -0.229 C  
HETATM   26  H   UNL     1     -11.633  10.451  69.130  1.00  0.00     0.000 HD 
HETATM   27  O   UNL     1     -10.740  10.269  69.398  1.00  0.00    -0.209 OA 
BRANCH  25  28
HETATM   28  C   UNL     1     -11.782   8.971  71.180  1.00  0.00    -0.302 C  
HETATM   29  H   UNL     1     -13.611   8.281  71.490  1.00  0.00     0.000 HD 
HETATM   30  O   UNL     1     -12.973   8.287  70.786  1.00  0.00     0.113 OA 
BRANCH  28  31
HETATM   31  C   UNL     1     -12.139  10.399  71.637  1.00  0.00    -0.167 C  
BRANCH  31  32
HETATM   32  O   UNL     1     -11.622  11.354  70.736  1.00  0.00    -0.133 OA 
BRANCH  32  33
HETATM   33  P   UNL     1     -12.131  12.871  70.844  1.00  0.00     0.374 P  
HETATM   34  O   UNL     1     -11.425  13.374  72.182  1.00  0.00     2.258 OA 
HETATM   35  O   UNL     1     -13.620  13.037  70.963  1.00  0.00     0.194 OA 
BRANCH  33  36
HETATM   36  O   UNL     1     -11.557  13.613  69.550  1.00  0.00    -0.279 OA 
BRANCH  36  37
HETATM   37  P   UNL     1     -11.243  15.313  69.496  1.00  0.00    -0.334 P  
HETATM   38  O   UNL     1      -9.747  15.079  70.103  1.00  0.00     0.021 OA 
HETATM   39  O   UNL     1     -11.231  15.294  67.972  1.00  0.00    -0.302 OA 
BRANCH  37  40
HETATM   40  O   UNL     1     -10.929  17.014  69.440  1.00  0.00    -0.197 OA 
BRANCH  40  41
HETATM   41  C   UNL     1     -10.230  17.521  70.576  1.00  0.00     1.735 C  
BRANCH  41  42
HETATM   42  C   UNL     1      -8.862  18.075  70.156  1.00  0.00     2.524 C  
HETATM   43  O   UNL     1      -8.504  17.485  68.901  1.00  0.00    -0.241 OA 
HETATM   44  C   UNL     1      -7.833  18.474  68.110  1.00  0.00    -0.290 C  
HETATM   45  C   UNL     1      -8.004  19.854  68.741  1.00  0.00    -0.119 C  
HETATM   46  H   UNL     1      -8.278  21.162  71.051  1.00  0.00     0.000 HD 
HETATM   47  C   UNL     1      -8.839  19.592  69.991  1.00  0.00     1.035 C  
HETATM   48  O   UNL     1      -8.293  20.217  71.154  1.00  0.00     1.232 OA 
HETATM   49  O   UNL     1      -6.744  20.453  69.096  1.00  0.00    -0.230 OA 
HETATM   50  H   UNL     1      -6.850  21.311  69.489  1.00  0.00     0.000 HD 
BRANCH  44  51
HETATM   51  N   UNL     1      -8.313  18.383  66.745  1.00  0.00    -0.251 NA 
HETATM   52  C   UNL     1      -8.531  19.409  65.866  1.00  0.00    -0.053 A  
HETATM   53  C   UNL     1      -9.698  17.746  65.194  1.00  0.00     1.728 A  
HETATM   54  N   UNL     1      -9.390  19.067  64.927  1.00  0.00     2.261 NA 
HETATM   55  C   UNL     1      -8.934  17.271  66.247  1.00  0.00    -0.217 A  
HETATM   56  N   UNL     1      -8.917  16.030  66.762  1.00  0.00    -0.224 NA 
HETATM   57  C   UNL     1      -9.806  15.245  66.120  1.00  0.00    -0.307 A  
HETATM   58  N   UNL     1     -10.666  15.585  65.134  1.00  0.00    -0.418 NA 
HETATM   59  C   UNL     1     -10.646  16.856  64.668  1.00  0.00     0.726 A  
HETATM   60  N   UNL     1     -11.604  17.229  63.740  1.00  0.00     0.926 NA 
HETATM   61  H2  UNL     1     -11.115  17.652  62.952  1.00  0.00     0.000 HD 
HETATM   62  H1  UNL     1     -12.293  16.581  63.358  1.00  0.00     0.000 HD 
ENDBRANCH  44  51
ENDBRANCH  41  42
ENDBRANCH  40  41
ENDBRANCH  37  40
ENDBRANCH  36  37
ENDBRANCH  33  36
ENDBRANCH  32  33
ENDBRANCH  31  32
ENDBRANCH  28  31
ENDBRANCH  25  28
ENDBRANCH  22  25
ENDBRANCH  21  22
ENDBRANCH   7  21
TORSDOF 13
ENDMDL
MODEL      102
REMARK 921   NORMALIZED FREE ENERGY PREDICTED BY IDOCK:   18.33 KCAL/MOL
REMARK 922        TOTAL FREE ENERGY PREDICTED BY IDOCK:   29.15 KCAL/MOL
REMARK 923 INTER-LIGAND FREE ENERGY PREDICTED BY IDOCK:   21.32 KCAL/MOL
REMARK 924 INTRA-LIGAND FREE ENERGY PREDICTED BY IDOCK:    7.83 KCAL/MOL
REMARK 927      BINDING AFFINITY PREDICTED BY RF-SCORE:    0.00 PKD
ROOT
HETATM    1  C   UNL     1      -6.499  11.184  68.025  1.00  0.00    -0.057 C  
HETATM    2  C   UNL     1      -7.409  12.330  68.367  1.00  0.00    -0.109 A  
HETATM    3  C   UNL     1      -8.608  12.065  69.048  1.00  0.00     0.326 A  
HETATM    4  C   UNL     1      -9.423  13.098  69.523  1.00  0.00     1.400 A  
HETATM    5  C   UNL     1      -8.990  14.434  69.409  1.00  0.00     0.322 A  
HETATM    6  C   UNL     1      -7.864  14.696  68.612  1.00  0.00    -0.138 A  
HETATM    7  N   UNL     1      -9.719  15.453  70.061  1.00  0.00    -0.164 NA 
HETATM    8  H   UNL     1     -14.048  14.114  72.500  1.00  0.00     0.000 HD 
HETATM    9  C   UNL     1     -10.928  15.122  70.657  1.00  0.00    -0.225 A  
HETATM   10  C   UNL     1      -7.067  13.664  68.089  1.00  0.00    -0.118 A  
HETATM   11  C   UNL     1      -5.883  14.014  67.229  1.00  0.00     0.516 C  
HETATM   12  O   UNL     1     -13.462  12.467  70.622  1.00  0.00     0.619 OA 
HETATM   13  N   UNL     1     -11.639  15.968  71.347  1.00  0.00    -0.446 N  
HETATM   14  H   UNL     1     -11.268  16.907  71.495  1.00  0.00     0.000 HD 
HETATM   15  C   UNL     1     -11.427  13.710  70.528  1.00  0.00     0.193 A  
HETATM   16  C   UNL     1     -12.849  15.661  71.880  1.00  0.00    -0.449 C  
HETATM   17  C   UNL     1     -12.807  13.416  71.020  1.00  0.00    -0.251 C  
HETATM   18  N   UNL     1     -10.677  12.750  70.068  1.00  0.00     0.868 NA 
HETATM   19  N   UNL     1     -13.300  14.374  71.856  1.00  0.00    -0.347 N  
HETATM   20  O   UNL     1     -13.586  16.526  72.348  1.00  0.00     0.518 OA 
ENDROOT
BRANCH   7  21
HETATM   21  C   UNL     1      -8.951  16.583  70.619  1.00  0.00     3.346 C  
BRANCH  21  22
HETATM   22  C   UNL     1      -8.354  17.474  69.510  1.00  0.00     0.670 C  
HETATM   23  O   UNL     1      -7.401  18.354  70.109  1.00  0.00     0.785 OA 
HETATM   24  H   UNL     1      -7.033  18.903  69.426  1.00  0.00     0.000 HD 
BRANCH  22  25
HETATM   25  C   UNL     1      -9.498  18.224  68.805  1.00  0.00    -0.281 C  
HETATM   26  H   UNL     1     -10.510  19.841  69.169  1.00  0.00     0.000 HD 
HETATM   27  O   UNL     1      -9.804  19.378  69.604  1.00  0.00    -0.182 OA 
BRANCH  25  28
HETATM   28  C   UNL     1     -10.784  17.393  68.583  1.00  0.00    -0.249 C  
HETATM   29  H   UNL     1     -11.258  15.550  68.037  1.00  0.00     0.000 HD 
HETATM   30  O   UNL     1     -10.468  16.060  68.172  1.00  0.00    -0.252 OA 
BRANCH  28  31
HETATM   31  C   UNL     1     -11.710  18.044  67.538  1.00  0.00     1.695 C  
BRANCH  31  32
HETATM   32  O   UNL     1     -10.969  18.850  66.648  1.00  0.00    -0.256 OA 
BRANCH  32  33
HETATM   33  P   UNL     1     -10.932  18.454  65.095  1.00  0.00     2.366 P  
HETATM   34  O   UNL     1     -10.767  19.872  64.384  1.00  0.00     1.013 OA 
HETATM   35  O   UNL     1     -12.170  17.772  64.583  1.00  0.00     3.217 OA 
BRANCH  33  36
HETATM   36  O   UNL     1      -9.636  17.538  64.912  1.00  0.00     1.259 OA 
BRANCH  36  37
HETATM   37  P   UNL     1      -9.631  15.834  65.215  1.00  0.00     0.717 P  
HETATM   38  O   UNL     1      -8.178  15.947  65.949  1.00  0.00     0.054 OA 
HETATM   39  O   UNL     1     -10.769  15.978  66.217  1.00  0.00    -0.301 OA 
BRANCH  37  40
HETATM   40  O   UNL     1      -9.626  14.131  65.518  1.00  0.00    -0.180 OA 
BRANCH  40  41
HETATM   41  C   UNL     1     -10.439  13.372  64.625  1.00  0.00    -0.411 C  
BRANCH  41  42
HETATM   42  C   UNL     1     -11.654  12.799  65.366  1.00  0.00    -0.358 C  
HETATM   43  O   UNL     1     -11.547  11.370  65.367  1.00  0.00    -0.036 OA 
HETATM   44  C   UNL     1     -12.029  10.881  66.626  1.00  0.00     1.666 C  
HETATM   45  C   UNL     1     -12.192  12.037  67.610  1.00  0.00     0.426 C  
HETATM   46  H   UNL     1     -12.773  14.633  67.827  1.00  0.00     0.000 HD 
HETATM   47  C   UNL     1     -11.766  13.268  66.814  1.00  0.00    -0.385 C  
HETATM   48  O   UNL     1     -12.703  14.341  66.925  1.00  0.00    -0.076 OA 
HETATM   49  O   UNL     1     -13.550  12.180  68.065  1.00  0.00     5.226 OA 
HETATM   50  H   UNL     1     -13.652  12.899  68.677  1.00  0.00     0.000 HD 
BRANCH  44  51
HETATM   51  N   UNL     1     -11.142   9.831  67.087  1.00  0.00    -0.033 NA 
HETATM   52  C   UNL     1     -10.354   9.009  66.328  1.00  0.00    -0.060 A  
HETATM   53  C   UNL     1     -10.649   8.035  68.210  1.00  0.00    -0.101 A  
HETATM   54  N   UNL     1     -10.060   7.895  66.967  1.00  0.00    -0.248 NA 
HETATM   55  C   UNL     1     -11.215   9.292  68.342  1.00  0.00     0.258 A  
HETATM   56  N   UNL     1     -11.833   9.812  69.416  1.00  0.00     0.210 NA 
HETATM   57  C   UNL     1     -11.873   8.907  70.415  1.00  0.00     0.031 A  
HETATM   58  N   UNL     1     -11.434   7.629  70.408  1.00  0.00    -0.225 NA 
HETATM   59  C   UNL     1     -10.833   7.158  69.289  1.00  0.00    -0.183 A  
HETATM   60  N   UNL     1     -10.489   5.818  69.245  1.00  0.00    -0.258 NA 
HETATM   61  H2  UNL     1      -9.507   5.766  68.976  1.00  0.00     0.000 HD 
HETATM   62  H1  UNL     1     -10.623   5.180  70.030  1.00  0.00     0.000 HD 
ENDBRANCH  44  51
ENDBRANCH  41  42
ENDBRANCH  40  41
ENDBRANCH  37  40
ENDBRANCH  36  37
ENDBRANCH  33  36
ENDBRANCH  32  33
ENDBRANCH  31  32
ENDBRANCH  28  31
ENDBRANCH  25  28
ENDBRANCH  22  25
ENDBRANCH  21  22
ENDBRANCH   7  21
TORSDOF 13
ENDMDL
MODEL      103
REMARK 921   NORMALIZED FREE ENERGY PREDICTED BY IDOCK:   21.50 KCAL/MOL
REMARK 922        TOTAL FREE ENERGY PREDICTED BY IDOCK:   34.73 KCAL/MOL
REMARK 923 INTER-LIGAND FREE ENERGY PREDICTED BY IDOCK:   13.42 KCAL/MOL
REMARK 924 INTRA-LIGAND FREE ENERGY PREDICTED BY IDOCK:   21.30 KCAL/MOL
REMARK 927      BINDING AFFINITY PREDICTED BY RF-SCORE:    0.00 PKD
ROOT
HETATM    1  C   UNL     1     -12.791  15.146  66.655  1.00  0.00     1.683 C  
HETATM    2  C   UNL     1     -12.284  13.743  66.844  1.00  0.00    -0.408 A  
HETATM    3  C   UNL     1     -11.711  13.075  65.751  1.00  0.00    -0.427 A  
HETATM    4  C   UNL     1     -11.090  11.831  65.897  1.00  0.00    -0.302 A  
HETATM    5  C   UNL     1     -10.942  11.274  67.183  1.00  0.00    -0.291 A  
HETATM    6  C   UNL     1     -11.632  11.879  68.246  1.00  0.00    -0.390 A  
HETATM    7  N   UNL     1     -10.146  10.119  67.347  1.00  0.00    -0.194 NA 
HETATM    8  H   UNL     1      -8.168   7.954  63.119  1.00  0.00     0.000 HD 
HETATM    9  C   UNL     1      -9.670   9.479  66.212  1.00  0.00    -0.245 A  
HETATM   10  C   UNL     1     -12.301  13.105  68.096  1.00  0.00     0.127 A  
HETATM   11  C   UNL     1     -13.035  13.691  69.272  1.00  0.00     1.220 C  
HETATM   12  O   UNL     1     -10.288   9.302  62.598  1.00  0.00     2.530 OA 
HETATM   13  N   UNL     1      -8.866   8.453  66.255  1.00  0.00    -0.150 N  
HETATM   14  H   UNL     1      -8.536   8.133  67.165  1.00  0.00     0.000 HD 
HETATM   15  C   UNL     1     -10.072  10.013  64.866  1.00  0.00    -0.114 A  
HETATM   16  C   UNL     1      -8.447   7.791  65.147  1.00  0.00    -0.060 C  
HETATM   17  C   UNL     1      -9.699   9.211  63.662  1.00  0.00     1.669 C  
HETATM   18  N   UNL     1     -10.668  11.163  64.727  1.00  0.00    -0.297 NA 
HETATM   19  N   UNL     1      -8.723   8.289  63.907  1.00  0.00     0.192 N  
HETATM   20  O   UNL     1      -7.861   6.714  65.222  1.00  0.00    -0.096 OA 
ENDROOT
BRANCH   7  21
HETATM   21  C   UNL     1      -9.362  10.010  68.592  1.00  0.00    -0.156 C  
BRANCH  21  22
HETATM   22  C   UNL     1      -8.264  11.091  68.676  1.00  0.00    -0.151 C  
HETATM   23  O   UNL     1      -8.894  12.349  68.927  1.00  0.00    -0.374 OA 
HETATM   24  H   UNL     1      -8.218  13.015  68.979  1.00  0.00     0.000 HD 
BRANCH  22  25
HETATM   25  C   UNL     1      -7.454  11.081  67.367  1.00  0.00    -0.106 C  
HETATM   26  H   UNL     1      -5.909  10.101  66.716  1.00  0.00     0.000 HD 
HETATM   27  O   UNL     1      -6.409  10.107  67.523  1.00  0.00    -0.058 OA 
BRANCH  25  28
HETATM   28  C   UNL     1      -6.837  12.444  66.972  1.00  0.00     0.000 C  
HETATM   29  H   UNL     1      -5.120  13.117  66.250  1.00  0.00     0.000 HD 
HETATM   30  O   UNL     1      -5.499  12.280  66.493  1.00  0.00    -0.266 OA 
BRANCH  28  31
HETATM   31  C   UNL     1      -6.839  13.434  68.154  1.00  0.00    -0.117 C  
BRANCH  31  32
HETATM   32  O   UNL     1      -5.998  12.975  69.190  1.00  0.00    -0.076 OA 
BRANCH  32  33
HETATM   33  P   UNL     1      -6.338  13.392  70.700  1.00  0.00     0.717 P  
HETATM   34  O   UNL     1      -7.542  14.421  70.508  1.00  0.00     0.689 OA 
HETATM   35  O   UNL     1      -5.215  14.060  71.445  1.00  0.00    -0.132 OA 
BRANCH  33  36
HETATM   36  O   UNL     1      -6.809  12.048  71.425  1.00  0.00     2.487 OA 
BRANCH  36  37
HETATM   37  P   UNL     1      -7.690  10.797  70.617  1.00  0.00     2.882 P  
HETATM   38  O   UNL     1      -6.421   9.781  70.760  1.00  0.00    -0.100 OA 
HETATM   39  O   UNL     1      -8.642  10.662  71.799  1.00  0.00     4.857 OA 
BRANCH  37  40
HETATM   40  O   UNL     1      -8.572   9.545  69.811  1.00  0.00    -0.155 OA 
BRANCH  40  41
HETATM   41  C   UNL     1      -9.397   8.760  70.670  1.00  0.00    -0.195 C  
BRANCH  41  42
HETATM   42  C   UNL     1      -8.532   7.914  71.613  1.00  0.00    -0.116 C  
HETATM   43  O   UNL     1      -8.189   6.698  70.939  1.00  0.00    -0.121 OA 
HETATM   44  C   UNL     1      -6.846   6.344  71.296  1.00  0.00    -0.067 C  
HETATM   45  C   UNL     1      -6.167   7.514  72.004  1.00  0.00    -0.039 C  
HETATM   46  H   UNL     1      -6.574   9.613  73.602  1.00  0.00     0.000 HD 
HETATM   47  C   UNL     1      -7.237   8.602  72.039  1.00  0.00    -0.043 C  
HETATM   48  O   UNL     1      -7.380   9.185  73.336  1.00  0.00    -0.150 OA 
HETATM   49  O   UNL     1      -5.750   7.178  73.340  1.00  0.00    -0.049 OA 
HETATM   50  H   UNL     1      -5.327   7.906  73.780  1.00  0.00     0.000 HD 
BRANCH  44  51
HETATM   51  N   UNL     1      -6.153   5.887  70.108  1.00  0.00    -0.025 NA 
HETATM   52  C   UNL     1      -5.951   6.575  68.943  1.00  0.00    -0.022 A  
HETATM   53  C   UNL     1      -5.753   4.494  68.487  1.00  0.00    -0.017 A  
HETATM   54  N   UNL     1      -5.734   5.759  67.930  1.00  0.00    -0.012 NA 
HETATM   55  C   UNL     1      -5.884   4.569  69.864  1.00  0.00    -0.017 A  
HETATM   56  N   UNL     1      -5.894   3.559  70.750  1.00  0.00    -0.013 NA 
HETATM   57  C   UNL     1      -5.786   2.376  70.111  1.00  0.00    -0.018 A  
HETATM   58  N   UNL     1      -5.727   2.143  68.781  1.00  0.00    -0.022 NA 
HETATM   59  C   UNL     1      -5.736   3.204  67.938  1.00  0.00    -0.019 A  
HETATM   60  N   UNL     1      -5.791   2.958  66.577  1.00  0.00    -0.022 NA 
HETATM   61  H2  UNL     1      -5.032   3.483  66.142  1.00  0.00     0.000 HD 
HETATM   62  H1  UNL     1      -5.778   2.019  66.177  1.00  0.00     0.000 HD 
ENDBRANCH  44  51
ENDBRANCH  41  42
ENDBRANCH  40  41
ENDBRANCH  37  40
ENDBRANCH  36  37
ENDBRANCH  33  36
ENDBRANCH  32  33
ENDBRANCH  31  32
ENDBRANCH  28  31
ENDBRANCH  25  28
ENDBRANCH  22  25
ENDBRANCH  21  22
ENDBRANCH   7  21
TORSDOF 13
ENDMDL
MODEL      104
REMARK 921   NORMALIZED FREE ENERGY PREDICTED BY IDOCK:   23.35 KCAL/MOL
REMARK 922        TOTAL FREE ENERGY PREDICTED BY IDOCK:   37.98 KCAL/MOL
REMARK 923 INTER-LIGAND FREE ENERGY PREDICTED BY IDOCK:   27.32 KCAL/MOL
REMARK 924 INTRA-LIGAND FREE ENERGY PREDICTED BY IDOCK:   10.66 KCAL/MOL
REMARK 927      BINDING AFFINITY PREDICTED BY RF-SCORE:    0.00 PKD
ROOT
HETATM    1  C   UNL     1      -6.707  20.503  65.845  1.00  0.00    -0.256 C  
HETATM    2  C   UNL     1      -6.445  19.318  66.733  1.00  0.00    -0.191 A  
HETATM    3  C   UNL     1      -6.407  19.507  68.124  1.00  0.00    -0.261 A  
HETATM    4  C   UNL     1      -6.314  18.426  69.006  1.00  0.00    -0.241 A  
HETATM    5  C   UNL     1      -6.362  17.111  68.503  1.00  0.00    -0.157 A  
HETATM    6  C   UNL     1      -6.264  16.933  67.114  1.00  0.00    -0.215 A  
HETATM    7  N   UNL     1      -6.466  16.030  69.407  1.00  0.00    -0.165 NA 
HETATM    8  H   UNL     1      -6.333  17.095  74.439  1.00  0.00     0.000 HD 
HETATM    9  C   UNL     1      -6.354  16.292  70.765  1.00  0.00     0.900 A  
HETATM   10  C   UNL     1      -6.306  18.017  66.221  1.00  0.00    -0.253 A  
HETATM   11  C   UNL     1      -6.180  17.758  64.744  1.00  0.00     1.287 C  
HETATM   12  O   UNL     1      -5.154  18.902  73.050  1.00  0.00     1.858 OA 
HETATM   13  N   UNL     1      -6.511  15.380  71.683  1.00  0.00     1.272 N  
HETATM   14  H   UNL     1      -6.772  14.439  71.392  1.00  0.00     0.000 HD 
HETATM   15  C   UNL     1      -6.070  17.702  71.202  1.00  0.00     1.320 A  
HETATM   16  C   UNL     1      -6.343  15.624  73.008  1.00  0.00     3.110 C  
HETATM   17  C   UNL     1      -5.777  17.933  72.648  1.00  0.00     2.631 C  
HETATM   18  N   UNL     1      -6.136  18.709  70.378  1.00  0.00    -0.060 NA 
HETATM   19  N   UNL     1      -6.166  16.901  73.451  1.00  0.00     4.350 N  
HETATM   20  O   UNL     1      -6.296  14.712  73.830  1.00  0.00     0.487 OA 
ENDROOT
BRANCH   7  21
HETATM   21  C   UNL     1      -7.273  14.870  68.983  1.00  0.00    -0.138 C  
BRANCH  21  22
HETATM   22  C   UNL     1      -8.777  15.209  68.918  1.00  0.00    -0.205 C  
HETATM   23  O   UNL     1      -9.445  14.472  69.943  1.00  0.00    -0.197 OA 
HETATM   24  H   UNL     1     -10.372  14.681  69.903  1.00  0.00     0.000 HD 
BRANCH  22  25
HETATM   25  C   UNL     1      -9.301  14.880  67.509  1.00  0.00    -0.193 C  
HETATM   26  H   UNL     1     -10.670  13.704  66.792  1.00  0.00     0.000 HD 
HETATM   27  O   UNL     1     -10.347  13.908  67.662  1.00  0.00    -0.238 OA 
BRANCH  25  28
HETATM   28  C   UNL     1      -8.233  14.341  66.526  1.00  0.00     0.526 C  
HETATM   29  H   UNL     1      -8.006  14.165  64.567  1.00  0.00     0.000 HD 
HETATM   30  O   UNL     1      -8.662  14.496  65.170  1.00  0.00     1.954 OA 
BRANCH  28  31
HETATM   31  C   UNL     1      -7.909  12.859  66.794  1.00  0.00     0.269 C  
BRANCH  31  32
HETATM   32  O   UNL     1      -7.850  12.135  65.584  1.00  0.00     1.013 OA 
BRANCH  32  33
HETATM   33  P   UNL     1      -6.545  11.257  65.273  1.00  0.00     1.389 P  
HETATM   34  O   UNL     1      -6.456  10.311  66.553  1.00  0.00    -0.071 OA 
HETATM   35  O   UNL     1      -5.269  12.040  65.133  1.00  0.00     1.258 OA 
BRANCH  33  36
HETATM   36  O   UNL     1      -6.882  10.436  63.944  1.00  0.00    -0.094 OA 
BRANCH  36  37
HETATM   37  P   UNL     1      -8.112   9.222  63.869  1.00  0.00    -0.172 P  
HETATM   38  O   UNL     1      -7.324   8.325  64.982  1.00  0.00    -0.081 OA 
HETATM   39  O   UNL     1      -9.120  10.157  64.526  1.00  0.00    -0.198 OA 
BRANCH  37  40
HETATM   40  O   UNL     1      -9.342   8.008  63.795  1.00  0.00     1.431 OA 
BRANCH  40  41
HETATM   41  C   UNL     1      -8.928   6.721  64.252  1.00  0.00     1.007 C  
BRANCH  41  42
HETATM   42  C   UNL     1      -8.143   6.849  65.563  1.00  0.00    -0.132 C  
HETATM   43  O   UNL     1      -8.385   8.152  66.108  1.00  0.00    -0.113 OA 
HETATM   44  C   UNL     1      -8.461   8.040  67.535  1.00  0.00    -0.127 C  
HETATM   45  C   UNL     1      -8.561   6.572  67.941  1.00  0.00    -0.117 C  
HETATM   46  H   UNL     1      -7.845   4.087  67.283  1.00  0.00     0.000 HD 
HETATM   47  C   UNL     1      -8.533   5.815  66.616  1.00  0.00    -0.113 C  
HETATM   48  O   UNL     1      -7.603   4.731  66.627  1.00  0.00    -0.085 OA 
HETATM   49  O   UNL     1      -7.465   6.160  68.777  1.00  0.00    -0.083 OA 
HETATM   50  H   UNL     1      -7.528   5.246  69.030  1.00  0.00     0.000 HD 
BRANCH  44  51
HETATM   51  N   UNL     1      -9.557   8.862  68.008  1.00  0.00    -0.146 NA 
HETATM   52  C   UNL     1     -10.786   9.030  67.430  1.00  0.00    -0.161 A  
HETATM   53  C   UNL     1     -10.457  10.714  68.709  1.00  0.00    -0.194 A  
HETATM   54  N   UNL     1     -11.349  10.160  67.809  1.00  0.00    -0.255 NA 
HETATM   55  C   UNL     1      -9.398   9.852  68.939  1.00  0.00    -0.170 A  
HETATM   56  N   UNL     1      -8.363  10.019  69.779  1.00  0.00    -0.181 NA 
HETATM   57  C   UNL     1      -8.454  11.213  70.401  1.00  0.00     2.851 A  
HETATM   58  N   UNL     1      -9.380  12.182  70.225  1.00  0.00     3.731 NA 
HETATM   59  C   UNL     1     -10.390  11.959  69.350  1.00  0.00     0.290 A  
HETATM   60  N   UNL     1     -11.269  12.996  69.088  1.00  0.00    -0.346 NA 
HETATM   61  H2  UNL     1     -12.214  12.635  69.223  1.00  0.00     0.000 HD 
HETATM   62  H1  UNL     1     -11.221  13.902  69.555  1.00  0.00     0.000 HD 
ENDBRANCH  44  51
ENDBRANCH  41  42
ENDBRANCH  40  41
ENDBRANCH  37  40
ENDBRANCH  36  37
ENDBRANCH  33  36
ENDBRANCH  32  33
ENDBRANCH  31  32
ENDBRANCH  28  31
ENDBRANCH  25  28
ENDBRANCH  22  25
ENDBRANCH  21  22
ENDBRANCH   7  21
TORSDOF 13
ENDMDL
MODEL      105
REMARK 921   NORMALIZED FREE ENERGY PREDICTED BY IDOCK:   23.38 KCAL/MOL
REMARK 922        TOTAL FREE ENERGY PREDICTED BY IDOCK:   38.03 KCAL/MOL
REMARK 923 INTER-LIGAND FREE ENERGY PREDICTED BY IDOCK:   24.70 KCAL/MOL
REMARK 924 INTRA-LIGAND FREE ENERGY PREDICTED BY IDOCK:   13.33 KCAL/MOL
REMARK 927      BINDING AFFINITY PREDICTED BY RF-SCORE:    0.00 PKD
ROOT
HETATM    1  C   UNL     1      -6.707  20.503  65.845  1.00  0.00    -0.256 C  
HETATM    2  C   UNL     1      -6.445  19.318  66.733  1.00  0.00    -0.191 A  
HETATM    3  C   UNL     1      -6.407  19.507  68.124  1.00  0.00    -0.261 A  
HETATM    4  C   UNL     1      -6.314  18.426  69.006  1.00  0.00    -0.241 A  
HETATM    5  C   UNL     1      -6.362  17.111  68.503  1.00  0.00    -0.157 A  
HETATM    6  C   UNL     1      -6.264  16.933  67.114  1.00  0.00    -0.215 A  
HETATM    7  N   UNL     1      -6.466  16.030  69.407  1.00  0.00    -0.165 NA 
HETATM    8  H   UNL     1      -6.333  17.095  74.439  1.00  0.00     0.000 HD 
HETATM    9  C   UNL     1      -6.354  16.292  70.765  1.00  0.00     0.900 A  
HETATM   10  C   UNL     1      -6.306  18.017  66.221  1.00  0.00    -0.253 A  
HETATM   11  C   UNL     1      -6.180  17.758  64.744  1.00  0.00     1.287 C  
HETATM   12  O   UNL     1      -5.154  18.902  73.050  1.00  0.00     1.858 OA 
HETATM   13  N   UNL     1      -6.511  15.380  71.683  1.00  0.00     1.272 N  
HETATM   14  H   UNL     1      -6.772  14.439  71.392  1.00  0.00     0.000 HD 
HETATM   15  C   UNL     1      -6.070  17.702  71.202  1.00  0.00     1.320 A  
HETATM   16  C   UNL     1      -6.343  15.624  73.008  1.00  0.00     3.110 C  
HETATM   17  C   UNL     1      -5.777  17.933  72.648  1.00  0.00     2.631 C  
HETATM   18  N   UNL     1      -6.136  18.709  70.378  1.00  0.00    -0.060 NA 
HETATM   19  N   UNL     1      -6.166  16.901  73.451  1.00  0.00     4.350 N  
HETATM   20  O   UNL     1      -6.296  14.712  73.830  1.00  0.00     0.487 OA 
ENDROOT
BRANCH   7  21
HETATM   21  C   UNL     1      -7.273  14.870  68.983  1.00  0.00    -0.138 C  
BRANCH  21  22
HETATM   22  C   UNL     1      -8.777  15.209  68.918  1.00  0.00    -0.205 C  
HETATM   23  O   UNL     1      -9.445  14.472  69.943  1.00  0.00    -0.197 OA 
HETATM   24  H   UNL     1     -10.372  14.681  69.903  1.00  0.00     0.000 HD 
BRANCH  22  25
HETATM   25  C   UNL     1      -9.301  14.880  67.509  1.00  0.00    -0.193 C  
HETATM   26  H   UNL     1     -10.670  13.704  66.792  1.00  0.00     0.000 HD 
HETATM   27  O   UNL     1     -10.347  13.908  67.662  1.00  0.00    -0.238 OA 
BRANCH  25  28
HETATM   28  C   UNL     1      -8.233  14.341  66.526  1.00  0.00     0.526 C  
HETATM   29  H   UNL     1      -8.006  14.165  64.567  1.00  0.00     0.000 HD 
HETATM   30  O   UNL     1      -8.662  14.496  65.170  1.00  0.00     1.954 OA 
BRANCH  28  31
HETATM   31  C   UNL     1      -7.909  12.859  66.794  1.00  0.00     0.269 C  
BRANCH  31  32
HETATM   32  O   UNL     1      -7.850  12.135  65.584  1.00  0.00     1.013 OA 
BRANCH  32  33
HETATM   33  P   UNL     1      -6.545  11.257  65.273  1.00  0.00     1.389 P  
HETATM   34  O   UNL     1      -6.456  10.311  66.553  1.00  0.00    -0.071 OA 
HETATM   35  O   UNL     1      -5.269  12.040  65.133  1.00  0.00     1.258 OA 
BRANCH  33  36
HETATM   36  O   UNL     1      -6.882  10.436  63.944  1.00  0.00    -0.094 OA 
BRANCH  36  37
HETATM   37  P   UNL     1      -8.112   9.222  63.869  1.00  0.00    -0.172 P  
HETATM   38  O   UNL     1      -7.324   8.325  64.982  1.00  0.00    -0.081 OA 
HETATM   39  O   UNL     1      -9.120  10.157  64.526  1.00  0.00    -0.198 OA 
BRANCH  37  40
HETATM   40  O   UNL     1      -9.342   8.008  63.795  1.00  0.00     1.431 OA 
BRANCH  40  41
HETATM   41  C   UNL     1      -9.609   7.363  65.040  1.00  0.00     1.726 C  
BRANCH  41  42
HETATM   42  C   UNL     1      -9.710   8.401  66.165  1.00  0.00    -0.153 C  
HETATM   43  O   UNL     1      -9.875   9.694  65.572  1.00  0.00    -0.302 OA 
HETATM   44  C   UNL     1     -10.775  10.456  66.386  1.00  0.00    -0.064 C  
HETATM   45  C   UNL     1     -11.462   9.545  67.401  1.00  0.00     1.162 C  
HETATM   46  H   UNL     1     -11.166   7.354  68.896  1.00  0.00     0.000 HD 
HETATM   47  C   UNL     1     -10.880   8.163  67.117  1.00  0.00    -0.050 C  
HETATM   48  O   UNL     1     -10.438   7.502  68.304  1.00  0.00    -0.197 OA 
HETATM   49  O   UNL     1     -11.188   9.934  68.759  1.00  0.00    -0.418 OA 
HETATM   50  H   UNL     1     -11.615   9.368  69.391  1.00  0.00     0.000 HD 
BRANCH  44  51
HETATM   51  N   UNL     1     -11.690  11.175  65.522  1.00  0.00     0.241 NA 
HETATM   52  C   UNL     1     -12.277  10.728  64.370  1.00  0.00     2.922 A  
HETATM   53  C   UNL     1     -12.316  12.866  64.306  1.00  0.00    -0.385 A  
HETATM   54  N   UNL     1     -12.643  11.728  63.593  1.00  0.00    -0.433 NA 
HETATM   55  C   UNL     1     -11.842  12.533  65.564  1.00  0.00    -0.439 A  
HETATM   56  N   UNL     1     -11.470  13.363  66.553  1.00  0.00    -0.327 NA 
HETATM   57  C   UNL     1     -11.588  14.647  66.156  1.00  0.00    -0.332 A  
HETATM   58  N   UNL     1     -11.961  15.119  64.946  1.00  0.00    -0.244 NA 
HETATM   59  C   UNL     1     -12.310  14.231  63.984  1.00  0.00    -0.244 A  
HETATM   60  N   UNL     1     -12.581  14.713  62.715  1.00  0.00     0.569 NA 
HETATM   61  H2  UNL     1     -13.488  14.339  62.436  1.00  0.00     0.000 HD 
HETATM   62  H1  UNL     1     -12.576  15.706  62.481  1.00  0.00     0.000 HD 
ENDBRANCH  44  51
ENDBRANCH  41  42
ENDBRANCH  40  41
ENDBRANCH  37  40
ENDBRANCH  36  37
ENDBRANCH  33  36
ENDBRANCH  32  33
ENDBRANCH  31  32
ENDBRANCH  28  31
ENDBRANCH  25  28
ENDBRANCH  22  25
ENDBRANCH  21  22
ENDBRANCH   7  21
TORSDOF 13
ENDMDL
MODEL      106
REMARK 921   NORMALIZED FREE ENERGY PREDICTED BY IDOCK:   27.76 KCAL/MOL
REMARK 922        TOTAL FREE ENERGY PREDICTED BY IDOCK:   45.75 KCAL/MOL
REMARK 923 INTER-LIGAND FREE ENERGY PREDICTED BY IDOCK:   20.87 KCAL/MOL
REMARK 924 INTRA-LIGAND FREE ENERGY PREDICTED BY IDOCK:   24.88 KCAL/MOL
REMARK 927      BINDING AFFINITY PREDICTED BY RF-SCORE:    0.00 PKD
ROOT
HETATM    1  C   UNL     1      -6.707  20.503  65.845  1.00  0.00    -0.256 C  
HETATM    2  C   UNL     1      -6.435  19.312  66.721  1.00  0.00    -0.191 A  
HETATM    3  C   UNL     1      -6.395  19.488  68.114  1.00  0.00    -0.261 A  
HETATM    4  C   UNL     1      -6.294  18.399  68.986  1.00  0.00    -0.241 A  
HETATM    5  C   UNL     1      -6.334  17.089  68.471  1.00  0.00    -0.154 A  
HETATM    6  C   UNL     1      -6.239  16.924  67.079  1.00  0.00    -0.226 A  
HETATM    7  N   UNL     1      -6.430  15.999  69.364  1.00  0.00    -0.165 NA 
HETATM    8  H   UNL     1      -6.292  17.017  74.406  1.00  0.00     0.000 HD 
HETATM    9  C   UNL     1      -6.316  16.249  70.724  1.00  0.00     0.900 A  
HETATM   10  C   UNL     1      -6.289  18.016  66.196  1.00  0.00    -0.266 A  
HETATM   11  C   UNL     1      -6.165  17.772  64.717  1.00  0.00     1.287 C  
HETATM   12  O   UNL     1      -5.128  18.844  73.031  1.00  0.00     1.858 OA 
HETATM   13  N   UNL     1      -6.465  15.327  71.634  1.00  0.00     1.111 N  
HETATM   14  H   UNL     1      -6.721  14.386  71.335  1.00  0.00     0.000 HD 
HETATM   15  C   UNL     1      -6.040  17.656  71.174  1.00  0.00     1.320 A  
HETATM   16  C   UNL     1      -6.296  15.559  72.961  1.00  0.00     2.805 C  
HETATM   17  C   UNL     1      -5.746  17.876  72.622  1.00  0.00     2.631 C  
HETATM   18  N   UNL     1      -6.114  18.670  70.360  1.00  0.00    -0.060 NA 
HETATM   19  N   UNL     1      -6.126  16.833  73.416  1.00  0.00     3.743 N  
HETATM   20  O   UNL     1      -6.242  14.640  73.774  1.00  0.00     0.295 OA 
ENDROOT
BRANCH   7  21
HETATM   21  C   UNL     1      -7.230  14.837  68.931  1.00  0.00    -0.126 C  
BRANCH  21  22
HETATM   22  C   UNL     1      -8.736  15.168  68.873  1.00  0.00    -0.205 C  
HETATM   23  O   UNL     1      -9.398  14.417  69.892  1.00  0.00    -0.033 OA 
HETATM   24  H   UNL     1     -10.326  14.620  69.856  1.00  0.00     0.000 HD 
BRANCH  22  25
HETATM   25  C   UNL     1      -9.261  14.848  67.461  1.00  0.00    -0.193 C  
HETATM   26  H   UNL     1     -10.625  13.671  66.737  1.00  0.00     0.000 HD 
HETATM   27  O   UNL     1     -10.301  13.868  67.608  1.00  0.00    -0.238 OA 
BRANCH  25  28
HETATM   28  C   UNL     1      -8.193  14.326  66.471  1.00  0.00     0.526 C  
HETATM   29  H   UNL     1      -7.969  14.169  64.510  1.00  0.00     0.000 HD 
HETATM   30  O   UNL     1      -8.625  14.490  65.118  1.00  0.00     2.416 OA 
BRANCH  28  31
HETATM   31  C   UNL     1      -7.859  12.843  66.724  1.00  0.00     0.269 C  
BRANCH  31  32
HETATM   32  O   UNL     1      -7.798  12.131  65.508  1.00  0.00     1.216 OA 
BRANCH  32  33
HETATM   33  P   UNL     1      -6.488  11.264  65.186  1.00  0.00     1.565 P  
HETATM   34  O   UNL     1      -6.390  10.306  66.457  1.00  0.00    -0.069 OA 
HETATM   35  O   UNL     1      -5.217  12.057  65.050  1.00  0.00     1.441 OA 
BRANCH  33  36
HETATM   36  O   UNL     1      -6.823  10.454  63.850  1.00  0.00    -0.094 OA 
BRANCH  36  37
HETATM   37  P   UNL     1      -8.045   9.232  63.766  1.00  0.00    -0.177 P  
HETATM   38  O   UNL     1      -7.249   8.330  64.868  1.00  0.00    -0.077 OA 
HETATM   39  O   UNL     1      -9.057  10.155  64.434  1.00  0.00    -0.203 OA 
BRANCH  37  40
HETATM   40  O   UNL     1      -9.268   8.011  63.684  1.00  0.00     1.109 OA 
BRANCH  40  41
HETATM   41  C   UNL     1      -9.528   7.353  64.923  1.00  0.00     1.630 C  
BRANCH  41  42
HETATM   42  C   UNL     1      -9.632   8.379  66.058  1.00  0.00    -0.126 C  
HETATM   43  O   UNL     1      -9.647   7.672  67.304  1.00  0.00    -0.143 OA 
HETATM   44  C   UNL     1      -8.908   8.435  68.267  1.00  0.00    -0.139 C  
HETATM   45  C   UNL     1      -8.128   9.546  67.569  1.00  0.00    -0.110 C  
HETATM   46  H   UNL     1      -8.138  11.230  65.499  1.00  0.00     0.000 HD 
HETATM   47  C   UNL     1      -8.477   9.377  66.093  1.00  0.00    -0.120 C  
HETATM   48  O   UNL     1      -8.857  10.609  65.477  1.00  0.00    -0.177 OA 
HETATM   49  O   UNL     1      -8.511  10.855  68.028  1.00  0.00    -0.123 OA 
HETATM   50  H   UNL     1      -8.026  11.546  67.593  1.00  0.00     0.000 HD 
BRANCH  44  51
HETATM   51  N   UNL     1      -8.084   7.530  69.043  1.00  0.00    -0.125 NA 
HETATM   52  C   UNL     1      -7.390   6.439  68.595  1.00  0.00    -0.087 A  
HETATM   53  C   UNL     1      -7.681   6.178  70.698  1.00  0.00    -0.105 A  
HETATM   54  N   UNL     1      -7.154   5.581  69.568  1.00  0.00    -0.062 NA 
HETATM   55  C   UNL     1      -8.146   7.449  70.407  1.00  0.00    -0.108 A  
HETATM   56  N   UNL     1      -8.680   8.348  71.251  1.00  0.00    -0.147 NA 
HETATM   57  C   UNL     1      -8.748   7.836  72.497  1.00  0.00    -0.145 A  
HETATM   58  N   UNL     1      -8.405   6.597  72.915  1.00  0.00    -0.118 NA 
HETATM   59  C   UNL     1      -7.886   5.731  72.012  1.00  0.00    -0.107 A  
HETATM   60  N   UNL     1      -7.644   4.430  72.417  1.00  0.00    -0.077 NA 
HETATM   61  H2  UNL     1      -6.680   4.208  72.169  1.00  0.00     0.000 HD 
HETATM   62  H1  UNL     1      -7.794   4.104  73.373  1.00  0.00     0.000 HD 
ENDBRANCH  44  51
ENDBRANCH  41  42
ENDBRANCH  40  41
ENDBRANCH  37  40
ENDBRANCH  36  37
ENDBRANCH  33  36
ENDBRANCH  32  33
ENDBRANCH  31  32
ENDBRANCH  28  31
ENDBRANCH  25  28
ENDBRANCH  22  25
ENDBRANCH  21  22
ENDBRANCH   7  21
TORSDOF 13
ENDMDL
MODEL      107
REMARK 921   NORMALIZED FREE ENERGY PREDICTED BY IDOCK:   31.81 KCAL/MOL
REMARK 922        TOTAL FREE ENERGY PREDICTED BY IDOCK:   52.88 KCAL/MOL
REMARK 923 INTER-LIGAND FREE ENERGY PREDICTED BY IDOCK:   47.86 KCAL/MOL
REMARK 924 INTRA-LIGAND FREE ENERGY PREDICTED BY IDOCK:    5.02 KCAL/MOL
REMARK 927      BINDING AFFINITY PREDICTED BY RF-SCORE:    0.00 PKD
ROOT
HETATM    1  C   UNL     1     -11.275  10.933  72.375  1.00  0.00     5.520 C  
HETATM    2  C   UNL     1     -10.510  10.858  71.083  1.00  0.00     2.699 A  
HETATM    3  C   UNL     1     -11.189  11.093  69.877  1.00  0.00    -0.293 A  
HETATM    4  C   UNL     1     -10.507  11.182  68.659  1.00  0.00    -0.197 A  
HETATM    5  C   UNL     1      -9.099  11.138  68.646  1.00  0.00    -0.166 A  
HETATM    6  C   UNL     1      -8.439  10.771  69.829  1.00  0.00     0.367 A  
HETATM    7  N   UNL     1      -8.412  11.425  67.445  1.00  0.00    -0.139 NA 
HETATM    8  H   UNL     1     -11.224  12.278  63.222  1.00  0.00     0.000 HD 
HETATM    9  C   UNL     1      -9.152  11.580  66.282  1.00  0.00    -0.208 A  
HETATM   10  C   UNL     1      -9.124  10.629  71.049  1.00  0.00     3.670 A  
HETATM   11  C   UNL     1      -8.359  10.216  72.277  1.00  0.00     5.397 C  
HETATM   12  O   UNL     1     -12.483  10.838  64.931  1.00  0.00     2.190 OA 
HETATM   13  N   UNL     1      -8.624  11.921  65.140  1.00  0.00     0.031 N  
HETATM   14  H   UNL     1      -7.625  12.125  65.109  1.00  0.00     0.000 HD 
HETATM   15  C   UNL     1     -10.640  11.380  66.347  1.00  0.00    -0.263 A  
HETATM   16  C   UNL     1      -9.338  12.016  63.990  1.00  0.00     0.239 C  
HETATM   17  C   UNL     1     -11.395  11.376  65.059  1.00  0.00    -0.020 C  
HETATM   18  N   UNL     1     -11.275  11.276  67.479  1.00  0.00    -0.301 NA 
HETATM   19  N   UNL     1     -10.698  11.921  64.020  1.00  0.00    -0.337 N  
HETATM   20  O   UNL     1      -8.789  12.137  62.898  1.00  0.00     0.234 OA 
ENDROOT
BRANCH   7  21
HETATM   21  C   UNL     1      -7.125  12.140  67.557  1.00  0.00    -0.135 C  
BRANCH  21  22
HETATM   22  C   UNL     1      -7.305  13.667  67.428  1.00  0.00    -0.111 C  
HETATM   23  O   UNL     1      -6.137  14.202  66.802  1.00  0.00     0.335 OA 
HETATM   24  H   UNL     1      -6.247  15.143  66.723  1.00  0.00     0.000 HD 
BRANCH  22  25
HETATM   25  C   UNL     1      -7.555  14.258  68.828  1.00  0.00    -0.130 C  
HETATM   26  H   UNL     1      -9.124  14.561  69.930  1.00  0.00     0.000 HD 
HETATM   27  O   UNL     1      -8.970  14.196  69.067  1.00  0.00    -0.046 OA 
BRANCH  25  28
HETATM   28  C   UNL     1      -7.060  15.712  69.019  1.00  0.00    -0.151 C  
HETATM   29  H   UNL     1      -5.360  16.635  69.439  1.00  0.00     0.000 HD 
HETATM   30  O   UNL     1      -5.663  15.742  69.322  1.00  0.00    -0.106 OA 
BRANCH  28  31
HETATM   31  C   UNL     1      -7.841  16.437  70.133  1.00  0.00     1.461 C  
BRANCH  31  32
HETATM   32  O   UNL     1      -9.038  15.752  70.429  1.00  0.00     0.602 OA 
BRANCH  32  33
HETATM   33  P   UNL     1     -10.193  16.527  71.227  1.00  0.00     3.459 P  
HETATM   34  O   UNL     1     -10.090  15.887  72.684  1.00  0.00     3.657 OA 
HETATM   35  O   UNL     1     -11.582  16.331  70.685  1.00  0.00    -0.359 OA 
BRANCH  33  36
HETATM   36  O   UNL     1      -9.767  18.066  71.218  1.00  0.00     4.453 OA 
BRANCH  36  37
HETATM   37  P   UNL     1     -10.172  19.152  69.933  1.00  0.00     1.471 P  
HETATM   38  O   UNL     1     -11.704  18.592  69.912  1.00  0.00     4.561 OA 
HETATM   39  O   UNL     1     -10.035  20.352  70.861  1.00  0.00     0.953 OA 
BRANCH  37  40
HETATM   40  O   UNL     1     -10.577  20.239  68.649  1.00  0.00    -0.245 OA 
BRANCH  40  41
HETATM   41  C   UNL     1     -10.040  19.875  67.378  1.00  0.00    -0.430 C  
BRANCH  41  42
HETATM   42  C   UNL     1      -9.487  18.445  67.424  1.00  0.00    -0.273 C  
HETATM   43  O   UNL     1     -10.553  17.562  67.791  1.00  0.00    -0.370 OA 
HETATM   44  C   UNL     1     -10.402  16.339  67.058  1.00  0.00    -0.292 C  
HETATM   45  C   UNL     1      -9.368  16.518  65.948  1.00  0.00    -0.191 C  
HETATM   46  H   UNL     1      -7.130  17.795  65.256  1.00  0.00     0.000 HD 
HETATM   47  C   UNL     1      -8.912  17.966  66.093  1.00  0.00    -0.095 C  
HETATM   48  O   UNL     1      -7.488  18.093  66.085  1.00  0.00    -0.269 OA 
HETATM   49  O   UNL     1      -8.251  15.623  66.093  1.00  0.00    -0.320 OA 
HETATM   50  H   UNL     1      -7.608  15.733  65.403  1.00  0.00     0.000 HD 
BRANCH  44  51
HETATM   51  N   UNL     1     -11.706  15.913  66.590  1.00  0.00     0.480 NA 
HETATM   52  C   UNL     1     -12.845  15.745  67.329  1.00  0.00     2.931 A  
HETATM   53  C   UNL     1     -13.076  14.585  65.546  1.00  0.00     0.152 A  
HETATM   54  N   UNL     1     -13.688  14.920  66.740  1.00  0.00     4.011 NA 
HETATM   55  C   UNL     1     -11.901  15.299  65.384  1.00  0.00     0.082 A  
HETATM   56  N   UNL     1     -11.059  15.279  64.336  1.00  0.00    -0.218 NA 
HETATM   57  C   UNL     1     -11.494  14.406  63.404  1.00  0.00     1.369 A  
HETATM   58  N   UNL     1     -12.571  13.592  63.455  1.00  0.00    -0.738 NA 
HETATM   59  C   UNL     1     -13.372  13.648  64.546  1.00  0.00     1.138 A  
HETATM   60  N   UNL     1     -14.407  12.733  64.646  1.00  0.00     2.796 NA 
HETATM   61  H2  UNL     1     -15.261  13.260  64.832  1.00  0.00     0.000 HD 
HETATM   62  H1  UNL     1     -14.623  12.051  63.918  1.00  0.00     0.000 HD 
ENDBRANCH  44  51
ENDBRANCH  41  42
ENDBRANCH  40  41
ENDBRANCH  37  40
ENDBRANCH  36  37
ENDBRANCH  33  36
ENDBRANCH  32  33
ENDBRANCH  31  32
ENDBRANCH  28  31
ENDBRANCH  25  28
ENDBRANCH  22  25
ENDBRANCH  21  22
ENDBRANCH   7  21
TORSDOF 13
ENDMDL
MODEL      108
REMARK 921   NORMALIZED FREE ENERGY PREDICTED BY IDOCK:   33.99 KCAL/MOL
REMARK 922        TOTAL FREE ENERGY PREDICTED BY IDOCK:   56.72 KCAL/MOL
REMARK 923 INTER-LIGAND FREE ENERGY PREDICTED BY IDOCK:   21.47 KCAL/MOL
REMARK 924 INTRA-LIGAND FREE ENERGY PREDICTED BY IDOCK:   35.25 KCAL/MOL
REMARK 927      BINDING AFFINITY PREDICTED BY RF-SCORE:    0.00 PKD
ROOT
HETATM    1  C   UNL     1      -7.451   9.763  64.388  1.00  0.00    -0.132 C  
HETATM    2  C   UNL     1      -8.045   8.975  65.521  1.00  0.00    -0.110 A  
HETATM    3  C   UNL     1      -7.186   8.392  66.467  1.00  0.00    -0.076 A  
HETATM    4  C   UNL     1      -7.679   7.774  67.620  1.00  0.00    -0.121 A  
HETATM    5  C   UNL     1      -9.059   7.820  67.898  1.00  0.00    -0.131 A  
HETATM    6  C   UNL     1      -9.920   8.282  66.890  1.00  0.00    -0.343 A  
HETATM    7  N   UNL     1      -9.525   7.369  69.153  1.00  0.00    -0.150 NA 
HETATM    8  H   UNL     1      -6.087   5.326  72.391  1.00  0.00     0.000 HD 
HETATM    9  C   UNL     1      -8.626   6.746  70.006  1.00  0.00    -0.141 A  
HETATM   10  C   UNL     1      -9.434   8.859  65.704  1.00  0.00    -0.230 A  
HETATM   11  C   UNL     1     -10.410   9.319  64.656  1.00  0.00     2.280 C  
HETATM   12  O   UNL     1      -5.331   5.129  69.947  1.00  0.00    -0.003 OA 
HETATM   13  N   UNL     1      -8.935   6.362  71.213  1.00  0.00    -0.142 N  
HETATM   14  H   UNL     1      -9.870   6.570  71.564  1.00  0.00     0.000 HD 
HETATM   15  C   UNL     1      -7.217   6.530  69.529  1.00  0.00    -0.082 A  
HETATM   16  C   UNL     1      -8.073   5.700  72.026  1.00  0.00    -0.112 C  
HETATM   17  C   UNL     1      -6.314   5.703  70.385  1.00  0.00    -0.031 C  
HETATM   18  N   UNL     1      -6.761   7.089  68.444  1.00  0.00    -0.061 NA 
HETATM   19  N   UNL     1      -6.766   5.556  71.664  1.00  0.00    -0.055 N  
HETATM   20  O   UNL     1      -8.447   5.174  73.071  1.00  0.00    -0.111 OA 
ENDROOT
BRANCH   7  21
HETATM   21  C   UNL     1     -10.670   8.087  69.747  1.00  0.00    -0.231 C  
BRANCH  21  22
HETATM   22  C   UNL     1     -10.284   8.792  71.064  1.00  0.00    -0.237 C  
HETATM   23  O   UNL     1     -11.473   8.977  71.836  1.00  0.00    -0.348 OA 
HETATM   24  H   UNL     1     -11.235   9.411  72.648  1.00  0.00     0.000 HD 
BRANCH  22  25
HETATM   25  C   UNL     1      -9.577  10.118  70.731  1.00  0.00     0.775 C  
HETATM   26  H   UNL     1     -10.135  11.972  70.581  1.00  0.00     0.000 HD 
HETATM   27  O   UNL     1     -10.571  11.153  70.787  1.00  0.00     1.148 OA 
BRANCH  25  28
HETATM   28  C   UNL     1      -8.871  10.152  69.354  1.00  0.00    -0.185 C  
HETATM   29  H   UNL     1      -8.297  11.515  68.039  1.00  0.00     0.000 HD 
HETATM   30  O   UNL     1      -8.730  11.495  68.884  1.00  0.00    -0.090 OA 
BRANCH  28  31
HETATM   31  C   UNL     1      -9.632   9.319  68.303  1.00  0.00    -0.147 C  
BRANCH  31  32
HETATM   32  O   UNL     1     -10.294  10.161  67.385  1.00  0.00    -0.207 OA 
BRANCH  32  33
HETATM   33  P   UNL     1     -11.720   9.706  66.811  1.00  0.00     4.682 P  
HETATM   34  O   UNL     1     -12.108   8.498  67.778  1.00  0.00     3.187 OA 
HETATM   35  O   UNL     1     -11.711   9.231  65.385  1.00  0.00     5.259 OA 
BRANCH  33  36
HETATM   36  O   UNL     1     -12.687  10.963  67.008  1.00  0.00     3.039 OA 
BRANCH  36  37
HETATM   37  P   UNL     1     -12.106  12.583  67.192  1.00  0.00     0.377 P  
HETATM   38  O   UNL     1     -12.863  13.033  65.818  1.00  0.00    -0.411 OA 
HETATM   39  O   UNL     1     -12.997  12.797  68.410  1.00  0.00     1.196 OA 
BRANCH  37  40
HETATM   40  O   UNL     1     -11.528  14.203  67.376  1.00  0.00    -0.310 OA 
BRANCH  40  41
HETATM   41  C   UNL     1     -12.339  15.026  68.213  1.00  0.00     0.242 C  
BRANCH  41  42
HETATM   42  C   UNL     1     -11.728  15.124  69.616  1.00  0.00    -0.327 C  
HETATM   43  O   UNL     1     -10.426  15.710  69.500  1.00  0.00    -0.229 OA 
HETATM   44  C   UNL     1     -10.213  16.569  70.629  1.00  0.00     1.153 C  
HETATM   45  C   UNL     1     -11.526  16.790  71.374  1.00  0.00     0.348 C  
HETATM   46  H   UNL     1     -13.863  15.677  72.027  1.00  0.00     0.000 HD 
HETATM   47  C   UNL     1     -12.547  15.975  70.584  1.00  0.00     0.042 C  
HETATM   48  O   UNL     1     -13.353  15.148  71.424  1.00  0.00    -0.395 OA 
HETATM   49  O   UNL     1     -11.466  16.331  72.737  1.00  0.00    -0.224 OA 
HETATM   50  H   UNL     1     -12.283  16.469  73.201  1.00  0.00     0.000 HD 
BRANCH  44  51
HETATM   51  N   UNL     1      -9.578  17.789  70.171  1.00  0.00     1.484 NA 
HETATM   52  C   UNL     1      -9.465  18.975  70.844  1.00  0.00     3.113 A  
HETATM   53  C   UNL     1      -9.234  19.410  68.762  1.00  0.00    -0.369 A  
HETATM   54  N   UNL     1      -9.285  19.986  70.018  1.00  0.00     0.692 NA 
HETATM   55  C   UNL     1      -9.285  18.029  68.857  1.00  0.00    -0.136 A  
HETATM   56  N   UNL     1      -9.213  17.128  67.863  1.00  0.00    -0.238 NA 
HETATM   57  C   UNL     1      -9.108  17.754  66.672  1.00  0.00    -0.266 A  
HETATM   58  N   UNL     1      -9.121  19.081  66.419  1.00  0.00    -0.333 NA 
HETATM   59  C   UNL     1      -9.211  19.939  67.464  1.00  0.00    -0.346 A  
HETATM   60  N   UNL     1      -9.339  21.290  67.193  1.00  0.00    -0.491 NA 
HETATM   61  H2  UNL     1      -8.624  21.778  67.732  1.00  0.00     0.000 HD 
HETATM   62  H1  UNL     1      -9.323  21.675  66.248  1.00  0.00     0.000 HD 
ENDBRANCH  44  51
ENDBRANCH  41  42
ENDBRANCH  40  41
ENDBRANCH  37  40
ENDBRANCH  36  37
ENDBRANCH  33  36
ENDBRANCH  32  33
ENDBRANCH  31  32
ENDBRANCH  28  31
ENDBRANCH  25  28
ENDBRANCH  22  25
ENDBRANCH  21  22
ENDBRANCH   7  21
TORSDOF 13
ENDMDL
MODEL      109
REMARK 921   NORMALIZED FREE ENERGY PREDICTED BY IDOCK:   41.59 KCAL/MOL
REMARK 922        TOTAL FREE ENERGY PREDICTED BY IDOCK:   70.10 KCAL/MOL
REMARK 923 INTER-LIGAND FREE ENERGY PREDICTED BY IDOCK:   24.51 KCAL/MOL
REMARK 924 INTRA-LIGAND FREE ENERGY PREDICTED BY IDOCK:   45.59 KCAL/MOL
REMARK 927      BINDING AFFINITY PREDICTED BY RF-SCORE:    0.00 PKD
ROOT
HETATM    1  C   UNL     1     -12.809  14.454  66.249  1.00  0.00     0.238 C  
HETATM    2  C   UNL     1     -12.345  13.050  66.520  1.00  0.00    -0.175 A  
HETATM    3  C   UNL     1     -11.858  12.278  65.453  1.00  0.00    -0.418 A  
HETATM    4  C   UNL     1     -11.277  11.023  65.663  1.00  0.00     0.169 A  
HETATM    5  C   UNL     1     -11.080  10.560  66.979  1.00  0.00    -0.110 A  
HETATM    6  C   UNL     1     -11.687  11.271  68.027  1.00  0.00    -0.305 A  
HETATM    7  N   UNL     1     -10.319   9.388  67.191  1.00  0.00    -0.251 NA 
HETATM    8  H   UNL     1      -8.660   6.829  63.047  1.00  0.00     0.000 HD 
HETATM    9  C   UNL     1      -9.931   8.645  66.086  1.00  0.00    -0.134 A  
HETATM   10  C   UNL     1     -12.317  12.510  67.817  1.00  0.00     0.435 A  
HETATM   11  C   UNL     1     -12.963  13.212  68.980  1.00  0.00     1.645 C  
HETATM   12  O   UNL     1     -10.753   8.221  62.534  1.00  0.00     7.097 OA 
HETATM   13  N   UNL     1      -9.165   7.593  66.167  1.00  0.00    -0.313 N  
HETATM   14  H   UNL     1      -8.798   7.329  67.081  1.00  0.00     0.000 HD 
HETATM   15  C   UNL     1     -10.387   9.092  64.725  1.00  0.00     2.445 A  
HETATM   16  C   UNL     1      -8.833   6.832  65.093  1.00  0.00     0.244 C  
HETATM   17  C   UNL     1     -10.110   8.186  63.570  1.00  0.00     6.229 C  
HETATM   18  N   UNL     1     -10.946  10.252  64.529  1.00  0.00     0.984 NA 
HETATM   19  N   UNL     1      -9.157   7.246  63.835  1.00  0.00     1.342 N  
HETATM   20  O   UNL     1      -8.284   5.741  65.222  1.00  0.00    -0.127 OA 
ENDROOT
BRANCH   7  21
HETATM   21  C   UNL     1      -9.473   9.341  68.399  1.00  0.00    -0.138 C  
BRANCH  21  22
HETATM   22  C   UNL     1      -8.318  10.362  68.330  1.00  0.00    -0.119 C  
HETATM   23  O   UNL     1      -8.849  11.657  68.617  1.00  0.00    -0.260 OA 
HETATM   24  H   UNL     1      -8.138  12.286  68.574  1.00  0.00     0.000 HD 
BRANCH  22  25
HETATM   25  C   UNL     1      -7.663  10.280  66.940  1.00  0.00    -0.105 C  
HETATM   26  H   UNL     1      -6.405   9.075  66.082  1.00  0.00     0.000 HD 
HETATM   27  O   UNL     1      -6.809   9.125  66.940  1.00  0.00    -0.078 OA 
BRANCH  25  28
HETATM   28  C   UNL     1      -6.845  11.529  66.530  1.00  0.00    -0.016 C  
HETATM   29  H   UNL     1      -5.058  11.922  65.773  1.00  0.00     0.000 HD 
HETATM   30  O   UNL     1      -5.560  11.156  66.024  1.00  0.00    -0.143 OA 
BRANCH  28  31
HETATM   31  C   UNL     1      -6.666  12.505  67.710  1.00  0.00    -0.123 C  
BRANCH  31  32
HETATM   32  O   UNL     1      -6.065  11.854  68.808  1.00  0.00    -0.051 OA 
BRANCH  32  33
HETATM   33  P   UNL     1      -6.352  12.409  70.285  1.00  0.00     0.564 P  
HETATM   34  O   UNL     1      -6.929  13.867  69.996  1.00  0.00     0.084 OA 
HETATM   35  O   UNL     1      -5.144  12.509  71.174  1.00  0.00    -0.133 OA 
BRANCH  33  36
HETATM   36  O   UNL     1      -7.461  11.438  70.903  1.00  0.00     2.105 OA 
BRANCH  36  37
HETATM   37  P   UNL     1      -8.730  10.732  69.964  1.00  0.00     1.574 P  
HETATM   38  O   UNL     1      -8.144   9.237  70.256  1.00  0.00    -0.116 OA 
HETATM   39  O   UNL     1      -9.767  11.133  71.006  1.00  0.00     3.343 OA 
BRANCH  37  40
HETATM   40  O   UNL     1     -10.000  10.024  69.026  1.00  0.00    -0.176 OA 
BRANCH  40  41
HETATM   41  C   UNL     1     -11.199   9.770  69.756  1.00  0.00    -0.202 C  
BRANCH  41  42
HETATM   42  C   UNL     1     -10.914   8.836  70.939  1.00  0.00    -0.262 C  
HETATM   43  O   UNL     1     -11.057   7.483  70.489  1.00  0.00    -0.253 OA 
HETATM   44  C   UNL     1     -10.060   6.682  71.136  1.00  0.00    -0.182 C  
HETATM   45  C   UNL     1      -9.030   7.578  71.820  1.00  0.00    -0.122 C  
HETATM   46  H   UNL     1      -8.672   9.916  73.055  1.00  0.00     0.000 HD 
HETATM   47  C   UNL     1      -9.513   8.995  71.523  1.00  0.00    -0.246 C  
HETATM   48  O   UNL     1      -9.544   9.817  72.691  1.00  0.00     2.181 OA 
HETATM   49  O   UNL     1      -8.970   7.357  73.241  1.00  0.00    -0.137 OA 
HETATM   50  H   UNL     1      -8.329   7.914  73.666  1.00  0.00     0.000 HD 
BRANCH  44  51
HETATM   51  N   UNL     1      -9.496   5.767  70.164  1.00  0.00    -0.156 NA 
HETATM   52  C   UNL     1      -9.261   5.999  68.836  1.00  0.00    -0.124 A  
HETATM   53  C   UNL     1      -9.371   3.878  69.093  1.00  0.00    -0.170 A  
HETATM   54  N   UNL     1      -9.209   4.875  68.149  1.00  0.00    -0.118 NA 
HETATM   55  C   UNL     1      -9.420   4.417  70.368  1.00  0.00    -0.175 A  
HETATM   56  N   UNL     1      -9.523   3.764  71.538  1.00  0.00    -0.139 NA 
HETATM   57  C   UNL     1      -9.608   2.435  71.326  1.00  0.00    -0.152 A  
HETATM   58  N   UNL     1      -9.648   1.774  70.148  1.00  0.00    -0.064 NA 
HETATM   59  C   UNL     1      -9.556   2.490  69.002  1.00  0.00     0.023 A  
HETATM   60  N   UNL     1      -9.713   1.824  67.799  1.00  0.00    -0.399 NA 
HETATM   61  H2  UNL     1      -8.912   2.062  67.213  1.00  0.00     0.000 HD 
HETATM   62  H1  UNL     1      -9.847   0.814  67.732  1.00  0.00     0.000 HD 
ENDBRANCH  44  51
ENDBRANCH  41  42
ENDBRANCH  40  41
ENDBRANCH  37  40
ENDBRANCH  36  37
ENDBRANCH  33  36
ENDBRANCH  32  33
ENDBRANCH  31  32
ENDBRANCH  28  31
ENDBRANCH  25  28
ENDBRANCH  22  25
ENDBRANCH  21  22
ENDBRANCH   7  21
TORSDOF 13
ENDMDL
MODEL      110
REMARK 921   NORMALIZED FREE ENERGY PREDICTED BY IDOCK:   41.84 KCAL/MOL
REMARK 922        TOTAL FREE ENERGY PREDICTED BY IDOCK:   70.52 KCAL/MOL
REMARK 923 INTER-LIGAND FREE ENERGY PREDICTED BY IDOCK:   22.53 KCAL/MOL
REMARK 924 INTRA-LIGAND FREE ENERGY PREDICTED BY IDOCK:   48.00 KCAL/MOL
REMARK 927      BINDING AFFINITY PREDICTED BY RF-SCORE:    0.00 PKD
ROOT
HETATM    1  C   UNL     1      -6.430  13.182  70.502  1.00  0.00     0.449 C  
HETATM    2  C   UNL     1      -6.926  12.241  69.439  1.00  0.00     0.067 A  
HETATM    3  C   UNL     1      -7.814  11.215  69.801  1.00  0.00     0.482 A  
HETATM    4  C   UNL     1      -8.423  10.402  68.840  1.00  0.00    -0.144 A  
HETATM    5  C   UNL     1      -8.227  10.676  67.472  1.00  0.00    -0.111 A  
HETATM    6  C   UNL     1      -7.239  11.610  67.122  1.00  0.00    -0.145 A  
HETATM    7  N   UNL     1      -8.995   9.980  66.512  1.00  0.00    -0.142 NA 
HETATM    8  H   UNL     1     -12.181   6.309  68.201  1.00  0.00     0.000 HD 
HETATM    9  C   UNL     1      -9.801   8.936  66.943  1.00  0.00    -0.223 A  
HETATM   10  C   UNL     1      -6.584  12.396  68.085  1.00  0.00    -0.073 A  
HETATM   11  C   UNL     1      -5.523  13.367  67.644  1.00  0.00    -0.033 C  
HETATM   12  O   UNL     1     -10.236   6.706  69.826  1.00  0.00    -0.178 OA 
HETATM   13  N   UNL     1     -10.604   8.281  66.153  1.00  0.00     0.118 N  
HETATM   14  H   UNL     1     -10.678   8.580  65.180  1.00  0.00     0.000 HD 
HETATM   15  C   UNL     1      -9.771   8.561  68.399  1.00  0.00    -0.155 A  
HETATM   16  C   UNL     1     -11.348   7.222  66.561  1.00  0.00     1.564 C  
HETATM   17  C   UNL     1     -10.505   7.327  68.811  1.00  0.00    -0.200 C  
HETATM   18  N   UNL     1      -9.187   9.305  69.293  1.00  0.00    -0.148 NA 
HETATM   19  N   UNL     1     -11.412   6.901  67.885  1.00  0.00     0.162 N  
HETATM   20  O   UNL     1     -11.937   6.500  65.760  1.00  0.00     3.347 OA 
ENDROOT
BRANCH   7  21
HETATM   21  C   UNL     1      -9.400  10.722  65.303  1.00  0.00    -0.210 C  
BRANCH  21  22
HETATM   22  C   UNL     1      -8.183  11.290  64.544  1.00  0.00     0.645 C  
HETATM   23  O   UNL     1      -8.386  11.072  63.146  1.00  0.00    -0.373 OA 
HETATM   24  H   UNL     1      -7.636  11.421  62.679  1.00  0.00     0.000 HD 
BRANCH  22  25
HETATM   25  C   UNL     1      -6.906  10.612  65.073  1.00  0.00     0.098 C  
HETATM   26  H   UNL     1      -5.052  11.150  65.285  1.00  0.00     0.000 HD 
HETATM   27  O   UNL     1      -5.840  11.568  64.959  1.00  0.00     0.501 OA 
BRANCH  25  28
HETATM   28  C   UNL     1      -6.510   9.307  64.341  1.00  0.00    -0.082 C  
HETATM   29  H   UNL     1      -7.394   7.928  63.229  1.00  0.00     0.000 HD 
HETATM   30  O   UNL     1      -7.638   8.729  63.679  1.00  0.00    -0.113 OA 
BRANCH  28  31
HETATM   31  C   UNL     1      -5.901   8.273  65.310  1.00  0.00    -0.044 C  
BRANCH  31  32
HETATM   32  O   UNL     1      -6.718   7.126  65.392  1.00  0.00    -0.049 OA 
BRANCH  32  33
HETATM   33  P   UNL     1      -6.043   5.724  65.776  1.00  0.00    -0.031 P  
HETATM   34  O   UNL     1      -5.131   6.114  67.024  1.00  0.00    -0.004 OA 
HETATM   35  O   UNL     1      -5.192   5.111  64.698  1.00  0.00    -0.009 OA 
BRANCH  33  36
HETATM   36  O   UNL     1      -7.249   4.762  66.193  1.00  0.00    -0.073 OA 
BRANCH  36  37
HETATM   37  P   UNL     1      -7.032   3.326  67.133  1.00  0.00    -0.059 P  
HETATM   38  O   UNL     1      -7.587   4.087  68.465  1.00  0.00    -0.058 OA 
HETATM   39  O   UNL     1      -8.160   2.628  66.384  1.00  0.00    -0.080 OA 
BRANCH  37  40
HETATM   40  O   UNL     1      -6.816   1.889  68.073  1.00  0.00    -0.035 OA 
BRANCH  40  41
HETATM   41  C   UNL     1      -5.754   1.961  69.023  1.00  0.00    -0.022 C  
BRANCH  41  42
HETATM   42  C   UNL     1      -6.012   3.094  70.024  1.00  0.00    -0.023 C  
HETATM   43  O   UNL     1      -6.830   4.082  69.386  1.00  0.00    -0.043 OA 
HETATM   44  C   UNL     1      -7.750   4.604  70.353  1.00  0.00    -0.054 C  
HETATM   45  C   UNL     1      -7.742   3.732  71.607  1.00  0.00    -0.061 C  
HETATM   46  H   UNL     1      -6.229   2.167  73.149  1.00  0.00     0.000 HD 
HETATM   47  C   UNL     1      -6.724   2.640  71.296  1.00  0.00    -0.031 C  
HETATM   48  O   UNL     1      -5.786   2.450  72.357  1.00  0.00    -0.008 OA 
HETATM   49  O   UNL     1      -7.348   4.466  72.781  1.00  0.00    -0.073 OA 
HETATM   50  H   UNL     1      -7.344   3.924  73.561  1.00  0.00     0.000 HD 
BRANCH  44  51
HETATM   51  N   UNL     1      -9.053   4.737  69.733  1.00  0.00    -0.102 NA 
HETATM   52  C   UNL     1     -10.279   4.604  70.326  1.00  0.00    -0.135 A  
HETATM   53  C   UNL     1     -10.560   4.301  68.227  1.00  0.00     1.088 A  
HETATM   54  N   UNL     1     -11.214   4.309  69.445  1.00  0.00     3.677 NA 
HETATM   55  C   UNL     1      -9.241   4.694  68.379  1.00  0.00    -0.128 A  
HETATM   56  N   UNL     1      -8.310   4.853  67.423  1.00  0.00    -0.106 NA 
HETATM   57  C   UNL     1      -8.822   4.538  66.215  1.00  0.00    -0.113 A  
HETATM   58  N   UNL     1     -10.056   4.072  65.923  1.00  0.00    -0.138 NA 
HETATM   59  C   UNL     1     -10.945   3.919  66.933  1.00  0.00     2.931 A  
HETATM   60  N   UNL     1     -12.167   3.334  66.647  1.00  0.00    11.208 NA 
HETATM   61  H2  UNL     1     -12.892   3.953  67.010  1.00  0.00     0.000 HD 
HETATM   62  H1  UNL     1     -12.448   3.057  65.706  1.00  0.00     0.000 HD 
ENDBRANCH  44  51
ENDBRANCH  41  42
ENDBRANCH  40  41
ENDBRANCH  37  40
ENDBRANCH  36  37
ENDBRANCH  33  36
ENDBRANCH  32  33
ENDBRANCH  31  32
ENDBRANCH  28  31
ENDBRANCH  25  28
ENDBRANCH  22  25
ENDBRANCH  21  22
ENDBRANCH   7  21
TORSDOF 13
ENDMDL
MODEL      111
REMARK 921   NORMALIZED FREE ENERGY PREDICTED BY IDOCK:   43.69 KCAL/MOL
REMARK 922        TOTAL FREE ENERGY PREDICTED BY IDOCK:   73.78 KCAL/MOL
REMARK 923 INTER-LIGAND FREE ENERGY PREDICTED BY IDOCK:   25.96 KCAL/MOL
REMARK 924 INTRA-LIGAND FREE ENERGY PREDICTED BY IDOCK:   47.82 KCAL/MOL
REMARK 927      BINDING AFFINITY PREDICTED BY RF-SCORE:    0.00 PKD
ROOT
HETATM    1  C   UNL     1     -11.800  11.773  72.057  1.00  0.00     2.521 C  
HETATM    2  C   UNL     1     -12.052  11.876  70.579  1.00  0.00    -0.422 A  
HETATM    3  C   UNL     1     -12.302  13.138  70.018  1.00  0.00    -0.241 A  
HETATM    4  C   UNL     1     -12.398  13.318  68.634  1.00  0.00     0.116 A  
HETATM    5  C   UNL     1     -12.139  12.234  67.772  1.00  0.00     0.037 A  
HETATM    6  C   UNL     1     -12.023  10.954  68.339  1.00  0.00    -0.081 A  
HETATM    7  N   UNL     1     -12.043  12.466  66.382  1.00  0.00    -0.614 NA 
HETATM    8  H   UNL     1     -12.986  17.229  64.679  1.00  0.00     0.000 HD 
HETATM    9  C   UNL     1     -12.370  13.725  65.900  1.00  0.00    -0.476 A  
HETATM   10  C   UNL     1     -11.977  10.758  69.730  1.00  0.00    -0.397 A  
HETATM   11  C   UNL     1     -11.868   9.359  70.271  1.00  0.00    -0.063 C  
HETATM   12  O   UNL     1     -14.150  16.768  66.919  1.00  0.00     8.555 OA 
HETATM   13  N   UNL     1     -12.243  14.064  64.647  1.00  0.00    -0.493 N  
HETATM   14  H   UNL     1     -11.843  13.386  63.999  1.00  0.00     0.000 HD 
HETATM   15  C   UNL     1     -12.863  14.760  66.872  1.00  0.00     1.314 A  
HETATM   16  C   UNL     1     -12.618  15.276  64.164  1.00  0.00     0.267 C  
HETATM   17  C   UNL     1     -13.376  16.046  66.313  1.00  0.00     5.247 C  
HETATM   18  N   UNL     1     -12.794  14.587  68.160  1.00  0.00     0.952 NA 
HETATM   19  N   UNL     1     -12.993  16.268  65.022  1.00  0.00     2.732 N  
HETATM   20  O   UNL     1     -12.678  15.498  62.958  1.00  0.00     1.197 OA 
ENDROOT
BRANCH   7  21
HETATM   21  C   UNL     1     -11.064  11.660  65.628  1.00  0.00    -0.249 C  
BRANCH  21  22
HETATM   22  C   UNL     1     -11.001  12.075  64.143  1.00  0.00    -0.360 C  
HETATM   23  O   UNL     1     -10.426  10.997  63.402  1.00  0.00    -0.484 OA 
HETATM   24  H   UNL     1     -10.387  11.253  62.487  1.00  0.00     0.000 HD 
BRANCH  22  25
HETATM   25  C   UNL     1     -10.190  13.378  64.025  1.00  0.00     0.288 C  
HETATM   26  H   UNL     1      -8.735  13.994  62.896  1.00  0.00     0.000 HD 
HETATM   27  O   UNL     1      -9.236  13.190  62.969  1.00  0.00     2.906 OA 
BRANCH  25  28
HETATM   28  C   UNL     1      -9.454  13.807  65.318  1.00  0.00     0.356 C  
HETATM   29  H   UNL     1      -7.587  14.091  65.911  1.00  0.00     0.000 HD 
HETATM   30  O   UNL     1      -8.038  13.827  65.118  1.00  0.00     4.175 OA 
BRANCH  28  31
HETATM   31  C   UNL     1      -9.791  12.878  66.500  1.00  0.00    -0.254 C  
BRANCH  31  32
HETATM   32  O   UNL     1      -9.963  13.622  67.686  1.00  0.00    -0.231 OA 
BRANCH  32  33
HETATM   33  P   UNL     1     -10.061  12.839  69.081  1.00  0.00     0.652 P  
HETATM   34  O   UNL     1     -10.799  11.488  68.664  1.00  0.00    -0.190 OA 
HETATM   35  O   UNL     1     -10.852  13.538  70.151  1.00  0.00     0.391 OA 
BRANCH  33  36
HETATM   36  O   UNL     1      -8.552  12.580  69.539  1.00  0.00     1.034 OA 
BRANCH  36  37
HETATM   37  P   UNL     1      -7.683  11.132  69.159  1.00  0.00     0.047 P  
HETATM   38  O   UNL     1      -9.059  10.259  69.239  1.00  0.00    -0.182 OA 
HETATM   39  O   UNL     1      -7.423  11.625  67.740  1.00  0.00    -0.099 OA 
BRANCH  37  40
HETATM   40  O   UNL     1      -6.815   9.685  68.777  1.00  0.00    -0.051 OA 
BRANCH  40  41
HETATM   41  C   UNL     1      -6.308   8.986  69.912  1.00  0.00    -0.038 C  
BRANCH  41  42
HETATM   42  C   UNL     1      -6.055   7.514  69.562  1.00  0.00    -0.031 C  
HETATM   43  O   UNL     1      -6.346   6.720  70.718  1.00  0.00    -0.041 OA 
HETATM   44  C   UNL     1      -6.956   5.497  70.286  1.00  0.00    -0.061 C  
HETATM   45  C   UNL     1      -7.350   5.599  68.815  1.00  0.00    -0.083 C  
HETATM   46  H   UNL     1      -6.701   6.690  66.467  1.00  0.00     0.000 HD 
HETATM   47  C   UNL     1      -6.912   7.003  68.407  1.00  0.00    -0.076 C  
HETATM   48  O   UNL     1      -6.168   7.009  67.187  1.00  0.00    -0.040 OA 
HETATM   49  O   UNL     1      -6.690   4.612  68.002  1.00  0.00    -0.051 OA 
HETATM   50  H   UNL     1      -6.935   4.675  67.086  1.00  0.00     0.000 HD 
BRANCH  44  51
HETATM   51  N   UNL     1      -8.058   5.187  71.175  1.00  0.00    -0.105 NA 
HETATM   52  C   UNL     1      -8.952   4.156  71.069  1.00  0.00    -0.109 A  
HETATM   53  C   UNL     1      -9.862   5.655  72.296  1.00  0.00    -0.159 A  
HETATM   54  N   UNL     1     -10.072   4.418  71.714  1.00  0.00    -0.184 NA 
HETATM   55  C   UNL     1      -8.564   6.084  72.075  1.00  0.00    -0.136 A  
HETATM   56  N   UNL     1      -7.977   7.207  72.521  1.00  0.00    -0.095 NA 
HETATM   57  C   UNL     1      -8.855   7.942  73.234  1.00  0.00    -0.250 A  
HETATM   58  N   UNL     1     -10.162   7.691  73.469  1.00  0.00    -0.323 NA 
HETATM   59  C   UNL     1     -10.700   6.548  72.979  1.00  0.00    -0.263 A  
HETATM   60  N   UNL     1     -12.062   6.351  73.124  1.00  0.00     0.106 NA 
HETATM   61  H2  UNL     1     -12.193   5.430  73.544  1.00  0.00     0.000 HD 
HETATM   62  H1  UNL     1     -12.672   7.001  73.621  1.00  0.00     0.000 HD 
ENDBRANCH  44  51
ENDBRANCH  41  42
ENDBRANCH  40  41
ENDBRANCH  37  40
ENDBRANCH  36  37
ENDBRANCH  33  36
ENDBRANCH  32  33
ENDBRANCH  31  32
ENDBRANCH  28  31
ENDBRANCH  25  28
ENDBRANCH  22  25
ENDBRANCH  21  22
ENDBRANCH   7  21
TORSDOF 13
ENDMDL
MODEL      112
REMARK 921   NORMALIZED FREE ENERGY PREDICTED BY IDOCK:   49.84 KCAL/MOL
REMARK 922        TOTAL FREE ENERGY PREDICTED BY IDOCK:   84.62 KCAL/MOL
REMARK 923 INTER-LIGAND FREE ENERGY PREDICTED BY IDOCK:   54.61 KCAL/MOL
REMARK 924 INTRA-LIGAND FREE ENERGY PREDICTED BY IDOCK:   30.01 KCAL/MOL
REMARK 927      BINDING AFFINITY PREDICTED BY RF-SCORE:    0.00 PKD
ROOT
HETATM    1  C   UNL     1      -6.251  21.335  66.206  1.00  0.00    -0.285 C  
HETATM    2  C   UNL     1      -6.091  20.113  67.068  1.00  0.00    -0.205 A  
HETATM    3  C   UNL     1      -6.111  20.260  68.464  1.00  0.00    -0.327 A  
HETATM    4  C   UNL     1      -6.115  19.151  69.316  1.00  0.00    -0.260 A  
HETATM    5  C   UNL     1      -6.204  17.855  68.770  1.00  0.00    -0.205 A  
HETATM    6  C   UNL     1      -6.049  17.712  67.382  1.00  0.00    -0.165 A  
HETATM    7  N   UNL     1      -6.406  16.755  69.634  1.00  0.00    -0.228 NA 
HETATM    8  H   UNL     1      -6.463  17.667  74.697  1.00  0.00     0.000 HD 
HETATM    9  C   UNL     1      -6.347  16.972  71.002  1.00  0.00     1.773 A  
HETATM   10  C   UNL     1      -5.993  18.822  66.522  1.00  0.00    -0.180 A  
HETATM   11  C   UNL     1      -5.809  18.600  65.045  1.00  0.00    -0.280 C  
HETATM   12  O   UNL     1      -5.130  19.450  73.422  1.00  0.00     4.020 OA 
HETATM   13  N   UNL     1      -6.593  16.043  71.884  1.00  0.00     2.995 N  
HETATM   14  H   UNL     1      -6.887  15.125  71.551  1.00  0.00     0.000 HD 
HETATM   15  C   UNL     1      -6.014  18.352  71.496  1.00  0.00     0.940 A  
HETATM   16  C   UNL     1      -6.478  16.240  73.222  1.00  0.00     5.363 C  
HETATM   17  C   UNL     1      -5.780  18.526  72.961  1.00  0.00     4.136 C  
HETATM   18  N   UNL     1      -5.990  19.384  70.702  1.00  0.00    -0.173 NA 
HETATM   19  N   UNL     1      -6.258  17.493  73.713  1.00  0.00     6.341 N  
HETATM   20  O   UNL     1      -6.516  15.303  74.016  1.00  0.00     2.201 OA 
ENDROOT
BRANCH   7  21
HETATM   21  C   UNL     1      -7.249  15.651  69.136  1.00  0.00    -0.178 C  
BRANCH  21  22
HETATM   22  C   UNL     1      -8.469  15.404  70.047  1.00  0.00     0.380 C  
HETATM   23  O   UNL     1      -8.326  14.116  70.647  1.00  0.00     1.658 OA 
HETATM   24  H   UNL     1      -9.078  13.964  71.209  1.00  0.00     0.000 HD 
BRANCH  22  25
HETATM   25  C   UNL     1      -9.752  15.531  69.206  1.00  0.00    -0.272 C  
HETATM   26  H   UNL     1     -11.236  14.354  68.778  1.00  0.00     0.000 HD 
HETATM   27  O   UNL     1     -10.445  14.276  69.297  1.00  0.00    -0.199 OA 
BRANCH  25  28
HETATM   28  C   UNL     1      -9.523  15.888  67.717  1.00  0.00    -0.216 C  
HETATM   29  H   UNL     1     -10.560  16.675  66.226  1.00  0.00     0.000 HD 
HETATM   30  O   UNL     1     -10.701  16.456  67.140  1.00  0.00    -0.307 OA 
BRANCH  28  31
HETATM   31  C   UNL     1      -9.093  14.657  66.896  1.00  0.00    -0.252 C  
BRANCH  31  32
HETATM   32  O   UNL     1      -9.853  14.557  65.712  1.00  0.00    -0.316 OA 
BRANCH  32  33
HETATM   33  P   UNL     1      -9.086  14.419  64.311  1.00  0.00     7.565 P  
HETATM   34  O   UNL     1      -8.169  13.136  64.549  1.00  0.00     4.397 OA 
HETATM   35  O   UNL     1      -8.225  15.594  63.938  1.00  0.00    10.752 OA 
BRANCH  33  36
HETATM   36  O   UNL     1     -10.221  14.149  63.220  1.00  0.00     2.878 OA 
BRANCH  36  37
HETATM   37  P   UNL     1     -11.202  12.724  63.208  1.00  0.00     0.501 P  
HETATM   38  O   UNL     1      -9.893  11.799  62.905  1.00  0.00    -0.350 OA 
HETATM   39  O   UNL     1     -11.456  12.849  64.706  1.00  0.00    -0.302 OA 
BRANCH  37  40
HETATM   40  O   UNL     1     -12.183  11.299  63.198  1.00  0.00     0.033 OA 
BRANCH  40  41
HETATM   41  C   UNL     1     -11.542  10.140  63.730  1.00  0.00     4.874 C  
BRANCH  41  42
HETATM   42  C   UNL     1     -10.681  10.517  64.942  1.00  0.00     0.124 C  
HETATM   43  O   UNL     1      -9.870   9.387  65.287  1.00  0.00    -0.231 OA 
HETATM   44  C   UNL     1      -8.586   9.864  65.710  1.00  0.00    -0.139 C  
HETATM   45  C   UNL     1      -8.435  11.342  65.361  1.00  0.00     0.224 C  
HETATM   46  H   UNL     1      -9.750  13.646  65.067  1.00  0.00     0.000 HD 
HETATM   47  C   UNL     1      -9.757  11.706  64.693  1.00  0.00    -0.185 C  
HETATM   48  O   UNL     1     -10.325  12.905  65.222  1.00  0.00    -0.291 OA 
HETATM   49  O   UNL     1      -8.221  12.160  66.526  1.00  0.00    -0.375 OA 
HETATM   50  H   UNL     1      -8.126  13.080  66.310  1.00  0.00     0.000 HD 
BRANCH  44  51
HETATM   51  N   UNL     1      -7.562   9.012  65.137  1.00  0.00    -0.096 NA 
HETATM   52  C   UNL     1      -7.087   9.025  63.853  1.00  0.00    -0.092 A  
HETATM   53  C   UNL     1      -6.640   7.098  64.671  1.00  0.00    -0.040 A  
HETATM   54  N   UNL     1      -6.547   7.868  63.526  1.00  0.00    -0.066 NA 
HETATM   55  C   UNL     1      -7.153   7.844  65.719  1.00  0.00    -0.060 A  
HETATM   56  N   UNL     1      -7.346   7.459  66.991  1.00  0.00    -0.094 NA 
HETATM   57  C   UNL     1      -6.990   6.167  67.147  1.00  0.00    -0.068 A  
HETATM   58  N   UNL     1      -6.549   5.299  66.210  1.00  0.00    -0.051 NA 
HETATM   59  C   UNL     1      -6.390   5.745  64.940  1.00  0.00    -0.037 A  
HETATM   60  N   UNL     1      -6.048   4.827  63.962  1.00  0.00    -0.021 NA 
HETATM   61  H2  UNL     1      -5.233   5.195  63.471  1.00  0.00     0.000 HD 
HETATM   62  H1  UNL     1      -5.866   3.842  64.158  1.00  0.00     0.000 HD 
ENDBRANCH  44  51
ENDBRANCH  41  42
ENDBRANCH  40  41
ENDBRANCH  37  40
ENDBRANCH  36  37
ENDBRANCH  33  36
ENDBRANCH  32  33
ENDBRANCH  31  32
ENDBRANCH  28  31
ENDBRANCH  25  28
ENDBRANCH  22  25
ENDBRANCH  21  22
ENDBRANCH   7  21
TORSDOF 13
ENDMDL
MODEL      113
REMARK 921   NORMALIZED FREE ENERGY PREDICTED BY IDOCK:   50.69 KCAL/MOL
REMARK 922        TOTAL FREE ENERGY PREDICTED BY IDOCK:   86.10 KCAL/MOL
REMARK 923 INTER-LIGAND FREE ENERGY PREDICTED BY IDOCK:   52.99 KCAL/MOL
REMARK 924 INTRA-LIGAND FREE ENERGY PREDICTED BY IDOCK:   33.11 KCAL/MOL
REMARK 927      BINDING AFFINITY PREDICTED BY RF-SCORE:    0.00 PKD
ROOT
HETATM    1  C   UNL     1      -6.251  21.335  66.206  1.00  0.00    -0.285 C  
HETATM    2  C   UNL     1      -6.091  20.113  67.068  1.00  0.00    -0.205 A  
HETATM    3  C   UNL     1      -6.111  20.260  68.464  1.00  0.00    -0.327 A  
HETATM    4  C   UNL     1      -6.115  19.151  69.316  1.00  0.00    -0.260 A  
HETATM    5  C   UNL     1      -6.204  17.855  68.770  1.00  0.00    -0.205 A  
HETATM    6  C   UNL     1      -6.049  17.712  67.382  1.00  0.00    -0.165 A  
HETATM    7  N   UNL     1      -6.406  16.755  69.634  1.00  0.00    -0.228 NA 
HETATM    8  H   UNL     1      -6.463  17.667  74.697  1.00  0.00     0.000 HD 
HETATM    9  C   UNL     1      -6.347  16.972  71.002  1.00  0.00     1.773 A  
HETATM   10  C   UNL     1      -5.993  18.822  66.522  1.00  0.00    -0.180 A  
HETATM   11  C   UNL     1      -5.809  18.600  65.045  1.00  0.00    -0.280 C  
HETATM   12  O   UNL     1      -5.130  19.450  73.422  1.00  0.00     4.020 OA 
HETATM   13  N   UNL     1      -6.593  16.043  71.884  1.00  0.00     2.995 N  
HETATM   14  H   UNL     1      -6.887  15.125  71.551  1.00  0.00     0.000 HD 
HETATM   15  C   UNL     1      -6.014  18.352  71.496  1.00  0.00     0.940 A  
HETATM   16  C   UNL     1      -6.478  16.240  73.222  1.00  0.00     5.363 C  
HETATM   17  C   UNL     1      -5.780  18.526  72.961  1.00  0.00     4.136 C  
HETATM   18  N   UNL     1      -5.990  19.384  70.702  1.00  0.00    -0.173 NA 
HETATM   19  N   UNL     1      -6.258  17.493  73.713  1.00  0.00     6.341 N  
HETATM   20  O   UNL     1      -6.516  15.303  74.016  1.00  0.00     2.201 OA 
ENDROOT
BRANCH   7  21
HETATM   21  C   UNL     1      -7.249  15.651  69.136  1.00  0.00    -0.178 C  
BRANCH  21  22
HETATM   22  C   UNL     1      -8.469  15.404  70.047  1.00  0.00     0.380 C  
HETATM   23  O   UNL     1      -8.326  14.116  70.647  1.00  0.00     1.658 OA 
HETATM   24  H   UNL     1      -9.078  13.964  71.209  1.00  0.00     0.000 HD 
BRANCH  22  25
HETATM   25  C   UNL     1      -9.752  15.531  69.206  1.00  0.00    -0.272 C  
HETATM   26  H   UNL     1     -11.236  14.354  68.778  1.00  0.00     0.000 HD 
HETATM   27  O   UNL     1     -10.445  14.276  69.297  1.00  0.00    -0.199 OA 
BRANCH  25  28
HETATM   28  C   UNL     1      -9.523  15.888  67.717  1.00  0.00    -0.216 C  
HETATM   29  H   UNL     1     -10.560  16.675  66.226  1.00  0.00     0.000 HD 
HETATM   30  O   UNL     1     -10.701  16.456  67.140  1.00  0.00    -0.307 OA 
BRANCH  28  31
HETATM   31  C   UNL     1      -9.093  14.657  66.896  1.00  0.00    -0.252 C  
BRANCH  31  32
HETATM   32  O   UNL     1      -9.853  14.557  65.712  1.00  0.00    -0.316 OA 
BRANCH  32  33
HETATM   33  P   UNL     1      -9.086  14.419  64.311  1.00  0.00     7.565 P  
HETATM   34  O   UNL     1      -8.169  13.136  64.549  1.00  0.00     4.397 OA 
HETATM   35  O   UNL     1      -8.225  15.594  63.938  1.00  0.00    10.752 OA 
BRANCH  33  36
HETATM   36  O   UNL     1     -10.221  14.149  63.220  1.00  0.00     2.878 OA 
BRANCH  36  37
HETATM   37  P   UNL     1     -11.202  12.724  63.208  1.00  0.00     0.501 P  
HETATM   38  O   UNL     1     -10.077  11.916  64.070  1.00  0.00    -0.299 OA 
HETATM   39  O   UNL     1     -12.228  13.385  64.121  1.00  0.00    -0.485 OA 
BRANCH  37  40
HETATM   40  O   UNL     1     -12.184  11.299  63.198  1.00  0.00     0.033 OA 
BRANCH  40  41
HETATM   41  C   UNL     1     -12.103  10.520  64.390  1.00  0.00     3.941 C  
BRANCH  41  42
HETATM   42  C   UNL     1     -12.023  11.434  65.619  1.00  0.00     0.894 C  
HETATM   43  O   UNL     1     -11.693  10.630  66.758  1.00  0.00     0.047 OA 
HETATM   44  C   UNL     1     -10.813  11.381  67.605  1.00  0.00    -0.237 C  
HETATM   45  C   UNL     1     -10.306  12.618  66.867  1.00  0.00    -0.233 C  
HETATM   46  H   UNL     1     -10.927  14.456  65.035  1.00  0.00     0.000 HD 
HETATM   47  C   UNL     1     -10.973  12.536  65.497  1.00  0.00    -0.287 C  
HETATM   48  O   UNL     1     -11.580  13.770  65.111  1.00  0.00    -0.315 OA 
HETATM   49  O   UNL     1     -10.674  13.840  67.532  1.00  0.00    -0.253 OA 
HETATM   50  H   UNL     1     -10.358  14.610  67.073  1.00  0.00     0.000 HD 
BRANCH  44  51
HETATM   51  N   UNL     1      -9.763  10.503  68.081  1.00  0.00    -0.151 NA 
HETATM   52  C   UNL     1      -8.657  10.076  67.397  1.00  0.00    -0.125 A  
HETATM   53  C   UNL     1      -8.992   8.681  68.985  1.00  0.00    -0.142 A  
HETATM   54  N   UNL     1      -8.180   8.955  67.900  1.00  0.00    -0.110 NA 
HETATM   55  C   UNL     1      -9.901   9.707  69.184  1.00  0.00    -0.186 A  
HETATM   56  N   UNL     1     -10.817   9.821  70.160  1.00  0.00    -0.268 NA 
HETATM   57  C   UNL     1     -10.777   8.742  70.968  1.00  0.00    -0.229 A  
HETATM   58  N   UNL     1     -10.004   7.639  70.856  1.00  0.00    -0.181 NA 
HETATM   59  C   UNL     1      -9.110   7.576  69.841  1.00  0.00    -0.144 A  
HETATM   60  N   UNL     1      -8.403   6.400  69.663  1.00  0.00    -0.125 NA 
HETATM   61  H2  UNL     1      -7.413   6.644  69.617  1.00  0.00     0.000 HD 
HETATM   62  H1  UNL     1      -8.488   5.596  70.286  1.00  0.00     0.000 HD 
ENDBRANCH  44  51
ENDBRANCH  41  42
ENDBRANCH  40  41
ENDBRANCH  37  40
ENDBRANCH  36  37
ENDBRANCH  33  36
ENDBRANCH  32  33
ENDBRANCH  31  32
ENDBRANCH  28  31
ENDBRANCH  25  28
ENDBRANCH  22  25
ENDBRANCH  21  22
ENDBRANCH   7  21
TORSDOF 13
ENDMDL
MODEL      114
REMARK 921   NORMALIZED FREE ENERGY PREDICTED BY IDOCK:   54.49 KCAL/MOL
REMARK 922        TOTAL FREE ENERGY PREDICTED BY IDOCK:   92.79 KCAL/MOL
REMARK 923 INTER-LIGAND FREE ENERGY PREDICTED BY IDOCK:   13.03 KCAL/MOL
REMARK 924 INTRA-LIGAND FREE ENERGY PREDICTED BY IDOCK:   79.76 KCAL/MOL
REMARK 927      BINDING AFFINITY PREDICTED BY RF-SCORE:    0.00 PKD
ROOT
HETATM    1  C   UNL     1      -6.440  13.181  70.501  1.00  0.00     0.449 C  
HETATM    2  C   UNL     1      -7.029  12.311  69.426  1.00  0.00     0.067 A  
HETATM    3  C   UNL     1      -7.967  11.330  69.784  1.00  0.00     0.712 A  
HETATM    4  C   UNL     1      -8.658  10.591  68.817  1.00  0.00    -0.146 A  
HETATM    5  C   UNL     1      -8.490  10.901  67.453  1.00  0.00    -0.120 A  
HETATM    6  C   UNL     1      -7.457  11.785  67.100  1.00  0.00    -0.149 A  
HETATM    7  N   UNL     1      -9.332  10.289  66.498  1.00  0.00    -0.163 NA 
HETATM    8  H   UNL     1     -12.685   6.764  68.171  1.00  0.00     0.000 HD 
HETATM    9  C   UNL     1     -10.186   9.282  66.921  1.00  0.00    -0.256 A  
HETATM   10  C   UNL     1      -6.723  12.494  68.066  1.00  0.00    -0.090 A  
HETATM   11  C   UNL     1      -5.618  13.412  67.622  1.00  0.00    -0.050 C  
HETATM   12  O   UNL     1     -10.667   6.981  69.740  1.00  0.00    -0.225 OA 
HETATM   13  N   UNL     1     -11.055   8.707  66.137  1.00  0.00     1.210 N  
HETATM   14  H   UNL     1     -11.142   9.045  65.179  1.00  0.00     0.000 HD 
HETATM   15  C   UNL     1     -10.133   8.854  68.361  1.00  0.00    -0.189 A  
HETATM   16  C   UNL     1     -11.851   7.682  66.536  1.00  0.00     4.562 C  
HETATM   17  C   UNL     1     -10.929   7.653  68.757  1.00  0.00     0.117 C  
HETATM   18  N   UNL     1      -9.474   9.528  69.259  1.00  0.00    -0.161 NA 
HETATM   19  N   UNL     1     -11.891   7.318  67.849  1.00  0.00     1.396 N  
HETATM   20  O   UNL     1     -12.510   7.028  65.731  1.00  0.00     6.533 OA 
ENDROOT
BRANCH   7  21
HETATM   21  C   UNL     1      -9.728  11.099  65.329  1.00  0.00    -0.241 C  
BRANCH  21  22
HETATM   22  C   UNL     1      -8.504  11.581  64.523  1.00  0.00     0.782 C  
HETATM   23  O   UNL     1      -8.800  11.436  63.133  1.00  0.00    -0.470 OA 
HETATM   24  H   UNL     1      -8.045  11.733  62.636  1.00  0.00     0.000 HD 
BRANCH  22  25
HETATM   25  C   UNL     1      -7.270  10.770  64.958  1.00  0.00     0.205 C  
HETATM   26  H   UNL     1      -5.363  11.121  65.065  1.00  0.00     0.000 HD 
HETATM   27  O   UNL     1      -6.125  11.621  64.798  1.00  0.00     1.220 OA 
BRANCH  25  28
HETATM   28  C   UNL     1      -7.049   9.451  64.178  1.00  0.00    -0.102 C  
HETATM   29  H   UNL     1      -8.116   8.221  63.053  1.00  0.00     0.000 HD 
HETATM   30  O   UNL     1      -8.253   9.030  63.532  1.00  0.00    -0.160 OA 
BRANCH  28  31
HETATM   31  C   UNL     1      -6.541   8.324  65.098  1.00  0.00    -0.055 C  
BRANCH  31  32
HETATM   32  O   UNL     1      -7.508   7.303  65.216  1.00  0.00    -0.079 OA 
BRANCH  32  33
HETATM   33  P   UNL     1      -7.095   5.927  65.927  1.00  0.00    -0.077 P  
HETATM   34  O   UNL     1      -6.820   6.388  67.429  1.00  0.00    -0.064 OA 
HETATM   35  O   UNL     1      -5.867   5.264  65.368  1.00  0.00    -0.020 OA 
BRANCH  33  36
HETATM   36  O   UNL     1      -8.378   4.981  65.817  1.00  0.00    -0.112 OA 
BRANCH  36  37
HETATM   37  P   UNL     1      -8.627   3.603  66.833  1.00  0.00    -0.124 P  
HETATM   38  O   UNL     1      -9.705   4.433  67.733  1.00  0.00    -0.166 OA 
HETATM   39  O   UNL     1      -9.314   2.852  65.699  1.00  0.00    -0.144 OA 
BRANCH  37  40
HETATM   40  O   UNL     1      -8.877   2.224  67.848  1.00  0.00    -0.102 OA 
BRANCH  40  41
HETATM   41  C   UNL     1      -8.616   2.456  69.231  1.00  0.00    -0.072 C  
BRANCH  41  42
HETATM   42  C   UNL     1      -7.503   3.499  69.395  1.00  0.00    -0.048 C  
HETATM   43  O   UNL     1      -6.580   3.347  68.310  1.00  0.00    -0.036 OA 
HETATM   44  C   UNL     1      -6.125   4.647  67.914  1.00  0.00    -0.031 C  
HETATM   45  C   UNL     1      -6.991   5.724  68.563  1.00  0.00    -0.068 C  
HETATM   46  H   UNL     1      -8.437   6.334  70.722  1.00  0.00     0.000 HD 
HETATM   47  C   UNL     1      -8.006   4.940  69.390  1.00  0.00    -0.074 C  
HETATM   48  O   UNL     1      -8.124   5.437  70.725  1.00  0.00    -0.106 OA 
HETATM   49  O   UNL     1      -6.228   6.604  69.410  1.00  0.00    -0.031 OA 
HETATM   50  H   UNL     1      -6.767   7.274  69.813  1.00  0.00     0.000 HD 
BRANCH  44  51
HETATM   51  N   UNL     1      -6.090   4.708  66.467  1.00  0.00    -0.030 NA 
HETATM   52  C   UNL     1      -6.522   5.728  65.663  1.00  0.00    -0.043 A  
HETATM   53  C   UNL     1      -6.480   3.956  64.464  1.00  0.00    -0.042 A  
HETATM   54  N   UNL     1      -6.797   5.302  64.446  1.00  0.00    -0.047 NA 
HETATM   55  C   UNL     1      -5.917   3.604  65.679  1.00  0.00    -0.023 A  
HETATM   56  N   UNL     1      -5.442   2.404  66.054  1.00  0.00    -0.015 NA 
HETATM   57  C   UNL     1      -5.610   1.505  65.062  1.00  0.00    -0.005 A  
HETATM   58  N   UNL     1      -6.205   1.681  63.862  1.00  0.00    -0.013 NA 
HETATM   59  C   UNL     1      -6.678   2.911  63.549  1.00  0.00    -0.031 A  
HETATM   60  N   UNL     1      -7.387   3.060  62.370  1.00  0.00    -0.039 NA 
HETATM   61  H2  UNL     1      -6.967   3.836  61.858  1.00  0.00     0.000 HD 
HETATM   62  H1  UNL     1      -7.531   2.300  61.704  1.00  0.00     0.000 HD 
ENDBRANCH  44  51
ENDBRANCH  41  42
ENDBRANCH  40  41
ENDBRANCH  37  40
ENDBRANCH  36  37
ENDBRANCH  33  36
ENDBRANCH  32  33
ENDBRANCH  31  32
ENDBRANCH  28  31
ENDBRANCH  25  28
ENDBRANCH  22  25
ENDBRANCH  21  22
ENDBRANCH   7  21
TORSDOF 13
ENDMDL
MODEL      115
REMARK 921   NORMALIZED FREE ENERGY PREDICTED BY IDOCK:   61.67 KCAL/MOL
REMARK 922        TOTAL FREE ENERGY PREDICTED BY IDOCK:  105.43 KCAL/MOL
REMARK 923 INTER-LIGAND FREE ENERGY PREDICTED BY IDOCK:   94.90 KCAL/MOL
REMARK 924 INTRA-LIGAND FREE ENERGY PREDICTED BY IDOCK:   10.52 KCAL/MOL
REMARK 927      BINDING AFFINITY PREDICTED BY RF-SCORE:    0.00 PKD
ROOT
HETATM    1  C   UNL     1     -11.105  11.028  71.746  1.00  0.00     3.454 C  
HETATM    2  C   UNL     1     -10.227  11.284  70.553  1.00  0.00     2.205 A  
HETATM    3  C   UNL     1     -10.815  11.743  69.364  1.00  0.00    -0.120 A  
HETATM    4  C   UNL     1     -10.038  12.138  68.270  1.00  0.00    -0.210 A  
HETATM    5  C   UNL     1      -8.635  12.176  68.390  1.00  0.00    -0.141 A  
HETATM    6  C   UNL     1      -8.055  11.592  69.528  1.00  0.00     0.696 A  
HETATM    7  N   UNL     1      -7.869  12.760  67.356  1.00  0.00    -0.173 NA 
HETATM    8  H   UNL     1     -10.360  14.372  63.152  1.00  0.00     0.000 HD 
HETATM    9  C   UNL     1      -8.515  13.128  66.185  1.00  0.00     0.839 A  
HETATM   10  C   UNL     1      -8.830  11.145  70.611  1.00  0.00     4.084 A  
HETATM   11  C   UNL     1      -8.146  10.514  71.793  1.00  0.00     5.579 C  
HETATM   12  O   UNL     1     -11.650  12.521  64.374  1.00  0.00    -0.323 OA 
HETATM   13  N   UNL     1      -7.917  13.742  65.203  1.00  0.00     5.249 N  
HETATM   14  H   UNL     1      -6.938  14.004  65.319  1.00  0.00     0.000 HD 
HETATM   15  C   UNL     1      -9.984  12.836  66.053  1.00  0.00    -0.271 A  
HETATM   16  C   UNL     1      -8.534  14.050  64.034  1.00  0.00     9.794 C  
HETATM   17  C   UNL     1     -10.621  13.076  64.724  1.00  0.00    -0.362 C  
HETATM   18  N   UNL     1     -10.706  12.449  67.065  1.00  0.00    -0.235 NA 
HETATM   19  N   UNL     1      -9.880  13.876  63.904  1.00  0.00     1.821 N  
HETATM   20  O   UNL     1      -7.902  14.441  63.055  1.00  0.00    15.676 OA 
ENDROOT
BRANCH   7  21
HETATM   21  C   UNL     1      -6.656  13.502  67.749  1.00  0.00    -0.170 C  
BRANCH  21  22
HETATM   22  C   UNL     1      -6.933  15.012  67.907  1.00  0.00    -0.156 C  
HETATM   23  O   UNL     1      -5.759  15.725  67.511  1.00  0.00    -0.206 OA 
HETATM   24  H   UNL     1      -5.930  16.655  67.609  1.00  0.00     0.000 HD 
BRANCH  22  25
HETATM   25  C   UNL     1      -7.338  15.294  69.365  1.00  0.00    -0.207 C  
HETATM   26  H   UNL     1      -9.007  15.259  70.358  1.00  0.00     0.000 HD 
HETATM   27  O   UNL     1      -8.756  15.085  69.458  1.00  0.00    -0.166 OA 
BRANCH  25  28
HETATM   28  C   UNL     1      -6.990  16.713  69.875  1.00  0.00     0.347 C  
HETATM   29  H   UNL     1      -5.421  17.647  70.641  1.00  0.00     0.000 HD 
HETATM   30  O   UNL     1      -5.634  16.776  70.328  1.00  0.00    -0.207 OA 
BRANCH  28  31
HETATM   31  C   UNL     1      -7.930  17.155  71.014  1.00  0.00     6.269 C  
BRANCH  31  32
HETATM   32  O   UNL     1      -9.056  16.308  71.088  1.00  0.00     3.510 OA 
BRANCH  32  33
HETATM   33  P   UNL     1     -10.387  16.855  71.796  1.00  0.00     5.118 P  
HETATM   34  O   UNL     1     -10.595  15.811  72.983  1.00  0.00     1.953 OA 
HETATM   35  O   UNL     1     -11.609  16.877  70.921  1.00  0.00     0.205 OA 
BRANCH  33  36
HETATM   36  O   UNL     1     -10.022  18.313  72.337  1.00  0.00     5.457 OA 
BRANCH  36  37
HETATM   37  P   UNL     1     -10.058  19.728  71.343  1.00  0.00     3.915 P  
HETATM   38  O   UNL     1     -11.457  19.239  70.660  1.00  0.00     4.563 OA 
HETATM   39  O   UNL     1     -10.314  20.612  72.557  1.00  0.00     3.716 OA 
BRANCH  37  40
HETATM   40  O   UNL     1     -10.095  21.144  70.349  1.00  0.00     1.428 OA 
BRANCH  40  41
HETATM   41  C   UNL     1      -9.104  21.169  69.323  1.00  0.00     2.754 C  
BRANCH  41  42
HETATM   42  C   UNL     1      -8.431  19.796  69.199  1.00  0.00     0.057 C  
HETATM   43  O   UNL     1      -9.430  18.837  68.833  1.00  0.00    -0.336 OA 
HETATM   44  C   UNL     1      -8.844  17.896  67.923  1.00  0.00    -0.260 C  
HETATM   45  C   UNL     1      -7.491  18.410  67.439  1.00  0.00    -0.218 C  
HETATM   46  H   UNL     1      -5.349  19.850  68.118  1.00  0.00     0.000 HD 
HETATM   47  C   UNL     1      -7.322  19.749  68.152  1.00  0.00    -0.303 C  
HETATM   48  O   UNL     1      -6.040  19.880  68.769  1.00  0.00    -0.244 OA 
HETATM   49  O   UNL     1      -6.413  17.520  67.782  1.00  0.00    -0.150 OA 
HETATM   50  H   UNL     1      -5.571  17.839  67.480  1.00  0.00     0.000 HD 
BRANCH  44  51
HETATM   51  N   UNL     1      -9.791  17.626  66.859  1.00  0.00    -0.293 NA 
HETATM   52  C   UNL     1     -10.267  18.502  65.922  1.00  0.00    -0.240 A  
HETATM   53  C   UNL     1     -11.671  16.893  66.049  1.00  0.00     1.773 A  
HETATM   54  N   UNL     1     -11.423  18.104  65.430  1.00  0.00     0.869 NA 
HETATM   55  C   UNL     1     -10.599  16.523  66.844  1.00  0.00    -0.238 A  
HETATM   56  N   UNL     1     -10.452  15.397  67.562  1.00  0.00    -0.269 NA 
HETATM   57  C   UNL     1     -11.548  14.620  67.442  1.00  0.00    -0.389 A  
HETATM   58  N   UNL     1     -12.691  14.879  66.770  1.00  0.00     0.693 NA 
HETATM   59  C   UNL     1     -12.784  16.040  66.078  1.00  0.00     3.004 A  
HETATM   60  N   UNL     1     -13.996  16.354  65.486  1.00  0.00     5.761 NA 
HETATM   61  H2  UNL     1     -13.808  16.576  64.508  1.00  0.00     0.000 HD 
HETATM   62  H1  UNL     1     -14.806  15.733  65.506  1.00  0.00     0.000 HD 
ENDBRANCH  44  51
ENDBRANCH  41  42
ENDBRANCH  40  41
ENDBRANCH  37  40
ENDBRANCH  36  37
ENDBRANCH  33  36
ENDBRANCH  32  33
ENDBRANCH  31  32
ENDBRANCH  28  31
ENDBRANCH  25  28
ENDBRANCH  22  25
ENDBRANCH  21  22
ENDBRANCH   7  21
TORSDOF 13
ENDMDL
MODEL      116
REMARK 921   NORMALIZED FREE ENERGY PREDICTED BY IDOCK:   71.41 KCAL/MOL
REMARK 922        TOTAL FREE ENERGY PREDICTED BY IDOCK:  122.57 KCAL/MOL
REMARK 923 INTER-LIGAND FREE ENERGY PREDICTED BY IDOCK:   -0.59 KCAL/MOL
REMARK 924 INTRA-LIGAND FREE ENERGY PREDICTED BY IDOCK:  123.16 KCAL/MOL
REMARK 927      BINDING AFFINITY PREDICTED BY RF-SCORE:    0.00 PKD
ROOT
HETATM    1  C   UNL     1     -13.567  15.289  71.691  1.00  0.00    -0.586 C  
HETATM    2  C   UNL     1     -12.479  14.881  70.736  1.00  0.00    -0.401 A  
HETATM    3  C   UNL     1     -12.130  13.525  70.644  1.00  0.00    -0.386 A  
HETATM    4  C   UNL     1     -11.234  13.064  69.674  1.00  0.00    -0.010 A  
HETATM    5  C   UNL     1     -10.744  13.956  68.700  1.00  0.00    -0.260 A  
HETATM    6  C   UNL     1     -10.990  15.327  68.879  1.00  0.00    -0.261 A  
HETATM    7  N   UNL     1     -10.000  13.449  67.612  1.00  0.00    -0.225 NA 
HETATM    8  H   UNL     1      -8.938   8.415  67.578  1.00  0.00     0.000 HD 
HETATM    9  C   UNL     1      -9.639  12.110  67.627  1.00  0.00    -0.190 A  
HETATM   10  C   UNL     1     -11.850  15.804  69.883  1.00  0.00    -0.355 A  
HETATM   11  C   UNL     1     -12.056  17.286  70.031  1.00  0.00     3.834 C  
HETATM   12  O   UNL     1      -9.340   9.289  69.956  1.00  0.00    -0.177 OA 
HETATM   13  N   UNL     1      -9.020  11.526  66.639  1.00  0.00    -0.180 N  
HETATM   14  H   UNL     1      -8.831  12.069  65.797  1.00  0.00     0.000 HD 
HETATM   15  C   UNL     1     -10.008  11.281  68.825  1.00  0.00    -0.193 A  
HETATM   16  C   UNL     1      -8.615  10.231  66.678  1.00  0.00    -0.127 C  
HETATM   17  C   UNL     1      -9.460   9.894  68.904  1.00  0.00    -0.170 C  
HETATM   18  N   UNL     1     -10.827  11.714  69.741  1.00  0.00     0.048 NA 
HETATM   19  N   UNL     1      -8.999   9.425  67.708  1.00  0.00    -0.123 N  
HETATM   20  O   UNL     1      -7.861   9.766  65.827  1.00  0.00    -0.104 OA 
ENDROOT
BRANCH   7  21
HETATM   21  C   UNL     1     -10.176  14.112  66.305  1.00  0.00    -0.295 C  
BRANCH  21  22
HETATM   22  C   UNL     1      -9.849  15.618  66.377  1.00  0.00    -0.274 C  
HETATM   23  O   UNL     1     -10.065  16.184  65.083  1.00  0.00    -0.503 OA 
HETATM   24  H   UNL     1      -9.864  17.112  65.127  1.00  0.00     0.000 HD 
BRANCH  22  25
HETATM   25  C   UNL     1      -8.401  15.791  66.869  1.00  0.00    -0.248 C  
HETATM   26  H   UNL     1      -6.945  17.007  66.454  1.00  0.00     0.000 HD 
HETATM   27  O   UNL     1      -7.839  16.901  66.151  1.00  0.00    -0.309 OA 
BRANCH  25  28
HETATM   28  C   UNL     1      -7.498  14.546  66.687  1.00  0.00     1.102 C  
HETATM   29  H   UNL     1      -7.728  12.592  66.472  1.00  0.00     0.000 HD 
HETATM   30  O   UNL     1      -8.283  13.355  66.583  1.00  0.00     0.080 OA 
BRANCH  28  31
HETATM   31  C   UNL     1      -6.493  14.398  67.846  1.00  0.00    -0.164 C  
BRANCH  31  32
HETATM   32  O   UNL     1      -5.908  13.114  67.837  1.00  0.00    -0.106 OA 
BRANCH  32  33
HETATM   33  P   UNL     1      -6.779  11.866  68.341  1.00  0.00    -0.080 P  
HETATM   34  O   UNL     1      -6.701  12.013  69.927  1.00  0.00    -0.022 OA 
HETATM   35  O   UNL     1      -6.256  10.517  67.932  1.00  0.00    -0.057 OA 
BRANCH  33  36
HETATM   36  O   UNL     1      -8.257  12.117  67.788  1.00  0.00    -0.134 OA 
BRANCH  36  37
HETATM   37  P   UNL     1      -9.115  10.966  66.824  1.00  0.00    -0.159 P  
HETATM   38  O   UNL     1     -10.409  11.957  66.752  1.00  0.00    -0.204 OA 
HETATM   39  O   UNL     1      -8.173  11.200  65.650  1.00  0.00    -0.088 OA 
BRANCH  37  40
HETATM   40  O   UNL     1      -9.973   9.815  65.858  1.00  0.00    -0.269 OA 
BRANCH  40  41
HETATM   41  C   UNL     1      -9.151   8.800  65.282  1.00  0.00    -0.096 C  
BRANCH  41  42
HETATM   42  C   UNL     1      -8.104   8.323  66.297  1.00  0.00    -0.109 C  
HETATM   43  O   UNL     1      -8.791   7.740  67.411  1.00  0.00    -0.126 OA 
HETATM   44  C   UNL     1      -8.033   6.614  67.872  1.00  0.00    -0.113 C  
HETATM   45  C   UNL     1      -6.954   6.257  66.853  1.00  0.00    -0.071 C  
HETATM   46  H   UNL     1      -5.302   7.249  65.006  1.00  0.00     0.000 HD 
HETATM   47  C   UNL     1      -7.137   7.283  65.739  1.00  0.00    -0.065 C  
HETATM   48  O   UNL     1      -5.905   7.896  65.354  1.00  0.00    -0.037 OA 
HETATM   49  O   UNL     1      -5.628   6.348  67.406  1.00  0.00    -0.008 OA 
HETATM   50  H   UNL     1      -4.956   6.125  66.772  1.00  0.00     0.000 HD 
BRANCH  44  51
HETATM   51  N   UNL     1      -8.947   5.530  68.172  1.00  0.00    -0.108 NA 
HETATM   52  C   UNL     1     -10.313   5.546  68.107  1.00  0.00    -0.176 A  
HETATM   53  C   UNL     1      -9.766   3.946  69.417  1.00  0.00    -0.102 A  
HETATM   54  N   UNL     1     -10.846   4.616  68.875  1.00  0.00     0.964 NA 
HETATM   55  C   UNL     1      -8.580   4.422  68.886  1.00  0.00    -0.084 A  
HETATM   56  N   UNL     1      -7.331   3.990  69.132  1.00  0.00    -0.054 NA 
HETATM   57  C   UNL     1      -7.352   2.991  70.038  1.00  0.00    -0.044 A  
HETATM   58  N   UNL     1      -8.415   2.476  70.693  1.00  0.00    -0.049 NA 
HETATM   59  C   UNL     1      -9.647   2.965  70.413  1.00  0.00    -0.086 A  
HETATM   60  N   UNL     1     -10.718   2.516  71.167  1.00  0.00     1.373 NA 
HETATM   61  H2  UNL     1     -11.438   2.202  70.516  1.00  0.00     0.000 HD 
HETATM   62  H1  UNL     1     -10.631   1.802  71.891  1.00  0.00     0.000 HD 
ENDBRANCH  44  51
ENDBRANCH  41  42
ENDBRANCH  40  41
ENDBRANCH  37  40
ENDBRANCH  36  37
ENDBRANCH  33  36
ENDBRANCH  32  33
ENDBRANCH  31  32
ENDBRANCH  28  31
ENDBRANCH  25  28
ENDBRANCH  22  25
ENDBRANCH  21  22
ENDBRANCH   7  21
TORSDOF 13
ENDMDL
