MODEL        1
REMARK 921   NORMALIZED FREE ENERGY PREDICTED BY IDOCK:   -7.73 KCAL/MOL
REMARK 922        TOTAL FREE ENERGY PREDICTED BY IDOCK:  -12.79 KCAL/MOL
REMARK 923 INTER-LIGAND FREE ENERGY PREDICTED BY IDOCK:  -10.44 KCAL/MOL
REMARK 924 INTRA-LIGAND FREE ENERGY PREDICTED BY IDOCK:   -2.34 KCAL/MOL
REMARK 927      BINDING AFFINITY PREDICTED BY RF-SCORE:    0.00 PKD
ROOT
HETATM    1  C   UNL     1     -12.778   8.468  72.579  1.00  0.00    -0.329 C  
HETATM    2  C   UNL     1     -12.246   9.343  71.480  1.00  0.00    -0.448 A  
HETATM    3  C   UNL     1     -12.669  10.667  71.369  1.00  0.00    -0.545 A  
HETATM    4  C   UNL     1     -12.095  11.519  70.416  1.00  0.00    -0.382 A  
HETATM    5  C   UNL     1     -11.174  11.023  69.463  1.00  0.00    -0.279 A  
HETATM    6  C   UNL     1     -10.949   9.656  69.443  1.00  0.00    -0.215 A  
HETATM    7  N   UNL     1     -10.449  11.908  68.626  1.00  0.00    -0.216 NA 
HETATM    8  H   UNL     1     -11.677  16.906  68.881  1.00  0.00     0.000 HD 
HETATM    9  C   UNL     1     -11.284   8.893  70.565  1.00  0.00    -0.287 A  
HETATM   10  C   UNL     1     -10.741  13.265  68.740  1.00  0.00    -0.227 A  
HETATM   11  C   UNL     1     -10.265   7.842  70.912  1.00  0.00    -0.213 C  
HETATM   12  C   UNL     1     -12.203  15.151  69.760  1.00  0.00    -0.289 C  
HETATM   13  N   UNL     1     -10.096  14.169  68.070  1.00  0.00    -0.228 N  
HETATM   14  H   UNL     1      -9.351  13.877  67.437  1.00  0.00     0.000 HD 
HETATM   15  N   UNL     1     -12.443  12.870  70.493  1.00  0.00    -0.265 NA 
HETATM   16  C   UNL     1     -10.383  15.496  68.183  1.00  0.00    -0.237 C  
HETATM   17  N   UNL     1     -11.438  15.916  68.939  1.00  0.00    -0.371 N  
HETATM   18  O   UNL     1     -13.078  15.593  70.485  1.00  0.00    -0.436 OA 
HETATM   19  C   UNL     1     -11.834  13.698  69.703  1.00  0.00    -0.335 A  
HETATM   20  O   UNL     1      -9.707  16.349  67.617  1.00  0.00    -0.234 OA 
ENDROOT
BRANCH   7  21
HETATM   21  C   UNL     1      -9.066  11.495  68.200  1.00  0.00    -0.181 C  
BRANCH  21  22
HETATM   22  C   UNL     1      -8.917  11.414  66.666  1.00  0.00    -0.181 C  
HETATM   23  O   UNL     1      -8.684  12.719  66.139  1.00  0.00    -0.408 OA 
HETATM   24  H   UNL     1      -8.592  12.669  65.195  1.00  0.00     0.000 HD 
BRANCH  22  25
HETATM   25  C   UNL     1     -10.098  10.740  65.927  1.00  0.00    -0.256 C  
HETATM   26  O   UNL     1     -10.242   9.386  66.409  1.00  0.00    -0.268 OA 
HETATM   27  H   UNL     1     -10.967   8.973  65.956  1.00  0.00     0.000 HD 
BRANCH  25  28
HETATM   28  C   UNL     1     -10.083  10.698  64.380  1.00  0.00    -0.349 C  
HETATM   29  O   UNL     1      -8.751  11.048  63.928  1.00  0.00    -0.359 OA 
HETATM   30  H   UNL     1      -8.742  11.021  62.979  1.00  0.00     0.000 HD 
BRANCH  28  31
HETATM   31  C   UNL     1     -11.082  11.617  63.663  1.00  0.00    -0.425 C  
BRANCH  31  32
HETATM   32  O   UNL     1     -11.897  12.224  64.674  1.00  0.00    -0.363 OA 
HETATM   33  P   UNL     1     -12.008  13.818  64.697  1.00  0.00    -0.448 P  
HETATM   34  O   UNL     1     -10.523  14.348  64.948  1.00  0.00    -0.415 OA 
HETATM   35  O   UNL     1     -12.753  14.176  66.060  1.00  0.00    -0.469 OA 
HETATM   36  O   UNL     1     -12.644  14.461  63.515  1.00  0.00    -0.784 OA 
ENDBRANCH  31  32
ENDBRANCH  28  31
ENDBRANCH  25  28
ENDBRANCH  22  25
ENDBRANCH  21  22
ENDBRANCH   7  21
TORSDOF 6
ENDMDL
MODEL        2
REMARK 921   NORMALIZED FREE ENERGY PREDICTED BY IDOCK:   -7.47 KCAL/MOL
REMARK 922        TOTAL FREE ENERGY PREDICTED BY IDOCK:  -12.43 KCAL/MOL
REMARK 923 INTER-LIGAND FREE ENERGY PREDICTED BY IDOCK:  -10.65 KCAL/MOL
REMARK 924 INTRA-LIGAND FREE ENERGY PREDICTED BY IDOCK:   -1.77 KCAL/MOL
REMARK 927      BINDING AFFINITY PREDICTED BY RF-SCORE:    0.00 PKD
ROOT
HETATM    1  C   UNL     1     -11.658   5.818  72.813  1.00  0.00    -0.266 C  
HETATM    2  C   UNL     1     -11.606   7.018  71.911  1.00  0.00    -0.320 A  
HETATM    3  C   UNL     1     -12.319   8.171  72.235  1.00  0.00    -0.371 A  
HETATM    4  C   UNL     1     -12.186   9.330  71.457  1.00  0.00    -0.362 A  
HETATM    5  C   UNL     1     -11.436   9.314  70.257  1.00  0.00    -0.162 A  
HETATM    6  C   UNL     1     -10.934   8.095  69.834  1.00  0.00    -0.168 A  
HETATM    7  N   UNL     1     -11.142  10.519  69.571  1.00  0.00    -0.249 NA 
HETATM    8  H   UNL     1     -13.318  14.830  71.366  1.00  0.00     0.000 HD 
HETATM    9  C   UNL     1     -10.818   7.047  70.752  1.00  0.00    -0.272 A  
HETATM   10  C   UNL     1     -11.683  11.691  70.093  1.00  0.00    -0.296 A  
HETATM   11  C   UNL     1      -9.544   6.260  70.618  1.00  0.00    -0.189 C  
HETATM   12  C   UNL     1     -13.228  12.853  71.824  1.00  0.00    -0.384 C  
HETATM   13  N   UNL     1     -11.428  12.856  69.584  1.00  0.00    -0.462 N  
HETATM   14  H   UNL     1     -10.811  12.916  68.774  1.00  0.00     0.000 HD 
HETATM   15  N   UNL     1     -12.789  10.489  71.953  1.00  0.00    -0.442 NA 
HETATM   16  C   UNL     1     -11.958  14.002  70.097  1.00  0.00    -0.330 C  
HETATM   17  N   UNL     1     -12.865  13.952  71.114  1.00  0.00    -0.349 N  
HETATM   18  O   UNL     1     -13.977  12.878  72.786  1.00  0.00    -0.510 OA 
HETATM   19  C   UNL     1     -12.580  11.599  71.316  1.00  0.00    -0.320 A  
HETATM   20  O   UNL     1     -11.637  15.105  69.667  1.00  0.00    -0.272 OA 
ENDROOT
BRANCH   7  21
HETATM   21  C   UNL     1      -9.846  10.592  68.809  1.00  0.00    -0.191 C  
BRANCH  21  22
HETATM   22  C   UNL     1     -10.013  10.232  67.318  1.00  0.00    -0.190 C  
HETATM   23  O   UNL     1      -8.800   9.665  66.825  1.00  0.00    -0.133 OA 
HETATM   24  H   UNL     1      -8.902   9.444  65.907  1.00  0.00     0.000 HD 
BRANCH  22  25
HETATM   25  C   UNL     1     -10.469  11.398  66.409  1.00  0.00    -0.254 C  
HETATM   26  O   UNL     1     -11.823  11.762  66.757  1.00  0.00    -0.586 OA 
HETATM   27  H   UNL     1     -12.102  12.478  66.199  1.00  0.00     0.000 HD 
BRANCH  25  28
HETATM   28  C   UNL     1     -10.402  11.216  64.873  1.00  0.00    -0.313 C  
HETATM   29  O   UNL     1      -9.015  11.315  64.463  1.00  0.00    -0.381 OA 
HETATM   30  H   UNL     1      -8.974  11.203  63.521  1.00  0.00     0.000 HD 
BRANCH  28  31
HETATM   31  C   UNL     1     -11.215  12.209  64.032  1.00  0.00    -0.390 C  
BRANCH  31  32
HETATM   32  O   UNL     1     -10.691  13.516  64.300  1.00  0.00    -0.403 OA 
HETATM   33  P   UNL     1     -11.706  14.652  64.782  1.00  0.00    -0.388 P  
HETATM   34  O   UNL     1     -12.749  14.830  63.587  1.00  0.00    -0.713 OA 
HETATM   35  O   UNL     1     -10.877  16.014  64.742  1.00  0.00    -0.587 OA 
HETATM   36  O   UNL     1     -12.380  14.435  66.091  1.00  0.00    -0.401 OA 
ENDBRANCH  31  32
ENDBRANCH  28  31
ENDBRANCH  25  28
ENDBRANCH  22  25
ENDBRANCH  21  22
ENDBRANCH   7  21
TORSDOF 6
ENDMDL
MODEL        3
REMARK 921   NORMALIZED FREE ENERGY PREDICTED BY IDOCK:   -7.26 KCAL/MOL
REMARK 922        TOTAL FREE ENERGY PREDICTED BY IDOCK:  -12.15 KCAL/MOL
REMARK 923 INTER-LIGAND FREE ENERGY PREDICTED BY IDOCK:  -10.39 KCAL/MOL
REMARK 924 INTRA-LIGAND FREE ENERGY PREDICTED BY IDOCK:   -1.76 KCAL/MOL
REMARK 927      BINDING AFFINITY PREDICTED BY RF-SCORE:    0.00 PKD
ROOT
HETATM    1  C   UNL     1     -11.588   8.136  72.267  1.00  0.00    -0.436 C  
HETATM    2  C   UNL     1     -11.352   9.063  71.109  1.00  0.00    -0.375 A  
HETATM    3  C   UNL     1     -10.581   8.650  70.024  1.00  0.00    -0.233 A  
HETATM    4  C   UNL     1     -10.450   9.468  68.893  1.00  0.00    -0.216 A  
HETATM    5  C   UNL     1     -10.983  10.779  68.881  1.00  0.00    -0.241 A  
HETATM    6  C   UNL     1     -11.539  11.252  70.058  1.00  0.00    -0.404 A  
HETATM    7  N   UNL     1     -11.021  11.535  67.683  1.00  0.00    -0.226 NA 
HETATM    8  H   UNL     1      -8.711   9.499  63.552  1.00  0.00     0.000 HD 
HETATM    9  C   UNL     1     -11.925  10.341  71.046  1.00  0.00    -0.483 A  
HETATM   10  C   UNL     1     -10.449  10.957  66.553  1.00  0.00    -0.253 A  
HETATM   11  C   UNL     1     -13.238  10.674  71.700  1.00  0.00    -0.495 C  
HETATM   12  C   UNL     1      -9.098   9.015  65.487  1.00  0.00    -0.214 C  
HETATM   13  N   UNL     1     -10.483  11.531  65.391  1.00  0.00    -0.272 N  
HETATM   14  H   UNL     1     -10.943  12.437  65.301  1.00  0.00     0.000 HD 
HETATM   15  N   UNL     1      -9.814   8.905  67.784  1.00  0.00    -0.158 NA 
HETATM   16  C   UNL     1      -9.922  10.962  64.286  1.00  0.00    -0.333 C  
HETATM   17  N   UNL     1      -9.211   9.804  64.388  1.00  0.00    -0.257 N  
HETATM   18  O   UNL     1      -8.524   7.939  65.499  1.00  0.00    -0.141 OA 
HETATM   19  C   UNL     1      -9.787   9.595  66.687  1.00  0.00    -0.224 A  
HETATM   20  O   UNL     1     -10.041  11.469  63.176  1.00  0.00    -0.363 OA 
ENDROOT
BRANCH   7  21
HETATM   21  C   UNL     1     -12.154  12.510  67.507  1.00  0.00    -0.055 C  
BRANCH  21  22
HETATM   22  C   UNL     1     -11.662  13.955  67.273  1.00  0.00    -0.386 C  
HETATM   23  O   UNL     1     -12.074  14.781  68.360  1.00  0.00    -0.545 OA 
HETATM   24  H   UNL     1     -11.772  15.670  68.216  1.00  0.00     0.000 HD 
BRANCH  22  25
HETATM   25  C   UNL     1     -12.092  14.584  65.927  1.00  0.00    -0.280 C  
HETATM   26  O   UNL     1     -12.825  13.601  65.162  1.00  0.00    -0.687 OA 
HETATM   27  H   UNL     1     -13.089  13.988  64.336  1.00  0.00     0.000 HD 
BRANCH  25  28
HETATM   28  C   UNL     1     -11.006  15.192  65.007  1.00  0.00    -0.430 C  
HETATM   29  O   UNL     1     -10.533  14.154  64.113  1.00  0.00    -0.520 OA 
HETATM   30  H   UNL     1      -9.867  14.528  63.548  1.00  0.00     0.000 HD 
BRANCH  28  31
HETATM   31  C   UNL     1      -9.786  15.806  65.706  1.00  0.00    -0.337 C  
BRANCH  31  32
HETATM   32  O   UNL     1      -9.970  17.228  65.703  1.00  0.00    -0.553 OA 
HETATM   33  P   UNL     1      -9.944  17.995  67.105  1.00  0.00    -0.360 P  
HETATM   34  O   UNL     1     -11.159  17.393  67.946  1.00  0.00    -0.256 OA 
HETATM   35  O   UNL     1     -10.427  19.482  66.790  1.00  0.00    -0.417 OA 
HETATM   36  O   UNL     1      -8.663  17.962  67.861  1.00  0.00    -0.243 OA 
ENDBRANCH  31  32
ENDBRANCH  28  31
ENDBRANCH  25  28
ENDBRANCH  22  25
ENDBRANCH  21  22
ENDBRANCH   7  21
TORSDOF 6
ENDMDL
MODEL        4
REMARK 921   NORMALIZED FREE ENERGY PREDICTED BY IDOCK:   -7.25 KCAL/MOL
REMARK 922        TOTAL FREE ENERGY PREDICTED BY IDOCK:  -12.14 KCAL/MOL
REMARK 923 INTER-LIGAND FREE ENERGY PREDICTED BY IDOCK:  -10.83 KCAL/MOL
REMARK 924 INTRA-LIGAND FREE ENERGY PREDICTED BY IDOCK:   -1.31 KCAL/MOL
REMARK 927      BINDING AFFINITY PREDICTED BY RF-SCORE:    0.00 PKD
ROOT
HETATM    1  C   UNL     1      -9.246   7.320  66.317  1.00  0.00    -0.175 C  
HETATM    2  C   UNL     1      -9.810   8.701  66.495  1.00  0.00    -0.348 A  
HETATM    3  C   UNL     1     -10.535   9.020  67.641  1.00  0.00    -0.324 A  
HETATM    4  C   UNL     1     -10.968  10.335  67.865  1.00  0.00    -0.292 A  
HETATM    5  C   UNL     1     -10.796  11.332  66.875  1.00  0.00    -0.282 A  
HETATM    6  C   UNL     1     -10.286  10.934  65.650  1.00  0.00    -0.323 A  
HETATM    7  N   UNL     1     -11.056  12.694  67.166  1.00  0.00    -0.268 NA 
HETATM    8  H   UNL     1     -13.093  13.759  71.777  1.00  0.00     0.000 HD 
HETATM    9  C   UNL     1      -9.596   9.721  65.559  1.00  0.00    -0.348 A  
HETATM   10  C   UNL     1     -11.550  12.986  68.435  1.00  0.00    -0.335 A  
HETATM   11  C   UNL     1      -8.364   9.787  64.697  1.00  0.00    -0.165 C  
HETATM   12  C   UNL     1     -12.434  12.150  70.727  1.00  0.00    -0.271 C  
HETATM   13  N   UNL     1     -11.763  14.202  68.830  1.00  0.00    -0.313 N  
HETATM   14  H   UNL     1     -11.564  14.971  68.191  1.00  0.00     0.000 HD 
HETATM   15  N   UNL     1     -11.526  10.607  69.117  1.00  0.00    -0.275 NA 
HETATM   16  C   UNL     1     -12.247  14.485  70.073  1.00  0.00    -0.342 C  
HETATM   17  N   UNL     1     -12.622  13.481  70.916  1.00  0.00    -0.352 N  
HETATM   18  O   UNL     1     -12.706  11.297  71.555  1.00  0.00    -0.397 OA 
HETATM   19  C   UNL     1     -11.822  11.838  69.393  1.00  0.00    -0.334 A  
HETATM   20  O   UNL     1     -12.357  15.640  70.469  1.00  0.00    -0.397 OA 
ENDROOT
BRANCH   7  21
HETATM   21  C   UNL     1     -10.234  13.732  66.449  1.00  0.00    -0.292 C  
BRANCH  21  22
HETATM   22  C   UNL     1     -10.984  14.364  65.257  1.00  0.00    -0.350 C  
HETATM   23  O   UNL     1     -10.278  14.087  64.049  1.00  0.00    -0.505 OA 
HETATM   24  H   UNL     1     -10.740  14.476  63.315  1.00  0.00     0.000 HD 
BRANCH  22  25
HETATM   25  C   UNL     1     -11.258  15.881  65.384  1.00  0.00    -0.100 C  
HETATM   26  O   UNL     1     -11.171  16.485  64.075  1.00  0.00    -1.409 OA 
HETATM   27  H   UNL     1     -11.340  17.416  64.154  1.00  0.00     0.000 HD 
BRANCH  25  28
HETATM   28  C   UNL     1     -10.389  16.716  66.356  1.00  0.00    -0.306 C  
HETATM   29  O   UNL     1     -11.010  16.682  67.665  1.00  0.00    -0.296 OA 
HETATM   30  H   UNL     1     -10.477  17.195  68.261  1.00  0.00     0.000 HD 
BRANCH  28  31
HETATM   31  C   UNL     1     -10.164  18.186  65.978  1.00  0.00    -0.320 C  
BRANCH  31  32
HETATM   32  O   UNL     1      -8.915  18.584  66.559  1.00  0.00    -0.289 OA 
HETATM   33  P   UNL     1      -8.948  19.560  67.824  1.00  0.00    -0.331 P  
HETATM   34  O   UNL     1      -9.646  20.901  67.313  1.00  0.00    -0.435 OA 
HETATM   35  O   UNL     1      -7.436  20.008  68.060  1.00  0.00    -0.296 OA 
HETATM   36  O   UNL     1      -9.583  19.029  69.061  1.00  0.00    -0.364 OA 
ENDBRANCH  31  32
ENDBRANCH  28  31
ENDBRANCH  25  28
ENDBRANCH  22  25
ENDBRANCH  21  22
ENDBRANCH   7  21
TORSDOF 6
ENDMDL
MODEL        5
REMARK 921   NORMALIZED FREE ENERGY PREDICTED BY IDOCK:   -7.24 KCAL/MOL
REMARK 922        TOTAL FREE ENERGY PREDICTED BY IDOCK:  -12.12 KCAL/MOL
REMARK 923 INTER-LIGAND FREE ENERGY PREDICTED BY IDOCK:  -10.30 KCAL/MOL
REMARK 924 INTRA-LIGAND FREE ENERGY PREDICTED BY IDOCK:   -1.82 KCAL/MOL
REMARK 927      BINDING AFFINITY PREDICTED BY RF-SCORE:    0.00 PKD
ROOT
HETATM    1  C   UNL     1     -11.163   6.748  70.788  1.00  0.00    -0.352 C  
HETATM    2  C   UNL     1     -11.202   8.147  70.243  1.00  0.00    -0.182 A  
HETATM    3  C   UNL     1     -11.978   9.123  70.866  1.00  0.00    -0.299 A  
HETATM    4  C   UNL     1     -11.932  10.454  70.429  1.00  0.00    -0.320 A  
HETATM    5  C   UNL     1     -11.205  10.810  69.267  1.00  0.00    -0.272 A  
HETATM    6  C   UNL     1     -10.636   9.784  68.531  1.00  0.00    -0.252 A  
HETATM    7  N   UNL     1     -10.998  12.171  68.931  1.00  0.00    -0.227 NA 
HETATM    8  H   UNL     1     -13.403  15.692  71.823  1.00  0.00     0.000 HD 
HETATM    9  C   UNL     1     -10.439   8.538  69.134  1.00  0.00    -0.217 A  
HETATM   10  C   UNL     1     -11.601  13.122  69.750  1.00  0.00    -0.221 A  
HETATM   11  C   UNL     1      -9.121   7.899  68.791  1.00  0.00    -0.140 C  
HETATM   12  C   UNL     1     -13.182  13.674  71.731  1.00  0.00    -0.394 C  
HETATM   13  N   UNL     1     -11.427  14.395  69.573  1.00  0.00    -0.274 N  
HETATM   14  H   UNL     1     -10.831  14.710  68.808  1.00  0.00     0.000 HD 
HETATM   15  N   UNL     1     -12.596  11.396  71.218  1.00  0.00    -0.394 NA 
HETATM   16  C   UNL     1     -12.017  15.324  70.377  1.00  0.00    -0.335 C  
HETATM   17  N   UNL     1     -12.901  14.945  71.343  1.00  0.00    -0.316 N  
HETATM   18  O   UNL     1     -13.914  13.392  72.666  1.00  0.00    -0.755 OA 
HETATM   19  C   UNL     1     -12.468  12.647  70.904  1.00  0.00    -0.278 A  
HETATM   20  O   UNL     1     -11.773  16.521  70.259  1.00  0.00    -0.033 OA 
ENDROOT
BRANCH   7  21
HETATM   21  C   UNL     1      -9.723  12.529  68.216  1.00  0.00    -0.220 C  
BRANCH  21  22
HETATM   22  C   UNL     1      -9.914  12.654  66.689  1.00  0.00    -0.242 C  
HETATM   23  O   UNL     1      -8.876  13.467  66.144  1.00  0.00    -0.430 OA 
HETATM   24  H   UNL     1      -8.994  13.544  65.204  1.00  0.00     0.000 HD 
BRANCH  22  25
HETATM   25  C   UNL     1     -11.299  13.179  66.243  1.00  0.00    -0.315 C  
HETATM   26  O   UNL     1     -12.252  12.096  66.298  1.00  0.00    -0.604 OA 
HETATM   27  H   UNL     1     -13.102  12.419  66.024  1.00  0.00     0.000 HD 
BRANCH  25  28
HETATM   28  C   UNL     1     -11.427  13.859  64.857  1.00  0.00    -0.350 C  
HETATM   29  O   UNL     1     -10.286  13.470  64.053  1.00  0.00    -0.723 OA 
HETATM   30  H   UNL     1     -10.364  13.886  63.203  1.00  0.00     0.000 HD 
BRANCH  28  31
HETATM   31  C   UNL     1     -11.508  15.391  64.853  1.00  0.00    -0.311 C  
BRANCH  31  32
HETATM   32  O   UNL     1     -10.165  15.884  64.956  1.00  0.00    -0.484 OA 
HETATM   33  P   UNL     1      -9.797  16.815  66.200  1.00  0.00    -0.261 P  
HETATM   34  O   UNL     1     -10.732  18.102  66.065  1.00  0.00    -0.336 OA 
HETATM   35  O   UNL     1      -8.343  17.393  65.889  1.00  0.00    -0.535 OA 
HETATM   36  O   UNL     1      -9.884  16.194  67.550  1.00  0.00    -0.232 OA 
ENDBRANCH  31  32
ENDBRANCH  28  31
ENDBRANCH  25  28
ENDBRANCH  22  25
ENDBRANCH  21  22
ENDBRANCH   7  21
TORSDOF 6
ENDMDL
MODEL        6
REMARK 921   NORMALIZED FREE ENERGY PREDICTED BY IDOCK:   -7.17 KCAL/MOL
REMARK 922        TOTAL FREE ENERGY PREDICTED BY IDOCK:  -12.03 KCAL/MOL
REMARK 923 INTER-LIGAND FREE ENERGY PREDICTED BY IDOCK:  -10.16 KCAL/MOL
REMARK 924 INTRA-LIGAND FREE ENERGY PREDICTED BY IDOCK:   -1.87 KCAL/MOL
REMARK 927      BINDING AFFINITY PREDICTED BY RF-SCORE:    0.00 PKD
ROOT
HETATM    1  C   UNL     1     -12.206   6.817  71.811  1.00  0.00    -0.402 C  
HETATM    2  C   UNL     1     -12.052   8.149  71.135  1.00  0.00    -0.281 A  
HETATM    3  C   UNL     1     -12.668   9.281  71.665  1.00  0.00    -0.442 A  
HETATM    4  C   UNL     1     -12.438  10.545  71.103  1.00  0.00    -0.412 A  
HETATM    5  C   UNL     1     -11.686  10.681  69.911  1.00  0.00    -0.317 A  
HETATM    6  C   UNL     1     -11.285   9.519  69.274  1.00  0.00    -0.032 A  
HETATM    7  N   UNL     1     -11.291  11.960  69.445  1.00  0.00    -0.268 NA 
HETATM    8  H   UNL     1     -13.113  16.049  71.997  1.00  0.00     0.000 HD 
HETATM    9  C   UNL     1     -11.259   8.319  69.991  1.00  0.00    -0.081 A  
HETATM   10  C   UNL     1     -11.736  13.062  70.173  1.00  0.00    -0.170 A  
HETATM   11  C   UNL     1     -10.053   7.466  69.706  1.00  0.00    -0.193 C  
HETATM   12  C   UNL     1     -13.187  14.021  72.098  1.00  0.00    -0.435 C  
HETATM   13  N   UNL     1     -11.383  14.273  69.875  1.00  0.00    -0.395 N  
HETATM   14  H   UNL     1     -10.761  14.426  69.082  1.00  0.00     0.000 HD 
HETATM   15  N   UNL     1     -12.945  11.643  71.802  1.00  0.00    -0.424 NA 
HETATM   16  C   UNL     1     -11.819  15.350  70.588  1.00  0.00    -0.351 C  
HETATM   17  N   UNL     1     -12.732  15.195  71.589  1.00  0.00    -0.329 N  
HETATM   18  O   UNL     1     -13.936  13.937  73.057  1.00  0.00    -0.488 OA 
HETATM   19  C   UNL     1     -12.643  12.827  71.370  1.00  0.00    -0.207 A  
HETATM   20  O   UNL     1     -11.407  16.481  70.356  1.00  0.00    -0.299 OA 
ENDROOT
BRANCH   7  21
HETATM   21  C   UNL     1      -9.990  12.061  68.696  1.00  0.00    -0.142 C  
BRANCH  21  22
HETATM   22  C   UNL     1     -10.179  12.542  67.242  1.00  0.00    -0.216 C  
HETATM   23  O   UNL     1      -9.547  11.626  66.349  1.00  0.00    -0.205 OA 
HETATM   24  H   UNL     1      -9.664  11.922  65.454  1.00  0.00     0.000 HD 
BRANCH  22  25
HETATM   25  C   UNL     1      -9.696  13.985  66.961  1.00  0.00    -0.256 C  
HETATM   26  O   UNL     1      -9.023  14.491  68.134  1.00  0.00    -0.169 OA 
HETATM   27  H   UNL     1      -8.726  15.376  67.961  1.00  0.00     0.000 HD 
BRANCH  25  28
HETATM   28  C   UNL     1     -10.732  15.043  66.510  1.00  0.00    -0.312 C  
HETATM   29  O   UNL     1     -11.989  14.761  67.173  1.00  0.00    -0.398 OA 
HETATM   30  H   UNL     1     -12.625  15.410  66.897  1.00  0.00     0.000 HD 
BRANCH  28  31
HETATM   31  C   UNL     1     -11.003  15.134  65.002  1.00  0.00    -0.430 C  
BRANCH  31  32
HETATM   32  O   UNL     1     -10.759  13.833  64.451  1.00  0.00    -0.407 OA 
HETATM   33  P   UNL     1     -12.010  12.993  63.919  1.00  0.00    -0.500 P  
HETATM   34  O   UNL     1     -12.948  12.767  65.190  1.00  0.00    -0.768 OA 
HETATM   35  O   UNL     1     -11.449  11.530  63.621  1.00  0.00    -0.412 OA 
HETATM   36  O   UNL     1     -12.754  13.563  62.763  1.00  0.00    -0.419 OA 
ENDBRANCH  31  32
ENDBRANCH  28  31
ENDBRANCH  25  28
ENDBRANCH  22  25
ENDBRANCH  21  22
ENDBRANCH   7  21
TORSDOF 6
ENDMDL
MODEL        7
REMARK 921   NORMALIZED FREE ENERGY PREDICTED BY IDOCK:   -7.13 KCAL/MOL
REMARK 922        TOTAL FREE ENERGY PREDICTED BY IDOCK:  -11.97 KCAL/MOL
REMARK 923 INTER-LIGAND FREE ENERGY PREDICTED BY IDOCK:  -10.59 KCAL/MOL
REMARK 924 INTRA-LIGAND FREE ENERGY PREDICTED BY IDOCK:   -1.38 KCAL/MOL
REMARK 927      BINDING AFFINITY PREDICTED BY RF-SCORE:    0.00 PKD
ROOT
HETATM    1  C   UNL     1     -12.937  14.538  73.167  1.00  0.00    -0.577 C  
HETATM    2  C   UNL     1     -12.473  14.758  71.755  1.00  0.00    -0.410 A  
HETATM    3  C   UNL     1     -11.839  15.948  71.401  1.00  0.00    -0.524 A  
HETATM    4  C   UNL     1     -11.306  16.114  70.116  1.00  0.00    -0.340 A  
HETATM    5  C   UNL     1     -11.515  15.137  69.113  1.00  0.00    -0.306 A  
HETATM    6  C   UNL     1     -12.349  14.075  69.422  1.00  0.00    -0.247 A  
HETATM    7  N   UNL     1     -10.824  15.206  67.878  1.00  0.00    -0.282 NA 
HETATM    8  H   UNL     1      -7.933  19.389  67.042  1.00  0.00     0.000 HD 
HETATM    9  C   UNL     1     -12.611  13.778  70.762  1.00  0.00    -0.410 A  
HETATM   10  C   UNL     1      -9.996  16.309  67.679  1.00  0.00    -0.247 A  
HETATM   11  C   UNL     1     -12.610  12.306  71.070  1.00  0.00    -0.352 C  
HETATM   12  C   UNL     1      -9.101  18.599  68.506  1.00  0.00    -0.329 C  
HETATM   13  N   UNL     1      -9.268  16.442  66.614  1.00  0.00    -0.236 N  
HETATM   14  H   UNL     1      -9.303  15.717  65.898  1.00  0.00     0.000 HD 
HETATM   15  N   UNL     1     -10.531  17.257  69.902  1.00  0.00     0.091 NA 
HETATM   16  C   UNL     1      -8.458  17.522  66.422  1.00  0.00    -0.252 C  
HETATM   17  N   UNL     1      -8.463  18.559  67.307  1.00  0.00    -0.255 N  
HETATM   18  O   UNL     1      -8.998  19.517  69.303  1.00  0.00    -0.228 OA 
HETATM   19  C   UNL     1      -9.927  17.374  68.761  1.00  0.00    -0.329 A  
HETATM   20  O   UNL     1      -7.706  17.594  65.457  1.00  0.00    -0.440 OA 
ENDROOT
BRANCH   7  21
HETATM   21  C   UNL     1     -10.487  13.910  67.191  1.00  0.00    -0.269 C  
BRANCH  21  22
HETATM   22  C   UNL     1     -11.539  13.508  66.135  1.00  0.00    -0.343 C  
HETATM   23  O   UNL     1     -11.964  12.167  66.372  1.00  0.00    -0.611 OA 
HETATM   24  H   UNL     1     -12.611  11.919  65.722  1.00  0.00     0.000 HD 
BRANCH  22  25
HETATM   25  C   UNL     1     -11.090  13.678  64.664  1.00  0.00    -0.381 C  
HETATM   26  O   UNL     1     -11.438  15.007  64.218  1.00  0.00    -0.633 OA 
HETATM   27  H   UNL     1     -11.161  15.110  63.315  1.00  0.00     0.000 HD 
BRANCH  25  28
HETATM   28  C   UNL     1     -11.601  12.669  63.608  1.00  0.00    -0.503 C  
HETATM   29  O   UNL     1     -12.978  12.342  63.920  1.00  0.00    -0.753 OA 
HETATM   30  H   UNL     1     -13.292  11.723  63.272  1.00  0.00     0.000 HD 
BRANCH  28  31
HETATM   31  C   UNL     1     -10.819  11.354  63.484  1.00  0.00    -0.353 C  
BRANCH  31  32
HETATM   32  O   UNL     1      -9.629  11.497  64.271  1.00  0.00    -0.220 OA 
HETATM   33  P   UNL     1      -9.085  10.216  65.056  1.00  0.00    -0.250 P  
HETATM   34  O   UNL     1     -10.245   9.813  66.076  1.00  0.00    -0.259 OA 
HETATM   35  O   UNL     1      -7.933  10.757  66.016  1.00  0.00    -0.156 OA 
HETATM   36  O   UNL     1      -8.639   9.064  64.226  1.00  0.00    -0.189 OA 
ENDBRANCH  31  32
ENDBRANCH  28  31
ENDBRANCH  25  28
ENDBRANCH  22  25
ENDBRANCH  21  22
ENDBRANCH   7  21
TORSDOF 6
ENDMDL
MODEL        8
REMARK 921   NORMALIZED FREE ENERGY PREDICTED BY IDOCK:   -7.10 KCAL/MOL
REMARK 922        TOTAL FREE ENERGY PREDICTED BY IDOCK:  -11.93 KCAL/MOL
REMARK 923 INTER-LIGAND FREE ENERGY PREDICTED BY IDOCK:  -10.32 KCAL/MOL
REMARK 924 INTRA-LIGAND FREE ENERGY PREDICTED BY IDOCK:   -1.61 KCAL/MOL
REMARK 927      BINDING AFFINITY PREDICTED BY RF-SCORE:    0.00 PKD
ROOT
HETATM    1  C   UNL     1     -11.021  16.833  68.253  1.00  0.00    -0.327 C  
HETATM    2  C   UNL     1     -11.310  15.374  68.466  1.00  0.00    -0.342 A  
HETATM    3  C   UNL     1     -11.005  14.446  67.471  1.00  0.00    -0.299 A  
HETATM    4  C   UNL     1     -11.168  13.074  67.706  1.00  0.00    -0.279 A  
HETATM    5  C   UNL     1     -11.768  12.610  68.901  1.00  0.00    -0.325 A  
HETATM    6  C   UNL     1     -12.277  13.560  69.770  1.00  0.00    -0.330 A  
HETATM    7  N   UNL     1     -11.763  11.230  69.227  1.00  0.00    -0.305 NA 
HETATM    8  H   UNL     1      -9.919   7.990  65.670  1.00  0.00     0.000 HD 
HETATM    9  C   UNL     1     -11.842  14.884  69.666  1.00  0.00    -0.356 A  
HETATM   10  C   UNL     1     -11.209  10.362  68.289  1.00  0.00    -0.267 A  
HETATM   11  C   UNL     1     -11.593  15.548  70.993  1.00  0.00    -0.424 C  
HETATM   12  C   UNL     1     -10.182   9.987  65.935  1.00  0.00    -0.205 C  
HETATM   13  N   UNL     1     -11.094   9.090  68.508  1.00  0.00    -0.450 N  
HETATM   14  H   UNL     1     -11.420   8.711  69.397  1.00  0.00     0.000 HD 
HETATM   15  N   UNL     1     -10.671  12.208  66.729  1.00  0.00    -0.227 NA 
HETATM   16  C   UNL     1     -10.551   8.243  67.589  1.00  0.00    -0.194 C  
HETATM   17  N   UNL     1     -10.199   8.695  66.352  1.00  0.00    -0.242 N  
HETATM   18  O   UNL     1      -9.770  10.348  64.845  1.00  0.00    -0.258 OA 
HETATM   19  C   UNL     1     -10.700  10.935  66.976  1.00  0.00    -0.271 A  
HETATM   20  O   UNL     1     -10.362   7.058  67.843  1.00  0.00    -0.175 OA 
ENDROOT
BRANCH   7  21
HETATM   21  C   UNL     1     -11.712  10.855  70.683  1.00  0.00    -0.316 C  
BRANCH  21  22
HETATM   22  C   UNL     1     -13.094  10.453  71.240  1.00  0.00    -0.399 C  
HETATM   23  O   UNL     1     -13.435  11.307  72.332  1.00  0.00    -0.586 OA 
HETATM   24  H   UNL     1     -14.286  11.059  72.675  1.00  0.00     0.000 HD 
BRANCH  22  25
HETATM   25  C   UNL     1     -13.226   8.969  71.658  1.00  0.00    -0.371 C  
HETATM   26  O   UNL     1     -13.467   8.901  73.080  1.00  0.00    -0.968 OA 
HETATM   27  H   UNL     1     -13.548   7.990  73.336  1.00  0.00     0.000 HD 
BRANCH  25  28
HETATM   28  C   UNL     1     -12.072   7.994  71.321  1.00  0.00    -0.291 C  
HETATM   29  O   UNL     1     -12.551   7.046  70.335  1.00  0.00    -0.618 OA 
HETATM   30  H   UNL     1     -11.842   6.448  70.128  1.00  0.00     0.000 HD 
BRANCH  28  31
HETATM   31  C   UNL     1     -11.485   7.199  72.495  1.00  0.00    -0.258 C  
BRANCH  31  32
HETATM   32  O   UNL     1     -10.436   7.996  73.060  1.00  0.00    -0.342 OA 
HETATM   33  P   UNL     1      -9.044   8.076  72.280  1.00  0.00    -0.222 P  
HETATM   34  O   UNL     1      -8.490   6.580  72.237  1.00  0.00    -0.113 OA 
HETATM   35  O   UNL     1      -8.034   8.805  73.275  1.00  0.00    -0.409 OA 
HETATM   36  O   UNL     1      -9.069   8.706  70.932  1.00  0.00    -0.155 OA 
ENDBRANCH  31  32
ENDBRANCH  28  31
ENDBRANCH  25  28
ENDBRANCH  22  25
ENDBRANCH  21  22
ENDBRANCH   7  21
TORSDOF 6
ENDMDL
MODEL        9
REMARK 921   NORMALIZED FREE ENERGY PREDICTED BY IDOCK:   -7.09 KCAL/MOL
REMARK 922        TOTAL FREE ENERGY PREDICTED BY IDOCK:  -11.93 KCAL/MOL
REMARK 923 INTER-LIGAND FREE ENERGY PREDICTED BY IDOCK:   -9.99 KCAL/MOL
REMARK 924 INTRA-LIGAND FREE ENERGY PREDICTED BY IDOCK:   -1.94 KCAL/MOL
REMARK 927      BINDING AFFINITY PREDICTED BY RF-SCORE:    0.00 PKD
ROOT
HETATM    1  C   UNL     1     -10.072  18.874  66.454  1.00  0.00    -0.457 C  
HETATM    2  C   UNL     1     -10.332  17.540  67.093  1.00  0.00    -0.330 A  
HETATM    3  C   UNL     1     -10.628  17.458  68.452  1.00  0.00    -0.355 A  
HETATM    4  C   UNL     1     -10.980  16.231  69.030  1.00  0.00    -0.325 A  
HETATM    5  C   UNL     1     -10.913  15.032  68.281  1.00  0.00    -0.271 A  
HETATM    6  C   UNL     1     -10.389  15.107  67.002  1.00  0.00    -0.271 A  
HETATM    7  N   UNL     1     -11.446  13.824  68.797  1.00  0.00    -0.280 NA 
HETATM    8  H   UNL     1     -13.166  13.907  73.654  1.00  0.00     0.000 HD 
HETATM    9  C   UNL     1     -10.336  16.347  66.357  1.00  0.00    -0.319 A  
HETATM   10  C   UNL     1     -11.965  13.864  70.089  1.00  0.00    -0.332 A  
HETATM   11  C   UNL     1     -10.716  16.292  64.903  1.00  0.00    -0.256 C  
HETATM   12  C   UNL     1     -12.366  15.182  72.288  1.00  0.00    -0.363 C  
HETATM   13  N   UNL     1     -12.534  12.836  70.637  1.00  0.00    -0.293 N  
HETATM   14  H   UNL     1     -12.603  11.968  70.105  1.00  0.00     0.000 HD 
HETATM   15  N   UNL     1     -11.437  16.268  70.350  1.00  0.00    -0.319 NA 
HETATM   16  C   UNL     1     -13.042  12.878  71.901  1.00  0.00    -0.373 C  
HETATM   17  N   UNL     1     -12.877  13.985  72.679  1.00  0.00    -0.345 N  
HETATM   18  O   UNL     1     -12.325  16.172  73.000  1.00  0.00    -0.459 OA 
HETATM   19  C   UNL     1     -11.883  15.167  70.868  1.00  0.00    -0.325 A  
HETATM   20  O   UNL     1     -13.659  11.930  72.375  1.00  0.00    -0.289 OA 
ENDROOT
BRANCH   7  21
HETATM   21  C   UNL     1     -12.013  12.833  67.816  1.00  0.00    -0.260 C  
BRANCH  21  22
HETATM   22  C   UNL     1     -11.457  11.408  68.025  1.00  0.00    -0.307 C  
HETATM   23  O   UNL     1     -12.422  10.617  68.717  1.00  0.00    -0.795 OA 
HETATM   24  H   UNL     1     -12.080   9.740  68.846  1.00  0.00     0.000 HD 
BRANCH  22  25
HETATM   25  C   UNL     1     -10.089  11.336  68.743  1.00  0.00    -0.194 C  
HETATM   26  O   UNL     1      -9.096  11.994  67.926  1.00  0.00    -0.169 OA 
HETATM   27  H   UNL     1      -8.256  11.950  68.367  1.00  0.00     0.000 HD 
BRANCH  25  28
HETATM   28  C   UNL     1      -9.532   9.950  69.149  1.00  0.00    -0.196 C  
HETATM   29  O   UNL     1     -10.245   8.936  68.398  1.00  0.00    -0.188 OA 
HETATM   30  H   UNL     1      -9.903   8.085  68.647  1.00  0.00     0.000 HD 
BRANCH  28  31
HETATM   31  C   UNL     1      -9.623   9.588  70.637  1.00  0.00    -0.227 C  
BRANCH  31  32
HETATM   32  O   UNL     1     -10.993   9.747  71.027  1.00  0.00    -0.320 OA 
HETATM   33  P   UNL     1     -11.754   8.485  71.645  1.00  0.00    -0.358 P  
HETATM   34  O   UNL     1     -11.745   7.375  70.499  1.00  0.00    -0.269 OA 
HETATM   35  O   UNL     1     -13.290   8.906  71.727  1.00  0.00    -0.344 OA 
HETATM   36  O   UNL     1     -11.238   7.963  72.940  1.00  0.00    -0.398 OA 
ENDBRANCH  31  32
ENDBRANCH  28  31
ENDBRANCH  25  28
ENDBRANCH  22  25
ENDBRANCH  21  22
ENDBRANCH   7  21
TORSDOF 6
ENDMDL
MODEL       10
REMARK 921   NORMALIZED FREE ENERGY PREDICTED BY IDOCK:   -7.04 KCAL/MOL
REMARK 922        TOTAL FREE ENERGY PREDICTED BY IDOCK:  -11.85 KCAL/MOL
REMARK 923 INTER-LIGAND FREE ENERGY PREDICTED BY IDOCK:  -10.10 KCAL/MOL
REMARK 924 INTRA-LIGAND FREE ENERGY PREDICTED BY IDOCK:   -1.75 KCAL/MOL
REMARK 927      BINDING AFFINITY PREDICTED BY RF-SCORE:    0.00 PKD
ROOT
HETATM    1  C   UNL     1      -9.269   7.073  69.379  1.00  0.00    -0.147 C  
HETATM    2  C   UNL     1      -9.648   8.428  68.855  1.00  0.00    -0.153 A  
HETATM    3  C   UNL     1      -9.527   8.714  67.496  1.00  0.00    -0.181 A  
HETATM    4  C   UNL     1      -9.983   9.937  66.984  1.00  0.00    -0.200 A  
HETATM    5  C   UNL     1     -10.449  10.956  67.849  1.00  0.00    -0.195 A  
HETATM    6  C   UNL     1     -10.337  10.736  69.212  1.00  0.00    -0.228 A  
HETATM    7  N   UNL     1     -11.084  12.112  67.331  1.00  0.00    -0.259 NA 
HETATM    8  H   UNL     1     -11.169  12.643  62.207  1.00  0.00     0.000 HD 
HETATM    9  C   UNL     1     -10.173   9.430  69.683  1.00  0.00    -0.225 A  
HETATM   10  C   UNL     1     -11.158  12.224  65.945  1.00  0.00    -0.322 A  
HETATM   11  C   UNL     1     -10.979   9.123  70.915  1.00  0.00    -0.349 C  
HETATM   12  C   UNL     1     -10.529  11.309  63.600  1.00  0.00    -0.405 C  
HETATM   13  N   UNL     1     -11.772  13.207  65.364  1.00  0.00    -0.334 N  
HETATM   14  H   UNL     1     -12.214  13.923  65.940  1.00  0.00     0.000 HD 
HETATM   15  N   UNL     1      -9.992  10.069  65.593  1.00  0.00    -0.288 NA 
HETATM   16  C   UNL     1     -11.845  13.314  64.007  1.00  0.00    -0.455 C  
HETATM   17  N   UNL     1     -11.179  12.434  63.205  1.00  0.00    -0.404 N  
HETATM   18  O   UNL     1     -10.027  10.505  62.832  1.00  0.00    -0.272 OA 
HETATM   19  C   UNL     1     -10.520  11.141  65.090  1.00  0.00    -0.277 A  
HETATM   20  O   UNL     1     -12.505  14.196  63.468  1.00  0.00    -0.817 OA 
ENDROOT
BRANCH   7  21
HETATM   21  C   UNL     1     -12.151  12.760  68.172  1.00  0.00    -0.108 C  
BRANCH  21  22
HETATM   22  C   UNL     1     -11.583  13.824  69.135  1.00  0.00    -0.317 C  
HETATM   23  O   UNL     1     -12.339  13.826  70.344  1.00  0.00    -0.333 OA 
HETATM   24  H   UNL     1     -11.989  14.481  70.937  1.00  0.00     0.000 HD 
BRANCH  22  25
HETATM   25  C   UNL     1     -11.496  15.255  68.553  1.00  0.00    -0.342 C  
HETATM   26  O   UNL     1     -10.916  15.191  67.232  1.00  0.00    -0.313 OA 
HETATM   27  H   UNL     1     -10.864  16.070  66.876  1.00  0.00     0.000 HD 
BRANCH  25  28
HETATM   28  C   UNL     1     -10.740  16.342  69.356  1.00  0.00    -0.318 C  
HETATM   29  O   UNL     1     -11.470  16.592  70.583  1.00  0.00    -0.541 OA 
HETATM   30  H   UNL     1     -11.006  17.258  71.076  1.00  0.00     0.000 HD 
BRANCH  28  31
HETATM   31  C   UNL     1     -10.527  17.687  68.650  1.00  0.00    -0.317 C  
BRANCH  31  32
HETATM   32  O   UNL     1      -9.321  17.574  67.883  1.00  0.00    -0.256 OA 
HETATM   33  P   UNL     1      -9.237  18.351  66.489  1.00  0.00    -0.234 P  
HETATM   34  O   UNL     1     -10.398  17.734  65.584  1.00  0.00    -0.612 OA 
HETATM   35  O   UNL     1      -7.909  17.823  65.782  1.00  0.00    -0.541 OA 
HETATM   36  O   UNL     1      -9.298  19.837  66.548  1.00  0.00    -0.351 OA 
ENDBRANCH  31  32
ENDBRANCH  28  31
ENDBRANCH  25  28
ENDBRANCH  22  25
ENDBRANCH  21  22
ENDBRANCH   7  21
TORSDOF 6
ENDMDL
MODEL       11
REMARK 921   NORMALIZED FREE ENERGY PREDICTED BY IDOCK:   -7.01 KCAL/MOL
REMARK 922        TOTAL FREE ENERGY PREDICTED BY IDOCK:  -11.82 KCAL/MOL
REMARK 923 INTER-LIGAND FREE ENERGY PREDICTED BY IDOCK:  -10.20 KCAL/MOL
REMARK 924 INTRA-LIGAND FREE ENERGY PREDICTED BY IDOCK:   -1.61 KCAL/MOL
REMARK 927      BINDING AFFINITY PREDICTED BY RF-SCORE:    0.00 PKD
ROOT
HETATM    1  C   UNL     1      -9.130   6.097  68.380  1.00  0.00    -0.113 C  
HETATM    2  C   UNL     1      -9.539   7.522  68.137  1.00  0.00    -0.155 A  
HETATM    3  C   UNL     1      -9.432   8.076  66.862  1.00  0.00    -0.244 A  
HETATM    4  C   UNL     1      -9.915   9.366  66.605  1.00  0.00    -0.258 A  
HETATM    5  C   UNL     1     -10.396  10.182  67.656  1.00  0.00    -0.219 A  
HETATM    6  C   UNL     1     -10.273   9.697  68.948  1.00  0.00    -0.214 A  
HETATM    7  N   UNL     1     -11.058  11.405  67.380  1.00  0.00    -0.272 NA 
HETATM    8  H   UNL     1     -11.181  12.945  62.465  1.00  0.00     0.000 HD 
HETATM    9  C   UNL     1     -10.080   8.327  69.148  1.00  0.00    -0.205 A  
HETATM   10  C   UNL     1     -11.142  11.789  66.044  1.00  0.00    -0.312 A  
HETATM   11  C   UNL     1     -10.873   7.764  70.296  1.00  0.00    -0.252 C  
HETATM   12  C   UNL     1     -10.507  11.373  63.563  1.00  0.00    -0.417 C  
HETATM   13  N   UNL     1     -11.779  12.855  65.671  1.00  0.00    -0.365 N  
HETATM   14  H   UNL     1     -12.232  13.433  66.379  1.00  0.00     0.000 HD 
HETATM   15  N   UNL     1      -9.934   9.773  65.268  1.00  0.00    -0.278 NA 
HETATM   16  C   UNL     1     -11.861  13.229  64.363  1.00  0.00    -0.399 C  
HETATM   17  N   UNL     1     -11.182  12.541  63.401  1.00  0.00    -0.458 N  
HETATM   18  O   UNL     1      -9.994  10.750  62.649  1.00  0.00    -0.217 OA 
HETATM   19  C   UNL     1     -10.487  10.912  64.990  1.00  0.00    -0.261 A  
HETATM   20  O   UNL     1     -12.542  14.186  64.012  1.00  0.00    -0.691 OA 
ENDROOT
BRANCH   7  21
HETATM   21  C   UNL     1     -12.133  11.850  68.334  1.00  0.00    -0.020 C  
BRANCH  21  22
HETATM   22  C   UNL     1     -11.609  12.835  69.401  1.00  0.00    -0.298 C  
HETATM   23  O   UNL     1     -11.908  12.332  70.702  1.00  0.00    -0.502 OA 
HETATM   24  H   UNL     1     -11.585  12.939  71.359  1.00  0.00     0.000 HD 
BRANCH  22  25
HETATM   25  C   UNL     1     -12.117  14.289  69.257  1.00  0.00    -0.313 C  
HETATM   26  O   UNL     1     -12.311  14.582  67.856  1.00  0.00    -0.615 OA 
HETATM   27  H   UNL     1     -12.623  15.474  67.768  1.00  0.00     0.000 HD 
BRANCH  25  28
HETATM   28  C   UNL     1     -11.280  15.436  69.874  1.00  0.00    -0.299 C  
HETATM   29  O   UNL     1     -10.054  14.871  70.402  1.00  0.00    -0.467 OA 
HETATM   30  H   UNL     1      -9.540  15.575  70.780  1.00  0.00     0.000 HD 
BRANCH  28  31
HETATM   31  C   UNL     1     -11.949  16.243  70.994  1.00  0.00    -0.116 C  
BRANCH  31  32
HETATM   32  O   UNL     1     -11.659  15.572  72.228  1.00  0.00    -0.430 OA 
HETATM   33  P   UNL     1     -12.875  14.933  73.043  1.00  0.00    -0.500 P  
HETATM   34  O   UNL     1     -13.830  16.156  73.418  1.00  0.00    -0.558 OA 
HETATM   35  O   UNL     1     -12.268  14.505  74.454  1.00  0.00    -0.259 OA 
HETATM   36  O   UNL     1     -13.613  13.823  72.381  1.00  0.00    -0.497 OA 
ENDBRANCH  31  32
ENDBRANCH  28  31
ENDBRANCH  25  28
ENDBRANCH  22  25
ENDBRANCH  21  22
ENDBRANCH   7  21
TORSDOF 6
ENDMDL
MODEL       12
REMARK 921   NORMALIZED FREE ENERGY PREDICTED BY IDOCK:   -6.97 KCAL/MOL
REMARK 922        TOTAL FREE ENERGY PREDICTED BY IDOCK:  -11.75 KCAL/MOL
REMARK 923 INTER-LIGAND FREE ENERGY PREDICTED BY IDOCK:   -9.23 KCAL/MOL
REMARK 924 INTRA-LIGAND FREE ENERGY PREDICTED BY IDOCK:   -2.52 KCAL/MOL
REMARK 927      BINDING AFFINITY PREDICTED BY RF-SCORE:    0.00 PKD
ROOT
HETATM    1  C   UNL     1      -5.715  17.480  67.503  1.00  0.00    -0.151 C  
HETATM    2  C   UNL     1      -6.735  16.393  67.316  1.00  0.00    -0.221 A  
HETATM    3  C   UNL     1      -7.921  16.654  66.632  1.00  0.00    -0.315 A  
HETATM    4  C   UNL     1      -8.825  15.619  66.358  1.00  0.00    -0.330 A  
HETATM    5  C   UNL     1      -8.620  14.320  66.881  1.00  0.00    -0.146 A  
HETATM    6  C   UNL     1      -7.558  14.144  67.753  1.00  0.00    -0.175 A  
HETATM    7  N   UNL     1      -9.420  13.231  66.454  1.00  0.00    -0.247 NA 
HETATM    8  H   UNL     1     -13.369  14.311  63.326  1.00  0.00     0.000 HD 
HETATM    9  C   UNL     1      -6.523  15.084  67.768  1.00  0.00    -0.183 A  
HETATM   10  C   UNL     1     -10.450  13.517  65.561  1.00  0.00    -0.299 A  
HETATM   11  C   UNL     1      -5.151  14.475  67.876  1.00  0.00    -0.051 C  
HETATM   12  C   UNL     1     -11.840  15.275  64.253  1.00  0.00    -0.225 C  
HETATM   13  N   UNL     1     -11.203  12.590  65.056  1.00  0.00    -0.297 N  
HETATM   14  H   UNL     1     -11.037  11.619  65.322  1.00  0.00     0.000 HD 
HETATM   15  N   UNL     1      -9.896  15.929  65.515  1.00  0.00    -0.417 NA 
HETATM   16  C   UNL     1     -12.210  12.872  64.182  1.00  0.00    -0.414 C  
HETATM   17  N   UNL     1     -12.528  14.164  63.884  1.00  0.00    -0.249 N  
HETATM   18  O   UNL     1     -12.115  16.404  63.882  1.00  0.00    -0.977 OA 
HETATM   19  C   UNL     1     -10.677  14.962  65.148  1.00  0.00    -0.411 A  
HETATM   20  O   UNL     1     -12.856  11.981  63.640  1.00  0.00    -0.713 OA 
ENDROOT
BRANCH   7  21
HETATM   21  C   UNL     1      -8.785  11.867  66.419  1.00  0.00    -0.118 C  
BRANCH  21  22
HETATM   22  C   UNL     1      -9.468  10.871  67.381  1.00  0.00    -0.155 C  
HETATM   23  O   UNL     1     -10.466  10.134  66.676  1.00  0.00    -0.228 OA 
HETATM   24  H   UNL     1     -10.886   9.521  67.268  1.00  0.00     0.000 HD 
BRANCH  22  25
HETATM   25  C   UNL     1     -10.069  11.501  68.660  1.00  0.00    -0.207 C  
HETATM   26  O   UNL     1      -9.484  10.863  69.816  1.00  0.00    -0.363 OA 
HETATM   27  H   UNL     1      -9.853  11.251  70.601  1.00  0.00     0.000 HD 
BRANCH  25  28
HETATM   28  C   UNL     1     -11.606  11.501  68.839  1.00  0.00    -0.320 C  
HETATM   29  O   UNL     1     -12.206  12.008  67.621  1.00  0.00    -0.484 OA 
HETATM   30  H   UNL     1     -13.150  12.008  67.731  1.00  0.00     0.000 HD 
BRANCH  28  31
HETATM   31  C   UNL     1     -12.156  12.321  70.014  1.00  0.00    -0.273 C  
BRANCH  31  32
HETATM   32  O   UNL     1     -11.233  13.392  70.249  1.00  0.00     0.116 OA 
HETATM   33  P   UNL     1     -11.706  14.882  69.922  1.00  0.00    -0.348 P  
HETATM   34  O   UNL     1     -12.015  14.900  68.356  1.00  0.00    -0.299 OA 
HETATM   35  O   UNL     1     -10.397  15.785  70.040  1.00  0.00    -0.299 OA 
HETATM   36  O   UNL     1     -12.839  15.416  70.726  1.00  0.00    -0.430 OA 
ENDBRANCH  31  32
ENDBRANCH  28  31
ENDBRANCH  25  28
ENDBRANCH  22  25
ENDBRANCH  21  22
ENDBRANCH   7  21
TORSDOF 6
ENDMDL
MODEL       13
REMARK 921   NORMALIZED FREE ENERGY PREDICTED BY IDOCK:   -6.96 KCAL/MOL
REMARK 922        TOTAL FREE ENERGY PREDICTED BY IDOCK:  -11.75 KCAL/MOL
REMARK 923 INTER-LIGAND FREE ENERGY PREDICTED BY IDOCK:  -10.85 KCAL/MOL
REMARK 924 INTRA-LIGAND FREE ENERGY PREDICTED BY IDOCK:   -0.90 KCAL/MOL
REMARK 927      BINDING AFFINITY PREDICTED BY RF-SCORE:    0.00 PKD
ROOT
HETATM    1  C   UNL     1      -8.560   6.818  66.270  1.00  0.00    -0.141 C  
HETATM    2  C   UNL     1      -9.387   8.036  66.569  1.00  0.00    -0.261 A  
HETATM    3  C   UNL     1     -10.062   8.146  67.782  1.00  0.00    -0.260 A  
HETATM    4  C   UNL     1     -10.743   9.326  68.112  1.00  0.00    -0.151 A  
HETATM    5  C   UNL     1     -10.873  10.375  67.170  1.00  0.00    -0.238 A  
HETATM    6  C   UNL     1     -10.396  10.146  65.890  1.00  0.00    -0.221 A  
HETATM    7  N   UNL     1     -11.390  11.637  67.557  1.00  0.00    -0.327 NA 
HETATM    8  H   UNL     1     -13.204  12.054  72.361  1.00  0.00     0.000 HD 
HETATM    9  C   UNL     1      -9.475   9.116  65.678  1.00  0.00    -0.309 A  
HETATM   10  C   UNL     1     -11.824  11.764  68.874  1.00  0.00    -0.320 A  
HETATM   11  C   UNL     1      -8.364   9.479  64.732  1.00  0.00    -0.155 C  
HETATM   12  C   UNL     1     -12.311  10.667  71.175  1.00  0.00    -0.400 C  
HETATM   13  N   UNL     1     -12.256  12.889  69.353  1.00  0.00    -0.169 N  
HETATM   14  H   UNL     1     -12.280  13.708  68.745  1.00  0.00     0.000 HD 
HETATM   15  N   UNL     1     -11.237   9.421  69.416  1.00  0.00    -0.071 NA 
HETATM   16  C   UNL     1     -12.680  13.012  70.642  1.00  0.00    -0.100 C  
HETATM   17  N   UNL     1     -12.761  11.918  71.453  1.00  0.00    -0.345 N  
HETATM   18  O   UNL     1     -12.324   9.744  71.971  1.00  0.00    -0.354 OA 
HETATM   19  C   UNL     1     -11.763  10.548  69.783  1.00  0.00    -0.281 A  
HETATM   20  O   UNL     1     -12.999  14.099  71.111  1.00  0.00    -0.331 OA 
ENDROOT
BRANCH   7  21
HETATM   21  C   UNL     1     -10.871  12.855  66.841  1.00  0.00    -0.257 C  
BRANCH  21  22
HETATM   22  C   UNL     1     -11.940  13.515  65.944  1.00  0.00    -0.406 C  
HETATM   23  O   UNL     1     -12.782  12.508  65.386  1.00  0.00    -0.624 OA 
HETATM   24  H   UNL     1     -13.440  12.915  64.833  1.00  0.00     0.000 HD 
BRANCH  22  25
HETATM   25  C   UNL     1     -11.383  14.430  64.827  1.00  0.00    -0.388 C  
HETATM   26  O   UNL     1     -10.152  13.865  64.328  1.00  0.00    -0.727 OA 
HETATM   27  H   UNL     1      -9.811  14.426  63.642  1.00  0.00     0.000 HD 
BRANCH  25  28
HETATM   28  C   UNL     1     -11.131  15.924  65.144  1.00  0.00    -0.311 C  
HETATM   29  O   UNL     1     -11.303  16.683  63.921  1.00  0.00    -1.558 OA 
HETATM   30  H   UNL     1     -11.149  17.600  64.116  1.00  0.00     0.000 HD 
BRANCH  28  31
HETATM   31  C   UNL     1      -9.756  16.275  65.728  1.00  0.00    -0.264 C  
BRANCH  31  32
HETATM   32  O   UNL     1      -9.973  17.237  66.768  1.00  0.00    -0.276 OA 
HETATM   33  P   UNL     1      -9.816  18.786  66.409  1.00  0.00    -0.350 P  
HETATM   34  O   UNL     1      -8.299  18.968  65.948  1.00  0.00    -0.463 OA 
HETATM   35  O   UNL     1      -9.864  19.557  67.804  1.00  0.00    -0.327 OA 
HETATM   36  O   UNL     1     -10.778  19.343  65.419  1.00  0.00    -0.468 OA 
ENDBRANCH  31  32
ENDBRANCH  28  31
ENDBRANCH  25  28
ENDBRANCH  22  25
ENDBRANCH  21  22
ENDBRANCH   7  21
TORSDOF 6
ENDMDL
MODEL       14
REMARK 921   NORMALIZED FREE ENERGY PREDICTED BY IDOCK:   -6.93 KCAL/MOL
REMARK 922        TOTAL FREE ENERGY PREDICTED BY IDOCK:  -11.71 KCAL/MOL
REMARK 923 INTER-LIGAND FREE ENERGY PREDICTED BY IDOCK:  -10.33 KCAL/MOL
REMARK 924 INTRA-LIGAND FREE ENERGY PREDICTED BY IDOCK:   -1.38 KCAL/MOL
REMARK 927      BINDING AFFINITY PREDICTED BY RF-SCORE:    0.00 PKD
ROOT
HETATM    1  C   UNL     1     -11.747  12.421  63.682  1.00  0.00    -0.596 C  
HETATM    2  C   UNL     1     -11.134  13.327  64.712  1.00  0.00    -0.359 A  
HETATM    3  C   UNL     1     -11.078  14.702  64.492  1.00  0.00    -0.269 A  
HETATM    4  C   UNL     1     -10.610  15.563  65.494  1.00  0.00    -0.396 A  
HETATM    5  C   UNL     1     -10.062  15.049  66.694  1.00  0.00    -0.261 A  
HETATM    6  C   UNL     1      -9.912  13.675  66.788  1.00  0.00    -0.270 A  
HETATM    7  N   UNL     1      -9.766  15.906  67.782  1.00  0.00    -0.219 NA 
HETATM    8  H   UNL     1     -10.309  20.969  66.991  1.00  0.00     0.000 HD 
HETATM    9  C   UNL     1     -10.646  12.846  65.934  1.00  0.00    -0.287 A  
HETATM   10  C   UNL     1      -9.971  17.270  67.585  1.00  0.00    -0.297 A  
HETATM   11  C   UNL     1     -11.209  11.625  66.608  1.00  0.00    -0.362 C  
HETATM   12  C   UNL     1     -10.582  19.222  65.989  1.00  0.00    -0.461 C  
HETATM   13  N   UNL     1      -9.793  18.139  68.531  1.00  0.00    -0.363 N  
HETATM   14  H   UNL     1      -9.492  17.814  69.450  1.00  0.00     0.000 HD 
HETATM   15  N   UNL     1     -10.756  16.933  65.262  1.00  0.00    -0.609 NA 
HETATM   16  C   UNL     1      -9.995  19.473  68.336  1.00  0.00    -0.443 C  
HETATM   17  N   UNL     1     -10.297  19.954  67.097  1.00  0.00    -0.440 N  
HETATM   18  O   UNL     1     -10.936  19.703  64.925  1.00  0.00    -0.219 OA 
HETATM   19  C   UNL     1     -10.444  17.747  66.222  1.00  0.00    -0.307 A  
HETATM   20  O   UNL     1      -9.914  20.274  69.260  1.00  0.00    -0.118 OA 
ENDROOT
BRANCH   7  21
HETATM   21  C   UNL     1      -9.897  15.345  69.172  1.00  0.00    -0.247 C  
BRANCH  21  22
HETATM   22  C   UNL     1     -11.355  15.352  69.679  1.00  0.00    -0.307 C  
HETATM   23  O   UNL     1     -11.586  16.531  70.449  1.00  0.00    -0.453 OA 
HETATM   24  H   UNL     1     -12.484  16.535  70.761  1.00  0.00     0.000 HD 
BRANCH  22  25
HETATM   25  C   UNL     1     -11.777  14.097  70.479  1.00  0.00    -0.216 C  
HETATM   26  O   UNL     1     -11.234  12.925  69.833  1.00  0.00    -0.489 OA 
HETATM   27  H   UNL     1     -11.493  12.154  70.325  1.00  0.00     0.000 HD 
BRANCH  25  28
HETATM   28  C   UNL     1     -13.283  13.848  70.735  1.00  0.00    -0.067 C  
HETATM   29  O   UNL     1     -13.907  15.118  71.047  1.00  0.00    -0.642 OA 
HETATM   30  H   UNL     1     -14.832  14.966  71.204  1.00  0.00     0.000 HD 
BRANCH  28  31
HETATM   31  C   UNL     1     -13.630  12.863  71.859  1.00  0.00    -0.293 C  
BRANCH  31  32
HETATM   32  O   UNL     1     -12.560  11.912  71.931  1.00  0.00    -0.147 OA 
HETATM   33  P   UNL     1     -12.760  10.494  71.221  1.00  0.00    -0.475 P  
HETATM   34  O   UNL     1     -14.004   9.817  71.957  1.00  0.00    -0.229 OA 
HETATM   35  O   UNL     1     -11.529   9.598  71.696  1.00  0.00    -0.380 OA 
HETATM   36  O   UNL     1     -12.918  10.505  69.741  1.00  0.00    -0.106 OA 
ENDBRANCH  31  32
ENDBRANCH  28  31
ENDBRANCH  25  28
ENDBRANCH  22  25
ENDBRANCH  21  22
ENDBRANCH   7  21
TORSDOF 6
ENDMDL
MODEL       15
REMARK 921   NORMALIZED FREE ENERGY PREDICTED BY IDOCK:   -6.89 KCAL/MOL
REMARK 922        TOTAL FREE ENERGY PREDICTED BY IDOCK:  -11.65 KCAL/MOL
REMARK 923 INTER-LIGAND FREE ENERGY PREDICTED BY IDOCK:  -10.62 KCAL/MOL
REMARK 924 INTRA-LIGAND FREE ENERGY PREDICTED BY IDOCK:   -1.03 KCAL/MOL
REMARK 927      BINDING AFFINITY PREDICTED BY RF-SCORE:    0.00 PKD
ROOT
HETATM    1  C   UNL     1     -12.987  13.424  71.935  1.00  0.00    -0.422 C  
HETATM    2  C   UNL     1     -12.445  13.985  70.652  1.00  0.00    -0.435 A  
HETATM    3  C   UNL     1     -12.022  15.312  70.588  1.00  0.00    -0.386 A  
HETATM    4  C   UNL     1     -11.414  15.809  69.428  1.00  0.00    -0.355 A  
HETATM    5  C   UNL     1     -11.337  15.019  68.255  1.00  0.00    -0.318 A  
HETATM    6  C   UNL     1     -11.976  13.791  68.271  1.00  0.00    -0.392 A  
HETATM    7  N   UNL     1     -10.560  15.441  67.147  1.00  0.00    -0.299 NA 
HETATM    8  H   UNL     1      -8.464  20.140  67.406  1.00  0.00     0.000 HD 
HETATM    9  C   UNL     1     -12.299  13.203  69.498  1.00  0.00    -0.087 A  
HETATM   10  C   UNL     1      -9.945  16.687  67.244  1.00  0.00    -0.270 A  
HETATM   11  C   UNL     1     -12.043  11.722  69.549  1.00  0.00    -0.314 C  
HETATM   12  C   UNL     1      -9.589  18.898  68.555  1.00  0.00    -0.380 C  
HETATM   13  N   UNL     1      -9.161  17.144  66.319  1.00  0.00    -0.252 N  
HETATM   14  H   UNL     1      -8.990  16.573  65.491  1.00  0.00     0.000 HD 
HETATM   15  N   UNL     1     -10.857  17.088  69.511  1.00  0.00    -0.176 NA 
HETATM   16  C   UNL     1      -8.560  18.363  66.416  1.00  0.00    -0.247 C  
HETATM   17  N   UNL     1      -8.847  19.196  67.457  1.00  0.00    -0.292 N  
HETATM   18  O   UNL     1      -9.738  19.650  69.503  1.00  0.00    -0.279 OA 
HETATM   19  C   UNL     1     -10.184  17.522  68.492  1.00  0.00    -0.378 A  
HETATM   20  O   UNL     1      -7.749  18.746  65.580  1.00  0.00    -0.482 OA 
ENDROOT
BRANCH   7  21
HETATM   21  C   UNL     1      -9.918  14.377  66.298  1.00  0.00    -0.306 C  
BRANCH  21  22
HETATM   22  C   UNL     1     -10.380  14.434  64.826  1.00  0.00    -0.320 C  
HETATM   23  O   UNL     1     -10.905  15.730  64.541  1.00  0.00    -0.760 OA 
HETATM   24  H   UNL     1     -11.190  15.765  63.635  1.00  0.00     0.000 HD 
BRANCH  22  25
HETATM   25  C   UNL     1     -11.395  13.341  64.415  1.00  0.00    -0.383 C  
HETATM   26  O   UNL     1     -11.827  12.633  65.597  1.00  0.00    -0.392 OA 
HETATM   27  H   UNL     1     -12.450  11.962  65.344  1.00  0.00     0.000 HD 
BRANCH  25  28
HETATM   28  C   UNL     1     -10.972  12.292  63.357  1.00  0.00    -0.405 C  
HETATM   29  O   UNL     1     -12.078  11.376  63.158  1.00  0.00    -0.900 OA 
HETATM   30  H   UNL     1     -11.819  10.733  62.509  1.00  0.00     0.000 HD 
BRANCH  28  31
HETATM   31  C   UNL     1      -9.723  11.462  63.679  1.00  0.00    -0.312 C  
BRANCH  31  32
HETATM   32  O   UNL     1     -10.167  10.278  64.355  1.00  0.00    -0.298 OA 
HETATM   33  P   UNL     1      -9.575   9.972  65.807  1.00  0.00    -0.268 P  
HETATM   34  O   UNL     1      -8.002   9.800  65.602  1.00  0.00    -0.111 OA 
HETATM   35  O   UNL     1     -10.055   8.493  66.163  1.00  0.00    -0.221 OA 
HETATM   36  O   UNL     1      -9.901  10.948  66.882  1.00  0.00    -0.181 OA 
ENDBRANCH  31  32
ENDBRANCH  28  31
ENDBRANCH  25  28
ENDBRANCH  22  25
ENDBRANCH  21  22
ENDBRANCH   7  21
TORSDOF 6
ENDMDL
MODEL       16
REMARK 921   NORMALIZED FREE ENERGY PREDICTED BY IDOCK:   -6.81 KCAL/MOL
REMARK 922        TOTAL FREE ENERGY PREDICTED BY IDOCK:  -11.55 KCAL/MOL
REMARK 923 INTER-LIGAND FREE ENERGY PREDICTED BY IDOCK:   -9.88 KCAL/MOL
REMARK 924 INTRA-LIGAND FREE ENERGY PREDICTED BY IDOCK:   -1.67 KCAL/MOL
REMARK 927      BINDING AFFINITY PREDICTED BY RF-SCORE:    0.00 PKD
ROOT
HETATM    1  C   UNL     1     -10.047   6.898  69.626  1.00  0.00    -0.195 C  
HETATM    2  C   UNL     1     -10.569   8.248  69.226  1.00  0.00    -0.191 A  
HETATM    3  C   UNL     1     -11.233   9.048  70.154  1.00  0.00    -0.191 A  
HETATM    4  C   UNL     1     -11.623  10.352  69.819  1.00  0.00    -0.269 A  
HETATM    5  C   UNL     1     -11.474  10.835  68.496  1.00  0.00    -0.292 A  
HETATM    6  C   UNL     1     -11.030   9.940  67.537  1.00  0.00    -0.239 A  
HETATM    7  N   UNL     1     -11.687  12.203  68.196  1.00  0.00    -0.347 NA 
HETATM    8  H   UNL     1     -13.484  15.183  71.997  1.00  0.00     0.000 HD 
HETATM    9  C   UNL     1     -10.374   8.774  67.941  1.00  0.00    -0.281 A  
HETATM   10  C   UNL     1     -12.116  13.019  69.241  1.00  0.00    -0.200 A  
HETATM   11  C   UNL     1      -9.182   8.422  67.093  1.00  0.00    -0.174 C  
HETATM   12  C   UNL     1     -12.913  13.256  71.699  1.00  0.00    -0.349 C  
HETATM   13  N   UNL     1     -12.282  14.297  69.096  1.00  0.00    -0.513 N  
HETATM   14  H   UNL     1     -12.093  14.719  68.187  1.00  0.00     0.000 HD 
HETATM   15  N   UNL     1     -12.117  11.145  70.858  1.00  0.00    -0.344 NA 
HETATM   16  C   UNL     1     -12.700  15.093  70.119  1.00  0.00    -0.235 C  
HETATM   17  N   UNL     1     -13.061  14.551  71.317  1.00  0.00    -0.335 N  
HETATM   18  O   UNL     1     -13.167  12.840  72.817  1.00  0.00    -0.298 OA 
HETATM   19  C   UNL     1     -12.371  12.390  70.601  1.00  0.00    -0.279 A  
HETATM   20  O   UNL     1     -12.765  16.312  69.998  1.00  0.00     0.093 OA 
ENDROOT
BRANCH   7  21
HETATM   21  C   UNL     1     -10.875  12.812  67.085  1.00  0.00    -0.256 C  
BRANCH  21  22
HETATM   22  C   UNL     1     -11.749  13.301  65.911  1.00  0.00    -0.365 C  
HETATM   23  O   UNL     1     -12.227  12.179  65.171  1.00  0.00    -0.445 OA 
HETATM   24  H   UNL     1     -12.765  12.480  64.448  1.00  0.00     0.000 HD 
BRANCH  22  25
HETATM   25  C   UNL     1     -11.067  14.317  64.965  1.00  0.00    -0.373 C  
HETATM   26  O   UNL     1      -9.636  14.234  65.140  1.00  0.00    -0.528 OA 
HETATM   27  H   UNL     1      -9.217  14.857  64.559  1.00  0.00     0.000 HD 
BRANCH  25  28
HETATM   28  C   UNL     1     -11.473  15.808  65.054  1.00  0.00    -0.122 C  
HETATM   29  O   UNL     1     -11.565  16.336  63.707  1.00  0.00    -1.539 OA 
HETATM   30  H   UNL     1     -11.815  17.250  63.761  1.00  0.00     0.000 HD 
BRANCH  28  31
HETATM   31  C   UNL     1     -10.540  16.724  65.857  1.00  0.00    -0.248 C  
BRANCH  31  32
HETATM   32  O   UNL     1     -10.461  16.186  67.183  1.00  0.00    -0.298 OA 
HETATM   33  P   UNL     1      -9.574  16.963  68.261  1.00  0.00    -0.278 P  
HETATM   34  O   UNL     1      -8.085  16.943  67.687  1.00  0.00    -0.178 OA 
HETATM   35  O   UNL     1      -9.486  15.993  69.524  1.00  0.00    -0.248 OA 
HETATM   36  O   UNL     1     -10.019  18.335  68.628  1.00  0.00    -0.361 OA 
ENDBRANCH  31  32
ENDBRANCH  28  31
ENDBRANCH  25  28
ENDBRANCH  22  25
ENDBRANCH  21  22
ENDBRANCH   7  21
TORSDOF 6
ENDMDL
MODEL       17
REMARK 921   NORMALIZED FREE ENERGY PREDICTED BY IDOCK:   -6.75 KCAL/MOL
REMARK 922        TOTAL FREE ENERGY PREDICTED BY IDOCK:  -11.46 KCAL/MOL
REMARK 923 INTER-LIGAND FREE ENERGY PREDICTED BY IDOCK:   -9.79 KCAL/MOL
REMARK 924 INTRA-LIGAND FREE ENERGY PREDICTED BY IDOCK:   -1.67 KCAL/MOL
REMARK 927      BINDING AFFINITY PREDICTED BY RF-SCORE:    0.00 PKD
ROOT
HETATM    1  C   UNL     1      -8.765   4.843  69.412  1.00  0.00    -0.108 C  
HETATM    2  C   UNL     1      -9.287   6.240  69.224  1.00  0.00    -0.139 A  
HETATM    3  C   UNL     1     -10.338   6.708  70.011  1.00  0.00    -0.232 A  
HETATM    4  C   UNL     1     -10.755   8.043  69.918  1.00  0.00    -0.242 A  
HETATM    5  C   UNL     1     -10.212   8.904  68.935  1.00  0.00    -0.206 A  
HETATM    6  C   UNL     1      -9.340   8.350  68.012  1.00  0.00    -0.146 A  
HETATM    7  N   UNL     1     -10.486  10.295  68.958  1.00  0.00    -0.203 NA 
HETATM    8  H   UNL     1     -13.898  11.952  72.446  1.00  0.00     0.000 HD 
HETATM    9  C   UNL     1      -8.721   7.131  68.303  1.00  0.00    -0.128 A  
HETATM   10  C   UNL     1     -11.363  10.749  69.941  1.00  0.00    -0.311 A  
HETATM   11  C   UNL     1      -7.270   7.078  67.909  1.00  0.00    -0.091 C  
HETATM   12  C   UNL     1     -13.005  10.217  71.878  1.00  0.00    -0.447 C  
HETATM   13  N   UNL     1     -11.636  12.007  70.095  1.00  0.00    -0.531 N  
HETATM   14  H   UNL     1     -11.196  12.687  69.476  1.00  0.00     0.000 HD 
HETATM   15  N   UNL     1     -11.687   8.475  70.865  1.00  0.00    -0.272 NA 
HETATM   16  C   UNL     1     -12.494  12.449  71.057  1.00  0.00    -0.256 C  
HETATM   17  N   UNL     1     -13.180  11.563  71.835  1.00  0.00    -0.456 N  
HETATM   18  O   UNL     1     -13.581   9.479  72.660  1.00  0.00    -0.381 OA 
HETATM   19  C   UNL     1     -11.997   9.734  70.878  1.00  0.00    -0.328 A  
HETATM   20  O   UNL     1     -12.674  13.646  71.254  1.00  0.00    -0.342 OA 
ENDROOT
BRANCH   7  21
HETATM   21  C   UNL     1      -9.422  11.227  68.447  1.00  0.00    -0.192 C  
BRANCH  21  22
HETATM   22  C   UNL     1      -9.942  12.174  67.344  1.00  0.00    -0.199 C  
HETATM   23  O   UNL     1      -9.308  11.858  66.106  1.00  0.00    -0.224 OA 
HETATM   24  H   UNL     1      -9.628  12.441  65.427  1.00  0.00     0.000 HD 
BRANCH  22  25
HETATM   25  C   UNL     1      -9.797  13.683  67.653  1.00  0.00    -0.228 C  
HETATM   26  O   UNL     1      -9.493  13.847  69.056  1.00  0.00    -0.404 OA 
HETATM   27  H   UNL     1      -9.404  14.774  69.245  1.00  0.00     0.000 HD 
BRANCH  25  28
HETATM   28  C   UNL     1     -10.969  14.632  67.303  1.00  0.00    -0.317 C  
HETATM   29  O   UNL     1     -12.139  14.202  68.044  1.00  0.00    -0.485 OA 
HETATM   30  H   UNL     1     -12.858  14.785  67.829  1.00  0.00     0.000 HD 
BRANCH  28  31
HETATM   31  C   UNL     1     -11.355  14.722  65.821  1.00  0.00    -0.336 C  
BRANCH  31  32
HETATM   32  O   UNL     1     -12.195  13.596  65.535  1.00  0.00    -0.387 OA 
HETATM   33  P   UNL     1     -12.159  12.981  64.061  1.00  0.00    -0.460 P  
HETATM   34  O   UNL     1     -12.647  14.154  63.095  1.00  0.00    -0.686 OA 
HETATM   35  O   UNL     1     -13.365  11.939  64.000  1.00  0.00    -0.646 OA 
HETATM   36  O   UNL     1     -10.869  12.385  63.618  1.00  0.00    -0.411 OA 
ENDBRANCH  31  32
ENDBRANCH  28  31
ENDBRANCH  25  28
ENDBRANCH  22  25
ENDBRANCH  21  22
ENDBRANCH   7  21
TORSDOF 6
ENDMDL
MODEL       18
REMARK 921   NORMALIZED FREE ENERGY PREDICTED BY IDOCK:   -6.73 KCAL/MOL
REMARK 922        TOTAL FREE ENERGY PREDICTED BY IDOCK:  -11.44 KCAL/MOL
REMARK 923 INTER-LIGAND FREE ENERGY PREDICTED BY IDOCK:  -11.42 KCAL/MOL
REMARK 924 INTRA-LIGAND FREE ENERGY PREDICTED BY IDOCK:   -0.02 KCAL/MOL
REMARK 927      BINDING AFFINITY PREDICTED BY RF-SCORE:    0.00 PKD
ROOT
HETATM    1  C   UNL     1     -13.238  13.213  71.657  1.00  0.00    -0.435 C  
HETATM    2  C   UNL     1     -12.244  12.979  70.556  1.00  0.00    -0.392 A  
HETATM    3  C   UNL     1     -11.963  11.684  70.127  1.00  0.00    -0.441 A  
HETATM    4  C   UNL     1     -11.122  11.466  69.027  1.00  0.00    -0.243 A  
HETATM    5  C   UNL     1     -10.435  12.543  68.416  1.00  0.00    -0.240 A  
HETATM    6  C   UNL     1     -10.546  13.789  69.011  1.00  0.00    -0.161 A  
HETATM    7  N   UNL     1      -9.738  12.359  67.196  1.00  0.00    -0.204 NA 
HETATM    8  H   UNL     1      -9.420   7.548  65.380  1.00  0.00     0.000 HD 
HETATM    9  C   UNL     1     -11.602  14.034  69.893  1.00  0.00    -0.320 A  
HETATM   10  C   UNL     1      -9.705  11.068  66.676  1.00  0.00    -0.195 A  
HETATM   11  C   UNL     1     -12.233  15.389  69.724  1.00  0.00    -0.336 C  
HETATM   12  C   UNL     1     -10.253   8.545  66.942  1.00  0.00    -0.305 C  
HETATM   13  N   UNL     1      -9.151  10.796  65.536  1.00  0.00    -0.193 N  
HETATM   14  H   UNL     1      -8.725  11.553  65.001  1.00  0.00     0.000 HD 
HETATM   15  N   UNL     1     -11.039  10.155  68.551  1.00  0.00    -0.237 NA 
HETATM   16  C   UNL     1      -9.120   9.531  65.029  1.00  0.00    -0.228 C  
HETATM   17  N   UNL     1      -9.587   8.480  65.760  1.00  0.00    -0.092 N  
HETATM   18  O   UNL     1     -10.731   7.578  67.511  1.00  0.00    -0.256 OA 
HETATM   19  C   UNL     1     -10.365   9.947  67.464  1.00  0.00    -0.236 A  
HETATM   20  O   UNL     1      -8.677   9.301  63.909  1.00  0.00    -0.207 OA 
ENDROOT
BRANCH   7  21
HETATM   21  C   UNL     1      -9.667  13.526  66.248  1.00  0.00    -0.277 C  
BRANCH  21  22
HETATM   22  C   UNL     1     -10.593  13.355  65.025  1.00  0.00    -0.358 C  
HETATM   23  O   UNL     1      -9.810  13.339  63.833  1.00  0.00    -0.716 OA 
HETATM   24  H   UNL     1     -10.380  13.234  63.080  1.00  0.00     0.000 HD 
BRANCH  22  25
HETATM   25  C   UNL     1     -11.727  14.401  64.910  1.00  0.00    -0.408 C  
HETATM   26  O   UNL     1     -12.328  14.298  63.601  1.00  0.00    -1.035 OA 
HETATM   27  H   UNL     1     -13.024  14.940  63.531  1.00  0.00     0.000 HD 
BRANCH  25  28
HETATM   28  C   UNL     1     -11.395  15.891  65.168  1.00  0.00    -0.118 C  
HETATM   29  O   UNL     1     -11.482  16.601  63.908  1.00  0.00    -1.604 OA 
HETATM   30  H   UNL     1     -11.279  17.516  64.066  1.00  0.00     0.000 HD 
BRANCH  28  31
HETATM   31  C   UNL     1     -10.022  16.188  65.785  1.00  0.00    -0.340 C  
BRANCH  31  32
HETATM   32  O   UNL     1     -10.205  17.252  66.728  1.00  0.00    -0.301 OA 
HETATM   33  P   UNL     1      -9.983  18.752  66.226  1.00  0.00    -0.312 P  
HETATM   34  O   UNL     1      -8.457  18.829  65.763  1.00  0.00    -0.436 OA 
HETATM   35  O   UNL     1     -10.005  19.654  67.542  1.00  0.00    -0.343 OA 
HETATM   36  O   UNL     1     -10.915  19.252  65.179  1.00  0.00    -0.448 OA 
ENDBRANCH  31  32
ENDBRANCH  28  31
ENDBRANCH  25  28
ENDBRANCH  22  25
ENDBRANCH  21  22
ENDBRANCH   7  21
TORSDOF 6
ENDMDL
MODEL       19
REMARK 921   NORMALIZED FREE ENERGY PREDICTED BY IDOCK:   -6.71 KCAL/MOL
REMARK 922        TOTAL FREE ENERGY PREDICTED BY IDOCK:  -11.41 KCAL/MOL
REMARK 923 INTER-LIGAND FREE ENERGY PREDICTED BY IDOCK:   -9.51 KCAL/MOL
REMARK 924 INTRA-LIGAND FREE ENERGY PREDICTED BY IDOCK:   -1.90 KCAL/MOL
REMARK 927      BINDING AFFINITY PREDICTED BY RF-SCORE:    0.00 PKD
ROOT
HETATM    1  C   UNL     1     -10.278   9.038  66.816  1.00  0.00    -0.341 C  
HETATM    2  C   UNL     1     -10.475  10.436  67.328  1.00  0.00    -0.304 A  
HETATM    3  C   UNL     1     -11.378  10.685  68.360  1.00  0.00    -0.348 A  
HETATM    4  C   UNL     1     -11.485  11.967  68.917  1.00  0.00    -0.301 A  
HETATM    5  C   UNL     1     -10.782  13.061  68.358  1.00  0.00    -0.256 A  
HETATM    6  C   UNL     1     -10.076  12.834  67.188  1.00  0.00    -0.234 A  
HETATM    7  N   UNL     1     -10.735  14.310  69.025  1.00  0.00    -0.250 NA 
HETATM    8  H   UNL     1     -13.616  14.810  73.268  1.00  0.00     0.000 HD 
HETATM    9  C   UNL     1      -9.741  11.524  66.834  1.00  0.00    -0.205 A  
HETATM   10  C   UNL     1     -11.468  14.424  70.204  1.00  0.00    -0.220 A  
HETATM   11  C   UNL     1      -8.348  11.379  66.286  1.00  0.00    -0.111 C  
HETATM   12  C   UNL     1     -13.148  13.392  71.890  1.00  0.00    -0.383 C  
HETATM   13  N   UNL     1     -11.447  15.499  70.929  1.00  0.00    -0.340 N  
HETATM   14  H   UNL     1     -10.877  16.288  70.625  1.00  0.00     0.000 HD 
HETATM   15  N   UNL     1     -12.276  12.089  70.062  1.00  0.00    -0.245 NA 
HETATM   16  C   UNL     1     -12.164  15.607  72.083  1.00  0.00    -0.439 C  
HETATM   17  N   UNL     1     -13.016  14.614  72.466  1.00  0.00    -0.375 N  
HETATM   18  O   UNL     1     -13.860  12.504  72.329  1.00  0.00    -0.406 OA 
HETATM   19  C   UNL     1     -12.295  13.236  70.666  1.00  0.00    -0.339 A  
HETATM   20  O   UNL     1     -12.065  16.592  72.808  1.00  0.00    -0.508 OA 
ENDROOT
BRANCH   7  21
HETATM   21  C   UNL     1      -9.498  15.150  68.853  1.00  0.00    -0.213 C  
BRANCH  21  22
HETATM   22  C   UNL     1      -9.576  16.075  67.620  1.00  0.00    -0.218 C  
HETATM   23  O   UNL     1      -8.311  16.096  66.959  1.00  0.00    -0.179 OA 
HETATM   24  H   UNL     1      -8.359  16.666  66.200  1.00  0.00     0.000 HD 
BRANCH  22  25
HETATM   25  C   UNL     1     -10.054  17.517  67.910  1.00  0.00    -0.330 C  
HETATM   26  O   UNL     1     -11.222  17.462  68.758  1.00  0.00    -0.157 OA 
HETATM   27  H   UNL     1     -11.515  18.347  68.937  1.00  0.00     0.000 HD 
BRANCH  25  28
HETATM   28  C   UNL     1     -10.372  18.452  66.718  1.00  0.00    -0.394 C  
HETATM   29  O   UNL     1     -10.261  17.682  65.495  1.00  0.00    -0.600 OA 
HETATM   30  H   UNL     1     -10.457  18.255  64.763  1.00  0.00     0.000 HD 
BRANCH  28  31
HETATM   31  C   UNL     1      -9.489  19.698  66.574  1.00  0.00    -0.384 C  
BRANCH  31  32
HETATM   32  O   UNL     1      -8.240  19.406  67.213  1.00  0.00    -0.271 OA 
HETATM   33  P   UNL     1      -6.913  19.428  66.324  1.00  0.00    -0.257 P  
HETATM   34  O   UNL     1      -7.120  18.296  65.217  1.00  0.00    -0.516 OA 
HETATM   35  O   UNL     1      -5.765  18.821  67.249  1.00  0.00    -0.152 OA 
HETATM   36  O   UNL     1      -6.530  20.736  65.727  1.00  0.00    -0.236 OA 
ENDBRANCH  31  32
ENDBRANCH  28  31
ENDBRANCH  25  28
ENDBRANCH  22  25
ENDBRANCH  21  22
ENDBRANCH   7  21
TORSDOF 6
ENDMDL
MODEL       20
REMARK 921   NORMALIZED FREE ENERGY PREDICTED BY IDOCK:   -6.69 KCAL/MOL
REMARK 922        TOTAL FREE ENERGY PREDICTED BY IDOCK:  -11.39 KCAL/MOL
REMARK 923 INTER-LIGAND FREE ENERGY PREDICTED BY IDOCK:  -10.41 KCAL/MOL
REMARK 924 INTRA-LIGAND FREE ENERGY PREDICTED BY IDOCK:   -0.97 KCAL/MOL
REMARK 927      BINDING AFFINITY PREDICTED BY RF-SCORE:    0.00 PKD
ROOT
HETATM    1  C   UNL     1     -13.986  13.829  72.111  1.00  0.00    -0.638 C  
HETATM    2  C   UNL     1     -12.974  14.036  71.021  1.00  0.00    -0.378 A  
HETATM    3  C   UNL     1     -12.547  15.322  70.693  1.00  0.00    -0.471 A  
HETATM    4  C   UNL     1     -11.523  15.514  69.755  1.00  0.00    -0.331 A  
HETATM    5  C   UNL     1     -10.996  14.421  69.025  1.00  0.00    -0.256 A  
HETATM    6  C   UNL     1     -11.601  13.187  69.198  1.00  0.00    -0.368 A  
HETATM    7  N   UNL     1      -9.840  14.578  68.221  1.00  0.00    -0.222 NA 
HETATM    8  H   UNL     1      -7.972  19.352  67.706  1.00  0.00     0.000 HD 
HETATM    9  C   UNL     1     -12.390  12.965  70.330  1.00  0.00    -0.333 A  
HETATM   10  C   UNL     1      -9.301  15.859  68.132  1.00  0.00    -0.198 A  
HETATM   11  C   UNL     1     -12.189  11.611  70.954  1.00  0.00    -0.401 C  
HETATM   12  C   UNL     1      -9.471  18.389  68.682  1.00  0.00    -0.335 C  
HETATM   13  N   UNL     1      -8.210  16.106  67.476  1.00  0.00    -0.146 N  
HETATM   14  H   UNL     1      -7.730  15.336  67.010  1.00  0.00     0.000 HD 
HETATM   15  N   UNL     1     -11.033  16.815  69.620  1.00  0.00    -0.226 NA 
HETATM   16  C   UNL     1      -7.685  17.361  67.391  1.00  0.00    -0.192 C  
HETATM   17  N   UNL     1      -8.352  18.429  67.913  1.00  0.00    -0.256 N  
HETATM   18  O   UNL     1      -9.977  19.370  69.202  1.00  0.00    -0.435 OA 
HETATM   19  C   UNL     1     -10.006  16.998  68.850  1.00  0.00    -0.285 A  
HETATM   20  O   UNL     1      -6.605  17.567  66.848  1.00  0.00    -0.157 OA 
ENDROOT
BRANCH   7  21
HETATM   21  C   UNL     1      -8.924  13.393  68.074  1.00  0.00    -0.190 C  
BRANCH  21  22
HETATM   22  C   UNL     1      -8.696  12.999  66.599  1.00  0.00    -0.019 C  
HETATM   23  O   UNL     1      -9.550  13.776  65.760  1.00  0.00    -0.476 OA 
HETATM   24  H   UNL     1      -9.409  13.533  64.852  1.00  0.00     0.000 HD 
BRANCH  22  25
HETATM   25  C   UNL     1      -8.863  11.493  66.289  1.00  0.00    -0.186 C  
HETATM   26  O   UNL     1      -7.795  11.072  65.412  1.00  0.00    -0.359 OA 
HETATM   27  H   UNL     1      -7.899  10.147  65.223  1.00  0.00     0.000 HD 
BRANCH  25  28
HETATM   28  C   UNL     1     -10.201  11.001  65.684  1.00  0.00    -0.260 C  
HETATM   29  O   UNL     1     -10.458   9.662  66.178  1.00  0.00    -0.179 OA 
HETATM   30  H   UNL     1     -11.279   9.361  65.807  1.00  0.00     0.000 HD 
BRANCH  28  31
HETATM   31  C   UNL     1     -10.284  10.963  64.152  1.00  0.00    -0.359 C  
BRANCH  31  32
HETATM   32  O   UNL     1     -10.714  12.261  63.722  1.00  0.00    -0.373 OA 
HETATM   33  P   UNL     1     -12.222  12.695  64.020  1.00  0.00    -0.483 P  
HETATM   34  O   UNL     1     -13.133  11.645  63.236  1.00  0.00    -0.501 OA 
HETATM   35  O   UNL     1     -12.450  14.047  63.206  1.00  0.00    -0.795 OA 
HETATM   36  O   UNL     1     -12.610  12.821  65.451  1.00  0.00    -0.607 OA 
ENDBRANCH  31  32
ENDBRANCH  28  31
ENDBRANCH  25  28
ENDBRANCH  22  25
ENDBRANCH  21  22
ENDBRANCH   7  21
TORSDOF 6
ENDMDL
MODEL       21
REMARK 921   NORMALIZED FREE ENERGY PREDICTED BY IDOCK:   -6.69 KCAL/MOL
REMARK 922        TOTAL FREE ENERGY PREDICTED BY IDOCK:  -11.37 KCAL/MOL
REMARK 923 INTER-LIGAND FREE ENERGY PREDICTED BY IDOCK:   -9.66 KCAL/MOL
REMARK 924 INTRA-LIGAND FREE ENERGY PREDICTED BY IDOCK:   -1.72 KCAL/MOL
REMARK 927      BINDING AFFINITY PREDICTED BY RF-SCORE:    0.00 PKD
ROOT
HETATM    1  C   UNL     1      -9.332   8.278  65.899  1.00  0.00    -0.165 C  
HETATM    2  C   UNL     1     -10.071   9.542  66.235  1.00  0.00    -0.327 A  
HETATM    3  C   UNL     1     -10.666   9.696  67.486  1.00  0.00    -0.321 A  
HETATM    4  C   UNL     1     -11.260  10.913  67.845  1.00  0.00    -0.321 A  
HETATM    5  C   UNL     1     -11.389  11.962  66.903  1.00  0.00    -0.330 A  
HETATM    6  C   UNL     1     -11.004  11.699  65.599  1.00  0.00    -0.322 A  
HETATM    7  N   UNL     1     -11.812  13.252  67.308  1.00  0.00    -0.372 NA 
HETATM    8  H   UNL     1     -13.308  13.796  72.209  1.00  0.00     0.000 HD 
HETATM    9  C   UNL     1     -10.154  10.619  65.342  1.00  0.00    -0.356 A  
HETATM   10  C   UNL     1     -12.159  13.411  68.648  1.00  0.00    -0.246 A  
HETATM   11  C   UNL     1      -9.084  10.915  64.327  1.00  0.00    -0.168 C  
HETATM   12  C   UNL     1     -12.565  12.356  70.984  1.00  0.00    -0.254 C  
HETATM   13  N   UNL     1     -12.499  14.561  69.142  1.00  0.00    -0.575 N  
HETATM   14  H   UNL     1     -12.515  15.376  68.529  1.00  0.00     0.000 HD 
HETATM   15  N   UNL     1     -11.669  11.043  69.175  1.00  0.00    -0.309 NA 
HETATM   16  C   UNL     1     -12.838  14.714  70.453  1.00  0.00    -0.270 C  
HETATM   17  N   UNL     1     -12.928  13.631  71.277  1.00  0.00    -0.339 N  
HETATM   18  O   UNL     1     -12.580  11.440  71.788  1.00  0.00    -0.275 OA 
HETATM   19  C   UNL     1     -12.110  12.199  69.563  1.00  0.00    -0.201 A  
HETATM   20  O   UNL     1     -13.068  15.820  70.930  1.00  0.00    -0.516 OA 
ENDROOT
BRANCH   7  21
HETATM   21  C   UNL     1     -11.273  14.436  66.552  1.00  0.00    -0.340 C  
BRANCH  21  22
HETATM   22  C   UNL     1     -10.187  15.199  67.340  1.00  0.00    -0.235 C  
HETATM   23  O   UNL     1     -10.567  16.567  67.475  1.00  0.00    -0.316 OA 
HETATM   24  H   UNL     1      -9.898  17.037  67.960  1.00  0.00     0.000 HD 
BRANCH  22  25
HETATM   25  C   UNL     1      -8.758  15.093  66.758  1.00  0.00    -0.273 C  
HETATM   26  O   UNL     1      -8.369  13.703  66.717  1.00  0.00    -0.422 OA 
HETATM   27  H   UNL     1      -7.492  13.638  66.359  1.00  0.00     0.000 HD 
BRANCH  25  28
HETATM   28  C   UNL     1      -7.616  15.889  67.435  1.00  0.00    -0.179 C  
HETATM   29  O   UNL     1      -8.050  16.265  68.766  1.00  0.00    -0.200 OA 
HETATM   30  H   UNL     1      -7.350  16.753  69.182  1.00  0.00     0.000 HD 
BRANCH  28  31
HETATM   31  C   UNL     1      -7.148  17.160  66.714  1.00  0.00    -0.224 C  
BRANCH  31  32
HETATM   32  O   UNL     1      -8.306  17.749  66.107  1.00  0.00    -0.437 OA 
HETATM   33  P   UNL     1      -8.806  19.166  66.651  1.00  0.00    -0.343 P  
HETATM   34  O   UNL     1      -9.183  18.927  68.184  1.00  0.00    -0.299 OA 
HETATM   35  O   UNL     1     -10.224  19.413  65.966  1.00  0.00    -0.433 OA 
HETATM   36  O   UNL     1      -7.879  20.316  66.472  1.00  0.00    -0.287 OA 
ENDBRANCH  31  32
ENDBRANCH  28  31
ENDBRANCH  25  28
ENDBRANCH  22  25
ENDBRANCH  21  22
ENDBRANCH   7  21
TORSDOF 6
ENDMDL
MODEL       22
REMARK 921   NORMALIZED FREE ENERGY PREDICTED BY IDOCK:   -6.67 KCAL/MOL
REMARK 922        TOTAL FREE ENERGY PREDICTED BY IDOCK:  -11.36 KCAL/MOL
REMARK 923 INTER-LIGAND FREE ENERGY PREDICTED BY IDOCK:  -10.02 KCAL/MOL
REMARK 924 INTRA-LIGAND FREE ENERGY PREDICTED BY IDOCK:   -1.34 KCAL/MOL
REMARK 927      BINDING AFFINITY PREDICTED BY RF-SCORE:    0.00 PKD
ROOT
HETATM    1  C   UNL     1     -13.801  14.008  72.284  1.00  0.00    -0.655 C  
HETATM    2  C   UNL     1     -12.961  13.015  71.532  1.00  0.00    -0.398 A  
HETATM    3  C   UNL     1     -12.933  11.678  71.927  1.00  0.00    -0.442 A  
HETATM    4  C   UNL     1     -12.240  10.727  71.165  1.00  0.00    -0.352 A  
HETATM    5  C   UNL     1     -11.448  11.122  70.060  1.00  0.00    -0.292 A  
HETATM    6  C   UNL     1     -11.303  12.480  69.832  1.00  0.00    -0.052 A  
HETATM    7  N   UNL     1     -10.903  10.157  69.177  1.00  0.00    -0.216 NA 
HETATM    8  H   UNL     1     -11.528   5.202  70.446  1.00  0.00     0.000 HD 
HETATM    9  C   UNL     1     -12.221  13.370  70.396  1.00  0.00    -0.415 A  
HETATM   10  C   UNL     1     -11.125   8.818  69.490  1.00  0.00     0.020 A  
HETATM   11  C   UNL     1     -12.639  14.480  69.471  1.00  0.00    -0.037 C  
HETATM   12  C   UNL     1     -12.044   7.040  71.142  1.00  0.00    -0.369 C  
HETATM   13  N   UNL     1     -10.728   7.853  68.720  1.00  0.00    -0.394 N  
HETATM   14  H   UNL     1     -10.235   8.082  67.857  1.00  0.00     0.000 HD 
HETATM   15  N   UNL     1     -12.412   9.389  71.526  1.00  0.00    -0.343 NA 
HETATM   16  C   UNL     1     -10.946   6.544  69.029  1.00  0.00    -0.321 C  
HETATM   17  N   UNL     1     -11.508   6.197  70.222  1.00  0.00    -0.352 N  
HETATM   18  O   UNL     1     -12.618   6.672  72.153  1.00  0.00    -0.259 OA 
HETATM   19  C   UNL     1     -11.882   8.483  70.765  1.00  0.00    -0.163 A  
HETATM   20  O   UNL     1     -10.649   5.644  68.251  1.00  0.00    -0.212 OA 
ENDROOT
BRANCH   7  21
HETATM   21  C   UNL     1     -10.731  10.546  67.733  1.00  0.00    -0.272 C  
BRANCH  21  22
HETATM   22  C   UNL     1      -9.261  10.468  67.269  1.00  0.00    -0.143 C  
HETATM   23  O   UNL     1      -8.435  11.198  68.175  1.00  0.00    -0.126 OA 
HETATM   24  H   UNL     1      -7.530  11.150  67.890  1.00  0.00     0.000 HD 
BRANCH  22  25
HETATM   25  C   UNL     1      -9.007  10.935  65.816  1.00  0.00    -0.193 C  
HETATM   26  O   UNL     1      -9.028  12.378  65.776  1.00  0.00    -0.426 OA 
HETATM   27  H   UNL     1      -8.872  12.664  64.884  1.00  0.00     0.000 HD 
BRANCH  25  28
HETATM   28  C   UNL     1      -9.934  10.411  64.692  1.00  0.00    -0.338 C  
HETATM   29  O   UNL     1      -9.164   9.520  63.847  1.00  0.00    -0.410 OA 
HETATM   30  H   UNL     1      -9.733   9.198  63.157  1.00  0.00     0.000 HD 
BRANCH  28  31
HETATM   31  C   UNL     1     -10.583  11.472  63.793  1.00  0.00    -0.406 C  
BRANCH  31  32
HETATM   32  O   UNL     1     -11.696  12.013  64.517  1.00  0.00    -0.342 OA 
HETATM   33  P   UNL     1     -12.086  13.542  64.269  1.00  0.00    -0.389 P  
HETATM   34  O   UNL     1     -10.811  14.389  64.721  1.00  0.00    -0.395 OA 
HETATM   35  O   UNL     1     -13.168  13.897  65.386  1.00  0.00    -0.750 OA 
HETATM   36  O   UNL     1     -12.545  13.901  62.899  1.00  0.00    -0.580 OA 
ENDBRANCH  31  32
ENDBRANCH  28  31
ENDBRANCH  25  28
ENDBRANCH  22  25
ENDBRANCH  21  22
ENDBRANCH   7  21
TORSDOF 6
ENDMDL
MODEL       23
REMARK 921   NORMALIZED FREE ENERGY PREDICTED BY IDOCK:   -6.67 KCAL/MOL
REMARK 922        TOTAL FREE ENERGY PREDICTED BY IDOCK:  -11.35 KCAL/MOL
REMARK 923 INTER-LIGAND FREE ENERGY PREDICTED BY IDOCK:   -9.91 KCAL/MOL
REMARK 924 INTRA-LIGAND FREE ENERGY PREDICTED BY IDOCK:   -1.44 KCAL/MOL
REMARK 927      BINDING AFFINITY PREDICTED BY RF-SCORE:    0.00 PKD
ROOT
HETATM    1  C   UNL     1      -7.442  19.418  68.576  1.00  0.00    -0.366 C  
HETATM    2  C   UNL     1      -8.058  18.074  68.311  1.00  0.00    -0.296 A  
HETATM    3  C   UNL     1      -9.072  17.941  67.364  1.00  0.00    -0.245 A  
HETATM    4  C   UNL     1      -9.573  16.675  67.033  1.00  0.00    -0.244 A  
HETATM    5  C   UNL     1      -9.160  15.524  67.745  1.00  0.00    -0.178 A  
HETATM    6  C   UNL     1      -8.330  15.713  68.837  1.00  0.00    -0.210 A  
HETATM    7  N   UNL     1      -9.514  14.227  67.295  1.00  0.00    -0.213 NA 
HETATM    8  H   UNL     1     -12.740  13.937  63.287  1.00  0.00     0.000 HD 
HETATM    9  C   UNL     1      -7.619  16.910  68.956  1.00  0.00    -0.210 A  
HETATM   10  C   UNL     1     -10.338  14.151  66.174  1.00  0.00    -0.300 A  
HETATM   11  C   UNL     1      -6.202  16.731  69.429  1.00  0.00    -0.219 C  
HETATM   12  C   UNL     1     -11.791  15.354  64.393  1.00  0.00    -0.256 C  
HETATM   13  N   UNL     1     -10.673  13.018  65.639  1.00  0.00    -0.272 N  
HETATM   14  H   UNL     1     -10.322  12.154  66.052  1.00  0.00     0.000 HD 
HETATM   15  N   UNL     1     -10.454  16.613  65.949  1.00  0.00    -0.340 NA 
HETATM   16  C   UNL     1     -11.479  12.946  64.542  1.00  0.00    -0.344 C  
HETATM   17  N   UNL     1     -12.049  14.072  64.026  1.00  0.00    -0.437 N  
HETATM   18  O   UNL     1     -12.261  16.331  63.835  1.00  0.00    -0.945 OA 
HETATM   19  C   UNL     1     -10.837  15.442  65.547  1.00  0.00    -0.374 A  
HETATM   20  O   UNL     1     -11.713  11.877  63.989  1.00  0.00    -0.384 OA 
ENDROOT
BRANCH   7  21
HETATM   21  C   UNL     1      -8.549  13.104  67.565  1.00  0.00    -0.196 C  
BRANCH  21  22
HETATM   22  C   UNL     1      -8.857  12.362  68.883  1.00  0.00     0.304 C  
HETATM   23  O   UNL     1      -7.645  11.860  69.442  1.00  0.00    -0.341 OA 
HETATM   24  H   UNL     1      -7.834  11.402  70.253  1.00  0.00     0.000 HD 
BRANCH  22  25
HETATM   25  C   UNL     1      -9.905  11.230  68.767  1.00  0.00    -0.184 C  
HETATM   26  O   UNL     1     -10.047  10.861  67.378  1.00  0.00    -0.182 OA 
HETATM   27  H   UNL     1     -10.690  10.166  67.308  1.00  0.00     0.000 HD 
BRANCH  25  28
HETATM   28  C   UNL     1     -11.321  11.463  69.348  1.00  0.00    -0.297 C  
HETATM   29  O   UNL     1     -12.292  10.983  68.384  1.00  0.00    -0.762 OA 
HETATM   30  H   UNL     1     -13.161  11.125  68.741  1.00  0.00     0.000 HD 
BRANCH  28  31
HETATM   31  C   UNL     1     -11.684  12.911  69.702  1.00  0.00    -0.299 C  
BRANCH  31  32
HETATM   32  O   UNL     1     -12.401  12.873  70.943  1.00  0.00    -0.370 OA 
HETATM   33  P   UNL     1     -12.834  14.261  71.607  1.00  0.00    -0.377 P  
HETATM   34  O   UNL     1     -11.472  15.037  71.906  1.00  0.00    -0.389 OA 
HETATM   35  O   UNL     1     -13.366  13.893  73.064  1.00  0.00    -0.623 OA 
HETATM   36  O   UNL     1     -13.802  15.094  70.842  1.00  0.00    -0.364 OA 
ENDBRANCH  31  32
ENDBRANCH  28  31
ENDBRANCH  25  28
ENDBRANCH  22  25
ENDBRANCH  21  22
ENDBRANCH   7  21
TORSDOF 6
ENDMDL
MODEL       24
REMARK 921   NORMALIZED FREE ENERGY PREDICTED BY IDOCK:   -6.65 KCAL/MOL
REMARK 922        TOTAL FREE ENERGY PREDICTED BY IDOCK:  -11.33 KCAL/MOL
REMARK 923 INTER-LIGAND FREE ENERGY PREDICTED BY IDOCK:   -9.67 KCAL/MOL
REMARK 924 INTRA-LIGAND FREE ENERGY PREDICTED BY IDOCK:   -1.66 KCAL/MOL
REMARK 927      BINDING AFFINITY PREDICTED BY RF-SCORE:    0.00 PKD
ROOT
HETATM    1  C   UNL     1     -13.282  12.635  72.139  1.00  0.00    -0.527 C  
HETATM    2  C   UNL     1     -12.523  12.896  70.870  1.00  0.00    -0.383 A  
HETATM    3  C   UNL     1     -12.034  11.833  70.112  1.00  0.00    -0.421 A  
HETATM    4  C   UNL     1     -11.424  12.065  68.872  1.00  0.00    -0.301 A  
HETATM    5  C   UNL     1     -11.170  13.385  68.426  1.00  0.00    -0.279 A  
HETATM    6  C   UNL     1     -11.450  14.419  69.303  1.00  0.00    -0.323 A  
HETATM    7  N   UNL     1     -10.731  13.630  67.101  1.00  0.00    -0.275 NA 
HETATM    8  H   UNL     1      -9.648   9.517  64.192  1.00  0.00     0.000 HD 
HETATM    9  C   UNL     1     -12.317  14.191  70.375  1.00  0.00    -0.428 A  
HETATM   10  C   UNL     1     -10.496  12.517  66.297  1.00  0.00    -0.246 A  
HETATM   11  C   UNL     1     -13.282  15.318  70.627  1.00  0.00    -0.370 C  
HETATM   12  C   UNL     1     -10.340   9.938  66.055  1.00  0.00    -0.132 C  
HETATM   13  N   UNL     1     -10.153  12.624  65.052  1.00  0.00    -0.413 N  
HETATM   14  H   UNL     1     -10.051  13.554  64.646  1.00  0.00     0.000 HD 
HETATM   15  N   UNL     1     -11.128  10.940  68.098  1.00  0.00    -0.257 NA 
HETATM   16  C   UNL     1      -9.925  11.533  64.267  1.00  0.00    -0.271 C  
HETATM   17  N   UNL     1      -9.952  10.278  64.799  1.00  0.00    -0.341 N  
HETATM   18  O   UNL     1     -10.433   8.789  66.453  1.00  0.00    -0.216 OA 
HETATM   19  C   UNL     1     -10.676  11.132  66.899  1.00  0.00    -0.274 A  
HETATM   20  O   UNL     1      -9.692  11.644  63.068  1.00  0.00    -0.396 OA 
ENDROOT
BRANCH   7  21
HETATM   21  C   UNL     1     -11.153  14.920  66.451  1.00  0.00    -0.342 C  
BRANCH  21  22
HETATM   22  C   UNL     1      -9.965  15.694  65.842  1.00  0.00    -0.351 C  
HETATM   23  O   UNL     1      -8.740  15.076  66.237  1.00  0.00    -0.453 OA 
HETATM   24  H   UNL     1      -8.009  15.553  65.862  1.00  0.00     0.000 HD 
BRANCH  22  25
HETATM   25  C   UNL     1      -9.932  17.206  66.166  1.00  0.00    -0.281 C  
HETATM   26  O   UNL     1      -8.638  17.736  65.804  1.00  0.00    -0.510 OA 
HETATM   27  H   UNL     1      -8.619  18.665  66.003  1.00  0.00     0.000 HD 
BRANCH  25  28
HETATM   28  C   UNL     1     -10.250  17.666  67.610  1.00  0.00    -0.351 C  
HETATM   29  O   UNL     1     -11.108  18.832  67.537  1.00  0.00    -0.326 OA 
HETATM   30  H   UNL     1     -11.303  19.115  68.423  1.00  0.00     0.000 HD 
BRANCH  28  31
HETATM   31  C   UNL     1      -9.047  18.019  68.494  1.00  0.00    -0.284 C  
BRANCH  31  32
HETATM   32  O   UNL     1      -8.331  16.801  68.737  1.00  0.00    -0.239 OA 
HETATM   33  P   UNL     1      -6.736  16.863  68.803  1.00  0.00    -0.212 P  
HETATM   34  O   UNL     1      -6.267  17.373  67.366  1.00  0.00    -0.132 OA 
HETATM   35  O   UNL     1      -6.247  15.345  68.823  1.00  0.00    -0.095 OA 
HETATM   36  O   UNL     1      -6.144  17.665  69.908  1.00  0.00    -0.244 OA 
ENDBRANCH  31  32
ENDBRANCH  28  31
ENDBRANCH  25  28
ENDBRANCH  22  25
ENDBRANCH  21  22
ENDBRANCH   7  21
TORSDOF 6
ENDMDL
MODEL       25
REMARK 921   NORMALIZED FREE ENERGY PREDICTED BY IDOCK:   -6.64 KCAL/MOL
REMARK 922        TOTAL FREE ENERGY PREDICTED BY IDOCK:  -11.32 KCAL/MOL
REMARK 923 INTER-LIGAND FREE ENERGY PREDICTED BY IDOCK:   -9.24 KCAL/MOL
REMARK 924 INTRA-LIGAND FREE ENERGY PREDICTED BY IDOCK:   -2.08 KCAL/MOL
REMARK 927      BINDING AFFINITY PREDICTED BY RF-SCORE:    0.00 PKD
ROOT
HETATM    1  C   UNL     1      -9.745  20.747  67.341  1.00  0.00    -0.473 C  
HETATM    2  C   UNL     1      -9.635  19.249  67.365  1.00  0.00    -0.389 A  
HETATM    3  C   UNL     1     -10.479  18.470  66.575  1.00  0.00    -0.435 A  
HETATM    4  C   UNL     1     -10.307  17.080  66.509  1.00  0.00    -0.298 A  
HETATM    5  C   UNL     1      -9.366  16.426  67.340  1.00  0.00    -0.221 A  
HETATM    6  C   UNL     1      -8.706  17.195  68.284  1.00  0.00    -0.241 A  
HETATM    7  N   UNL     1      -9.054  15.058  67.144  1.00  0.00    -0.204 NA 
HETATM    8  H   UNL     1     -11.831  12.499  63.638  1.00  0.00     0.000 HD 
HETATM    9  C   UNL     1      -8.667  18.584  68.129  1.00  0.00    -0.330 A  
HETATM   10  C   UNL     1      -9.765  14.384  66.154  1.00  0.00    -0.312 A  
HETATM   11  C   UNL     1      -7.331  19.193  68.455  1.00  0.00    -0.333 C  
HETATM   12  C   UNL     1     -11.666  14.381  64.388  1.00  0.00    -0.375 C  
HETATM   13  N   UNL     1      -9.518  13.148  65.846  1.00  0.00    -0.470 N  
HETATM   14  H   UNL     1      -8.780  12.653  66.346  1.00  0.00     0.000 HD 
HETATM   15  N   UNL     1     -11.073  16.399  65.559  1.00  0.00    -0.076 NA 
HETATM   16  C   UNL     1     -10.215  12.491  64.877  1.00  0.00    -0.278 C  
HETATM   17  N   UNL     1     -11.275  13.086  64.260  1.00  0.00    -0.354 N  
HETATM   18  O   UNL     1     -12.568  14.889  63.742  1.00  0.00    -0.791 OA 
HETATM   19  C   UNL     1     -10.846  15.134  65.393  1.00  0.00    -0.381 A  
HETATM   20  O   UNL     1      -9.912  11.354  64.530  1.00  0.00    -0.242 OA 
ENDROOT
BRANCH   7  21
HETATM   21  C   UNL     1      -7.657  14.604  67.473  1.00  0.00    -0.194 C  
BRANCH  21  22
HETATM   22  C   UNL     1      -7.633  13.468  68.517  1.00  0.00    -0.129 C  
HETATM   23  O   UNL     1      -7.076  13.953  69.738  1.00  0.00    -0.339 OA 
HETATM   24  H   UNL     1      -7.062  13.253  70.380  1.00  0.00     0.000 HD 
BRANCH  22  25
HETATM   25  C   UNL     1      -6.903  12.180  68.068  1.00  0.00    -0.081 C  
HETATM   26  O   UNL     1      -6.432  12.355  66.714  1.00  0.00    -0.449 OA 
HETATM   27  H   UNL     1      -5.984  11.565  66.439  1.00  0.00     0.000 HD 
BRANCH  25  28
HETATM   28  C   UNL     1      -7.659  10.831  68.140  1.00  0.00    -0.093 C  
HETATM   29  O   UNL     1      -8.099  10.483  66.803  1.00  0.00    -0.118 OA 
HETATM   30  H   UNL     1      -8.562   9.655  66.848  1.00  0.00     0.000 HD 
BRANCH  28  31
HETATM   31  C   UNL     1      -8.880  10.781  69.067  1.00  0.00    -0.127 C  
BRANCH  31  32
HETATM   32  O   UNL     1      -9.893  11.606  68.474  1.00  0.00    -0.197 OA 
HETATM   33  P   UNL     1     -11.350  10.983  68.270  1.00  0.00    -0.287 P  
HETATM   34  O   UNL     1     -11.152   9.745  67.282  1.00  0.00    -0.177 OA 
HETATM   35  O   UNL     1     -12.145  12.035  67.374  1.00  0.00    -0.566 OA 
HETATM   36  O   UNL     1     -12.095  10.607  69.503  1.00  0.00    -0.283 OA 
ENDBRANCH  31  32
ENDBRANCH  28  31
ENDBRANCH  25  28
ENDBRANCH  22  25
ENDBRANCH  21  22
ENDBRANCH   7  21
TORSDOF 6
ENDMDL
MODEL       26
REMARK 921   NORMALIZED FREE ENERGY PREDICTED BY IDOCK:   -6.62 KCAL/MOL
REMARK 922        TOTAL FREE ENERGY PREDICTED BY IDOCK:  -11.29 KCAL/MOL
REMARK 923 INTER-LIGAND FREE ENERGY PREDICTED BY IDOCK:   -9.69 KCAL/MOL
REMARK 924 INTRA-LIGAND FREE ENERGY PREDICTED BY IDOCK:   -1.60 KCAL/MOL
REMARK 927      BINDING AFFINITY PREDICTED BY RF-SCORE:    0.00 PKD
ROOT
HETATM    1  C   UNL     1     -10.306  18.665  66.114  1.00  0.00    -0.481 C  
HETATM    2  C   UNL     1     -10.544  17.224  66.465  1.00  0.00    -0.178 A  
HETATM    3  C   UNL     1     -10.482  16.242  65.478  1.00  0.00    -0.383 A  
HETATM    4  C   UNL     1     -10.593  14.886  65.817  1.00  0.00    -0.331 A  
HETATM    5  C   UNL     1     -10.901  14.494  67.142  1.00  0.00    -0.296 A  
HETATM    6  C   UNL     1     -11.191  15.496  68.053  1.00  0.00    -0.332 A  
HETATM    7  N   UNL     1     -10.826  13.133  67.531  1.00  0.00    -0.251 NA 
HETATM    8  H   UNL     1      -9.871   9.685  63.823  1.00  0.00     0.000 HD 
HETATM    9  C   UNL     1     -10.785  16.806  67.781  1.00  0.00    -0.321 A  
HETATM   10  C   UNL     1     -10.509  12.209  66.538  1.00  0.00    -0.225 A  
HETATM   11  C   UNL     1     -10.234  17.532  68.977  1.00  0.00    -0.314 C  
HETATM   12  C   UNL     1     -10.057  11.698  64.034  1.00  0.00    -0.323 C  
HETATM   13  N   UNL     1     -10.351  10.948  66.793  1.00  0.00    -0.232 N  
HETATM   14  H   UNL     1     -10.465  10.621  67.752  1.00  0.00     0.000 HD 
HETATM   15  N   UNL     1     -10.339  13.963  64.799  1.00  0.00    -0.424 NA 
HETATM   16  C   UNL     1     -10.040  10.046  65.820  1.00  0.00    -0.250 C  
HETATM   17  N   UNL     1      -9.982  10.429  64.512  1.00  0.00    -0.343 N  
HETATM   18  O   UNL     1      -9.907  11.995  62.861  1.00  0.00    -0.307 OA 
HETATM   19  C   UNL     1     -10.315  12.706  65.114  1.00  0.00    -0.292 A  
HETATM   20  O   UNL     1      -9.803   8.873  66.086  1.00  0.00    -0.271 OA 
ENDROOT
BRANCH   7  21
HETATM   21  C   UNL     1     -10.441  12.832  68.954  1.00  0.00    -0.078 C  
BRANCH  21  22
HETATM   22  C   UNL     1     -11.666  12.591  69.861  1.00  0.00    -0.255 C  
HETATM   23  O   UNL     1     -11.736  13.617  70.851  1.00  0.00    -0.499 OA 
HETATM   24  H   UNL     1     -12.490  13.469  71.410  1.00  0.00     0.000 HD 
BRANCH  22  25
HETATM   25  C   UNL     1     -11.724  11.197  70.528  1.00  0.00    -0.293 C  
HETATM   26  O   UNL     1     -11.413  10.191  69.540  1.00  0.00    -0.335 OA 
HETATM   27  H   UNL     1     -11.448   9.335  69.950  1.00  0.00     0.000 HD 
BRANCH  25  28
HETATM   28  C   UNL     1     -13.025  10.770  71.251  1.00  0.00    -0.402 C  
HETATM   29  O   UNL     1     -13.385  11.812  72.192  1.00  0.00    -0.558 OA 
HETATM   30  H   UNL     1     -14.183  11.550  72.636  1.00  0.00     0.000 HD 
BRANCH  28  31
HETATM   31  C   UNL     1     -12.976   9.440  72.015  1.00  0.00    -0.423 C  
BRANCH  31  32
HETATM   32  O   UNL     1     -12.853   8.397  71.038  1.00  0.00    -0.143 OA 
HETATM   33  P   UNL     1     -11.827   7.208  71.329  1.00  0.00    -0.354 P  
HETATM   34  O   UNL     1     -10.390   7.896  71.426  1.00  0.00    -0.195 OA 
HETATM   35  O   UNL     1     -11.737   6.377  69.970  1.00  0.00    -0.429 OA 
HETATM   36  O   UNL     1     -12.120   6.345  72.505  1.00  0.00    -0.175 OA 
ENDBRANCH  31  32
ENDBRANCH  28  31
ENDBRANCH  25  28
ENDBRANCH  22  25
ENDBRANCH  21  22
ENDBRANCH   7  21
TORSDOF 6
ENDMDL
MODEL       27
REMARK 921   NORMALIZED FREE ENERGY PREDICTED BY IDOCK:   -6.62 KCAL/MOL
REMARK 922        TOTAL FREE ENERGY PREDICTED BY IDOCK:  -11.29 KCAL/MOL
REMARK 923 INTER-LIGAND FREE ENERGY PREDICTED BY IDOCK:   -9.53 KCAL/MOL
REMARK 924 INTRA-LIGAND FREE ENERGY PREDICTED BY IDOCK:   -1.76 KCAL/MOL
REMARK 927      BINDING AFFINITY PREDICTED BY RF-SCORE:    0.00 PKD
ROOT
HETATM    1  C   UNL     1     -10.859  15.444  65.472  1.00  0.00    -0.384 C  
HETATM    2  C   UNL     1     -10.808  14.205  66.321  1.00  0.00    -0.300 A  
HETATM    3  C   UNL     1     -11.344  14.213  67.607  1.00  0.00    -0.342 A  
HETATM    4  C   UNL     1     -11.398  13.033  68.361  1.00  0.00    -0.291 A  
HETATM    5  C   UNL     1     -10.793  11.844  67.890  1.00  0.00    -0.213 A  
HETATM    6  C   UNL     1     -10.062  11.922  66.716  1.00  0.00    -0.225 A  
HETATM    7  N   UNL     1     -11.007  10.609  68.552  1.00  0.00    -0.229 NA 
HETATM    8  H   UNL     1     -13.653  10.749  72.971  1.00  0.00     0.000 HD 
HETATM    9  C   UNL     1     -10.273  12.999  65.850  1.00  0.00    -0.298 A  
HETATM   10  C   UNL     1     -11.774  10.641  69.714  1.00  0.00    -0.310 A  
HETATM   11  C   UNL     1     -10.298  12.613  64.396  1.00  0.00    -0.386 C  
HETATM   12  C   UNL     1     -13.033  12.023  71.514  1.00  0.00    -0.304 C  
HETATM   13  N   UNL     1     -12.085   9.565  70.366  1.00  0.00    -0.466 N  
HETATM   14  H   UNL     1     -11.758   8.664  70.017  1.00  0.00     0.000 HD 
HETATM   15  N   UNL     1     -12.112  13.089  69.561  1.00  0.00    -0.270 NA 
HETATM   16  C   UNL     1     -12.836   9.599  71.503  1.00  0.00    -0.392 C  
HETATM   17  N   UNL     1     -13.204  10.789  72.056  1.00  0.00    -0.455 N  
HETATM   18  O   UNL     1     -13.464  13.051  72.008  1.00  0.00    -0.481 OA 
HETATM   19  C   UNL     1     -12.281  11.983  70.217  1.00  0.00    -0.266 A  
HETATM   20  O   UNL     1     -13.203   8.569  72.059  1.00  0.00    -0.338 OA 
ENDROOT
BRANCH   7  21
HETATM   21  C   UNL     1     -11.005   9.357  67.717  1.00  0.00    -0.055 C  
BRANCH  21  22
HETATM   22  C   UNL     1     -10.028   8.289  68.253  1.00  0.00    -0.191 C  
HETATM   23  O   UNL     1      -8.736   8.495  67.683  1.00  0.00    -0.134 OA 
HETATM   24  H   UNL     1      -8.135   7.837  68.013  1.00  0.00     0.000 HD 
BRANCH  22  25
HETATM   25  C   UNL     1     -10.479   6.824  68.045  1.00  0.00    -0.211 C  
HETATM   26  O   UNL     1     -11.460   6.781  66.986  1.00  0.00    -0.735 OA 
HETATM   27  H   UNL     1     -11.737   5.882  66.859  1.00  0.00     0.000 HD 
BRANCH  25  28
HETATM   28  C   UNL     1     -11.046   6.040  69.254  1.00  0.00    -0.354 C  
HETATM   29  O   UNL     1     -12.184   6.769  69.776  1.00  0.00    -0.610 OA 
HETATM   30  H   UNL     1     -12.532   6.288  70.518  1.00  0.00     0.000 HD 
BRANCH  28  31
HETATM   31  C   UNL     1     -10.077   5.782  70.415  1.00  0.00    -0.210 C  
BRANCH  31  32
HETATM   32  O   UNL     1     -10.696   6.295  71.602  1.00  0.00    -0.224 OA 
HETATM   33  P   UNL     1      -9.834   7.250  72.550  1.00  0.00    -0.180 P  
HETATM   34  O   UNL     1      -8.600   6.366  73.042  1.00  0.00    -0.121 OA 
HETATM   35  O   UNL     1     -10.699   7.430  73.878  1.00  0.00    -0.319 OA 
HETATM   36  O   UNL     1      -9.401   8.551  71.973  1.00  0.00    -0.234 OA 
ENDBRANCH  31  32
ENDBRANCH  28  31
ENDBRANCH  25  28
ENDBRANCH  22  25
ENDBRANCH  21  22
ENDBRANCH   7  21
TORSDOF 6
ENDMDL
MODEL       28
REMARK 921   NORMALIZED FREE ENERGY PREDICTED BY IDOCK:   -6.61 KCAL/MOL
REMARK 922        TOTAL FREE ENERGY PREDICTED BY IDOCK:  -11.28 KCAL/MOL
REMARK 923 INTER-LIGAND FREE ENERGY PREDICTED BY IDOCK:  -10.11 KCAL/MOL
REMARK 924 INTRA-LIGAND FREE ENERGY PREDICTED BY IDOCK:   -1.16 KCAL/MOL
REMARK 927      BINDING AFFINITY PREDICTED BY RF-SCORE:    0.00 PKD
ROOT
HETATM    1  C   UNL     1     -11.787   7.191  72.201  1.00  0.00    -0.315 C  
HETATM    2  C   UNL     1     -11.421   8.191  71.142  1.00  0.00    -0.304 A  
HETATM    3  C   UNL     1     -10.659   7.802  70.041  1.00  0.00    -0.238 A  
HETATM    4  C   UNL     1     -10.409   8.702  68.996  1.00  0.00    -0.213 A  
HETATM    5  C   UNL     1     -10.806  10.057  69.096  1.00  0.00    -0.222 A  
HETATM    6  C   UNL     1     -11.351  10.474  70.299  1.00  0.00    -0.407 A  
HETATM    7  N   UNL     1     -10.727  10.920  67.975  1.00  0.00    -0.202 NA 
HETATM    8  H   UNL     1      -8.500   9.043  63.725  1.00  0.00     0.000 HD 
HETATM    9  C   UNL     1     -11.859   9.522  71.187  1.00  0.00    -0.436 A  
HETATM   10  C   UNL     1     -10.179  10.391  66.809  1.00  0.00    -0.226 A  
HETATM   11  C   UNL     1     -13.153   9.928  71.838  1.00  0.00    -0.559 C  
HETATM   12  C   UNL     1      -8.997   8.426  65.595  1.00  0.00    -0.134 C  
HETATM   13  N   UNL     1     -10.116  11.070  65.706  1.00  0.00    -0.242 N  
HETATM   14  H   UNL     1     -10.479  12.023  65.691  1.00  0.00     0.000 HD 
HETATM   15  N   UNL     1      -9.796   8.180  67.854  1.00  0.00    -0.161 NA 
HETATM   16  C   UNL     1      -9.580  10.550  64.565  1.00  0.00    -0.302 C  
HETATM   17  N   UNL     1      -8.993   9.320  64.573  1.00  0.00    -0.179 N  
HETATM   18  O   UNL     1      -8.535   7.299  65.519  1.00  0.00    -0.141 OA 
HETATM   19  C   UNL     1      -9.664   8.962  66.828  1.00  0.00    -0.219 A  
HETATM   20  O   UNL     1      -9.610  11.166  63.505  1.00  0.00    -0.256 OA 
ENDROOT
BRANCH   7  21
HETATM   21  C   UNL     1     -11.749  12.019  67.865  1.00  0.00    -0.323 C  
BRANCH  21  22
HETATM   22  C   UNL     1     -11.359  13.275  68.673  1.00  0.00    -0.288 C  
HETATM   23  O   UNL     1     -12.269  14.333  68.380  1.00  0.00    -0.562 OA 
HETATM   24  H   UNL     1     -12.029  15.106  68.878  1.00  0.00     0.000 HD 
BRANCH  22  25
HETATM   25  C   UNL     1      -9.900  13.752  68.480  1.00  0.00    -0.204 C  
HETATM   26  O   UNL     1      -9.678  14.924  69.293  1.00  0.00    -0.290 OA 
HETATM   27  H   UNL     1      -8.783  15.216  69.175  1.00  0.00     0.000 HD 
BRANCH  25  28
HETATM   28  C   UNL     1      -9.400  14.061  67.048  1.00  0.00    -0.250 C  
HETATM   29  O   UNL     1      -8.106  14.705  67.148  1.00  0.00    -0.203 OA 
HETATM   30  H   UNL     1      -7.799  14.895  66.269  1.00  0.00     0.000 HD 
BRANCH  28  31
HETATM   31  C   UNL     1     -10.306  14.951  66.186  1.00  0.00    -0.301 C  
BRANCH  31  32
HETATM   32  O   UNL     1     -10.678  14.183  65.034  1.00  0.00    -0.364 OA 
HETATM   33  P   UNL     1     -12.077  14.504  64.333  1.00  0.00    -0.291 P  
HETATM   34  O   UNL     1     -13.189  14.209  65.439  1.00  0.00    -0.741 OA 
HETATM   35  O   UNL     1     -12.305  13.334  63.273  1.00  0.00    -0.721 OA 
HETATM   36  O   UNL     1     -12.227  15.855  63.729  1.00  0.00    -0.817 OA 
ENDBRANCH  31  32
ENDBRANCH  28  31
ENDBRANCH  25  28
ENDBRANCH  22  25
ENDBRANCH  21  22
ENDBRANCH   7  21
TORSDOF 6
ENDMDL
MODEL       29
REMARK 921   NORMALIZED FREE ENERGY PREDICTED BY IDOCK:   -6.59 KCAL/MOL
REMARK 922        TOTAL FREE ENERGY PREDICTED BY IDOCK:  -11.25 KCAL/MOL
REMARK 923 INTER-LIGAND FREE ENERGY PREDICTED BY IDOCK:  -10.22 KCAL/MOL
REMARK 924 INTRA-LIGAND FREE ENERGY PREDICTED BY IDOCK:   -1.03 KCAL/MOL
REMARK 927      BINDING AFFINITY PREDICTED BY RF-SCORE:    0.00 PKD
ROOT
HETATM    1  C   UNL     1     -10.664  17.923  67.385  1.00  0.00    -0.306 C  
HETATM    2  C   UNL     1     -10.667  16.505  67.883  1.00  0.00    -0.337 A  
HETATM    3  C   UNL     1     -11.313  16.181  69.074  1.00  0.00    -0.340 A  
HETATM    4  C   UNL     1     -11.415  14.845  69.487  1.00  0.00    -0.297 A  
HETATM    5  C   UNL     1     -10.753  13.815  68.776  1.00  0.00    -0.249 A  
HETATM    6  C   UNL     1      -9.923  14.192  67.733  1.00  0.00    -0.235 A  
HETATM    7  N   UNL     1     -11.005  12.453  69.072  1.00  0.00    -0.225 NA 
HETATM    8  H   UNL     1     -14.027  11.455  73.125  1.00  0.00     0.000 HD 
HETATM    9  C   UNL     1     -10.075  15.459  67.162  1.00  0.00    -0.245 A  
HETATM   10  C   UNL     1     -11.870  12.186  70.131  1.00  0.00    -0.287 A  
HETATM   11  C   UNL     1      -9.967  15.467  65.662  1.00  0.00    -0.396 C  
HETATM   12  C   UNL     1     -13.302  13.060  72.110  1.00  0.00    -0.524 C  
HETATM   13  N   UNL     1     -12.221  10.979  70.449  1.00  0.00    -0.345 N  
HETATM   14  H   UNL     1     -11.850  10.199  69.907  1.00  0.00     0.000 HD 
HETATM   15  N   UNL     1     -12.231  14.591  70.592  1.00  0.00    -0.307 NA 
HETATM   16  C   UNL     1     -13.068  10.721  71.485  1.00  0.00    -0.414 C  
HETATM   17  N   UNL     1     -13.500  11.729  72.295  1.00  0.00    -0.275 N  
HETATM   18  O   UNL     1     -13.789  13.927  72.816  1.00  0.00    -0.701 OA 
HETATM   19  C   UNL     1     -12.439  13.354  70.919  1.00  0.00    -0.359 A  
HETATM   20  O   UNL     1     -13.466   9.585  71.719  1.00  0.00    -0.381 OA 
ENDROOT
BRANCH   7  21
HETATM   21  C   UNL     1     -10.910  11.462  67.943  1.00  0.00    -0.225 C  
BRANCH  21  22
HETATM   22  C   UNL     1      -9.598  10.650  67.975  1.00  0.00    -0.157 C  
HETATM   23  O   UNL     1      -8.692  11.244  68.903  1.00  0.00    -0.295 OA 
HETATM   24  H   UNL     1      -7.884  10.745  68.922  1.00  0.00     0.000 HD 
BRANCH  22  25
HETATM   25  C   UNL     1      -8.912  10.460  66.601  1.00  0.00    -0.141 C  
HETATM   26  O   UNL     1      -8.082  11.611  66.328  1.00  0.00    -0.350 OA 
HETATM   27  H   UNL     1      -7.661  11.494  65.485  1.00  0.00     0.000 HD 
BRANCH  25  28
HETATM   28  C   UNL     1      -9.795  10.201  65.356  1.00  0.00    -0.307 C  
HETATM   29  O   UNL     1      -9.189   9.134  64.584  1.00  0.00    -0.434 OA 
HETATM   30  H   UNL     1      -9.731   8.974  63.820  1.00  0.00     0.000 HD 
BRANCH  28  31
HETATM   31  C   UNL     1     -10.020  11.394  64.418  1.00  0.00    -0.274 C  
BRANCH  31  32
HETATM   32  O   UNL     1     -11.257  11.161  63.731  1.00  0.00    -0.275 OA 
HETATM   33  P   UNL     1     -12.329  12.345  63.684  1.00  0.00    -0.460 P  
HETATM   34  O   UNL     1     -12.715  12.634  65.206  1.00  0.00    -0.652 OA 
HETATM   35  O   UNL     1     -13.660  11.697  63.092  1.00  0.00    -0.173 OA 
HETATM   36  O   UNL     1     -11.927  13.582  62.960  1.00  0.00    -0.251 OA 
ENDBRANCH  31  32
ENDBRANCH  28  31
ENDBRANCH  25  28
ENDBRANCH  22  25
ENDBRANCH  21  22
ENDBRANCH   7  21
TORSDOF 6
ENDMDL
MODEL       30
REMARK 921   NORMALIZED FREE ENERGY PREDICTED BY IDOCK:   -6.59 KCAL/MOL
REMARK 922        TOTAL FREE ENERGY PREDICTED BY IDOCK:  -11.24 KCAL/MOL
REMARK 923 INTER-LIGAND FREE ENERGY PREDICTED BY IDOCK:  -10.52 KCAL/MOL
REMARK 924 INTRA-LIGAND FREE ENERGY PREDICTED BY IDOCK:   -0.72 KCAL/MOL
REMARK 927      BINDING AFFINITY PREDICTED BY RF-SCORE:    0.00 PKD
ROOT
HETATM    1  C   UNL     1     -12.846  12.456  64.210  1.00  0.00    -0.356 C  
HETATM    2  C   UNL     1     -11.732  13.301  64.760  1.00  0.00    -0.390 A  
HETATM    3  C   UNL     1     -11.772  14.688  64.628  1.00  0.00    -0.431 A  
HETATM    4  C   UNL     1     -10.794  15.488  65.235  1.00  0.00    -0.411 A  
HETATM    5  C   UNL     1      -9.677  14.903  65.878  1.00  0.00    -0.333 A  
HETATM    6  C   UNL     1      -9.538  13.528  65.791  1.00  0.00    -0.073 A  
HETATM    7  N   UNL     1      -8.791  15.693  66.653  1.00  0.00    -0.266 NA 
HETATM    8  H   UNL     1      -9.547  20.789  66.608  1.00  0.00     0.000 HD 
HETATM    9  C   UNL     1     -10.650  12.748  65.459  1.00  0.00    -0.303 A  
HETATM   10  C   UNL     1      -9.034  17.064  66.688  1.00  0.00    -0.254 A  
HETATM   11  C   UNL     1     -10.764  11.480  66.260  1.00  0.00    -0.321 C  
HETATM   12  C   UNL     1     -10.388  19.108  65.838  1.00  0.00    -0.391 C  
HETATM   13  N   UNL     1      -8.327  17.872  67.414  1.00  0.00    -0.222 N  
HETATM   14  H   UNL     1      -7.567  17.492  67.978  1.00  0.00     0.000 HD 
HETATM   15  N   UNL     1     -11.008  16.868  65.207  1.00  0.00    -0.407 NA 
HETATM   16  C   UNL     1      -8.566  19.214  67.446  1.00  0.00    -0.286 C  
HETATM   17  N   UNL     1      -9.505  19.770  66.628  1.00  0.00    -0.363 N  
HETATM   18  O   UNL     1     -11.270  19.652  65.195  1.00  0.00    -0.294 OA 
HETATM   19  C   UNL     1     -10.184  17.622  65.865  1.00  0.00    -0.232 A  
HETATM   20  O   UNL     1      -7.953  19.956  68.206  1.00  0.00    -0.311 OA 
ENDROOT
BRANCH   7  21
HETATM   21  C   UNL     1      -8.126  15.042  67.836  1.00  0.00    -0.136 C  
BRANCH  21  22
HETATM   22  C   UNL     1      -9.129  14.665  68.947  1.00  0.00    -0.148 C  
HETATM   23  O   UNL     1      -9.240  13.245  69.027  1.00  0.00    -0.365 OA 
HETATM   24  H   UNL     1      -9.858  13.012  69.711  1.00  0.00     0.000 HD 
BRANCH  22  25
HETATM   25  C   UNL     1     -10.530  15.307  68.811  1.00  0.00    -0.237 C  
HETATM   26  O   UNL     1     -10.547  16.553  69.540  1.00  0.00    -0.304 OA 
HETATM   27  H   UNL     1     -11.407  16.947  69.456  1.00  0.00     0.000 HD 
BRANCH  25  28
HETATM   28  C   UNL     1     -11.771  14.485  69.239  1.00  0.00    -0.310 C  
HETATM   29  O   UNL     1     -12.538  14.169  68.050  1.00  0.00    -0.442 OA 
HETATM   30  H   UNL     1     -13.299  13.665  68.312  1.00  0.00     0.000 HD 
BRANCH  28  31
HETATM   31  C   UNL     1     -12.716  15.151  70.248  1.00  0.00    -0.299 C  
BRANCH  31  32
HETATM   32  O   UNL     1     -12.103  15.036  71.539  1.00  0.00    -0.301 OA 
HETATM   33  P   UNL     1     -13.045  14.766  72.800  1.00  0.00    -0.519 P  
HETATM   34  O   UNL     1     -14.020  16.027  72.885  1.00  0.00    -0.560 OA 
HETATM   35  O   UNL     1     -12.111  14.947  74.080  1.00  0.00    -0.528 OA 
HETATM   36  O   UNL     1     -13.788  13.477  72.816  1.00  0.00    -0.730 OA 
ENDBRANCH  31  32
ENDBRANCH  28  31
ENDBRANCH  25  28
ENDBRANCH  22  25
ENDBRANCH  21  22
ENDBRANCH   7  21
TORSDOF 6
ENDMDL
MODEL       31
REMARK 921   NORMALIZED FREE ENERGY PREDICTED BY IDOCK:   -6.56 KCAL/MOL
REMARK 922        TOTAL FREE ENERGY PREDICTED BY IDOCK:  -11.20 KCAL/MOL
REMARK 923 INTER-LIGAND FREE ENERGY PREDICTED BY IDOCK:   -9.82 KCAL/MOL
REMARK 924 INTRA-LIGAND FREE ENERGY PREDICTED BY IDOCK:   -1.38 KCAL/MOL
REMARK 927      BINDING AFFINITY PREDICTED BY RF-SCORE:    0.00 PKD
ROOT
HETATM    1  C   UNL     1      -9.622  19.339  67.651  1.00  0.00    -0.392 C  
HETATM    2  C   UNL     1      -9.835  17.921  68.096  1.00  0.00    -0.334 A  
HETATM    3  C   UNL     1     -10.446  17.653  69.320  1.00  0.00    -0.026 A  
HETATM    4  C   UNL     1     -10.748  16.335  69.690  1.00  0.00    -0.338 A  
HETATM    5  C   UNL     1     -10.322  15.244  68.895  1.00  0.00    -0.243 A  
HETATM    6  C   UNL     1      -9.512  15.525  67.808  1.00  0.00    -0.204 A  
HETATM    7  N   UNL     1     -10.784  13.930  69.159  1.00  0.00    -0.194 NA 
HETATM    8  H   UNL     1     -13.655  13.262  73.385  1.00  0.00     0.000 HD 
HETATM    9  C   UNL     1      -9.481  16.826  67.296  1.00  0.00    -0.231 A  
HETATM   10  C   UNL     1     -11.609  13.763  70.269  1.00  0.00    -0.117 A  
HETATM   11  C   UNL     1      -9.474  16.887  65.793  1.00  0.00    -0.030 C  
HETATM   12  C   UNL     1     -12.735  14.769  72.379  1.00  0.00    -0.349 C  
HETATM   13  N   UNL     1     -12.140  12.618  70.568  1.00  0.00    -0.500 N  
HETATM   14  H   UNL     1     -11.947  11.814  69.972  1.00  0.00     0.000 HD 
HETATM   15  N   UNL     1     -11.520  16.169  70.842  1.00  0.00    -0.416 NA 
HETATM   16  C   UNL     1     -12.948  12.457  71.654  1.00  0.00    -0.305 C  
HETATM   17  N   UNL     1     -13.146  13.483  72.529  1.00  0.00    -0.406 N  
HETATM   18  O   UNL     1     -13.018  15.671  73.150  1.00  0.00    -0.435 OA 
HETATM   19  C   UNL     1     -11.916  14.971  71.139  1.00  0.00    -0.323 A  
HETATM   20  O   UNL     1     -13.519  11.394  71.875  1.00  0.00    -0.360 OA 
ENDROOT
BRANCH   7  21
HETATM   21  C   UNL     1     -10.937  12.994  67.991  1.00  0.00    -0.250 C  
BRANCH  21  22
HETATM   22  C   UNL     1      -9.910  11.841  68.017  1.00  0.00    -0.183 C  
HETATM   23  O   UNL     1      -8.791  12.217  68.818  1.00  0.00    -0.371 OA 
HETATM   24  H   UNL     1      -8.159  11.508  68.833  1.00  0.00     0.000 HD 
BRANCH  22  25
HETATM   25  C   UNL     1      -9.437  11.353  66.627  1.00  0.00    -0.189 C  
HETATM   26  O   UNL     1      -9.006  12.493  65.852  1.00  0.00    -0.426 OA 
HETATM   27  H   UNL     1      -8.716  12.193  64.999  1.00  0.00     0.000 HD 
BRANCH  25  28
HETATM   28  C   UNL     1     -10.412  10.523  65.757  1.00  0.00    -0.143 C  
HETATM   29  O   UNL     1      -9.708   9.352  65.276  1.00  0.00    -0.424 OA 
HETATM   30  H   UNL     1     -10.306   8.842  64.742  1.00  0.00     0.000 HD 
BRANCH  28  31
HETATM   31  C   UNL     1     -11.023  11.239  64.545  1.00  0.00    -0.231 C  
BRANCH  31  32
HETATM   32  O   UNL     1     -12.007  12.153  65.047  1.00  0.00    -0.356 OA 
HETATM   33  P   UNL     1     -12.133  13.585  64.349  1.00  0.00    -0.401 P  
HETATM   34  O   UNL     1     -10.719  14.293  64.565  1.00  0.00    -0.388 OA 
HETATM   35  O   UNL     1     -13.107  14.434  65.283  1.00  0.00    -0.629 OA 
HETATM   36  O   UNL     1     -12.558  13.597  62.923  1.00  0.00    -0.621 OA 
ENDBRANCH  31  32
ENDBRANCH  28  31
ENDBRANCH  25  28
ENDBRANCH  22  25
ENDBRANCH  21  22
ENDBRANCH   7  21
TORSDOF 6
ENDMDL
MODEL       32
REMARK 921   NORMALIZED FREE ENERGY PREDICTED BY IDOCK:   -6.54 KCAL/MOL
REMARK 922        TOTAL FREE ENERGY PREDICTED BY IDOCK:  -11.18 KCAL/MOL
REMARK 923 INTER-LIGAND FREE ENERGY PREDICTED BY IDOCK:   -9.62 KCAL/MOL
REMARK 924 INTRA-LIGAND FREE ENERGY PREDICTED BY IDOCK:   -1.56 KCAL/MOL
REMARK 927      BINDING AFFINITY PREDICTED BY RF-SCORE:    0.00 PKD
ROOT
HETATM    1  C   UNL     1     -11.207   6.438  71.243  1.00  0.00    -0.346 C  
HETATM    2  C   UNL     1     -11.048   7.750  70.530  1.00  0.00    -0.265 A  
HETATM    3  C   UNL     1     -10.476   7.794  69.259  1.00  0.00    -0.221 A  
HETATM    4  C   UNL     1     -10.427   8.999  68.544  1.00  0.00    -0.196 A  
HETATM    5  C   UNL     1     -10.831  10.215  69.145  1.00  0.00    -0.226 A  
HETATM    6  C   UNL     1     -11.172  10.181  70.487  1.00  0.00    -0.411 A  
HETATM    7  N   UNL     1     -10.963  11.396  68.372  1.00  0.00    -0.199 NA 
HETATM    8  H   UNL     1      -9.451  11.161  63.452  1.00  0.00     0.000 HD 
HETATM    9  C   UNL     1     -11.501   8.958  71.078  1.00  0.00    -0.351 A  
HETATM   10  C   UNL     1     -10.610  11.314  67.028  1.00  0.00    -0.246 A  
HETATM   11  C   UNL     1     -12.674   9.033  72.017  1.00  0.00    -0.467 C  
HETATM   12  C   UNL     1      -9.610   9.939  65.068  1.00  0.00    -0.297 C  
HETATM   13  N   UNL     1     -10.751  12.314  66.214  1.00  0.00    -0.252 N  
HETATM   14  H   UNL     1     -11.132  13.190  66.571  1.00  0.00     0.000 HD 
HETATM   15  N   UNL     1     -10.007   8.920  67.214  1.00  0.00    -0.197 NA 
HETATM   16  C   UNL     1     -10.405  12.231  64.898  1.00  0.00    -0.290 C  
HETATM   17  N   UNL     1      -9.799  11.112  64.410  1.00  0.00    -0.263 N  
HETATM   18  O   UNL     1      -9.143   8.935  64.555  1.00  0.00    -0.058 OA 
HETATM   19  C   UNL     1     -10.068   9.998  66.495  1.00  0.00    -0.232 A  
HETATM   20  O   UNL     1     -10.628  13.150  64.119  1.00  0.00    -0.414 OA 
ENDROOT
BRANCH   7  21
HETATM   21  C   UNL     1     -12.013  12.391  68.789  1.00  0.00    -0.229 C  
BRANCH  21  22
HETATM   22  C   UNL     1     -11.423  13.580  69.577  1.00  0.00    -0.255 C  
HETATM   23  O   UNL     1     -11.960  13.590  70.899  1.00  0.00    -0.483 OA 
HETATM   24  H   UNL     1     -11.597  14.323  71.383  1.00  0.00     0.000 HD 
BRANCH  22  25
HETATM   25  C   UNL     1     -11.609  14.964  68.911  1.00  0.00    -0.315 C  
HETATM   26  O   UNL     1     -11.258  14.864  67.513  1.00  0.00    -0.307 OA 
HETATM   27  H   UNL     1     -11.373  15.713  67.105  1.00  0.00     0.000 HD 
BRANCH  25  28
HETATM   28  C   UNL     1     -10.863  16.184  69.505  1.00  0.00    -0.329 C  
HETATM   29  O   UNL     1     -11.552  16.595  70.712  1.00  0.00    -0.527 OA 
HETATM   30  H   UNL     1     -11.094  17.343  71.077  1.00  0.00     0.000 HD 
BRANCH  28  31
HETATM   31  C   UNL     1     -10.729  17.412  68.595  1.00  0.00    -0.249 C  
BRANCH  31  32
HETATM   32  O   UNL     1      -9.564  17.211  67.784  1.00  0.00    -0.249 OA 
HETATM   33  P   UNL     1      -9.347  18.169  66.524  1.00  0.00    -0.239 P  
HETATM   34  O   UNL     1     -10.600  17.912  65.569  1.00  0.00    -0.638 OA 
HETATM   35  O   UNL     1      -8.135  17.534  65.705  1.00  0.00    -0.551 OA 
HETATM   36  O   UNL     1      -9.144  19.615  66.811  1.00  0.00    -0.320 OA 
ENDBRANCH  31  32
ENDBRANCH  28  31
ENDBRANCH  25  28
ENDBRANCH  22  25
ENDBRANCH  21  22
ENDBRANCH   7  21
TORSDOF 6
ENDMDL
MODEL       33
REMARK 921   NORMALIZED FREE ENERGY PREDICTED BY IDOCK:   -6.50 KCAL/MOL
REMARK 922        TOTAL FREE ENERGY PREDICTED BY IDOCK:  -11.12 KCAL/MOL
REMARK 923 INTER-LIGAND FREE ENERGY PREDICTED BY IDOCK:   -9.21 KCAL/MOL
REMARK 924 INTRA-LIGAND FREE ENERGY PREDICTED BY IDOCK:   -1.91 KCAL/MOL
REMARK 927      BINDING AFFINITY PREDICTED BY RF-SCORE:    0.00 PKD
ROOT
HETATM    1  C   UNL     1     -10.739  18.115  67.476  1.00  0.00    -0.365 C  
HETATM    2  C   UNL     1     -10.758  16.655  67.832  1.00  0.00    -0.344 A  
HETATM    3  C   UNL     1     -11.278  16.238  69.056  1.00  0.00    -0.326 A  
HETATM    4  C   UNL     1     -11.402  14.873  69.347  1.00  0.00    -0.290 A  
HETATM    5  C   UNL     1     -10.880  13.894  68.467  1.00  0.00    -0.259 A  
HETATM    6  C   UNL     1     -10.158  14.341  67.372  1.00  0.00    -0.247 A  
HETATM    7  N   UNL     1     -11.167  12.520  68.658  1.00  0.00    -0.258 NA 
HETATM    8  H   UNL     1     -13.750  11.239  72.929  1.00  0.00     0.000 HD 
HETATM    9  C   UNL     1     -10.308  15.665  66.948  1.00  0.00    -0.293 A  
HETATM   10  C   UNL     1     -11.917  12.182  69.782  1.00  0.00    -0.302 A  
HETATM   11  C   UNL     1     -10.374  15.820  65.454  1.00  0.00    -0.417 C  
HETATM   12  C   UNL     1     -13.064  12.907  71.994  1.00  0.00    -0.379 C  
HETATM   13  N   UNL     1     -12.291  10.964  70.023  1.00  0.00    -0.330 N  
HETATM   14  H   UNL     1     -12.027  10.229  69.368  1.00  0.00     0.000 HD 
HETATM   15  N   UNL     1     -12.097  14.541  70.512  1.00  0.00    -0.303 NA 
HETATM   16  C   UNL     1     -13.025  10.637  71.123  1.00  0.00    -0.387 C  
HETATM   17  N   UNL     1     -13.309  11.574  72.072  1.00  0.00    -0.422 N  
HETATM   18  O   UNL     1     -13.421  13.717  72.833  1.00  0.00    -0.652 OA 
HETATM   19  C   UNL     1     -12.330  13.286  70.742  1.00  0.00    -0.344 A  
HETATM   20  O   UNL     1     -13.452   9.500  71.293  1.00  0.00    -0.370 OA 
ENDROOT
BRANCH   7  21
HETATM   21  C   UNL     1     -11.255  11.646  67.436  1.00  0.00    -0.298 C  
BRANCH  21  22
HETATM   22  C   UNL     1     -10.024  10.729  67.273  1.00  0.00    -0.187 C  
HETATM   23  O   UNL     1      -9.261  11.151  66.144  1.00  0.00    -0.186 OA 
HETATM   24  H   UNL     1      -8.503  10.586  66.044  1.00  0.00     0.000 HD 
BRANCH  22  25
HETATM   25  C   UNL     1     -10.341   9.218  67.173  1.00  0.00    -0.260 C  
HETATM   26  O   UNL     1     -11.161   8.835  68.299  1.00  0.00    -0.456 OA 
HETATM   27  H   UNL     1     -11.356   7.907  68.236  1.00  0.00     0.000 HD 
BRANCH  25  28
HETATM   28  C   UNL     1      -9.166   8.215  67.073  1.00  0.00    -0.153 C  
HETATM   29  O   UNL     1      -9.437   7.305  65.977  1.00  0.00    -0.386 OA 
HETATM   30  H   UNL     1      -8.716   6.690  65.916  1.00  0.00     0.000 HD 
BRANCH  28  31
HETATM   31  C   UNL     1      -8.878   7.374  68.324  1.00  0.00    -0.128 C  
BRANCH  31  32
HETATM   32  O   UNL     1      -7.963   8.125  69.134  1.00  0.00    -0.109 OA 
HETATM   33  P   UNL     1      -8.318   8.333  70.678  1.00  0.00    -0.139 P  
HETATM   34  O   UNL     1      -9.693   9.143  70.697  1.00  0.00    -0.214 OA 
HETATM   35  O   UNL     1      -7.264   9.400  71.221  1.00  0.00    -0.299 OA 
HETATM   36  O   UNL     1      -8.373   7.108  71.522  1.00  0.00    -0.110 OA 
ENDBRANCH  31  32
ENDBRANCH  28  31
ENDBRANCH  25  28
ENDBRANCH  22  25
ENDBRANCH  21  22
ENDBRANCH   7  21
TORSDOF 6
ENDMDL
MODEL       34
REMARK 921   NORMALIZED FREE ENERGY PREDICTED BY IDOCK:   -6.46 KCAL/MOL
REMARK 922        TOTAL FREE ENERGY PREDICTED BY IDOCK:  -11.07 KCAL/MOL
REMARK 923 INTER-LIGAND FREE ENERGY PREDICTED BY IDOCK:   -9.62 KCAL/MOL
REMARK 924 INTRA-LIGAND FREE ENERGY PREDICTED BY IDOCK:   -1.45 KCAL/MOL
REMARK 927      BINDING AFFINITY PREDICTED BY RF-SCORE:    0.00 PKD
ROOT
HETATM    1  C   UNL     1     -13.087  11.448  72.071  1.00  0.00    -0.423 C  
HETATM    2  C   UNL     1     -12.427  11.957  70.821  1.00  0.00    -0.384 A  
HETATM    3  C   UNL     1     -11.818  11.069  69.936  1.00  0.00    -0.431 A  
HETATM    4  C   UNL     1     -11.300  11.525  68.716  1.00  0.00    -0.265 A  
HETATM    5  C   UNL     1     -11.262  12.908  68.417  1.00  0.00    -0.270 A  
HETATM    6  C   UNL     1     -11.657  13.787  69.412  1.00  0.00    -0.365 A  
HETATM    7  N   UNL     1     -10.919  13.359  67.118  1.00  0.00    -0.276 NA 
HETATM    8  H   UNL     1      -9.359   9.798  63.736  1.00  0.00     0.000 HD 
HETATM    9  C   UNL     1     -12.436  13.315  70.472  1.00  0.00    -0.332 A  
HETATM   10  C   UNL     1     -10.555  12.388  66.188  1.00  0.00    -0.254 A  
HETATM   11  C   UNL     1     -13.545  14.248  70.873  1.00  0.00    -0.111 C  
HETATM   12  C   UNL     1     -10.030   9.904  65.651  1.00  0.00    -0.283 C  
HETATM   13  N   UNL     1     -10.283  12.681  64.954  1.00  0.00    -0.367 N  
HETATM   14  H   UNL     1     -10.336  13.654  64.655  1.00  0.00     0.000 HD 
HETATM   15  N   UNL     1     -10.873  10.548  67.813  1.00  0.00    -0.272 NA 
HETATM   16  C   UNL     1      -9.928  11.728  64.046  1.00  0.00    -0.293 C  
HETATM   17  N   UNL     1      -9.747  10.434  64.433  1.00  0.00    -0.314 N  
HETATM   18  O   UNL     1      -9.935   8.718  65.919  1.00  0.00    -0.213 OA 
HETATM   19  C   UNL     1     -10.503  10.935  66.633  1.00  0.00    -0.254 A  
HETATM   20  O   UNL     1      -9.763  12.003  62.862  1.00  0.00    -0.334 OA 
ENDROOT
BRANCH   7  21
HETATM   21  C   UNL     1     -11.553  14.633  66.628  1.00  0.00    -0.350 C  
BRANCH  21  22
HETATM   22  C   UNL     1     -10.511  15.698  66.227  1.00  0.00    -0.306 C  
HETATM   23  O   UNL     1     -10.410  15.755  64.805  1.00  0.00    -0.570 OA 
HETATM   24  H   UNL     1      -9.768  16.410  64.557  1.00  0.00     0.000 HD 
BRANCH  22  25
HETATM   25  C   UNL     1      -9.111  15.516  66.858  1.00  0.00    -0.241 C  
HETATM   26  O   UNL     1      -9.211  15.709  68.286  1.00  0.00    -0.184 OA 
HETATM   27  H   UNL     1      -8.351  15.597  68.673  1.00  0.00     0.000 HD 
BRANCH  25  28
HETATM   28  C   UNL     1      -7.940  16.385  66.338  1.00  0.00    -0.294 C  
HETATM   29  O   UNL     1      -6.771  16.106  67.150  1.00  0.00    -0.183 OA 
HETATM   30  H   UNL     1      -6.053  16.639  66.831  1.00  0.00     0.000 HD 
BRANCH  28  31
HETATM   31  C   UNL     1      -8.164  17.903  66.339  1.00  0.00    -0.255 C  
BRANCH  31  32
HETATM   32  O   UNL     1      -8.665  18.255  67.636  1.00  0.00    -0.252 OA 
HETATM   33  P   UNL     1      -9.804  19.371  67.728  1.00  0.00    -0.400 P  
HETATM   34  O   UNL     1      -9.152  20.700  67.130  1.00  0.00    -0.352 OA 
HETATM   35  O   UNL     1      -9.950  19.709  69.280  1.00  0.00    -0.436 OA 
HETATM   36  O   UNL     1     -11.110  19.048  67.091  1.00  0.00    -0.358 OA 
ENDBRANCH  31  32
ENDBRANCH  28  31
ENDBRANCH  25  28
ENDBRANCH  22  25
ENDBRANCH  21  22
ENDBRANCH   7  21
TORSDOF 6
ENDMDL
MODEL       35
REMARK 921   NORMALIZED FREE ENERGY PREDICTED BY IDOCK:   -6.45 KCAL/MOL
REMARK 922        TOTAL FREE ENERGY PREDICTED BY IDOCK:  -11.06 KCAL/MOL
REMARK 923 INTER-LIGAND FREE ENERGY PREDICTED BY IDOCK:   -9.23 KCAL/MOL
REMARK 924 INTRA-LIGAND FREE ENERGY PREDICTED BY IDOCK:   -1.84 KCAL/MOL
REMARK 927      BINDING AFFINITY PREDICTED BY RF-SCORE:    0.00 PKD
ROOT
HETATM    1  C   UNL     1      -7.486   8.828  63.348  1.00  0.00    -0.107 C  
HETATM    2  C   UNL     1      -8.591   9.411  64.182  1.00  0.00    -0.216 A  
HETATM    3  C   UNL     1      -8.738   9.035  65.516  1.00  0.00    -0.212 A  
HETATM    4  C   UNL     1      -9.696   9.657  66.328  1.00  0.00    -0.240 A  
HETATM    5  C   UNL     1     -10.619  10.581  65.782  1.00  0.00    -0.066 A  
HETATM    6  C   UNL     1     -10.605  10.760  64.408  1.00  0.00    -0.246 A  
HETATM    7  N   UNL     1     -11.459  11.351  66.624  1.00  0.00    -0.408 NA 
HETATM    8  H   UNL     1     -11.334  10.286  71.664  1.00  0.00     0.000 HD 
HETATM    9  C   UNL     1      -9.475  10.376  63.680  1.00  0.00    -0.353 A  
HETATM   10  C   UNL     1     -11.379  11.103  67.993  1.00  0.00    -0.312 A  
HETATM   11  C   UNL     1      -9.085  11.353  62.605  1.00  0.00    -0.242 C  
HETATM   12  C   UNL     1     -10.430   9.684  69.947  1.00  0.00    -0.253 C  
HETATM   13  N   UNL     1     -12.054  11.791  68.860  1.00  0.00    -0.261 N  
HETATM   14  H   UNL     1     -12.664  12.539  68.530  1.00  0.00     0.000 HD 
HETATM   15  N   UNL     1      -9.655   9.352  67.691  1.00  0.00    -0.132 NA 
HETATM   16  C   UNL     1     -11.974  11.546  70.198  1.00  0.00    -0.369 C  
HETATM   17  N   UNL     1     -11.250  10.490  70.668  1.00  0.00    -0.284 N  
HETATM   18  O   UNL     1      -9.733   8.809  70.432  1.00  0.00    -0.167 OA 
HETATM   19  C   UNL     1     -10.449  10.005  68.481  1.00  0.00    -0.202 A  
HETATM   20  O   UNL     1     -12.543  12.262  71.015  1.00  0.00    -0.361 OA 
ENDROOT
BRANCH   7  21
HETATM   21  C   UNL     1     -11.846  12.728  66.157  1.00  0.00    -0.425 C  
BRANCH  21  22
HETATM   22  C   UNL     1     -10.819  13.805  66.570  1.00  0.00    -0.287 C  
HETATM   23  O   UNL     1     -11.321  14.539  67.686  1.00  0.00    -0.306 OA 
HETATM   24  H   UNL     1     -10.689  15.202  67.940  1.00  0.00     0.000 HD 
BRANCH  22  25
HETATM   25  C   UNL     1     -10.392  14.771  65.440  1.00  0.00    -0.386 C  
HETATM   26  O   UNL     1      -8.986  15.069  65.584  1.00  0.00    -0.343 OA 
HETATM   27  H   UNL     1      -8.724  15.662  64.889  1.00  0.00     0.000 HD 
BRANCH  25  28
HETATM   28  C   UNL     1     -11.151  16.110  65.277  1.00  0.00    -0.181 C  
HETATM   29  O   UNL     1     -11.391  16.329  63.864  1.00  0.00    -1.415 OA 
HETATM   30  H   UNL     1     -11.857  17.150  63.764  1.00  0.00     0.000 HD 
BRANCH  28  31
HETATM   31  C   UNL     1     -10.458  17.360  65.837  1.00  0.00    -0.252 C  
BRANCH  31  32
HETATM   32  O   UNL     1     -10.850  17.478  67.211  1.00  0.00    -0.269 OA 
HETATM   33  P   UNL     1      -9.702  17.589  68.317  1.00  0.00    -0.345 P  
HETATM   34  O   UNL     1      -8.870  16.231  68.209  1.00  0.00    -0.180 OA 
HETATM   35  O   UNL     1     -10.443  17.446  69.722  1.00  0.00    -0.096 OA 
HETATM   36  O   UNL     1      -8.828  18.792  68.254  1.00  0.00    -0.311 OA 
ENDBRANCH  31  32
ENDBRANCH  28  31
ENDBRANCH  25  28
ENDBRANCH  22  25
ENDBRANCH  21  22
ENDBRANCH   7  21
TORSDOF 6
ENDMDL
MODEL       36
REMARK 921   NORMALIZED FREE ENERGY PREDICTED BY IDOCK:   -6.40 KCAL/MOL
REMARK 922        TOTAL FREE ENERGY PREDICTED BY IDOCK:  -10.98 KCAL/MOL
REMARK 923 INTER-LIGAND FREE ENERGY PREDICTED BY IDOCK:   -9.15 KCAL/MOL
REMARK 924 INTRA-LIGAND FREE ENERGY PREDICTED BY IDOCK:   -1.84 KCAL/MOL
REMARK 927      BINDING AFFINITY PREDICTED BY RF-SCORE:    0.00 PKD
ROOT
HETATM    1  C   UNL     1     -10.678  18.133  67.624  1.00  0.00    -0.364 C  
HETATM    2  C   UNL     1     -10.732  16.666  67.941  1.00  0.00    -0.344 A  
HETATM    3  C   UNL     1     -11.264  16.228  69.152  1.00  0.00    -0.309 A  
HETATM    4  C   UNL     1     -11.420  14.858  69.405  1.00  0.00    -0.299 A  
HETATM    5  C   UNL     1     -10.918  13.892  68.500  1.00  0.00    -0.257 A  
HETATM    6  C   UNL     1     -10.184  14.352  67.419  1.00  0.00    -0.247 A  
HETATM    7  N   UNL     1     -11.237  12.520  68.653  1.00  0.00    -0.258 NA 
HETATM    8  H   UNL     1     -13.859  11.183  72.883  1.00  0.00     0.000 HD 
HETATM    9  C   UNL     1     -10.302  15.690  67.031  1.00  0.00    -0.289 A  
HETATM   10  C   UNL     1     -11.998  12.169  69.766  1.00  0.00    -0.302 A  
HETATM   11  C   UNL     1     -10.361  15.887  65.541  1.00  0.00    -0.425 C  
HETATM   12  C   UNL     1     -13.133  12.860  71.995  1.00  0.00    -0.379 C  
HETATM   13  N   UNL     1     -12.401  10.954  69.973  1.00  0.00    -0.330 N  
HETATM   14  H   UNL     1     -12.152  10.231  69.298  1.00  0.00     0.000 HD 
HETATM   15  N   UNL     1     -12.125  14.511  70.560  1.00  0.00    -0.303 NA 
HETATM   16  C   UNL     1     -13.145  10.614  71.063  1.00  0.00    -0.286 C  
HETATM   17  N   UNL     1     -13.409  11.531  72.036  1.00  0.00    -0.422 N  
HETATM   18  O   UNL     1     -13.474  13.655  72.855  1.00  0.00    -0.639 OA 
HETATM   19  C   UNL     1     -12.388  13.256  70.755  1.00  0.00    -0.344 A  
HETATM   20  O   UNL     1     -13.599   9.483  71.200  1.00  0.00    -0.337 OA 
ENDROOT
BRANCH   7  21
HETATM   21  C   UNL     1     -11.343  11.682  67.408  1.00  0.00    -0.300 C  
BRANCH  21  22
HETATM   22  C   UNL     1     -10.300  10.544  67.369  1.00  0.00    -0.224 C  
HETATM   23  O   UNL     1     -10.951   9.293  67.584  1.00  0.00    -0.483 OA 
HETATM   24  H   UNL     1     -10.309   8.592  67.560  1.00  0.00     0.000 HD 
BRANCH  22  25
HETATM   25  C   UNL     1      -9.114  10.708  68.348  1.00  0.00    -0.156 C  
HETATM   26  O   UNL     1      -7.995  11.281  67.638  1.00  0.00    -0.112 OA 
HETATM   27  H   UNL     1      -7.267  11.382  68.240  1.00  0.00     0.000 HD 
BRANCH  25  28
HETATM   28  C   UNL     1      -8.606   9.465  69.118  1.00  0.00    -0.140 C  
HETATM   29  O   UNL     1      -8.818   8.297  68.287  1.00  0.00    -0.139 OA 
HETATM   30  H   UNL     1      -8.506   7.534  68.759  1.00  0.00     0.000 HD 
BRANCH  28  31
HETATM   31  C   UNL     1      -9.253   9.196  70.484  1.00  0.00    -0.241 C  
BRANCH  31  32
HETATM   32  O   UNL     1     -10.504   8.541  70.236  1.00  0.00    -0.210 OA 
HETATM   33  P   UNL     1     -10.798   7.165  70.994  1.00  0.00    -0.253 P  
HETATM   34  O   UNL     1      -9.663   6.155  70.505  1.00  0.00    -0.170 OA 
HETATM   35  O   UNL     1     -12.118   6.577  70.320  1.00  0.00    -0.348 OA 
HETATM   36  O   UNL     1     -10.896   7.228  72.478  1.00  0.00    -0.237 OA 
ENDBRANCH  31  32
ENDBRANCH  28  31
ENDBRANCH  25  28
ENDBRANCH  22  25
ENDBRANCH  21  22
ENDBRANCH   7  21
TORSDOF 6
ENDMDL
MODEL       37
REMARK 921   NORMALIZED FREE ENERGY PREDICTED BY IDOCK:   -6.39 KCAL/MOL
REMARK 922        TOTAL FREE ENERGY PREDICTED BY IDOCK:  -10.97 KCAL/MOL
REMARK 923 INTER-LIGAND FREE ENERGY PREDICTED BY IDOCK:   -9.39 KCAL/MOL
REMARK 924 INTRA-LIGAND FREE ENERGY PREDICTED BY IDOCK:   -1.58 KCAL/MOL
REMARK 927      BINDING AFFINITY PREDICTED BY RF-SCORE:    0.00 PKD
ROOT
HETATM    1  C   UNL     1      -8.219   7.974  66.988  1.00  0.00    -0.116 C  
HETATM    2  C   UNL     1      -8.978   9.204  67.397  1.00  0.00    -0.128 A  
HETATM    3  C   UNL     1     -10.004   9.116  68.335  1.00  0.00    -0.202 A  
HETATM    4  C   UNL     1     -10.641  10.274  68.803  1.00  0.00    -0.209 A  
HETATM    5  C   UNL     1     -10.350  11.539  68.238  1.00  0.00    -0.197 A  
HETATM    6  C   UNL     1      -9.499  11.569  67.145  1.00  0.00    -0.186 A  
HETATM    7  N   UNL     1     -10.843  12.728  68.830  1.00  0.00    -0.245 NA 
HETATM    8  H   UNL     1     -14.101  12.199  72.786  1.00  0.00     0.000 HD 
HETATM    9  C   UNL     1      -8.663  10.476  66.900  1.00  0.00    -0.130 A  
HETATM   10  C   UNL     1     -11.676  12.584  69.937  1.00  0.00    -0.255 A  
HETATM   11  C   UNL     1      -7.271  10.859  66.476  1.00  0.00    -0.142 C  
HETATM   12  C   UNL     1     -13.001  11.032  71.540  1.00  0.00    -0.448 C  
HETATM   13  N   UNL     1     -12.133  13.603  70.594  1.00  0.00    -0.448 N  
HETATM   14  H   UNL     1     -11.876  14.542  70.291  1.00  0.00     0.000 HD 
HETATM   15  N   UNL     1     -11.528  10.114  69.870  1.00  0.00    -0.260 NA 
HETATM   16  C   UNL     1     -12.948  13.459  71.678  1.00  0.00    -0.355 C  
HETATM   17  N   UNL     1     -13.396  12.227  72.049  1.00  0.00    -0.477 N  
HETATM   18  O   UNL     1     -13.366   9.951  71.971  1.00  0.00    -0.423 OA 
HETATM   19  C   UNL     1     -12.036  11.182  70.400  1.00  0.00    -0.385 A  
HETATM   20  O   UNL     1     -13.299  14.425  72.348  1.00  0.00    -0.381 OA 
ENDROOT
BRANCH   7  21
HETATM   21  C   UNL     1     -10.003  13.971  68.709  1.00  0.00    -0.162 C  
BRANCH  21  22
HETATM   22  C   UNL     1     -10.539  14.947  67.640  1.00  0.00    -0.264 C  
HETATM   23  O   UNL     1     -11.920  14.681  67.400  1.00  0.00    -0.467 OA 
HETATM   24  H   UNL     1     -12.249  15.282  66.741  1.00  0.00     0.000 HD 
BRANCH  22  25
HETATM   25  C   UNL     1      -9.753  14.954  66.307  1.00  0.00    -0.296 C  
HETATM   26  O   UNL     1      -8.435  15.495  66.542  1.00  0.00    -0.270 OA 
HETATM   27  H   UNL     1      -7.953  15.498  65.723  1.00  0.00     0.000 HD 
BRANCH  25  28
HETATM   28  C   UNL     1     -10.361  15.689  65.087  1.00  0.00    -0.334 C  
HETATM   29  O   UNL     1     -10.957  16.926  65.552  1.00  0.00    -0.202 OA 
HETATM   30  H   UNL     1     -11.329  17.377  64.804  1.00  0.00     0.000 HD 
BRANCH  28  31
HETATM   31  C   UNL     1     -11.425  14.923  64.290  1.00  0.00    -0.128 C  
BRANCH  31  32
HETATM   32  O   UNL     1     -10.943  13.583  64.124  1.00  0.00    -0.367 OA 
HETATM   33  P   UNL     1     -11.990  12.383  64.254  1.00  0.00    -0.440 P  
HETATM   34  O   UNL     1     -12.557  12.468  65.743  1.00  0.00    -0.569 OA 
HETATM   35  O   UNL     1     -11.115  11.050  64.278  1.00  0.00    -0.242 OA 
HETATM   36  O   UNL     1     -13.077  12.331  63.239  1.00  0.00    -0.668 OA 
ENDBRANCH  31  32
ENDBRANCH  28  31
ENDBRANCH  25  28
ENDBRANCH  22  25
ENDBRANCH  21  22
ENDBRANCH   7  21
TORSDOF 6
ENDMDL
MODEL       38
REMARK 921   NORMALIZED FREE ENERGY PREDICTED BY IDOCK:   -6.38 KCAL/MOL
REMARK 922        TOTAL FREE ENERGY PREDICTED BY IDOCK:  -10.97 KCAL/MOL
REMARK 923 INTER-LIGAND FREE ENERGY PREDICTED BY IDOCK:   -9.35 KCAL/MOL
REMARK 924 INTRA-LIGAND FREE ENERGY PREDICTED BY IDOCK:   -1.61 KCAL/MOL
REMARK 927      BINDING AFFINITY PREDICTED BY RF-SCORE:    0.00 PKD
ROOT
HETATM    1  C   UNL     1      -9.547  19.702  67.904  1.00  0.00    -0.459 C  
HETATM    2  C   UNL     1      -9.648  18.240  68.236  1.00  0.00    -0.332 A  
HETATM    3  C   UNL     1     -10.403  17.819  69.329  1.00  0.00    -0.065 A  
HETATM    4  C   UNL     1     -10.592  16.453  69.579  1.00  0.00    -0.320 A  
HETATM    5  C   UNL     1      -9.913  15.476  68.811  1.00  0.00    -0.214 A  
HETATM    6  C   UNL     1      -8.986  15.924  67.885  1.00  0.00    -0.181 A  
HETATM    7  N   UNL     1     -10.243  14.103  68.931  1.00  0.00    -0.212 NA 
HETATM    8  H   UNL     1     -13.631  12.816  72.594  1.00  0.00     0.000 HD 
HETATM    9  C   UNL     1      -9.038  17.251  67.451  1.00  0.00    -0.227 A  
HETATM   10  C   UNL     1     -11.203  13.765  69.881  1.00  0.00     0.007 A  
HETATM   11  C   UNL     1      -8.806  17.418  65.974  1.00  0.00    -0.091 C  
HETATM   12  C   UNL     1     -12.761  14.485  71.827  1.00  0.00    -0.343 C  
HETATM   13  N   UNL     1     -11.627  12.549  70.032  1.00  0.00    -0.530 N  
HETATM   14  H   UNL     1     -11.244  11.815  69.436  1.00  0.00     0.000 HD 
HETATM   15  N   UNL     1     -11.507  16.120  70.580  1.00  0.00    -0.390 NA 
HETATM   16  C   UNL     1     -12.567  12.220  70.962  1.00  0.00    -0.257 C  
HETATM   17  N   UNL     1     -13.026  13.153  71.844  1.00  0.00    -0.338 N  
HETATM   18  O   UNL     1     -13.271  15.293  72.586  1.00  0.00    -0.374 OA 
HETATM   19  C   UNL     1     -11.790  14.866  70.749  1.00  0.00    -0.312 A  
HETATM   20  O   UNL     1     -13.028  11.086  71.034  1.00  0.00    -0.347 OA 
ENDROOT
BRANCH   7  21
HETATM   21  C   UNL     1     -10.094  13.238  67.708  1.00  0.00    -0.229 C  
BRANCH  21  22
HETATM   22  C   UNL     1     -11.309  13.335  66.761  1.00  0.00    -0.327 C  
HETATM   23  O   UNL     1     -11.975  12.074  66.710  1.00  0.00    -0.616 OA 
HETATM   24  H   UNL     1     -12.724  12.134  66.127  1.00  0.00     0.000 HD 
BRANCH  22  25
HETATM   25  C   UNL     1     -10.989  13.831  65.332  1.00  0.00    -0.309 C  
HETATM   26  O   UNL     1     -11.464  15.188  65.189  1.00  0.00    -0.352 OA 
HETATM   27  H   UNL     1     -11.266  15.492  64.311  1.00  0.00     0.000 HD 
BRANCH  25  28
HETATM   28  C   UNL     1     -11.507  13.013  64.125  1.00  0.00    -0.402 C  
HETATM   29  O   UNL     1     -12.933  12.810  64.292  1.00  0.00    -0.708 OA 
HETATM   30  H   UNL     1     -13.252  12.308  63.551  1.00  0.00     0.000 HD 
BRANCH  28  31
HETATM   31  C   UNL     1     -10.858  11.641  63.900  1.00  0.00    -0.405 C  
BRANCH  31  32
HETATM   32  O   UNL     1      -9.573  11.674  64.536  1.00  0.00    -0.207 OA 
HETATM   33  P   UNL     1      -8.983  10.308  65.117  1.00  0.00    -0.226 P  
HETATM   34  O   UNL     1     -10.018   9.835  66.236  1.00  0.00    -0.233 OA 
HETATM   35  O   UNL     1      -7.698  10.722  65.966  1.00  0.00    -0.153 OA 
HETATM   36  O   UNL     1      -8.689   9.233  64.129  1.00  0.00    -0.201 OA 
ENDBRANCH  31  32
ENDBRANCH  28  31
ENDBRANCH  25  28
ENDBRANCH  22  25
ENDBRANCH  21  22
ENDBRANCH   7  21
TORSDOF 6
ENDMDL
MODEL       39
REMARK 921   NORMALIZED FREE ENERGY PREDICTED BY IDOCK:   -6.36 KCAL/MOL
REMARK 922        TOTAL FREE ENERGY PREDICTED BY IDOCK:  -10.94 KCAL/MOL
REMARK 923 INTER-LIGAND FREE ENERGY PREDICTED BY IDOCK:   -9.21 KCAL/MOL
REMARK 924 INTRA-LIGAND FREE ENERGY PREDICTED BY IDOCK:   -1.73 KCAL/MOL
REMARK 927      BINDING AFFINITY PREDICTED BY RF-SCORE:    0.00 PKD
ROOT
HETATM    1  C   UNL     1     -10.616  18.130  66.900  1.00  0.00    -0.326 C  
HETATM    2  C   UNL     1     -10.676  16.719  67.413  1.00  0.00    -0.244 A  
HETATM    3  C   UNL     1     -11.152  16.458  68.696  1.00  0.00    -0.352 A  
HETATM    4  C   UNL     1     -11.315  15.138  69.139  1.00  0.00    -0.298 A  
HETATM    5  C   UNL     1     -10.876  14.050  68.348  1.00  0.00    -0.249 A  
HETATM    6  C   UNL     1     -10.191  14.345  67.181  1.00  0.00    -0.257 A  
HETATM    7  N   UNL     1     -11.207  12.717  68.700  1.00  0.00    -0.263 NA 
HETATM    8  H   UNL     1     -13.629  12.014  73.193  1.00  0.00     0.000 HD 
HETATM    9  C   UNL     1     -10.309  15.621  66.623  1.00  0.00    -0.290 A  
HETATM   10  C   UNL     1     -11.915  12.535  69.886  1.00  0.00    -0.301 A  
HETATM   11  C   UNL     1     -10.441  15.620  65.124  1.00  0.00    -0.417 C  
HETATM   12  C   UNL     1     -12.924  13.542  72.054  1.00  0.00    -0.324 C  
HETATM   13  N   UNL     1     -12.325  11.368  70.273  1.00  0.00    -0.311 N  
HETATM   14  H   UNL     1     -12.122  10.555  69.690  1.00  0.00     0.000 HD 
HETATM   15  N   UNL     1     -11.966  14.964  70.363  1.00  0.00    -0.292 NA 
HETATM   16  C   UNL     1     -13.018  11.192  71.433  1.00  0.00    -0.403 C  
HETATM   17  N   UNL     1     -13.217  12.236  72.287  1.00  0.00    -0.396 N  
HETATM   18  O   UNL     1     -13.207  14.452  72.815  1.00  0.00    -0.463 OA 
HETATM   19  C   UNL     1     -12.237  13.752  70.737  1.00  0.00    -0.363 A  
HETATM   20  O   UNL     1     -13.481  10.100  71.744  1.00  0.00    -0.365 OA 
ENDROOT
BRANCH   7  21
HETATM   21  C   UNL     1     -11.390  11.723  67.584  1.00  0.00    -0.302 C  
BRANCH  21  22
HETATM   22  C   UNL     1     -10.215  10.727  67.481  1.00  0.00    -0.196 C  
HETATM   23  O   UNL     1      -9.474  10.985  66.290  1.00  0.00    -0.182 OA 
HETATM   24  H   UNL     1      -8.751  10.371  66.226  1.00  0.00     0.000 HD 
BRANCH  22  25
HETATM   25  C   UNL     1     -10.615   9.234  67.552  1.00  0.00    -0.262 C  
HETATM   26  O   UNL     1     -11.141   8.951  68.867  1.00  0.00    -0.440 OA 
HETATM   27  H   UNL     1     -11.386   8.035  68.911  1.00  0.00     0.000 HD 
BRANCH  25  28
HETATM   28  C   UNL     1      -9.549   8.161  67.223  1.00  0.00    -0.163 C  
HETATM   29  O   UNL     1      -9.439   8.056  65.781  1.00  0.00    -0.419 OA 
HETATM   30  H   UNL     1      -8.785   7.398  65.579  1.00  0.00     0.000 HD 
BRANCH  28  31
HETATM   31  C   UNL     1      -9.801   6.754  67.780  1.00  0.00    -0.126 C  
BRANCH  31  32
HETATM   32  O   UNL     1      -9.394   6.766  69.155  1.00  0.00    -0.137 OA 
HETATM   33  P   UNL     1     -10.202   5.856  70.190  1.00  0.00    -0.264 P  
HETATM   34  O   UNL     1     -11.700   6.408  70.167  1.00  0.00    -0.422 OA 
HETATM   35  O   UNL     1      -9.683   6.285  71.636  1.00  0.00    -0.162 OA 
HETATM   36  O   UNL     1     -10.141   4.385  69.977  1.00  0.00    -0.218 OA 
ENDBRANCH  31  32
ENDBRANCH  28  31
ENDBRANCH  25  28
ENDBRANCH  22  25
ENDBRANCH  21  22
ENDBRANCH   7  21
TORSDOF 6
ENDMDL
MODEL       40
REMARK 921   NORMALIZED FREE ENERGY PREDICTED BY IDOCK:   -6.35 KCAL/MOL
REMARK 922        TOTAL FREE ENERGY PREDICTED BY IDOCK:  -10.92 KCAL/MOL
REMARK 923 INTER-LIGAND FREE ENERGY PREDICTED BY IDOCK:   -9.02 KCAL/MOL
REMARK 924 INTRA-LIGAND FREE ENERGY PREDICTED BY IDOCK:   -1.90 KCAL/MOL
REMARK 927      BINDING AFFINITY PREDICTED BY RF-SCORE:    0.00 PKD
ROOT
HETATM    1  C   UNL     1     -11.730   7.485  72.004  1.00  0.00    -0.333 C  
HETATM    2  C   UNL     1     -11.432   8.544  70.980  1.00  0.00    -0.313 A  
HETATM    3  C   UNL     1     -10.709   8.227  69.832  1.00  0.00    -0.234 A  
HETATM    4  C   UNL     1     -10.524   9.182  68.823  1.00  0.00    -0.212 A  
HETATM    5  C   UNL     1     -10.948  10.520  69.005  1.00  0.00    -0.243 A  
HETATM    6  C   UNL     1     -11.450  10.865  70.249  1.00  0.00    -0.391 A  
HETATM    7  N   UNL     1     -10.937  11.437  67.926  1.00  0.00    -0.222 NA 
HETATM    8  H   UNL     1      -8.850   9.824  63.500  1.00  0.00     0.000 HD 
HETATM    9  C   UNL     1     -11.898   9.859  71.109  1.00  0.00    -0.472 A  
HETATM   10  C   UNL     1     -10.427  10.980  66.713  1.00  0.00    -0.251 A  
HETATM   11  C   UNL     1     -13.172  10.200  71.833  1.00  0.00    -0.557 C  
HETATM   12  C   UNL     1      -9.253   9.105  65.357  1.00  0.00    -0.202 C  
HETATM   13  N   UNL     1     -10.427  11.712  65.643  1.00  0.00    -0.259 N  
HETATM   14  H   UNL     1     -10.812  12.655  65.691  1.00  0.00     0.000 HD 
HETATM   15  N   UNL     1      -9.949   8.731  67.632  1.00  0.00    -0.180 NA 
HETATM   16  C   UNL     1      -9.928  11.261  64.458  1.00  0.00    -0.284 C  
HETATM   17  N   UNL     1      -9.313  10.047  64.381  1.00  0.00    -0.275 N  
HETATM   18  O   UNL     1      -8.769   7.995  65.206  1.00  0.00    -0.130 OA 
HETATM   19  C   UNL     1      -9.878   9.564  66.641  1.00  0.00    -0.231 A  
HETATM   20  O   UNL     1     -10.017  11.927  63.431  1.00  0.00    -0.409 OA 
ENDROOT
BRANCH   7  21
HETATM   21  C   UNL     1     -11.988  12.515  67.912  1.00  0.00    -0.223 C  
BRANCH  21  22
HETATM   22  C   UNL     1     -11.387  13.931  68.036  1.00  0.00    -0.288 C  
HETATM   23  O   UNL     1     -11.532  14.621  66.796  1.00  0.00    -0.352 OA 
HETATM   24  H   UNL     1     -11.161  15.493  66.872  1.00  0.00     0.000 HD 
BRANCH  22  25
HETATM   25  C   UNL     1      -9.915  13.979  68.509  1.00  0.00    -0.230 C  
HETATM   26  O   UNL     1      -9.798  14.938  69.583  1.00  0.00    -0.405 OA 
HETATM   27  H   UNL     1      -8.894  14.966  69.873  1.00  0.00     0.000 HD 
BRANCH  25  28
HETATM   28  C   UNL     1      -8.808  14.286  67.471  1.00  0.00    -0.199 C  
HETATM   29  O   UNL     1      -7.707  13.370  67.695  1.00  0.00    -0.148 OA 
HETATM   30  H   UNL     1      -7.028  13.558  67.058  1.00  0.00     0.000 HD 
BRANCH  28  31
HETATM   31  C   UNL     1      -8.244  15.713  67.476  1.00  0.00    -0.166 C  
BRANCH  31  32
HETATM   32  O   UNL     1      -8.944  16.447  66.463  1.00  0.00    -0.227 OA 
HETATM   33  P   UNL     1      -9.696  17.791  66.887  1.00  0.00    -0.330 P  
HETATM   34  O   UNL     1     -10.798  17.347  67.953  1.00  0.00    -0.375 OA 
HETATM   35  O   UNL     1     -10.569  18.212  65.621  1.00  0.00    -0.611 OA 
HETATM   36  O   UNL     1      -8.844  18.904  67.387  1.00  0.00    -0.271 OA 
ENDBRANCH  31  32
ENDBRANCH  28  31
ENDBRANCH  25  28
ENDBRANCH  22  25
ENDBRANCH  21  22
ENDBRANCH   7  21
TORSDOF 6
ENDMDL
MODEL       41
REMARK 921   NORMALIZED FREE ENERGY PREDICTED BY IDOCK:   -6.35 KCAL/MOL
REMARK 922        TOTAL FREE ENERGY PREDICTED BY IDOCK:  -10.92 KCAL/MOL
REMARK 923 INTER-LIGAND FREE ENERGY PREDICTED BY IDOCK:   -9.53 KCAL/MOL
REMARK 924 INTRA-LIGAND FREE ENERGY PREDICTED BY IDOCK:   -1.39 KCAL/MOL
REMARK 927      BINDING AFFINITY PREDICTED BY RF-SCORE:    0.00 PKD
ROOT
HETATM    1  C   UNL     1     -12.485  14.978  74.230  1.00  0.00    -0.504 C  
HETATM    2  C   UNL     1     -12.426  15.028  72.730  1.00  0.00    -0.472 A  
HETATM    3  C   UNL     1     -11.692  16.023  72.088  1.00  0.00    -0.587 A  
HETATM    4  C   UNL     1     -11.542  16.009  70.695  1.00  0.00    -0.383 A  
HETATM    5  C   UNL     1     -12.240  15.068  69.901  1.00  0.00    -0.309 A  
HETATM    6  C   UNL     1     -13.147  14.241  70.542  1.00  0.00    -0.168 A  
HETATM    7  N   UNL     1     -11.948  14.925  68.521  1.00  0.00    -0.283 NA 
HETATM    8  H   UNL     1      -8.628  18.289  66.468  1.00  0.00     0.000 HD 
HETATM    9  C   UNL     1     -13.055  14.067  71.926  1.00  0.00    -0.467 A  
HETATM   10  C   UNL     1     -11.005  15.797  67.982  1.00  0.00    -0.330 A  
HETATM   11  C   UNL     1     -13.270  12.648  72.376  1.00  0.00    -0.348 C  
HETATM   12  C   UNL     1      -9.446  17.850  68.276  1.00  0.00    -0.300 C  
HETATM   13  N   UNL     1     -10.616  15.716  66.748  1.00  0.00    -0.306 N  
HETATM   14  H   UNL     1     -11.013  14.990  66.152  1.00  0.00     0.000 HD 
HETATM   15  N   UNL     1     -10.645  16.933  70.152  1.00  0.00     0.017 NA 
HETATM   16  C   UNL     1      -9.693  16.570  66.223  1.00  0.00    -0.305 C  
HETATM   17  N   UNL     1      -9.217  17.615  66.958  1.00  0.00    -0.244 N  
HETATM   18  O   UNL     1      -8.921  18.750  68.910  1.00  0.00    -0.297 OA 
HETATM   19  C   UNL     1     -10.397  16.860  68.882  1.00  0.00    -0.333 A  
HETATM   20  O   UNL     1      -9.263  16.427  65.083  1.00  0.00     0.108 OA 
ENDROOT
BRANCH   7  21
HETATM   21  C   UNL     1     -12.110  13.560  67.909  1.00  0.00    -0.269 C  
BRANCH  21  22
HETATM   22  C   UNL     1     -10.897  12.643  68.175  1.00  0.00    -0.227 C  
HETATM   23  O   UNL     1      -9.988  12.725  67.078  1.00  0.00    -0.225 OA 
HETATM   24  H   UNL     1      -9.241  12.160  67.242  1.00  0.00     0.000 HD 
BRANCH  22  25
HETATM   25  C   UNL     1     -11.244  11.166  68.476  1.00  0.00    -0.258 C  
HETATM   26  O   UNL     1     -12.600  11.095  68.970  1.00  0.00    -0.518 OA 
HETATM   27  H   UNL     1     -12.813  10.188  69.155  1.00  0.00     0.000 HD 
BRANCH  25  28
HETATM   28  C   UNL     1     -10.339  10.370  69.447  1.00  0.00    -0.237 C  
HETATM   29  O   UNL     1      -9.965   9.127  68.803  1.00  0.00    -0.166 OA 
HETATM   30  H   UNL     1      -9.409   8.638  69.399  1.00  0.00     0.000 HD 
BRANCH  28  31
HETATM   31  C   UNL     1     -10.939  10.031  70.818  1.00  0.00    -0.305 C  
BRANCH  31  32
HETATM   32  O   UNL     1     -11.693   8.822  70.660  1.00  0.00    -0.260 OA 
HETATM   33  P   UNL     1     -12.440   8.226  71.940  1.00  0.00    -0.363 P  
HETATM   34  O   UNL     1     -11.287   7.894  72.993  1.00  0.00    -0.408 OA 
HETATM   35  O   UNL     1     -12.955   6.781  71.503  1.00  0.00    -0.331 OA 
HETATM   36  O   UNL     1     -13.522   9.060  72.531  1.00  0.00    -0.454 OA 
ENDBRANCH  31  32
ENDBRANCH  28  31
ENDBRANCH  25  28
ENDBRANCH  22  25
ENDBRANCH  21  22
ENDBRANCH   7  21
TORSDOF 6
ENDMDL
MODEL       42
REMARK 921   NORMALIZED FREE ENERGY PREDICTED BY IDOCK:   -6.33 KCAL/MOL
REMARK 922        TOTAL FREE ENERGY PREDICTED BY IDOCK:  -10.89 KCAL/MOL
REMARK 923 INTER-LIGAND FREE ENERGY PREDICTED BY IDOCK:   -9.18 KCAL/MOL
REMARK 924 INTRA-LIGAND FREE ENERGY PREDICTED BY IDOCK:   -1.71 KCAL/MOL
REMARK 927      BINDING AFFINITY PREDICTED BY RF-SCORE:    0.00 PKD
ROOT
HETATM    1  C   UNL     1     -10.193  18.954  66.282  1.00  0.00    -0.491 C  
HETATM    2  C   UNL     1     -10.429  17.618  66.926  1.00  0.00    -0.290 A  
HETATM    3  C   UNL     1     -10.714  17.536  68.288  1.00  0.00    -0.309 A  
HETATM    4  C   UNL     1     -11.044  16.305  68.872  1.00  0.00    -0.345 A  
HETATM    5  C   UNL     1     -10.964  15.105  68.125  1.00  0.00    -0.287 A  
HETATM    6  C   UNL     1     -10.451  15.185  66.842  1.00  0.00    -0.282 A  
HETATM    7  N   UNL     1     -11.475  13.891  68.648  1.00  0.00    -0.276 NA 
HETATM    8  H   UNL     1     -13.161  13.962  73.517  1.00  0.00     0.000 HD 
HETATM    9  C   UNL     1     -10.420  16.423  66.193  1.00  0.00    -0.321 A  
HETATM   10  C   UNL     1     -11.985  13.927  69.944  1.00  0.00    -0.341 A  
HETATM   11  C   UNL     1     -10.811  16.359  64.742  1.00  0.00    -0.197 C  
HETATM   12  C   UNL     1     -12.390  15.244  72.142  1.00  0.00    -0.365 C  
HETATM   13  N   UNL     1     -12.535  12.891  70.498  1.00  0.00    -0.265 N  
HETATM   14  H   UNL     1     -12.595  12.022  69.969  1.00  0.00     0.000 HD 
HETATM   15  N   UNL     1     -11.491  16.339  70.195  1.00  0.00    -0.288 NA 
HETATM   16  C   UNL     1     -13.034  12.929  71.766  1.00  0.00    -0.315 C  
HETATM   17  N   UNL     1     -12.880  14.041  72.539  1.00  0.00    -0.344 N  
HETATM   18  O   UNL     1     -12.358  16.236  72.851  1.00  0.00    -0.474 OA 
HETATM   19  C   UNL     1     -11.917  15.232  70.719  1.00  0.00    -0.339 A  
HETATM   20  O   UNL     1     -13.634  11.974  72.247  1.00  0.00    -0.397 OA 
ENDROOT
BRANCH   7  21
HETATM   21  C   UNL     1     -12.034  12.889  67.674  1.00  0.00    -0.289 C  
BRANCH  21  22
HETATM   22  C   UNL     1     -11.053  11.734  67.383  1.00  0.00    -0.282 C  
HETATM   23  O   UNL     1     -11.084  11.421  65.991  1.00  0.00    -0.262 OA 
HETATM   24  H   UNL     1     -10.480  10.710  65.811  1.00  0.00     0.000 HD 
BRANCH  22  25
HETATM   25  C   UNL     1     -11.278  10.455  68.225  1.00  0.00    -0.267 C  
HETATM   26  O   UNL     1     -12.519  10.584  68.952  1.00  0.00    -0.776 OA 
HETATM   27  H   UNL     1     -12.656   9.799  69.469  1.00  0.00     0.000 HD 
BRANCH  25  28
HETATM   28  C   UNL     1     -10.180  10.020  69.226  1.00  0.00    -0.214 C  
HETATM   29  O   UNL     1      -9.235  11.110  69.367  1.00  0.00    -0.395 OA 
HETATM   30  H   UNL     1      -8.561  10.843  69.981  1.00  0.00     0.000 HD 
BRANCH  28  31
HETATM   31  C   UNL     1      -9.391   8.754  68.865  1.00  0.00    -0.145 C  
BRANCH  31  32
HETATM   32  O   UNL     1      -9.526   8.562  67.451  1.00  0.00    -0.143 OA 
HETATM   33  P   UNL     1      -8.229   8.750  66.536  1.00  0.00    -0.115 P  
HETATM   34  O   UNL     1      -7.780  10.268  66.736  1.00  0.00    -0.106 OA 
HETATM   35  O   UNL     1      -8.758   8.726  65.032  1.00  0.00    -0.187 OA 
HETATM   36  O   UNL     1      -7.109   7.796  66.761  1.00  0.00    -0.076 OA 
ENDBRANCH  31  32
ENDBRANCH  28  31
ENDBRANCH  25  28
ENDBRANCH  22  25
ENDBRANCH  21  22
ENDBRANCH   7  21
TORSDOF 6
ENDMDL
MODEL       43
REMARK 921   NORMALIZED FREE ENERGY PREDICTED BY IDOCK:   -6.32 KCAL/MOL
REMARK 922        TOTAL FREE ENERGY PREDICTED BY IDOCK:  -10.88 KCAL/MOL
REMARK 923 INTER-LIGAND FREE ENERGY PREDICTED BY IDOCK:   -9.18 KCAL/MOL
REMARK 924 INTRA-LIGAND FREE ENERGY PREDICTED BY IDOCK:   -1.70 KCAL/MOL
REMARK 927      BINDING AFFINITY PREDICTED BY RF-SCORE:    0.00 PKD
ROOT
HETATM    1  C   UNL     1      -9.521   9.546  65.089  1.00  0.00    -0.305 C  
HETATM    2  C   UNL     1     -10.019   9.846  66.474  1.00  0.00    -0.291 A  
HETATM    3  C   UNL     1     -10.252  11.163  66.867  1.00  0.00    -0.260 A  
HETATM    4  C   UNL     1     -10.822  11.441  68.117  1.00  0.00    -0.213 A  
HETATM    5  C   UNL     1     -11.047  10.407  69.057  1.00  0.00    -0.248 A  
HETATM    6  C   UNL     1     -10.589   9.140  68.733  1.00  0.00    -0.208 A  
HETATM    7  N   UNL     1     -11.792  10.650  70.237  1.00  0.00    -0.312 NA 
HETATM    8  H   UNL     1     -13.192  15.521  71.163  1.00  0.00     0.000 HD 
HETATM    9  C   UNL     1     -10.312   8.833  67.398  1.00  0.00    -0.349 A  
HETATM   10  C   UNL     1     -12.221  11.957  70.455  1.00  0.00    -0.336 A  
HETATM   11  C   UNL     1     -10.774   7.464  66.981  1.00  0.00    -0.389 C  
HETATM   12  C   UNL     1     -12.218  14.451  69.737  1.00  0.00    -0.321 C  
HETATM   13  N   UNL     1     -12.962  12.281  71.469  1.00  0.00    -0.354 N  
HETATM   14  H   UNL     1     -13.239  11.555  72.129  1.00  0.00     0.000 HD 
HETATM   15  N   UNL     1     -11.188  12.768  68.357  1.00  0.00    -0.258 NA 
HETATM   16  C   UNL     1     -13.381  13.561  71.679  1.00  0.00    -0.340 C  
HETATM   17  N   UNL     1     -12.946  14.574  70.877  1.00  0.00    -0.355 N  
HETATM   18  O   UNL     1     -11.933  15.384  69.005  1.00  0.00    -0.337 OA 
HETATM   19  C   UNL     1     -11.826  13.030  69.454  1.00  0.00    -0.322 A  
HETATM   20  O   UNL     1     -14.156  13.839  72.588  1.00  0.00    -0.715 OA 
ENDROOT
BRANCH   7  21
HETATM   21  C   UNL     1     -12.606   9.515  70.798  1.00  0.00    -0.089 C  
BRANCH  21  22
HETATM   22  C   UNL     1     -11.915   8.824  71.993  1.00  0.00    -0.376 C  
HETATM   23  O   UNL     1     -10.627   9.402  72.199  1.00  0.00    -0.028 OA 
HETATM   24  H   UNL     1     -10.202   8.976  72.935  1.00  0.00     0.000 HD 
BRANCH  22  25
HETATM   25  C   UNL     1     -11.801   7.285  71.884  1.00  0.00    -0.297 C  
HETATM   26  O   UNL     1     -13.121   6.708  71.992  1.00  0.00    -0.519 OA 
HETATM   27  H   UNL     1     -13.050   5.763  71.925  1.00  0.00     0.000 HD 
BRANCH  25  28
HETATM   28  C   UNL     1     -10.869   6.535  72.866  1.00  0.00    -0.258 C  
HETATM   29  O   UNL     1     -10.723   7.342  74.061  1.00  0.00    -0.545 OA 
HETATM   30  H   UNL     1     -10.151   6.882  74.664  1.00  0.00     0.000 HD 
BRANCH  28  31
HETATM   31  C   UNL     1      -9.464   6.196  72.350  1.00  0.00    -0.148 C  
BRANCH  31  32
HETATM   32  O   UNL     1      -9.023   7.312  71.565  1.00  0.00    -0.130 OA 
HETATM   33  P   UNL     1      -7.673   8.050  71.994  1.00  0.00    -0.120 P  
HETATM   34  O   UNL     1      -7.944   8.620  73.460  1.00  0.00    -0.410 OA 
HETATM   35  O   UNL     1      -7.604   9.371  71.102  1.00  0.00    -0.306 OA 
HETATM   36  O   UNL     1      -6.421   7.249  71.922  1.00  0.00    -0.043 OA 
ENDBRANCH  31  32
ENDBRANCH  28  31
ENDBRANCH  25  28
ENDBRANCH  22  25
ENDBRANCH  21  22
ENDBRANCH   7  21
TORSDOF 6
ENDMDL
MODEL       44
REMARK 921   NORMALIZED FREE ENERGY PREDICTED BY IDOCK:   -6.29 KCAL/MOL
REMARK 922        TOTAL FREE ENERGY PREDICTED BY IDOCK:  -10.84 KCAL/MOL
REMARK 923 INTER-LIGAND FREE ENERGY PREDICTED BY IDOCK:   -9.12 KCAL/MOL
REMARK 924 INTRA-LIGAND FREE ENERGY PREDICTED BY IDOCK:   -1.73 KCAL/MOL
REMARK 927      BINDING AFFINITY PREDICTED BY RF-SCORE:    0.00 PKD
ROOT
HETATM    1  C   UNL     1     -13.126  13.761  72.293  1.00  0.00    -0.500 C  
HETATM    2  C   UNL     1     -12.489  14.089  70.972  1.00  0.00    -0.444 A  
HETATM    3  C   UNL     1     -12.054  15.386  70.705  1.00  0.00    -0.412 A  
HETATM    4  C   UNL     1     -11.360  15.673  69.522  1.00  0.00    -0.327 A  
HETATM    5  C   UNL     1     -11.204  14.689  68.516  1.00  0.00    -0.271 A  
HETATM    6  C   UNL     1     -11.850  13.478  68.704  1.00  0.00    -0.404 A  
HETATM    7  N   UNL     1     -10.347  14.912  67.410  1.00  0.00    -0.242 NA 
HETATM    8  H   UNL     1      -8.246  19.597  66.981  1.00  0.00     0.000 HD 
HETATM    9  C   UNL     1     -12.265  13.116  69.989  1.00  0.00    -0.323 A  
HETATM   10  C   UNL     1      -9.733  16.159  67.329  1.00  0.00    -0.233 A  
HETATM   11  C   UNL     1     -12.022  11.669  70.320  1.00  0.00    -0.445 C  
HETATM   12  C   UNL     1      -9.458  18.570  68.248  1.00  0.00    -0.335 C  
HETATM   13  N   UNL     1      -8.881  16.450  66.396  1.00  0.00    -0.282 N  
HETATM   14  H   UNL     1      -8.654  15.743  65.697  1.00  0.00     0.000 HD 
HETATM   15  N   UNL     1     -10.804  16.950  69.416  1.00  0.00    -0.266 NA 
HETATM   16  C   UNL     1      -8.281  17.672  66.319  1.00  0.00    -0.229 C  
HETATM   17  N   UNL     1      -8.637  18.674  67.172  1.00  0.00    -0.265 N  
HETATM   18  O   UNL     1      -9.671  19.478  69.035  1.00  0.00    -0.412 OA 
HETATM   19  C   UNL     1     -10.055  17.201  68.388  1.00  0.00    -0.314 A  
HETATM   20  O   UNL     1      -7.409  17.905  65.488  1.00  0.00    -0.522 OA 
ENDROOT
BRANCH   7  21
HETATM   21  C   UNL     1      -9.651  13.719  66.812  1.00  0.00    -0.279 C  
BRANCH  21  22
HETATM   22  C   UNL     1      -8.427  13.270  67.638  1.00  0.00    -0.191 C  
HETATM   23  O   UNL     1      -7.236  13.784  67.044  1.00  0.00    -0.351 OA 
HETATM   24  H   UNL     1      -6.483  13.507  67.553  1.00  0.00     0.000 HD 
BRANCH  22  25
HETATM   25  C   UNL     1      -8.305  11.742  67.852  1.00  0.00    -0.149 C  
HETATM   26  O   UNL     1      -8.306  11.466  69.269  1.00  0.00    -0.375 OA 
HETATM   27  H   UNL     1      -8.231  10.528  69.400  1.00  0.00     0.000 HD 
BRANCH  25  28
HETATM   28  C   UNL     1      -7.107  10.994  67.219  1.00  0.00    -0.097 C  
HETATM   29  O   UNL     1      -7.045  11.342  65.813  1.00  0.00    -0.368 OA 
HETATM   30  H   UNL     1      -6.310  10.883  65.424  1.00  0.00     0.000 HD 
BRANCH  28  31
HETATM   31  C   UNL     1      -7.123   9.464  67.327  1.00  0.00    -0.086 C  
BRANCH  31  32
HETATM   32  O   UNL     1      -8.483   9.073  67.562  1.00  0.00    -0.116 OA 
HETATM   33  P   UNL     1      -9.256   8.295  66.399  1.00  0.00    -0.199 P  
HETATM   34  O   UNL     1      -9.292   9.302  65.161  1.00  0.00    -0.240 OA 
HETATM   35  O   UNL     1     -10.781   8.238  66.862  1.00  0.00    -0.299 OA 
HETATM   36  O   UNL     1      -8.725   6.957  66.023  1.00  0.00    -0.141 OA 
ENDBRANCH  31  32
ENDBRANCH  28  31
ENDBRANCH  25  28
ENDBRANCH  22  25
ENDBRANCH  21  22
ENDBRANCH   7  21
TORSDOF 6
ENDMDL
MODEL       45
REMARK 921   NORMALIZED FREE ENERGY PREDICTED BY IDOCK:   -6.20 KCAL/MOL
REMARK 922        TOTAL FREE ENERGY PREDICTED BY IDOCK:  -10.71 KCAL/MOL
REMARK 923 INTER-LIGAND FREE ENERGY PREDICTED BY IDOCK:   -9.23 KCAL/MOL
REMARK 924 INTRA-LIGAND FREE ENERGY PREDICTED BY IDOCK:   -1.48 KCAL/MOL
REMARK 927      BINDING AFFINITY PREDICTED BY RF-SCORE:    0.00 PKD
ROOT
HETATM    1  C   UNL     1     -10.102  18.993  66.325  1.00  0.00    -0.479 C  
HETATM    2  C   UNL     1     -10.338  17.652  66.958  1.00  0.00    -0.330 A  
HETATM    3  C   UNL     1     -10.565  17.553  68.329  1.00  0.00    -0.354 A  
HETATM    4  C   UNL     1     -10.895  16.319  68.908  1.00  0.00    -0.317 A  
HETATM    5  C   UNL     1     -10.874  15.130  68.139  1.00  0.00    -0.266 A  
HETATM    6  C   UNL     1     -10.416  15.221  66.836  1.00  0.00    -0.289 A  
HETATM    7  N   UNL     1     -11.388  13.919  68.665  1.00  0.00    -0.260 NA 
HETATM    8  H   UNL     1     -12.857  13.943  73.604  1.00  0.00     0.000 HD 
HETATM    9  C   UNL     1     -10.387  16.469  66.206  1.00  0.00    -0.327 A  
HETATM   10  C   UNL     1     -11.840  13.943  69.982  1.00  0.00    -0.315 A  
HETATM   11  C   UNL     1     -10.842  16.438  64.773  1.00  0.00    -0.197 C  
HETATM   12  C   UNL     1     -12.119  15.232  72.217  1.00  0.00    -0.401 C  
HETATM   13  N   UNL     1     -12.387  12.911  70.544  1.00  0.00    -0.324 N  
HETATM   14  H   UNL     1     -12.489  12.051  70.005  1.00  0.00     0.000 HD 
HETATM   15  N   UNL     1     -11.283  16.341  70.250  1.00  0.00    -0.374 NA 
HETATM   16  C   UNL     1     -12.829  12.938  71.833  1.00  0.00    -0.210 C  
HETATM   17  N   UNL     1     -12.617  14.033  72.616  1.00  0.00    -0.184 N  
HETATM   18  O   UNL     1     -12.035  16.211  72.939  1.00  0.00    -0.488 OA 
HETATM   19  C   UNL     1     -11.710  15.234  70.774  1.00  0.00    -0.337 A  
HETATM   20  O   UNL     1     -13.428  11.987  72.325  1.00  0.00    -0.465 OA 
ENDROOT
BRANCH   7  21
HETATM   21  C   UNL     1     -12.011  12.946  67.701  1.00  0.00    -0.289 C  
BRANCH  21  22
HETATM   22  C   UNL     1     -11.074  11.767  67.359  1.00  0.00    -0.282 C  
HETATM   23  O   UNL     1     -11.100  11.530  65.953  1.00  0.00    -0.283 OA 
HETATM   24  H   UNL     1     -10.523  10.804  65.742  1.00  0.00     0.000 HD 
BRANCH  22  25
HETATM   25  C   UNL     1     -11.361  10.457  68.130  1.00  0.00    -0.213 C  
HETATM   26  O   UNL     1     -12.584  10.614  68.883  1.00  0.00    -0.742 OA 
HETATM   27  H   UNL     1     -12.760   9.809  69.356  1.00  0.00     0.000 HD 
BRANCH  25  28
HETATM   28  C   UNL     1     -10.278   9.903  69.088  1.00  0.00    -0.205 C  
HETATM   29  O   UNL     1     -10.500  10.471  70.403  1.00  0.00    -0.426 OA 
HETATM   30  H   UNL     1      -9.836  10.131  70.991  1.00  0.00     0.000 HD 
BRANCH  28  31
HETATM   31  C   UNL     1      -8.819  10.173  68.697  1.00  0.00    -0.136 C  
BRANCH  31  32
HETATM   32  O   UNL     1      -8.073  10.300  69.915  1.00  0.00    -0.157 OA 
HETATM   33  P   UNL     1      -7.301   9.014  70.464  1.00  0.00    -0.113 P  
HETATM   34  O   UNL     1      -8.431   7.924  70.749  1.00  0.00    -0.119 OA 
HETATM   35  O   UNL     1      -6.802   9.406  71.928  1.00  0.00    -0.310 OA 
HETATM   36  O   UNL     1      -6.203   8.480  69.613  1.00  0.00    -0.038 OA 
ENDBRANCH  31  32
ENDBRANCH  28  31
ENDBRANCH  25  28
ENDBRANCH  22  25
ENDBRANCH  21  22
ENDBRANCH   7  21
TORSDOF 6
ENDMDL
MODEL       46
REMARK 921   NORMALIZED FREE ENERGY PREDICTED BY IDOCK:   -6.15 KCAL/MOL
REMARK 922        TOTAL FREE ENERGY PREDICTED BY IDOCK:  -10.65 KCAL/MOL
REMARK 923 INTER-LIGAND FREE ENERGY PREDICTED BY IDOCK:   -9.24 KCAL/MOL
REMARK 924 INTRA-LIGAND FREE ENERGY PREDICTED BY IDOCK:   -1.41 KCAL/MOL
REMARK 927      BINDING AFFINITY PREDICTED BY RF-SCORE:    0.00 PKD
ROOT
HETATM    1  C   UNL     1     -10.867  17.548  67.928  1.00  0.00    -0.255 C  
HETATM    2  C   UNL     1     -11.092  16.065  68.019  1.00  0.00    -0.334 A  
HETATM    3  C   UNL     1     -10.844  15.249  66.918  1.00  0.00    -0.317 A  
HETATM    4  C   UNL     1     -10.944  13.855  67.029  1.00  0.00    -0.295 A  
HETATM    5  C   UNL     1     -11.427  13.257  68.218  1.00  0.00    -0.316 A  
HETATM    6  C   UNL     1     -11.890  14.100  69.214  1.00  0.00    -0.381 A  
HETATM    7  N   UNL     1     -11.351  11.854  68.406  1.00  0.00    -0.250 NA 
HETATM    8  H   UNL     1      -9.714   9.040  64.412  1.00  0.00     0.000 HD 
HETATM    9  C   UNL     1     -11.506  15.444  69.206  1.00  0.00    -0.344 A  
HETATM   10  C   UNL     1     -10.852  11.101  67.346  1.00  0.00    -0.266 A  
HETATM   11  C   UNL     1     -11.167  15.988  70.567  1.00  0.00    -0.397 C  
HETATM   12  C   UNL     1     -10.016  10.991  64.892  1.00  0.00    -0.288 C  
HETATM   13  N   UNL     1     -10.680   9.819  67.430  1.00  0.00    -0.269 N  
HETATM   14  H   UNL     1     -10.919   9.345  68.301  1.00  0.00     0.000 HD 
HETATM   15  N   UNL     1     -10.504  13.106  65.935  1.00  0.00    -0.275 NA 
HETATM   16  C   UNL     1     -10.190   9.084  66.391  1.00  0.00    -0.227 C  
HETATM   17  N   UNL     1      -9.957   9.665  65.180  1.00  0.00    -0.166 N  
HETATM   18  O   UNL     1      -9.708  11.469  63.813  1.00  0.00    -0.270 OA 
HETATM   19  C   UNL     1     -10.473  11.816  66.059  1.00  0.00    -0.246 A  
HETATM   20  O   UNL     1      -9.944   7.889  66.512  1.00  0.00    -0.243 OA 
ENDROOT
BRANCH   7  21
HETATM   21  C   UNL     1     -11.167  11.344  69.810  1.00  0.00    -0.192 C  
BRANCH  21  22
HETATM   22  C   UNL     1     -12.408  10.591  70.335  1.00  0.00    -0.324 C  
HETATM   23  O   UNL     1     -13.052  11.374  71.338  1.00  0.00    -0.385 OA 
HETATM   24  H   UNL     1     -13.816  10.910  71.662  1.00  0.00     0.000 HD 
BRANCH  22  25
HETATM   25  C   UNL     1     -12.133   9.163  70.862  1.00  0.00    -0.214 C  
HETATM   26  O   UNL     1     -11.625   8.353  69.780  1.00  0.00    -0.430 OA 
HETATM   27  H   UNL     1     -11.456   7.476  70.104  1.00  0.00     0.000 HD 
BRANCH  25  28
HETATM   28  C   UNL     1     -13.285   8.385  71.542  1.00  0.00    -0.290 C  
HETATM   29  O   UNL     1     -13.427   8.875  72.899  1.00  0.00    -0.788 OA 
HETATM   30  H   UNL     1     -14.134   8.398  73.316  1.00  0.00     0.000 HD 
BRANCH  28  31
HETATM   31  C   UNL     1     -13.135   6.859  71.604  1.00  0.00    -0.279 C  
BRANCH  31  32
HETATM   32  O   UNL     1     -11.737   6.568  71.477  1.00  0.00    -0.298 OA 
HETATM   33  P   UNL     1     -10.941   6.101  72.781  1.00  0.00    -0.248 P  
HETATM   34  O   UNL     1     -11.048   7.319  73.807  1.00  0.00    -0.172 OA 
HETATM   35  O   UNL     1      -9.400   6.111  72.370  1.00  0.00    -0.146 OA 
HETATM   36  O   UNL     1     -11.359   4.810  73.393  1.00  0.00    -0.331 OA 
ENDBRANCH  31  32
ENDBRANCH  28  31
ENDBRANCH  25  28
ENDBRANCH  22  25
ENDBRANCH  21  22
ENDBRANCH   7  21
TORSDOF 6
ENDMDL
MODEL       47
REMARK 921   NORMALIZED FREE ENERGY PREDICTED BY IDOCK:   -6.14 KCAL/MOL
REMARK 922        TOTAL FREE ENERGY PREDICTED BY IDOCK:  -10.63 KCAL/MOL
REMARK 923 INTER-LIGAND FREE ENERGY PREDICTED BY IDOCK:   -8.74 KCAL/MOL
REMARK 924 INTRA-LIGAND FREE ENERGY PREDICTED BY IDOCK:   -1.89 KCAL/MOL
REMARK 927      BINDING AFFINITY PREDICTED BY RF-SCORE:    0.00 PKD
ROOT
HETATM    1  C   UNL     1     -10.697  17.909  67.396  1.00  0.00    -0.306 C  
HETATM    2  C   UNL     1     -10.768  16.445  67.726  1.00  0.00    -0.328 A  
HETATM    3  C   UNL     1     -11.266  16.026  68.958  1.00  0.00    -0.347 A  
HETATM    4  C   UNL     1     -11.438  14.662  69.229  1.00  0.00    -0.291 A  
HETATM    5  C   UNL     1     -10.986  13.680  68.315  1.00  0.00    -0.254 A  
HETATM    6  C   UNL     1     -10.280  14.117  67.206  1.00  0.00    -0.256 A  
HETATM    7  N   UNL     1     -11.325  12.315  68.491  1.00  0.00    -0.261 NA 
HETATM    8  H   UNL     1     -13.825  11.060  72.818  1.00  0.00     0.000 HD 
HETATM    9  C   UNL     1     -10.387  15.454  66.811  1.00  0.00    -0.279 A  
HETATM   10  C   UNL     1     -12.053  11.987  69.632  1.00  0.00    -0.230 A  
HETATM   11  C   UNL     1     -10.493  15.641  65.322  1.00  0.00    -0.439 C  
HETATM   12  C   UNL     1     -13.099  12.717  71.892  1.00  0.00    -0.366 C  
HETATM   13  N   UNL     1     -12.471  10.782  69.863  1.00  0.00    -0.451 N  
HETATM   14  H   UNL     1     -12.258  10.048  69.186  1.00  0.00     0.000 HD 
HETATM   15  N   UNL     1     -12.110  14.337  70.410  1.00  0.00    -0.317 NA 
HETATM   16  C   UNL     1     -13.183  10.464  70.980  1.00  0.00    -0.278 C  
HETATM   17  N   UNL     1     -13.397  11.393  71.954  1.00  0.00    -0.399 N  
HETATM   18  O   UNL     1     -13.395  13.525  72.757  1.00  0.00    -0.548 OA 
HETATM   19  C   UNL     1     -12.389  13.089  70.624  1.00  0.00    -0.310 A  
HETATM   20  O   UNL     1     -13.653   9.342  71.142  1.00  0.00    -0.316 OA 
ENDROOT
BRANCH   7  21
HETATM   21  C   UNL     1     -11.488  11.469  67.257  1.00  0.00    -0.263 C  
BRANCH  21  22
HETATM   22  C   UNL     1     -10.169  10.797  66.820  1.00  0.00    -0.230 C  
HETATM   23  O   UNL     1     -10.234  10.476  65.431  1.00  0.00    -0.286 OA 
HETATM   24  H   UNL     1      -9.422  10.062  65.162  1.00  0.00     0.000 HD 
BRANCH  22  25
HETATM   25  C   UNL     1      -9.765   9.550  67.642  1.00  0.00    -0.154 C  
HETATM   26  O   UNL     1     -10.950   8.972  68.230  1.00  0.00    -0.464 OA 
HETATM   27  H   UNL     1     -10.701   8.206  68.734  1.00  0.00     0.000 HD 
BRANCH  25  28
HETATM   28  C   UNL     1      -8.703   9.705  68.758  1.00  0.00    -0.126 C  
HETATM   29  O   UNL     1      -9.346  10.286  69.920  1.00  0.00    -0.389 OA 
HETATM   30  H   UNL     1      -8.695  10.380  70.605  1.00  0.00     0.000 HD 
BRANCH  28  31
HETATM   31  C   UNL     1      -7.476  10.562  68.419  1.00  0.00    -0.092 C  
BRANCH  31  32
HETATM   32  O   UNL     1      -7.803  11.917  68.755  1.00  0.00    -0.122 OA 
HETATM   33  P   UNL     1      -6.664  13.027  68.606  1.00  0.00    -0.108 P  
HETATM   34  O   UNL     1      -5.504  12.590  69.611  1.00  0.00    -0.074 OA 
HETATM   35  O   UNL     1      -7.255  14.342  69.288  1.00  0.00    -0.128 OA 
HETATM   36  O   UNL     1      -6.154  13.280  67.231  1.00  0.00    -0.328 OA 
ENDBRANCH  31  32
ENDBRANCH  28  31
ENDBRANCH  25  28
ENDBRANCH  22  25
ENDBRANCH  21  22
ENDBRANCH   7  21
TORSDOF 6
ENDMDL
MODEL       48
REMARK 921   NORMALIZED FREE ENERGY PREDICTED BY IDOCK:   -6.11 KCAL/MOL
REMARK 922        TOTAL FREE ENERGY PREDICTED BY IDOCK:  -10.59 KCAL/MOL
REMARK 923 INTER-LIGAND FREE ENERGY PREDICTED BY IDOCK:   -9.55 KCAL/MOL
REMARK 924 INTRA-LIGAND FREE ENERGY PREDICTED BY IDOCK:   -1.04 KCAL/MOL
REMARK 927      BINDING AFFINITY PREDICTED BY RF-SCORE:    0.00 PKD
ROOT
HETATM    1  C   UNL     1     -13.423  13.786  72.398  1.00  0.00    -0.672 C  
HETATM    2  C   UNL     1     -12.750  14.091  71.090  1.00  0.00    -0.436 A  
HETATM    3  C   UNL     1     -12.365  15.395  70.785  1.00  0.00    -0.447 A  
HETATM    4  C   UNL     1     -11.639  15.667  69.618  1.00  0.00    -0.356 A  
HETATM    5  C   UNL     1     -11.399  14.652  68.661  1.00  0.00    -0.283 A  
HETATM    6  C   UNL     1     -11.995  13.421  68.874  1.00  0.00    -0.362 A  
HETATM    7  N   UNL     1     -10.510  14.871  67.579  1.00  0.00    -0.251 NA 
HETATM    8  H   UNL     1      -8.610  19.629  67.034  1.00  0.00     0.000 HD 
HETATM    9  C   UNL     1     -12.443  13.091  70.157  1.00  0.00    -0.166 A  
HETATM   10  C   UNL     1      -9.951  16.142  67.469  1.00  0.00    -0.243 A  
HETATM   11  C   UNL     1     -12.148  11.671  70.557  1.00  0.00    -0.458 C  
HETATM   12  C   UNL     1      -9.822  18.598  68.296  1.00  0.00    -0.371 C  
HETATM   13  N   UNL     1      -9.077  16.436  66.557  1.00  0.00    -0.252 N  
HETATM   14  H   UNL     1      -8.790  15.712  65.897  1.00  0.00     0.000 HD 
HETATM   15  N   UNL     1     -11.137  16.964  69.480  1.00  0.00    -0.067 NA 
HETATM   16  C   UNL     1      -8.531  17.680  66.451  1.00  0.00    -0.246 C  
HETATM   17  N   UNL     1      -8.965  18.697  67.248  1.00  0.00    -0.271 N  
HETATM   18  O   UNL     1     -10.108  19.525  69.036  1.00  0.00    -0.442 OA 
HETATM   19  C   UNL     1     -10.362  17.209  68.470  1.00  0.00    -0.364 A  
HETATM   20  O   UNL     1      -7.639  17.921  65.645  1.00  0.00    -0.546 OA 
ENDROOT
BRANCH   7  21
HETATM   21  C   UNL     1      -9.738  13.689  67.057  1.00  0.00    -0.251 C  
BRANCH  21  22
HETATM   22  C   UNL     1     -10.223  13.232  65.665  1.00  0.00    -0.289 C  
HETATM   23  O   UNL     1     -11.389  13.969  65.300  1.00  0.00    -0.306 OA 
HETATM   24  H   UNL     1     -11.688  13.687  64.443  1.00  0.00     0.000 HD 
BRANCH  22  25
HETATM   25  C   UNL     1     -10.483  11.713  65.528  1.00  0.00    -0.273 C  
HETATM   26  O   UNL     1     -11.585  11.346  66.385  1.00  0.00    -0.369 OA 
HETATM   27  H   UNL     1     -11.745  10.414  66.301  1.00  0.00     0.000 HD 
BRANCH  25  28
HETATM   28  C   UNL     1      -9.318  10.730  65.799  1.00  0.00    -0.203 C  
HETATM   29  O   UNL     1      -8.148  11.204  65.088  1.00  0.00    -0.363 OA 
HETATM   30  H   UNL     1      -7.433  10.602  65.255  1.00  0.00     0.000 HD 
BRANCH  28  31
HETATM   31  C   UNL     1      -9.553   9.267  65.400  1.00  0.00    -0.167 C  
BRANCH  31  32
HETATM   32  O   UNL     1      -9.042   8.453  66.465  1.00  0.00    -0.154 OA 
HETATM   33  P   UNL     1     -10.085   7.800  67.482  1.00  0.00    -0.257 P  
HETATM   34  O   UNL     1     -10.829   9.027  68.181  1.00  0.00    -0.151 OA 
HETATM   35  O   UNL     1      -9.207   7.190  68.666  1.00  0.00    -0.137 OA 
HETATM   36  O   UNL     1     -11.041   6.810  66.916  1.00  0.00    -0.397 OA 
ENDBRANCH  31  32
ENDBRANCH  28  31
ENDBRANCH  25  28
ENDBRANCH  22  25
ENDBRANCH  21  22
ENDBRANCH   7  21
TORSDOF 6
ENDMDL
MODEL       49
REMARK 921   NORMALIZED FREE ENERGY PREDICTED BY IDOCK:   -6.10 KCAL/MOL
REMARK 922        TOTAL FREE ENERGY PREDICTED BY IDOCK:  -10.58 KCAL/MOL
REMARK 923 INTER-LIGAND FREE ENERGY PREDICTED BY IDOCK:   -9.23 KCAL/MOL
REMARK 924 INTRA-LIGAND FREE ENERGY PREDICTED BY IDOCK:   -1.35 KCAL/MOL
REMARK 927      BINDING AFFINITY PREDICTED BY RF-SCORE:    0.00 PKD
ROOT
HETATM    1  C   UNL     1     -10.640  12.234  63.571  1.00  0.00    -0.488 C  
HETATM    2  C   UNL     1     -10.611  11.427  64.838  1.00  0.00    -0.368 A  
HETATM    3  C   UNL     1     -10.119  10.123  64.828  1.00  0.00    -0.250 A  
HETATM    4  C   UNL     1      -9.987   9.405  66.024  1.00  0.00    -0.281 A  
HETATM    5  C   UNL     1     -10.472   9.934  67.244  1.00  0.00    -0.258 A  
HETATM    6  C   UNL     1     -11.169  11.129  67.188  1.00  0.00    -0.320 A  
HETATM    7  N   UNL     1     -10.173   9.303  68.478  1.00  0.00    -0.194 NA 
HETATM    8  H   UNL     1      -7.691   4.793  68.263  1.00  0.00     0.000 HD 
HETATM    9  C   UNL     1     -11.025  11.954  66.069  1.00  0.00    -0.355 A  
HETATM   10  C   UNL     1      -9.450   8.114  68.420  1.00  0.00    -0.142 A  
HETATM   11  C   UNL     1     -10.920  13.417  66.401  1.00  0.00    -0.297 C  
HETATM   12  C   UNL     1      -8.372   6.230  66.998  1.00  0.00    -0.109 C  
HETATM   13  N   UNL     1      -9.067   7.486  69.488  1.00  0.00    -0.143 N  
HETATM   14  H   UNL     1      -9.304   7.875  70.401  1.00  0.00     0.000 HD 
HETATM   15  N   UNL     1      -9.319   8.180  65.949  1.00  0.00    -0.114 NA 
HETATM   16  C   UNL     1      -8.358   6.324  69.429  1.00  0.00    -0.121 C  
HETATM   17  N   UNL     1      -8.113   5.721  68.230  1.00  0.00    -0.107 N  
HETATM   18  O   UNL     1      -8.048   5.689  65.954  1.00  0.00    -0.105 OA 
HETATM   19  C   UNL     1      -9.077   7.553  67.058  1.00  0.00    -0.135 A  
HETATM   20  O   UNL     1      -7.922   5.787  70.442  1.00  0.00    -0.100 OA 
ENDROOT
BRANCH   7  21
HETATM   21  C   UNL     1     -10.041  10.176  69.696  1.00  0.00    -0.234 C  
BRANCH  21  22
HETATM   22  C   UNL     1     -11.210   9.992  70.688  1.00  0.00    -0.350 C  
HETATM   23  O   UNL     1     -11.887   8.769  70.405  1.00  0.00    -0.470 OA 
HETATM   24  H   UNL     1     -12.606   8.655  71.015  1.00  0.00     0.000 HD 
BRANCH  22  25
HETATM   25  C   UNL     1     -12.218  11.165  70.737  1.00  0.00    -0.385 C  
HETATM   26  O   UNL     1     -11.541  12.382  70.356  1.00  0.00    -0.530 OA 
HETATM   27  H   UNL     1     -12.160  13.101  70.386  1.00  0.00     0.000 HD 
BRANCH  25  28
HETATM   28  C   UNL     1     -12.982  11.435  72.056  1.00  0.00    -0.273 C  
HETATM   29  O   UNL     1     -13.826  10.291  72.336  1.00  0.00    -0.493 OA 
HETATM   30  H   UNL     1     -14.295  10.456  73.145  1.00  0.00     0.000 HD 
BRANCH  28  31
HETATM   31  C   UNL     1     -13.862  12.691  72.090  1.00  0.00    -0.172 C  
BRANCH  31  32
HETATM   32  O   UNL     1     -13.414  13.491  73.192  1.00  0.00    -0.468 OA 
HETATM   33  P   UNL     1     -13.019  15.013  72.909  1.00  0.00    -0.539 P  
HETATM   34  O   UNL     1     -11.802  14.957  71.878  1.00  0.00    -0.360 OA 
HETATM   35  O   UNL     1     -12.332  15.536  74.250  1.00  0.00    -0.612 OA 
HETATM   36  O   UNL     1     -14.111  15.911  72.443  1.00  0.00    -0.462 OA 
ENDBRANCH  31  32
ENDBRANCH  28  31
ENDBRANCH  25  28
ENDBRANCH  22  25
ENDBRANCH  21  22
ENDBRANCH   7  21
TORSDOF 6
ENDMDL
MODEL       50
REMARK 921   NORMALIZED FREE ENERGY PREDICTED BY IDOCK:   -6.10 KCAL/MOL
REMARK 922        TOTAL FREE ENERGY PREDICTED BY IDOCK:  -10.58 KCAL/MOL
REMARK 923 INTER-LIGAND FREE ENERGY PREDICTED BY IDOCK:   -8.89 KCAL/MOL
REMARK 924 INTRA-LIGAND FREE ENERGY PREDICTED BY IDOCK:   -1.69 KCAL/MOL
REMARK 927      BINDING AFFINITY PREDICTED BY RF-SCORE:    0.00 PKD
ROOT
HETATM    1  C   UNL     1      -6.322  19.898  67.141  1.00  0.00    -0.208 C  
HETATM    2  C   UNL     1      -7.100  18.627  67.335  1.00  0.00    -0.210 A  
HETATM    3  C   UNL     1      -6.517  17.395  67.044  1.00  0.00    -0.204 A  
HETATM    4  C   UNL     1      -7.197  16.203  67.327  1.00  0.00    -0.197 A  
HETATM    5  C   UNL     1      -8.535  16.224  67.786  1.00  0.00    -0.163 A  
HETATM    6  C   UNL     1      -9.171  17.453  67.842  1.00  0.00    -0.256 A  
HETATM    7  N   UNL     1      -9.160  15.041  68.253  1.00  0.00    -0.177 NA 
HETATM    8  H   UNL     1      -6.528  10.641  67.740  1.00  0.00     0.000 HD 
HETATM    9  C   UNL     1      -8.403  18.621  67.851  1.00  0.00    -0.293 A  
HETATM   10  C   UNL     1      -8.423  13.862  68.169  1.00  0.00    -0.171 A  
HETATM   11  C   UNL     1      -8.901  19.668  68.809  1.00  0.00    -0.292 C  
HETATM   12  C   UNL     1      -6.283  12.626  67.379  1.00  0.00    -0.148 C  
HETATM   13  N   UNL     1      -8.871  12.733  68.623  1.00  0.00    -0.383 N  
HETATM   14  H   UNL     1      -9.794  12.707  69.057  1.00  0.00     0.000 HD 
HETATM   15  N   UNL     1      -6.473  15.018  67.175  1.00  0.00    -0.212 NA 
HETATM   16  C   UNL     1      -8.148  11.581  68.540  1.00  0.00    -0.146 C  
HETATM   17  N   UNL     1      -6.957  11.557  67.877  1.00  0.00    -0.071 N  
HETATM   18  O   UNL     1      -5.174  12.560  66.875  1.00  0.00    -0.341 OA 
HETATM   19  C   UNL     1      -7.038  13.911  67.545  1.00  0.00    -0.158 A  
HETATM   20  O   UNL     1      -8.540  10.540  69.055  1.00  0.00    -0.144 OA 
ENDROOT
BRANCH   7  21
HETATM   21  C   UNL     1     -10.193  15.176  69.340  1.00  0.00    -0.240 C  
BRANCH  21  22
HETATM   22  C   UNL     1     -11.624  14.891  68.836  1.00  0.00    -0.315 C  
HETATM   23  O   UNL     1     -12.526  15.842  69.399  1.00  0.00    -0.478 OA 
HETATM   24  H   UNL     1     -13.407  15.667  69.089  1.00  0.00     0.000 HD 
BRANCH  22  25
HETATM   25  C   UNL     1     -12.134  13.452  69.090  1.00  0.00    -0.261 C  
HETATM   26  O   UNL     1     -11.321  12.841  70.115  1.00  0.00    -0.505 OA 
HETATM   27  H   UNL     1     -11.634  11.958  70.271  1.00  0.00     0.000 HD 
BRANCH  25  28
HETATM   28  C   UNL     1     -12.218  12.470  67.896  1.00  0.00     0.168 C  
HETATM   29  O   UNL     1     -11.533  11.247  68.265  1.00  0.00    -0.266 OA 
HETATM   30  H   UNL     1     -11.585  10.644  67.533  1.00  0.00     0.000 HD 
BRANCH  28  31
HETATM   31  C   UNL     1     -11.629  12.959  66.567  1.00  0.00    -0.371 C  
BRANCH  31  32
HETATM   32  O   UNL     1     -12.375  12.329  65.518  1.00  0.00    -0.602 OA 
HETATM   33  P   UNL     1     -12.076  12.766  64.011  1.00  0.00    -0.498 P  
HETATM   34  O   UNL     1     -12.434  14.320  63.936  1.00  0.00    -0.773 OA 
HETATM   35  O   UNL     1     -13.223  12.091  63.132  1.00  0.00    -0.540 OA 
HETATM   36  O   UNL     1     -10.714  12.475  63.488  1.00  0.00    -0.435 OA 
ENDBRANCH  31  32
ENDBRANCH  28  31
ENDBRANCH  25  28
ENDBRANCH  22  25
ENDBRANCH  21  22
ENDBRANCH   7  21
TORSDOF 6
ENDMDL
MODEL       51
REMARK 921   NORMALIZED FREE ENERGY PREDICTED BY IDOCK:   -6.06 KCAL/MOL
REMARK 922        TOTAL FREE ENERGY PREDICTED BY IDOCK:  -10.52 KCAL/MOL
REMARK 923 INTER-LIGAND FREE ENERGY PREDICTED BY IDOCK:   -9.26 KCAL/MOL
REMARK 924 INTRA-LIGAND FREE ENERGY PREDICTED BY IDOCK:   -1.27 KCAL/MOL
REMARK 927      BINDING AFFINITY PREDICTED BY RF-SCORE:    0.00 PKD
ROOT
HETATM    1  C   UNL     1      -9.578   3.861  69.943  1.00  0.00    -0.270 C  
HETATM    2  C   UNL     1      -9.950   5.296  69.698  1.00  0.00    -0.302 A  
HETATM    3  C   UNL     1     -10.983   5.887  70.424  1.00  0.00    -0.376 A  
HETATM    4  C   UNL     1     -11.261   7.253  70.280  1.00  0.00    -0.262 A  
HETATM    5  C   UNL     1     -10.593   8.029  69.302  1.00  0.00    -0.184 A  
HETATM    6  C   UNL     1      -9.742   7.366  68.434  1.00  0.00    -0.158 A  
HETATM    7  N   UNL     1     -10.729   9.439  69.279  1.00  0.00    -0.227 NA 
HETATM    8  H   UNL     1     -14.109  11.522  72.564  1.00  0.00     0.000 HD 
HETATM    9  C   UNL     1      -9.259   6.101  68.783  1.00  0.00    -0.124 A  
HETATM   10  C   UNL     1     -11.599  10.005  70.208  1.00  0.00    -0.280 A  
HETATM   11  C   UNL     1      -7.805   5.895  68.458  1.00  0.00    -0.102 C  
HETATM   12  C   UNL     1     -13.368   9.693  72.080  1.00  0.00    -0.454 C  
HETATM   13  N   UNL     1     -11.752  11.288  70.319  1.00  0.00    -0.389 N  
HETATM   14  H   UNL     1     -11.220  11.903  69.704  1.00  0.00     0.000 HD 
HETATM   15  N   UNL     1     -12.186   7.802  71.172  1.00  0.00    -0.296 NA 
HETATM   16  C   UNL     1     -12.603  11.839  71.230  1.00  0.00    -0.296 C  
HETATM   17  N   UNL     1     -13.407  11.048  71.996  1.00  0.00    -0.403 N  
HETATM   18  O   UNL     1     -14.048   9.037  72.852  1.00  0.00    -0.487 OA 
HETATM   19  C   UNL     1     -12.370   9.085  71.140  1.00  0.00    -0.251 A  
HETATM   20  O   UNL     1     -12.672  13.053  71.389  1.00  0.00    -0.356 OA 
ENDROOT
BRANCH   7  21
HETATM   21  C   UNL     1      -9.556  10.248  68.795  1.00  0.00    -0.175 C  
BRANCH  21  22
HETATM   22  C   UNL     1      -9.846  10.976  67.465  1.00  0.00    -0.169 C  
HETATM   23  O   UNL     1      -8.752  10.787  66.569  1.00  0.00    -0.142 OA 
HETATM   24  H   UNL     1      -8.930  11.235  65.750  1.00  0.00     0.000 HD 
BRANCH  22  25
HETATM   25  C   UNL     1     -10.176  12.481  67.600  1.00  0.00    -0.219 C  
HETATM   26  O   UNL     1      -9.749  12.940  68.901  1.00  0.00    -0.413 OA 
HETATM   27  H   UNL     1      -9.952  13.865  68.983  1.00  0.00     0.000 HD 
BRANCH  25  28
HETATM   28  C   UNL     1     -11.636  12.947  67.383  1.00  0.00    -0.360 C  
HETATM   29  O   UNL     1     -12.119  12.370  66.144  1.00  0.00    -0.611 OA 
HETATM   30  H   UNL     1     -13.015  12.655  66.011  1.00  0.00     0.000 HD 
BRANCH  28  31
HETATM   31  C   UNL     1     -11.867  14.463  67.319  1.00  0.00    -0.405 C  
BRANCH  31  32
HETATM   32  O   UNL     1     -10.871  15.004  66.441  1.00  0.00    -0.316 OA 
HETATM   33  P   UNL     1      -9.893  16.131  67.013  1.00  0.00    -0.261 P  
HETATM   34  O   UNL     1     -10.837  17.353  67.418  1.00  0.00    -0.290 OA 
HETATM   35  O   UNL     1      -9.100  16.693  65.749  1.00  0.00    -0.503 OA 
HETATM   36  O   UNL     1      -8.985  15.728  68.121  1.00  0.00    -0.177 OA 
ENDBRANCH  31  32
ENDBRANCH  28  31
ENDBRANCH  25  28
ENDBRANCH  22  25
ENDBRANCH  21  22
ENDBRANCH   7  21
TORSDOF 6
ENDMDL
MODEL       52
REMARK 921   NORMALIZED FREE ENERGY PREDICTED BY IDOCK:   -6.06 KCAL/MOL
REMARK 922        TOTAL FREE ENERGY PREDICTED BY IDOCK:  -10.52 KCAL/MOL
REMARK 923 INTER-LIGAND FREE ENERGY PREDICTED BY IDOCK:   -9.23 KCAL/MOL
REMARK 924 INTRA-LIGAND FREE ENERGY PREDICTED BY IDOCK:   -1.30 KCAL/MOL
REMARK 927      BINDING AFFINITY PREDICTED BY RF-SCORE:    0.00 PKD
ROOT
HETATM    1  C   UNL     1     -11.519  16.514  68.811  1.00  0.00    -0.143 C  
HETATM    2  C   UNL     1     -11.626  15.019  68.919  1.00  0.00    -0.349 A  
HETATM    3  C   UNL     1     -11.316  14.212  67.826  1.00  0.00    -0.330 A  
HETATM    4  C   UNL     1     -11.307  12.816  67.954  1.00  0.00    -0.293 A  
HETATM    5  C   UNL     1     -11.739  12.195  69.151  1.00  0.00    -0.328 A  
HETATM    6  C   UNL     1     -12.266  13.011  70.139  1.00  0.00    -0.342 A  
HETATM    7  N   UNL     1     -11.553  10.805  69.355  1.00  0.00    -0.287 NA 
HETATM    8  H   UNL     1      -9.707   8.082  65.390  1.00  0.00     0.000 HD 
HETATM    9  C   UNL     1     -11.988  14.381  70.114  1.00  0.00    -0.386 A  
HETATM   10  C   UNL     1     -10.998  10.082  68.302  1.00  0.00    -0.227 A  
HETATM   11  C   UNL     1     -11.691  14.966  71.468  1.00  0.00    -0.394 C  
HETATM   12  C   UNL     1     -10.160  10.009  65.848  1.00  0.00    -0.249 C  
HETATM   13  N   UNL     1     -10.726   8.818  68.401  1.00  0.00    -0.425 N  
HETATM   14  H   UNL     1     -10.925   8.337  69.278  1.00  0.00     0.000 HD 
HETATM   15  N   UNL     1     -10.811  12.091  66.868  1.00  0.00    -0.247 NA 
HETATM   16  C   UNL     1     -10.182   8.112  67.370  1.00  0.00    -0.258 C  
HETATM   17  N   UNL     1      -9.997   8.695  66.151  1.00  0.00    -0.223 N  
HETATM   18  O   UNL     1      -9.893  10.497  64.762  1.00  0.00    -0.272 OA 
HETATM   19  C   UNL     1     -10.678  10.808  67.006  1.00  0.00    -0.265 A  
HETATM   20  O   UNL     1      -9.843   6.941  67.504  1.00  0.00    -0.128 OA 
ENDROOT
BRANCH   7  21
HETATM   21  C   UNL     1     -11.327  10.328  70.764  1.00  0.00    -0.337 C  
BRANCH  21  22
HETATM   22  C   UNL     1     -12.570   9.637  71.363  1.00  0.00    -0.371 C  
HETATM   23  O   UNL     1     -13.336  10.587  72.102  1.00  0.00    -0.555 OA 
HETATM   24  H   UNL     1     -14.101  10.161  72.471  1.00  0.00     0.000 HD 
BRANCH  22  25
HETATM   25  C   UNL     1     -12.273   8.393  72.234  1.00  0.00    -0.387 C  
HETATM   26  O   UNL     1     -10.872   8.389  72.583  1.00  0.00    -0.342 OA 
HETATM   27  H   UNL     1     -10.690   7.625  73.118  1.00  0.00     0.000 HD 
BRANCH  25  28
HETATM   28  C   UNL     1     -12.632   6.992  71.680  1.00  0.00    -0.380 C  
HETATM   29  O   UNL     1     -12.405   6.017  72.728  1.00  0.00    -0.524 OA 
HETATM   30  H   UNL     1     -12.625   5.158  72.389  1.00  0.00     0.000 HD 
BRANCH  28  31
HETATM   31  C   UNL     1     -11.865   6.534  70.433  1.00  0.00    -0.313 C  
BRANCH  31  32
HETATM   32  O   UNL     1     -10.469   6.570  70.760  1.00  0.00    -0.210 OA 
HETATM   33  P   UNL     1      -9.665   5.190  70.793  1.00  0.00    -0.218 P  
HETATM   34  O   UNL     1     -10.363   4.313  71.929  1.00  0.00    -0.160 OA 
HETATM   35  O   UNL     1      -8.244   5.536  71.428  1.00  0.00    -0.114 OA 
HETATM   36  O   UNL     1      -9.549   4.454  69.504  1.00  0.00    -0.169 OA 
ENDBRANCH  31  32
ENDBRANCH  28  31
ENDBRANCH  25  28
ENDBRANCH  22  25
ENDBRANCH  21  22
ENDBRANCH   7  21
TORSDOF 6
ENDMDL
MODEL       53
REMARK 921   NORMALIZED FREE ENERGY PREDICTED BY IDOCK:   -6.02 KCAL/MOL
REMARK 922        TOTAL FREE ENERGY PREDICTED BY IDOCK:  -10.47 KCAL/MOL
REMARK 923 INTER-LIGAND FREE ENERGY PREDICTED BY IDOCK:   -9.15 KCAL/MOL
REMARK 924 INTRA-LIGAND FREE ENERGY PREDICTED BY IDOCK:   -1.33 KCAL/MOL
REMARK 927      BINDING AFFINITY PREDICTED BY RF-SCORE:    0.00 PKD
ROOT
HETATM    1  C   UNL     1      -5.449  11.132  69.048  1.00  0.00    -0.040 C  
HETATM    2  C   UNL     1      -6.916  10.812  69.091  1.00  0.00    -0.091 A  
HETATM    3  C   UNL     1      -7.415   9.929  70.047  1.00  0.00    -0.173 A  
HETATM    4  C   UNL     1      -8.795   9.712  70.163  1.00  0.00    -0.231 A  
HETATM    5  C   UNL     1      -9.698  10.278  69.230  1.00  0.00    -0.225 A  
HETATM    6  C   UNL     1      -9.157  10.957  68.151  1.00  0.00    -0.155 A  
HETATM    7  N   UNL     1     -11.097  10.221  69.450  1.00  0.00    -0.240 NA 
HETATM    8  H   UNL     1     -12.725   7.471  73.492  1.00  0.00     0.000 HD 
HETATM    9  C   UNL     1      -7.837  11.411  68.220  1.00  0.00    -0.132 A  
HETATM   10  C   UNL     1     -11.531   9.528  70.577  1.00  0.00    -0.276 A  
HETATM   11  C   UNL     1      -7.637  12.789  67.652  1.00  0.00    -0.152 C  
HETATM   12  C   UNL     1     -10.976   8.028  72.621  1.00  0.00    -0.382 C  
HETATM   13  N   UNL     1     -12.783   9.466  70.910  1.00  0.00    -0.510 N  
HETATM   14  H   UNL     1     -13.472   9.940  70.327  1.00  0.00     0.000 HD 
HETATM   15  N   UNL     1      -9.221   8.958  71.259  1.00  0.00    -0.242 NA 
HETATM   16  C   UNL     1     -13.206   8.787  72.013  1.00  0.00    -0.395 C  
HETATM   17  N   UNL     1     -12.327   8.057  72.757  1.00  0.00    -0.127 N  
HETATM   18  O   UNL     1     -10.226   7.428  73.373  1.00  0.00    -0.293 OA 
HETATM   19  C   UNL     1     -10.497   8.845  71.457  1.00  0.00    -0.323 A  
HETATM   20  O   UNL     1     -14.379   8.812  72.370  1.00  0.00    -0.509 OA 
ENDROOT
BRANCH   7  21
HETATM   21  C   UNL     1     -11.934  11.358  68.929  1.00  0.00    -0.304 C  
BRANCH  21  22
HETATM   22  C   UNL     1     -11.675  12.679  69.684  1.00  0.00    -0.303 C  
HETATM   23  O   UNL     1     -12.550  12.765  70.808  1.00  0.00    -0.310 OA 
HETATM   24  H   UNL     1     -12.391  13.578  71.273  1.00  0.00     0.000 HD 
BRANCH  22  25
HETATM   25  C   UNL     1     -11.783  13.959  68.821  1.00  0.00    -0.357 C  
HETATM   26  O   UNL     1     -11.799  13.585  67.427  1.00  0.00    -0.355 OA 
HETATM   27  H   UNL     1     -11.865  14.371  66.898  1.00  0.00     0.000 HD 
BRANCH  25  28
HETATM   28  C   UNL     1     -10.724  15.073  69.006  1.00  0.00    -0.239 C  
HETATM   29  O   UNL     1     -10.519  15.276  70.426  1.00  0.00    -0.458 OA 
HETATM   30  H   UNL     1      -9.869  15.959  70.539  1.00  0.00     0.000 HD 
BRANCH  28  31
HETATM   31  C   UNL     1     -11.049  16.435  68.377  1.00  0.00    -0.351 C  
BRANCH  31  32
HETATM   32  O   UNL     1      -9.833  16.936  67.806  1.00  0.00    -0.242 OA 
HETATM   33  P   UNL     1      -9.696  16.950  66.214  1.00  0.00    -0.244 P  
HETATM   34  O   UNL     1      -9.801  15.423  65.761  1.00  0.00    -0.323 OA 
HETATM   35  O   UNL     1      -8.170  17.309  65.917  1.00  0.00    -0.534 OA 
HETATM   36  O   UNL     1     -10.641  17.826  65.470  1.00  0.00    -0.632 OA 
ENDBRANCH  31  32
ENDBRANCH  28  31
ENDBRANCH  25  28
ENDBRANCH  22  25
ENDBRANCH  21  22
ENDBRANCH   7  21
TORSDOF 6
ENDMDL
MODEL       54
REMARK 921   NORMALIZED FREE ENERGY PREDICTED BY IDOCK:   -5.99 KCAL/MOL
REMARK 922        TOTAL FREE ENERGY PREDICTED BY IDOCK:  -10.44 KCAL/MOL
REMARK 923 INTER-LIGAND FREE ENERGY PREDICTED BY IDOCK:   -8.78 KCAL/MOL
REMARK 924 INTRA-LIGAND FREE ENERGY PREDICTED BY IDOCK:   -1.66 KCAL/MOL
REMARK 927      BINDING AFFINITY PREDICTED BY RF-SCORE:    0.00 PKD
ROOT
HETATM    1  C   UNL     1     -13.324  13.753  72.485  1.00  0.00    -0.656 C  
HETATM    2  C   UNL     1     -12.646  14.019  71.171  1.00  0.00    -0.445 A  
HETATM    3  C   UNL     1     -12.222  15.306  70.848  1.00  0.00    -0.409 A  
HETATM    4  C   UNL     1     -11.491  15.540  69.674  1.00  0.00    -0.329 A  
HETATM    5  C   UNL     1     -11.286  14.505  68.731  1.00  0.00    -0.261 A  
HETATM    6  C   UNL     1     -11.920  13.296  68.962  1.00  0.00    -0.336 A  
HETATM    7  N   UNL     1     -10.394  14.682  67.644  1.00  0.00    -0.233 NA 
HETATM    8  H   UNL     1      -8.348  19.370  67.029  1.00  0.00     0.000 HD 
HETATM    9  C   UNL     1     -12.374  12.997  70.251  1.00  0.00    -0.311 A  
HETATM   10  C   UNL     1      -9.796  15.933  67.515  1.00  0.00    -0.230 A  
HETATM   11  C   UNL     1     -12.122  11.575  70.669  1.00  0.00    -0.450 C  
HETATM   12  C   UNL     1      -9.588  18.394  68.309  1.00  0.00    -0.334 C  
HETATM   13  N   UNL     1      -8.917  16.187  66.596  1.00  0.00    -0.230 N  
HETATM   14  H   UNL     1      -8.655  15.446  65.946  1.00  0.00     0.000 HD 
HETATM   15  N   UNL     1     -10.950  16.818  69.518  1.00  0.00    -0.245 NA 
HETATM   16  C   UNL     1      -8.332  17.412  66.472  1.00  0.00    -0.273 C  
HETATM   17  N   UNL     1      -8.732  18.453  67.256  1.00  0.00    -0.256 N  
HETATM   18  O   UNL     1      -9.842  19.340  69.036  1.00  0.00    -0.422 OA 
HETATM   19  C   UNL     1     -10.170  17.025  68.503  1.00  0.00    -0.324 A  
HETATM   20  O   UNL     1      -7.435  17.614  65.661  1.00  0.00    -0.508 OA 
ENDROOT
BRANCH   7  21
HETATM   21  C   UNL     1      -9.661  13.470  67.135  1.00  0.00    -0.241 C  
BRANCH  21  22
HETATM   22  C   UNL     1      -8.268  13.306  67.780  1.00  0.00    -0.168 C  
HETATM   23  O   UNL     1      -7.266  13.772  66.877  1.00  0.00    -0.329 OA 
HETATM   24  H   UNL     1      -6.409  13.671  67.274  1.00  0.00     0.000 HD 
BRANCH  22  25
HETATM   25  C   UNL     1      -7.933  11.874  68.261  1.00  0.00    -0.148 C  
HETATM   26  O   UNL     1      -9.096  11.311  68.905  1.00  0.00    -0.316 OA 
HETATM   27  H   UNL     1      -8.890  10.432  69.200  1.00  0.00     0.000 HD 
BRANCH  25  28
HETATM   28  C   UNL     1      -6.719  11.668  69.200  1.00  0.00    -0.109 C  
HETATM   29  O   UNL     1      -5.532  12.148  68.522  1.00  0.00    -0.052 OA 
HETATM   30  H   UNL     1      -4.788  12.023  69.098  1.00  0.00     0.000 HD 
BRANCH  28  31
HETATM   31  C   UNL     1      -6.450  10.230  69.663  1.00  0.00    -0.069 C  
BRANCH  31  32
HETATM   32  O   UNL     1      -7.214  10.022  70.858  1.00  0.00    -0.326 OA 
HETATM   33  P   UNL     1      -8.037   8.661  71.001  1.00  0.00    -0.164 P  
HETATM   34  O   UNL     1      -9.089   8.668  69.800  1.00  0.00    -0.146 OA 
HETATM   35  O   UNL     1      -8.960   8.849  72.288  1.00  0.00    -0.388 OA 
HETATM   36  O   UNL     1      -7.245   7.402  71.049  1.00  0.00    -0.066 OA 
ENDBRANCH  31  32
ENDBRANCH  28  31
ENDBRANCH  25  28
ENDBRANCH  22  25
ENDBRANCH  21  22
ENDBRANCH   7  21
TORSDOF 6
ENDMDL
MODEL       55
REMARK 921   NORMALIZED FREE ENERGY PREDICTED BY IDOCK:   -5.99 KCAL/MOL
REMARK 922        TOTAL FREE ENERGY PREDICTED BY IDOCK:  -10.43 KCAL/MOL
REMARK 923 INTER-LIGAND FREE ENERGY PREDICTED BY IDOCK:   -8.73 KCAL/MOL
REMARK 924 INTRA-LIGAND FREE ENERGY PREDICTED BY IDOCK:   -1.70 KCAL/MOL
REMARK 927      BINDING AFFINITY PREDICTED BY RF-SCORE:    0.00 PKD
ROOT
HETATM    1  C   UNL     1      -9.538   7.566  68.394  1.00  0.00    -0.152 C  
HETATM    2  C   UNL     1      -9.352   8.979  67.919  1.00  0.00    -0.155 A  
HETATM    3  C   UNL     1     -10.072   9.451  66.823  1.00  0.00    -0.325 A  
HETATM    4  C   UNL     1      -9.987  10.798  66.444  1.00  0.00    -0.216 A  
HETATM    5  C   UNL     1      -9.071  11.672  67.078  1.00  0.00    -0.179 A  
HETATM    6  C   UNL     1      -8.200  11.122  68.003  1.00  0.00    -0.125 A  
HETATM    7  N   UNL     1      -9.114  13.068  66.833  1.00  0.00    -0.228 NA 
HETATM    8  H   UNL     1     -12.387  14.714  63.210  1.00  0.00     0.000 HD 
HETATM    9  C   UNL     1      -8.501   9.881  68.572  1.00  0.00    -0.112 A  
HETATM   10  C   UNL     1     -10.042  13.517  65.897  1.00  0.00    -0.303 A  
HETATM   11  C   UNL     1      -8.213   9.803  70.046  1.00  0.00    -0.207 C  
HETATM   12  C   UNL     1     -11.837  12.974  64.104  1.00  0.00    -0.416 C  
HETATM   13  N   UNL     1     -10.211  14.776  65.641  1.00  0.00    -0.334 N  
HETATM   14  H   UNL     1      -9.645  15.462  66.142  1.00  0.00     0.000 HD 
HETATM   15  N   UNL     1     -10.875  11.228  65.454  1.00  0.00    -0.231 NA 
HETATM   16  C   UNL     1     -11.120  15.213  64.724  1.00  0.00    -0.382 C  
HETATM   17  N   UNL     1     -11.819  14.324  63.963  1.00  0.00    -0.303 N  
HETATM   18  O   UNL     1     -12.553  12.229  63.455  1.00  0.00    -0.682 OA 
HETATM   19  C   UNL     1     -10.900  12.493  65.172  1.00  0.00    -0.288 A  
HETATM   20  O   UNL     1     -11.337  16.409  64.558  1.00  0.00    -0.615 OA 
ENDROOT
BRANCH   7  21
HETATM   21  C   UNL     1      -8.709  13.987  67.954  1.00  0.00    -0.184 C  
BRANCH  21  22
HETATM   22  C   UNL     1      -7.559  14.936  67.556  1.00  0.00    -0.195 C  
HETATM   23  O   UNL     1      -6.438  14.170  67.118  1.00  0.00    -0.387 OA 
HETATM   24  H   UNL     1      -5.729  14.754  66.873  1.00  0.00     0.000 HD 
BRANCH  22  25
HETATM   25  C   UNL     1      -7.128  15.940  68.651  1.00  0.00    -0.133 C  
HETATM   26  O   UNL     1      -8.246  16.180  69.534  1.00  0.00    -0.168 OA 
HETATM   27  H   UNL     1      -7.981  16.796  70.206  1.00  0.00     0.000 HD 
BRANCH  25  28
HETATM   28  C   UNL     1      -6.556  17.313  68.221  1.00  0.00    -0.171 C  
HETATM   29  O   UNL     1      -6.453  18.152  69.398  1.00  0.00    -0.260 OA 
HETATM   30  H   UNL     1      -6.102  18.994  69.135  1.00  0.00     0.000 HD 
BRANCH  28  31
HETATM   31  C   UNL     1      -7.354  18.083  67.160  1.00  0.00    -0.195 C  
BRANCH  31  32
HETATM   32  O   UNL     1      -8.369  18.823  67.851  1.00  0.00    -0.266 OA 
HETATM   33  P   UNL     1      -9.894  18.569  67.448  1.00  0.00    -0.344 P  
HETATM   34  O   UNL     1     -10.008  18.989  65.913  1.00  0.00    -0.477 OA 
HETATM   35  O   UNL     1     -10.730  19.703  68.195  1.00  0.00    -0.358 OA 
HETATM   36  O   UNL     1     -10.434  17.205  67.701  1.00  0.00    -0.335 OA 
ENDBRANCH  31  32
ENDBRANCH  28  31
ENDBRANCH  25  28
ENDBRANCH  22  25
ENDBRANCH  21  22
ENDBRANCH   7  21
TORSDOF 6
ENDMDL
MODEL       56
REMARK 921   NORMALIZED FREE ENERGY PREDICTED BY IDOCK:   -5.98 KCAL/MOL
REMARK 922        TOTAL FREE ENERGY PREDICTED BY IDOCK:  -10.42 KCAL/MOL
REMARK 923 INTER-LIGAND FREE ENERGY PREDICTED BY IDOCK:   -9.03 KCAL/MOL
REMARK 924 INTRA-LIGAND FREE ENERGY PREDICTED BY IDOCK:   -1.39 KCAL/MOL
REMARK 927      BINDING AFFINITY PREDICTED BY RF-SCORE:    0.00 PKD
ROOT
HETATM    1  C   UNL     1      -5.128  11.903  69.544  1.00  0.00    -0.061 C  
HETATM    2  C   UNL     1      -6.386  11.093  69.404  1.00  0.00    -0.088 A  
HETATM    3  C   UNL     1      -6.823  10.288  70.455  1.00  0.00    -0.109 A  
HETATM    4  C   UNL     1      -8.051   9.618  70.373  1.00  0.00    -0.168 A  
HETATM    5  C   UNL     1      -8.807   9.635  69.175  1.00  0.00    -0.157 A  
HETATM    6  C   UNL     1      -8.237  10.245  68.070  1.00  0.00    -0.113 A  
HETATM    7  N   UNL     1     -10.128   9.123  69.145  1.00  0.00    -0.188 NA 
HETATM    8  H   UNL     1     -11.838   6.793  73.410  1.00  0.00     0.000 HD 
HETATM    9  C   UNL     1      -7.184  11.145  68.253  1.00  0.00    -0.083 A  
HETATM   10  C   UNL     1     -10.609   8.547  70.318  1.00  0.00    -0.226 A  
HETATM   11  C   UNL     1      -7.273  12.369  67.383  1.00  0.00    -0.148 C  
HETATM   12  C   UNL     1     -10.178   7.763  72.754  1.00  0.00    -0.299 C  
HETATM   13  N   UNL     1     -11.824   8.105  70.423  1.00  0.00    -0.472 N  
HETATM   14  H   UNL     1     -12.448   8.181  69.620  1.00  0.00     0.000 HD 
HETATM   15  N   UNL     1      -8.498   8.983  71.534  1.00  0.00    -0.342 NA 
HETATM   16  C   UNL     1     -12.293   7.543  71.572  1.00  0.00    -0.339 C  
HETATM   17  N   UNL     1     -11.460   7.331  72.631  1.00  0.00    -0.285 N  
HETATM   18  O   UNL     1      -9.505   7.626  73.762  1.00  0.00    -0.272 OA 
HETATM   19  C   UNL     1      -9.684   8.461  71.521  1.00  0.00    -0.210 A  
HETATM   20  O   UNL     1     -13.468   7.213  71.691  1.00  0.00    -0.379 OA 
ENDROOT
BRANCH   7  21
HETATM   21  C   UNL     1     -11.105   9.764  68.196  1.00  0.00    -0.110 C  
BRANCH  21  22
HETATM   22  C   UNL     1     -11.779  11.017  68.795  1.00  0.00    -0.314 C  
HETATM   23  O   UNL     1     -13.073  10.674  69.286  1.00  0.00    -0.425 OA 
HETATM   24  H   UNL     1     -13.488  11.445  69.655  1.00  0.00     0.000 HD 
BRANCH  22  25
HETATM   25  C   UNL     1     -11.871  12.231  67.840  1.00  0.00    -0.293 C  
HETATM   26  O   UNL     1     -11.040  11.984  66.685  1.00  0.00    -0.278 OA 
HETATM   27  H   UNL     1     -11.097  12.729  66.099  1.00  0.00     0.000 HD 
BRANCH  25  28
HETATM   28  C   UNL     1     -11.525  13.637  68.387  1.00  0.00    -0.311 C  
HETATM   29  O   UNL     1     -12.680  14.144  69.101  1.00  0.00    -0.415 OA 
HETATM   30  H   UNL     1     -12.468  15.007  69.437  1.00  0.00     0.000 HD 
BRANCH  28  31
HETATM   31  C   UNL     1     -11.111  14.690  67.350  1.00  0.00    -0.326 C  
BRANCH  31  32
HETATM   32  O   UNL     1     -11.982  14.535  66.222  1.00  0.00    -0.382 OA 
HETATM   33  P   UNL     1     -11.371  14.752  64.761  1.00  0.00    -0.345 P  
HETATM   34  O   UNL     1     -10.867  16.266  64.727  1.00  0.00    -0.671 OA 
HETATM   35  O   UNL     1     -12.620  14.766  63.771  1.00  0.00    -0.806 OA 
HETATM   36  O   UNL     1     -10.314  13.796  64.331  1.00  0.00    -0.415 OA 
ENDBRANCH  31  32
ENDBRANCH  28  31
ENDBRANCH  25  28
ENDBRANCH  22  25
ENDBRANCH  21  22
ENDBRANCH   7  21
TORSDOF 6
ENDMDL
MODEL       57
REMARK 921   NORMALIZED FREE ENERGY PREDICTED BY IDOCK:   -5.97 KCAL/MOL
REMARK 922        TOTAL FREE ENERGY PREDICTED BY IDOCK:  -10.41 KCAL/MOL
REMARK 923 INTER-LIGAND FREE ENERGY PREDICTED BY IDOCK:   -8.66 KCAL/MOL
REMARK 924 INTRA-LIGAND FREE ENERGY PREDICTED BY IDOCK:   -1.76 KCAL/MOL
REMARK 927      BINDING AFFINITY PREDICTED BY RF-SCORE:    0.00 PKD
ROOT
HETATM    1  C   UNL     1     -10.782  17.716  67.480  1.00  0.00    -0.294 C  
HETATM    2  C   UNL     1     -10.766  16.254  67.826  1.00  0.00    -0.325 A  
HETATM    3  C   UNL     1     -11.325  15.810  69.023  1.00  0.00    -0.354 A  
HETATM    4  C   UNL     1     -11.413  14.439  69.300  1.00  0.00    -0.285 A  
HETATM    5  C   UNL     1     -10.819  13.486  68.437  1.00  0.00    -0.267 A  
HETATM    6  C   UNL     1     -10.066  13.966  67.379  1.00  0.00    -0.244 A  
HETATM    7  N   UNL     1     -11.066  12.101  68.607  1.00  0.00    -0.235 NA 
HETATM    8  H   UNL     1     -13.787  10.697  72.751  1.00  0.00     0.000 HD 
HETATM    9  C   UNL     1     -10.243  15.287  66.957  1.00  0.00    -0.260 A  
HETATM   10  C   UNL     1     -11.852  11.729  69.695  1.00  0.00    -0.339 A  
HETATM   11  C   UNL     1     -10.249  15.452  65.462  1.00  0.00    -0.411 C  
HETATM   12  C   UNL     1     -13.120  12.396  71.858  1.00  0.00    -0.366 C  
HETATM   13  N   UNL     1     -12.194  10.497  69.911  1.00  0.00    -0.484 N  
HETATM   14  H   UNL     1     -11.875   9.776  69.263  1.00  0.00     0.000 HD 
HETATM   15  N   UNL     1     -12.146  14.074  70.431  1.00  0.00    -0.335 NA 
HETATM   16  C   UNL     1     -12.964  10.135  70.976  1.00  0.00    -0.385 C  
HETATM   17  N   UNL     1     -13.321  11.054  71.917  1.00  0.00    -0.390 N  
HETATM   18  O   UNL     1     -13.542  13.187  72.686  1.00  0.00    -0.604 OA 
HETATM   19  C   UNL     1     -12.345  12.810  70.642  1.00  0.00    -0.297 A  
HETATM   20  O   UNL     1     -13.358   8.983  71.119  1.00  0.00    -0.242 OA 
ENDROOT
BRANCH   7  21
HETATM   21  C   UNL     1     -11.070  11.234  67.377  1.00  0.00    -0.297 C  
BRANCH  21  22
HETATM   22  C   UNL     1      -9.806  10.354  67.267  1.00  0.00    -0.178 C  
HETATM   23  O   UNL     1      -8.922  10.908  66.294  1.00  0.00    -0.164 OA 
HETATM   24  H   UNL     1      -8.144  10.366  66.226  1.00  0.00     0.000 HD 
BRANCH  22  25
HETATM   25  C   UNL     1     -10.071   8.861  66.965  1.00  0.00    -0.261 C  
HETATM   26  O   UNL     1     -10.996   8.340  67.944  1.00  0.00    -0.480 OA 
HETATM   27  H   UNL     1     -11.159   7.423  67.758  1.00  0.00     0.000 HD 
BRANCH  25  28
HETATM   28  C   UNL     1      -8.867   7.892  66.881  1.00  0.00    -0.133 C  
HETATM   29  O   UNL     1      -7.718   8.541  67.482  1.00  0.00    -0.096 OA 
HETATM   30  H   UNL     1      -6.980   7.946  67.431  1.00  0.00     0.000 HD 
BRANCH  28  31
HETATM   31  C   UNL     1      -8.464   7.423  65.477  1.00  0.00    -0.118 C  
BRANCH  31  32
HETATM   32  O   UNL     1      -7.645   8.453  64.908  1.00  0.00    -0.090 OA 
HETATM   33  P   UNL     1      -8.118   9.121  63.536  1.00  0.00    -0.177 P  
HETATM   34  O   UNL     1      -8.143   7.936  62.467  1.00  0.00    -0.157 OA 
HETATM   35  O   UNL     1      -6.892  10.018  63.049  1.00  0.00    -0.120 OA 
HETATM   36  O   UNL     1      -9.399   9.879  63.568  1.00  0.00    -0.272 OA 
ENDBRANCH  31  32
ENDBRANCH  28  31
ENDBRANCH  25  28
ENDBRANCH  22  25
ENDBRANCH  21  22
ENDBRANCH   7  21
TORSDOF 6
ENDMDL
MODEL       58
REMARK 921   NORMALIZED FREE ENERGY PREDICTED BY IDOCK:   -5.95 KCAL/MOL
REMARK 922        TOTAL FREE ENERGY PREDICTED BY IDOCK:  -10.38 KCAL/MOL
REMARK 923 INTER-LIGAND FREE ENERGY PREDICTED BY IDOCK:   -9.13 KCAL/MOL
REMARK 924 INTRA-LIGAND FREE ENERGY PREDICTED BY IDOCK:   -1.25 KCAL/MOL
REMARK 927      BINDING AFFINITY PREDICTED BY RF-SCORE:    0.00 PKD
ROOT
HETATM    1  C   UNL     1     -13.793  13.366  72.154  1.00  0.00    -0.605 C  
HETATM    2  C   UNL     1     -12.777  12.835  71.183  1.00  0.00    -0.355 A  
HETATM    3  C   UNL     1     -12.480  11.474  71.151  1.00  0.00    -0.442 A  
HETATM    4  C   UNL     1     -11.618  10.957  70.175  1.00  0.00    -0.338 A  
HETATM    5  C   UNL     1     -10.927  11.819  69.289  1.00  0.00    -0.175 A  
HETATM    6  C   UNL     1     -11.057  13.182  69.495  1.00  0.00    -0.067 A  
HETATM    7  N   UNL     1     -10.208  11.298  68.185  1.00  0.00    -0.174 NA 
HETATM    8  H   UNL     1      -9.826   6.171  67.844  1.00  0.00     0.000 HD 
HETATM    9  C   UNL     1     -12.130  13.660  70.253  1.00  0.00    -0.427 A  
HETATM   10  C   UNL     1     -10.157   9.912  68.062  1.00  0.00    -0.171 A  
HETATM   11  C   UNL     1     -12.767  14.901  69.689  1.00  0.00     0.012 C  
HETATM   12  C   UNL     1     -10.693   7.568  69.038  1.00  0.00    -0.134 C  
HETATM   13  N   UNL     1      -9.581   9.328  67.057  1.00  0.00    -0.161 N  
HETATM   14  H   UNL     1      -9.150   9.903  66.333  1.00  0.00     0.000 HD 
HETATM   15  N   UNL     1     -11.518   9.566  70.100  1.00  0.00    -0.206 NA 
HETATM   16  C   UNL     1      -9.533   7.971  66.939  1.00  0.00    -0.191 C  
HETATM   17  N   UNL     1     -10.006   7.171  67.936  1.00  0.00    -0.148 N  
HETATM   18  O   UNL     1     -11.175   6.801  69.855  1.00  0.00    -0.296 OA 
HETATM   19  C   UNL     1     -10.823   9.060  69.130  1.00  0.00    -0.089 A  
HETATM   20  O   UNL     1      -9.068   7.432  65.940  1.00  0.00    -0.131 OA 
ENDROOT
BRANCH   7  21
HETATM   21  C   UNL     1     -10.127  12.142  66.941  1.00  0.00    -0.206 C  
BRANCH  21  22
HETATM   22  C   UNL     1     -11.200  11.765  65.898  1.00  0.00    -0.290 C  
HETATM   23  O   UNL     1     -10.587  11.077  64.810  1.00  0.00    -0.319 OA 
HETATM   24  H   UNL     1     -11.248  10.845  64.167  1.00  0.00     0.000 HD 
BRANCH  22  25
HETATM   25  C   UNL     1     -12.050  12.948  65.376  1.00  0.00    -0.454 C  
HETATM   26  O   UNL     1     -13.274  12.432  64.809  1.00  0.00    -0.784 OA 
HETATM   27  H   UNL     1     -13.795  13.159  64.489  1.00  0.00     0.000 HD 
BRANCH  25  28
HETATM   28  C   UNL     1     -11.421  13.922  64.349  1.00  0.00    -0.361 C  
HETATM   29  O   UNL     1     -10.019  13.583  64.201  1.00  0.00    -0.766 OA 
HETATM   30  H   UNL     1      -9.633  14.180  63.571  1.00  0.00     0.000 HD 
BRANCH  28  31
HETATM   31  C   UNL     1     -11.512  15.417  64.682  1.00  0.00    -0.337 C  
BRANCH  31  32
HETATM   32  O   UNL     1     -11.283  15.550  66.091  1.00  0.00    -0.245 OA 
HETATM   33  P   UNL     1     -10.160  16.577  66.578  1.00  0.00    -0.320 P  
HETATM   34  O   UNL     1      -8.791  16.043  65.955  1.00  0.00    -0.333 OA 
HETATM   35  O   UNL     1      -9.976  16.303  68.139  1.00  0.00    -0.232 OA 
HETATM   36  O   UNL     1     -10.394  18.015  66.277  1.00  0.00    -0.380 OA 
ENDBRANCH  31  32
ENDBRANCH  28  31
ENDBRANCH  25  28
ENDBRANCH  22  25
ENDBRANCH  21  22
ENDBRANCH   7  21
TORSDOF 6
ENDMDL
MODEL       59
REMARK 921   NORMALIZED FREE ENERGY PREDICTED BY IDOCK:   -5.91 KCAL/MOL
REMARK 922        TOTAL FREE ENERGY PREDICTED BY IDOCK:  -10.33 KCAL/MOL
REMARK 923 INTER-LIGAND FREE ENERGY PREDICTED BY IDOCK:   -9.39 KCAL/MOL
REMARK 924 INTRA-LIGAND FREE ENERGY PREDICTED BY IDOCK:   -0.94 KCAL/MOL
REMARK 927      BINDING AFFINITY PREDICTED BY RF-SCORE:    0.00 PKD
ROOT
HETATM    1  C   UNL     1      -7.724  20.001  68.576  1.00  0.00    -0.186 C  
HETATM    2  C   UNL     1      -8.210  18.789  67.834  1.00  0.00    -0.293 A  
HETATM    3  C   UNL     1      -7.531  17.577  67.949  1.00  0.00    -0.206 A  
HETATM    4  C   UNL     1      -8.041  16.417  67.350  1.00  0.00    -0.153 A  
HETATM    5  C   UNL     1      -9.178  16.477  66.508  1.00  0.00    -0.272 A  
HETATM    6  C   UNL     1      -9.693  17.730  66.220  1.00  0.00    -0.277 A  
HETATM    7  N   UNL     1      -9.808  15.291  66.056  1.00  0.00    -0.304 NA 
HETATM    8  H   UNL     1      -7.504  10.828  67.205  1.00  0.00     0.000 HD 
HETATM    9  C   UNL     1      -9.370  18.809  67.048  1.00  0.00    -0.313 A  
HETATM   10  C   UNL     1      -9.216  14.083  66.419  1.00  0.00    -0.162 A  
HETATM   11  C   UNL     1     -10.531  19.721  67.338  1.00  0.00    -0.577 C  
HETATM   12  C   UNL     1      -7.247  12.816  67.536  1.00  0.00    -0.154 C  
HETATM   13  N   UNL     1      -9.742  12.938  66.115  1.00  0.00    -0.314 N  
HETATM   14  H   UNL     1     -10.617  12.919  65.591  1.00  0.00     0.000 HD 
HETATM   15  N   UNL     1      -7.401  15.216  67.664  1.00  0.00    -0.165 NA 
HETATM   16  C   UNL     1      -9.161  11.758  66.471  1.00  0.00    -0.203 C  
HETATM   17  N   UNL     1      -7.941  11.741  67.080  1.00  0.00    -0.161 N  
HETATM   18  O   UNL     1      -6.200  12.740  68.157  1.00  0.00    -0.070 OA 
HETATM   19  C   UNL     1      -7.926  14.116  67.221  1.00  0.00    -0.150 A  
HETATM   20  O   UNL     1      -9.712  10.683  66.260  1.00  0.00    -0.186 OA 
ENDROOT
BRANCH   7  21
HETATM   21  C   UNL     1     -11.295  15.332  65.828  1.00  0.00    -0.180 C  
BRANCH  21  22
HETATM   22  C   UNL     1     -12.013  14.075  66.366  1.00  0.00    -0.438 C  
HETATM   23  O   UNL     1     -13.172  13.813  65.577  1.00  0.00    -0.662 OA 
HETATM   24  H   UNL     1     -13.614  13.039  65.908  1.00  0.00     0.000 HD 
BRANCH  22  25
HETATM   25  C   UNL     1     -12.385  14.125  67.867  1.00  0.00     0.015 C  
HETATM   26  O   UNL     1     -12.047  15.428  68.391  1.00  0.00    -0.539 OA 
HETATM   27  H   UNL     1     -12.276  15.458  69.312  1.00  0.00     0.000 HD 
BRANCH  25  28
HETATM   28  C   UNL     1     -11.790  13.058  68.818  1.00  0.00    -0.317 C  
HETATM   29  O   UNL     1     -11.933  11.759  68.191  1.00  0.00    -0.521 OA 
HETATM   30  H   UNL     1     -11.568  11.105  68.774  1.00  0.00     0.000 HD 
BRANCH  28  31
HETATM   31  C   UNL     1     -12.405  12.976  70.221  1.00  0.00    -0.241 C  
BRANCH  31  32
HETATM   32  O   UNL     1     -11.822  14.030  70.999  1.00  0.00    -0.283 OA 
HETATM   33  P   UNL     1     -12.778  14.875  71.961  1.00  0.00    -0.374 P  
HETATM   34  O   UNL     1     -13.845  15.572  71.000  1.00  0.00    -0.545 OA 
HETATM   35  O   UNL     1     -11.897  16.103  72.471  1.00  0.00    -0.494 OA 
HETATM   36  O   UNL     1     -13.424  14.136  73.079  1.00  0.00    -0.661 OA 
ENDBRANCH  31  32
ENDBRANCH  28  31
ENDBRANCH  25  28
ENDBRANCH  22  25
ENDBRANCH  21  22
ENDBRANCH   7  21
TORSDOF 6
ENDMDL
MODEL       60
REMARK 921   NORMALIZED FREE ENERGY PREDICTED BY IDOCK:   -5.89 KCAL/MOL
REMARK 922        TOTAL FREE ENERGY PREDICTED BY IDOCK:  -10.30 KCAL/MOL
REMARK 923 INTER-LIGAND FREE ENERGY PREDICTED BY IDOCK:   -9.13 KCAL/MOL
REMARK 924 INTRA-LIGAND FREE ENERGY PREDICTED BY IDOCK:   -1.17 KCAL/MOL
REMARK 927      BINDING AFFINITY PREDICTED BY RF-SCORE:    0.00 PKD
ROOT
HETATM    1  C   UNL     1      -9.847  20.020  66.239  1.00  0.00    -0.576 C  
HETATM    2  C   UNL     1      -9.817  18.533  66.451  1.00  0.00    -0.376 A  
HETATM    3  C   UNL     1     -10.632  17.699  65.687  1.00  0.00    -0.137 A  
HETATM    4  C   UNL     1     -10.527  16.306  65.801  1.00  0.00    -0.364 A  
HETATM    5  C   UNL     1      -9.694  15.720  66.784  1.00  0.00    -0.238 A  
HETATM    6  C   UNL     1      -9.077  16.571  67.686  1.00  0.00    -0.199 A  
HETATM    7  N   UNL     1      -9.438  14.326  66.781  1.00  0.00    -0.264 NA 
HETATM    8  H   UNL     1     -12.041  11.475  63.369  1.00  0.00     0.000 HD 
HETATM    9  C   UNL     1      -8.952  17.927  67.372  1.00  0.00    -0.245 A  
HETATM   10  C   UNL     1     -10.098  13.566  65.818  1.00  0.00    -0.287 A  
HETATM   11  C   UNL     1      -7.618  18.516  67.741  1.00  0.00    -0.243 C  
HETATM   12  C   UNL     1     -11.842  13.425  63.902  1.00  0.00    -0.439 C  
HETATM   13  N   UNL     1      -9.891  12.293  65.683  1.00  0.00    -0.284 N  
HETATM   14  H   UNL     1      -9.224  11.833  66.302  1.00  0.00     0.000 HD 
HETATM   15  N   UNL     1     -11.245  15.546  64.875  1.00  0.00    -0.412 NA 
HETATM   16  C   UNL     1     -10.537  11.551  64.739  1.00  0.00    -0.305 C  
HETATM   17  N   UNL     1     -11.509  12.110  63.964  1.00  0.00    -0.379 N  
HETATM   18  O   UNL     1     -12.659  13.887  63.123  1.00  0.00    -0.775 OA 
HETATM   19  C   UNL     1     -11.071  14.261  64.881  1.00  0.00    -0.390 A  
HETATM   20  O   UNL     1     -10.266  10.369  64.558  1.00  0.00    -0.342 OA 
ENDROOT
BRANCH   7  21
HETATM   21  C   UNL     1      -8.099  13.859  67.285  1.00  0.00    -0.145 C  
BRANCH  21  22
HETATM   22  C   UNL     1      -8.200  13.117  68.635  1.00  0.00    -0.000 C  
HETATM   23  O   UNL     1      -7.167  13.572  69.507  1.00  0.00    -0.320 OA 
HETATM   24  H   UNL     1      -7.229  13.115  70.338  1.00  0.00     0.000 HD 
BRANCH  22  25
HETATM   25  C   UNL     1      -8.179  11.573  68.537  1.00  0.00    -0.148 C  
HETATM   26  O   UNL     1      -7.781  11.192  67.202  1.00  0.00    -0.122 OA 
HETATM   27  H   UNL     1      -7.767  10.245  67.143  1.00  0.00     0.000 HD 
BRANCH  25  28
HETATM   28  C   UNL     1      -9.463  10.786  68.896  1.00  0.00    -0.181 C  
HETATM   29  O   UNL     1     -10.446  11.724  69.398  1.00  0.00    -0.430 OA 
HETATM   30  H   UNL     1     -11.234  11.241  69.618  1.00  0.00     0.000 HD 
BRANCH  28  31
HETATM   31  C   UNL     1      -9.308   9.664  69.931  1.00  0.00    -0.228 C  
BRANCH  31  32
HETATM   32  O   UNL     1     -10.321   8.688  69.649  1.00  0.00    -0.204 OA 
HETATM   33  P   UNL     1     -11.052   7.981  70.881  1.00  0.00    -0.257 P  
HETATM   34  O   UNL     1      -9.903   7.210  71.677  1.00  0.00    -0.164 OA 
HETATM   35  O   UNL     1     -11.910   6.795  70.248  1.00  0.00    -0.364 OA 
HETATM   36  O   UNL     1     -11.862   8.858  71.770  1.00  0.00    -0.311 OA 
ENDBRANCH  31  32
ENDBRANCH  28  31
ENDBRANCH  25  28
ENDBRANCH  22  25
ENDBRANCH  21  22
ENDBRANCH   7  21
TORSDOF 6
ENDMDL
MODEL       61
REMARK 921   NORMALIZED FREE ENERGY PREDICTED BY IDOCK:   -5.89 KCAL/MOL
REMARK 922        TOTAL FREE ENERGY PREDICTED BY IDOCK:  -10.30 KCAL/MOL
REMARK 923 INTER-LIGAND FREE ENERGY PREDICTED BY IDOCK:   -8.83 KCAL/MOL
REMARK 924 INTRA-LIGAND FREE ENERGY PREDICTED BY IDOCK:   -1.46 KCAL/MOL
REMARK 927      BINDING AFFINITY PREDICTED BY RF-SCORE:    0.00 PKD
ROOT
HETATM    1  C   UNL     1      -7.641   8.026  64.751  1.00  0.00    -0.105 C  
HETATM    2  C   UNL     1      -8.745   8.721  65.496  1.00  0.00    -0.217 A  
HETATM    3  C   UNL     1      -9.161   8.246  66.738  1.00  0.00    -0.212 A  
HETATM    4  C   UNL     1     -10.111   8.953  67.487  1.00  0.00    -0.227 A  
HETATM    5  C   UNL     1     -10.765  10.086  66.944  1.00  0.00    -0.140 A  
HETATM    6  C   UNL     1     -10.506  10.397  65.620  1.00  0.00    -0.185 A  
HETATM    7  N   UNL     1     -11.579  10.912  67.758  1.00  0.00    -0.561 NA 
HETATM    8  H   UNL     1     -12.427   9.337  72.590  1.00  0.00     0.000 HD 
HETATM    9  C   UNL     1      -9.360   9.882  65.007  1.00  0.00    -0.323 A  
HETATM   10  C   UNL     1     -11.758  10.516  69.081  1.00  0.00    -0.189 A  
HETATM   11  C   UNL     1      -8.643  10.871  64.128  1.00  0.00     0.057 C  
HETATM   12  C   UNL     1     -11.385   8.752  70.947  1.00  0.00    -0.275 C  
HETATM   13  N   UNL     1     -12.430  11.228  69.930  1.00  0.00    -0.204 N  
HETATM   14  H   UNL     1     -12.843  12.108  69.620  1.00  0.00     0.000 HD 
HETATM   15  N   UNL     1     -10.337   8.510  68.792  1.00  0.00    -0.217 NA 
HETATM   16  C   UNL     1     -12.604  10.838  71.225  1.00  0.00    -0.426 C  
HETATM   17  N   UNL     1     -12.156   9.622  71.649  1.00  0.00    -0.389 N  
HETATM   18  O   UNL     1     -10.934   7.716  71.406  1.00  0.00    -0.229 OA 
HETATM   19  C   UNL     1     -11.119   9.217  69.546  1.00  0.00    -0.080 A  
HETATM   20  O   UNL     1     -13.161  11.563  72.042  1.00  0.00    -0.509 OA 
ENDROOT
BRANCH   7  21
HETATM   21  C   UNL     1     -11.645  12.378  67.423  1.00  0.00    -0.365 C  
BRANCH  21  22
HETATM   22  C   UNL     1     -10.277  13.080  67.563  1.00  0.00    -0.221 C  
HETATM   23  O   UNL     1      -9.961  13.237  68.945  1.00  0.00    -0.420 OA 
HETATM   24  H   UNL     1      -9.119  13.670  69.031  1.00  0.00     0.000 HD 
BRANCH  22  25
HETATM   25  C   UNL     1     -10.158  14.435  66.826  1.00  0.00    -0.266 C  
HETATM   26  O   UNL     1      -8.867  14.507  66.182  1.00  0.00    -0.480 OA 
HETATM   27  H   UNL     1      -8.794  15.339  65.730  1.00  0.00     0.000 HD 
BRANCH  25  28
HETATM   28  C   UNL     1     -10.363  15.742  67.631  1.00  0.00    -0.281 C  
HETATM   29  O   UNL     1      -9.294  15.850  68.604  1.00  0.00    -0.195 OA 
HETATM   30  H   UNL     1      -9.420  16.652  69.097  1.00  0.00     0.000 HD 
BRANCH  28  31
HETATM   31  C   UNL     1     -11.697  15.880  68.378  1.00  0.00    -0.241 C  
BRANCH  31  32
HETATM   32  O   UNL     1     -11.393  16.349  69.699  1.00  0.00    -0.295 OA 
HETATM   33  P   UNL     1     -12.005  15.552  70.941  1.00  0.00    -0.460 P  
HETATM   34  O   UNL     1     -13.589  15.664  70.785  1.00  0.00    -0.524 OA 
HETATM   35  O   UNL     1     -11.704  16.456  72.221  1.00  0.00    -0.508 OA 
HETATM   36  O   UNL     1     -11.554  14.145  71.120  1.00  0.00    -0.147 OA 
ENDBRANCH  31  32
ENDBRANCH  28  31
ENDBRANCH  25  28
ENDBRANCH  22  25
ENDBRANCH  21  22
ENDBRANCH   7  21
TORSDOF 6
ENDMDL
MODEL       62
REMARK 921   NORMALIZED FREE ENERGY PREDICTED BY IDOCK:   -5.88 KCAL/MOL
REMARK 922        TOTAL FREE ENERGY PREDICTED BY IDOCK:  -10.29 KCAL/MOL
REMARK 923 INTER-LIGAND FREE ENERGY PREDICTED BY IDOCK:   -9.37 KCAL/MOL
REMARK 924 INTRA-LIGAND FREE ENERGY PREDICTED BY IDOCK:   -0.92 KCAL/MOL
REMARK 927      BINDING AFFINITY PREDICTED BY RF-SCORE:    0.00 PKD
ROOT
HETATM    1  C   UNL     1      -7.469  18.873  68.763  1.00  0.00    -0.360 C  
HETATM    2  C   UNL     1      -8.081  17.551  68.396  1.00  0.00    -0.266 A  
HETATM    3  C   UNL     1      -9.114  17.491  67.461  1.00  0.00    -0.234 A  
HETATM    4  C   UNL     1      -9.612  16.254  67.032  1.00  0.00    -0.231 A  
HETATM    5  C   UNL     1      -9.175  15.049  67.633  1.00  0.00    -0.182 A  
HETATM    6  C   UNL     1      -8.324  15.151  68.721  1.00  0.00    -0.175 A  
HETATM    7  N   UNL     1      -9.528  13.793  67.080  1.00  0.00    -0.235 NA 
HETATM    8  H   UNL     1     -12.836  13.819  63.129  1.00  0.00     0.000 HD 
HETATM    9  C   UNL     1      -7.619  16.340  68.929  1.00  0.00    -0.212 A  
HETATM   10  C   UNL     1     -10.375  13.806  65.974  1.00  0.00    -0.308 A  
HETATM   11  C   UNL     1      -6.191  16.134  69.355  1.00  0.00    -0.171 C  
HETATM   12  C   UNL     1     -11.875  15.144  64.334  1.00  0.00    -0.305 C  
HETATM   13  N   UNL     1     -10.712  12.721  65.350  1.00  0.00    -0.278 N  
HETATM   14  H   UNL     1     -10.347  11.827  65.680  1.00  0.00     0.000 HD 
HETATM   15  N   UNL     1     -10.515  16.277  65.966  1.00  0.00    -0.336 NA 
HETATM   16  C   UNL     1     -11.541  12.736  64.268  1.00  0.00    -0.376 C  
HETATM   17  N   UNL     1     -12.130  13.896  63.862  1.00  0.00    -0.415 N  
HETATM   18  O   UNL     1     -12.364  16.162  63.872  1.00  0.00    -0.895 OA 
HETATM   19  C   UNL     1     -10.897  15.142  65.471  1.00  0.00    -0.364 A  
HETATM   20  O   UNL     1     -11.779  11.716  63.629  1.00  0.00    -0.420 OA 
ENDROOT
BRANCH   7  21
HETATM   21  C   UNL     1      -8.549  12.660  67.233  1.00  0.00    -0.196 C  
BRANCH  21  22
HETATM   22  C   UNL     1      -8.996  11.628  68.290  1.00  0.00    -0.185 C  
HETATM   23  O   UNL     1      -8.604  10.320  67.876  1.00  0.00    -0.118 OA 
HETATM   24  H   UNL     1      -8.880   9.685  68.527  1.00  0.00     0.000 HD 
BRANCH  22  25
HETATM   25  C   UNL     1     -10.504  11.654  68.634  1.00  0.00    -0.213 C  
HETATM   26  O   UNL     1     -10.738  12.660  69.644  1.00  0.00    -0.403 OA 
HETATM   27  H   UNL     1     -11.664  12.675  69.855  1.00  0.00     0.000 HD 
BRANCH  25  28
HETATM   28  C   UNL     1     -11.185  10.343  69.098  1.00  0.00    -0.246 C  
HETATM   29  O   UNL     1     -12.619  10.505  68.968  1.00  0.00    -0.722 OA 
HETATM   30  H   UNL     1     -13.037   9.701  69.252  1.00  0.00     0.000 HD 
BRANCH  28  31
HETATM   31  C   UNL     1     -10.889   9.891  70.535  1.00  0.00    -0.326 C  
BRANCH  31  32
HETATM   32  O   UNL     1     -11.401   8.559  70.671  1.00  0.00    -0.259 OA 
HETATM   33  P   UNL     1     -10.556   7.510  71.530  1.00  0.00    -0.214 P  
HETATM   34  O   UNL     1      -9.154   7.371  70.780  1.00  0.00    -0.150 OA 
HETATM   35  O   UNL     1     -11.242   6.094  71.275  1.00  0.00    -0.283 OA 
HETATM   36  O   UNL     1     -10.392   7.811  72.979  1.00  0.00    -0.295 OA 
ENDBRANCH  31  32
ENDBRANCH  28  31
ENDBRANCH  25  28
ENDBRANCH  22  25
ENDBRANCH  21  22
ENDBRANCH   7  21
TORSDOF 6
ENDMDL
MODEL       63
REMARK 921   NORMALIZED FREE ENERGY PREDICTED BY IDOCK:   -5.87 KCAL/MOL
REMARK 922        TOTAL FREE ENERGY PREDICTED BY IDOCK:  -10.27 KCAL/MOL
REMARK 923 INTER-LIGAND FREE ENERGY PREDICTED BY IDOCK:   -9.41 KCAL/MOL
REMARK 924 INTRA-LIGAND FREE ENERGY PREDICTED BY IDOCK:   -0.86 KCAL/MOL
REMARK 927      BINDING AFFINITY PREDICTED BY RF-SCORE:    0.00 PKD
ROOT
HETATM    1  C   UNL     1     -13.223  13.868  72.350  1.00  0.00    -0.587 C  
HETATM    2  C   UNL     1     -12.563  14.196  71.041  1.00  0.00    -0.439 A  
HETATM    3  C   UNL     1     -12.105  15.488  70.790  1.00  0.00    -0.435 A  
HETATM    4  C   UNL     1     -11.390  15.773  69.619  1.00  0.00    -0.334 A  
HETATM    5  C   UNL     1     -11.235  14.794  68.608  1.00  0.00    -0.273 A  
HETATM    6  C   UNL     1     -11.902  13.592  68.777  1.00  0.00    -0.395 A  
HETATM    7  N   UNL     1     -10.359  15.012  67.516  1.00  0.00    -0.239 NA 
HETATM    8  H   UNL     1      -8.179  19.667  67.153  1.00  0.00     0.000 HD 
HETATM    9  C   UNL     1     -12.340  13.227  70.053  1.00  0.00    -0.269 A  
HETATM   10  C   UNL     1      -9.724  16.250  67.453  1.00  0.00    -0.234 A  
HETATM   11  C   UNL     1     -12.125  11.773  70.377  1.00  0.00    -0.440 C  
HETATM   12  C   UNL     1      -9.425  18.650  68.395  1.00  0.00    -0.343 C  
HETATM   13  N   UNL     1      -8.855  16.535  66.534  1.00  0.00    -0.255 N  
HETATM   14  H   UNL     1      -8.629  15.830  65.833  1.00  0.00     0.000 HD 
HETATM   15  N   UNL     1     -10.812  17.042  69.531  1.00  0.00    -0.176 NA 
HETATM   16  C   UNL     1      -8.235  17.748  66.475  1.00  0.00    -0.269 C  
HETATM   17  N   UNL     1      -8.587  18.749  67.331  1.00  0.00    -0.271 N  
HETATM   18  O   UNL     1      -9.635  19.555  69.185  1.00  0.00    -0.394 OA 
HETATM   19  C   UNL     1     -10.045  17.289  68.515  1.00  0.00    -0.341 A  
HETATM   20  O   UNL     1      -7.348  17.974  65.659  1.00  0.00    -0.532 OA 
ENDROOT
BRANCH   7  21
HETATM   21  C   UNL     1      -9.673  13.813  66.918  1.00  0.00    -0.265 C  
BRANCH  21  22
HETATM   22  C   UNL     1     -10.177  13.491  65.494  1.00  0.00    -0.295 C  
HETATM   23  O   UNL     1     -11.125  14.477  65.090  1.00  0.00    -0.330 OA 
HETATM   24  H   UNL     1     -11.435  14.279  64.213  1.00  0.00     0.000 HD 
BRANCH  22  25
HETATM   25  C   UNL     1     -10.765  12.072  65.312  1.00  0.00    -0.288 C  
HETATM   26  O   UNL     1     -12.158  12.090  65.693  1.00  0.00    -0.508 OA 
HETATM   27  H   UNL     1     -12.519  11.219  65.581  1.00  0.00     0.000 HD 
BRANCH  25  28
HETATM   28  C   UNL     1     -10.086  10.885  66.037  1.00  0.00    -0.249 C  
HETATM   29  O   UNL     1     -10.015   9.770  65.113  1.00  0.00    -0.379 OA 
HETATM   30  H   UNL     1      -9.597   9.041  65.558  1.00  0.00     0.000 HD 
BRANCH  28  31
HETATM   31  C   UNL     1     -10.764  10.391  67.322  1.00  0.00    -0.273 C  
BRANCH  31  32
HETATM   32  O   UNL     1      -9.799  10.503  68.376  1.00  0.00    -0.152 OA 
HETATM   33  P   UNL     1      -8.450   9.656  68.258  1.00  0.00    -0.119 P  
HETATM   34  O   UNL     1      -8.905   8.126  68.235  1.00  0.00    -0.133 OA 
HETATM   35  O   UNL     1      -7.729   9.796  69.674  1.00  0.00    -0.103 OA 
HETATM   36  O   UNL     1      -7.546   9.993  67.125  1.00  0.00    -0.091 OA 
ENDBRANCH  31  32
ENDBRANCH  28  31
ENDBRANCH  25  28
ENDBRANCH  22  25
ENDBRANCH  21  22
ENDBRANCH   7  21
TORSDOF 6
ENDMDL
MODEL       64
REMARK 921   NORMALIZED FREE ENERGY PREDICTED BY IDOCK:   -5.84 KCAL/MOL
REMARK 922        TOTAL FREE ENERGY PREDICTED BY IDOCK:  -10.24 KCAL/MOL
REMARK 923 INTER-LIGAND FREE ENERGY PREDICTED BY IDOCK:   -9.05 KCAL/MOL
REMARK 924 INTRA-LIGAND FREE ENERGY PREDICTED BY IDOCK:   -1.19 KCAL/MOL
REMARK 927      BINDING AFFINITY PREDICTED BY RF-SCORE:    0.00 PKD
ROOT
HETATM    1  C   UNL     1     -13.372   9.105  72.353  1.00  0.00    -0.527 C  
HETATM    2  C   UNL     1     -12.174   8.968  71.457  1.00  0.00    -0.403 A  
HETATM    3  C   UNL     1     -11.746   7.707  71.045  1.00  0.00    -0.306 A  
HETATM    4  C   UNL     1     -10.699   7.579  70.122  1.00  0.00    -0.239 A  
HETATM    5  C   UNL     1      -9.969   8.713  69.693  1.00  0.00    -0.191 A  
HETATM    6  C   UNL     1     -10.259   9.925  70.297  1.00  0.00    -0.322 A  
HETATM    7  N   UNL     1      -9.043   8.617  68.624  1.00  0.00    -0.139 NA 
HETATM    8  H   UNL     1      -8.120   3.912  66.738  1.00  0.00     0.000 HD 
HETATM    9  C   UNL     1     -11.476  10.080  70.967  1.00  0.00    -0.463 A  
HETATM   10  C   UNL     1      -8.840   7.353  68.076  1.00  0.00    -0.126 A  
HETATM   11  C   UNL     1     -12.137  11.410  70.726  1.00  0.00    -0.433 C  
HETATM   12  C   UNL     1      -9.289   4.798  68.144  1.00  0.00    -0.134 C  
HETATM   13  N   UNL     1      -8.064   7.159  67.055  1.00  0.00    -0.115 N  
HETATM   14  H   UNL     1      -7.586   7.959  66.640  1.00  0.00     0.000 HD 
HETATM   15  N   UNL     1     -10.455   6.296  69.626  1.00  0.00    -0.215 NA 
HETATM   16  C   UNL     1      -7.868   5.921  66.520  1.00  0.00    -0.101 C  
HETATM   17  N   UNL     1      -8.407   4.817  67.111  1.00  0.00    -0.106 N  
HETATM   18  O   UNL     1      -9.813   3.785  68.575  1.00  0.00    -0.081 OA 
HETATM   19  C   UNL     1      -9.575   6.169  68.682  1.00  0.00    -0.127 A  
HETATM   20  O   UNL     1      -7.207   5.762  65.500  1.00  0.00    -0.071 OA 
ENDROOT
BRANCH   7  21
HETATM   21  C   UNL     1      -8.855   9.828  67.750  1.00  0.00    -0.129 C  
BRANCH  21  22
HETATM   22  C   UNL     1     -10.069  10.089  66.832  1.00  0.00    -0.229 C  
HETATM   23  O   UNL     1     -10.267   8.969  65.971  1.00  0.00    -0.363 OA 
HETATM   24  H   UNL     1     -11.014   9.130  65.406  1.00  0.00     0.000 HD 
BRANCH  22  25
HETATM   25  C   UNL     1      -9.996  11.395  66.005  1.00  0.00    -0.231 C  
HETATM   26  O   UNL     1      -8.784  11.386  65.219  1.00  0.00    -0.386 OA 
HETATM   27  H   UNL     1      -8.740  12.187  64.712  1.00  0.00     0.000 HD 
BRANCH  25  28
HETATM   28  C   UNL     1     -10.075  12.752  66.746  1.00  0.00    -0.236 C  
HETATM   29  O   UNL     1     -11.315  12.789  67.496  1.00  0.00    -0.276 OA 
HETATM   30  H   UNL     1     -11.364  13.621  67.951  1.00  0.00     0.000 HD 
BRANCH  28  31
HETATM   31  C   UNL     1     -10.014  14.012  65.872  1.00  0.00    -0.307 C  
BRANCH  31  32
HETATM   32  O   UNL     1     -10.644  13.690  64.625  1.00  0.00    -0.398 OA 
HETATM   33  P   UNL     1     -12.000  14.446  64.248  1.00  0.00    -0.242 P  
HETATM   34  O   UNL     1     -13.045  14.047  65.387  1.00  0.00    -0.763 OA 
HETATM   35  O   UNL     1     -12.567  13.693  62.961  1.00  0.00    -0.729 OA 
HETATM   36  O   UNL     1     -11.912  15.918  64.053  1.00  0.00    -0.660 OA 
ENDBRANCH  31  32
ENDBRANCH  28  31
ENDBRANCH  25  28
ENDBRANCH  22  25
ENDBRANCH  21  22
ENDBRANCH   7  21
TORSDOF 6
ENDMDL
MODEL       65
REMARK 921   NORMALIZED FREE ENERGY PREDICTED BY IDOCK:   -5.78 KCAL/MOL
REMARK 922        TOTAL FREE ENERGY PREDICTED BY IDOCK:  -10.15 KCAL/MOL
REMARK 923 INTER-LIGAND FREE ENERGY PREDICTED BY IDOCK:   -9.48 KCAL/MOL
REMARK 924 INTRA-LIGAND FREE ENERGY PREDICTED BY IDOCK:   -0.67 KCAL/MOL
REMARK 927      BINDING AFFINITY PREDICTED BY RF-SCORE:    0.00 PKD
ROOT
HETATM    1  C   UNL     1      -9.404  11.346  62.835  1.00  0.00    -0.351 C  
HETATM    2  C   UNL     1     -10.030  11.203  64.193  1.00  0.00    -0.369 A  
HETATM    3  C   UNL     1      -9.791  10.065  64.960  1.00  0.00    -0.374 A  
HETATM    4  C   UNL     1     -10.281   9.976  66.270  1.00  0.00    -0.215 A  
HETATM    5  C   UNL     1     -11.138  10.974  66.793  1.00  0.00    -0.172 A  
HETATM    6  C   UNL     1     -11.551  11.975  65.930  1.00  0.00    -0.364 A  
HETATM    7  N   UNL     1     -11.480  10.988  68.168  1.00  0.00    -0.408 NA 
HETATM    8  H   UNL     1      -9.878   7.010  71.023  1.00  0.00     0.000 HD 
HETATM    9  C   UNL     1     -10.828  12.209  64.756  1.00  0.00    -0.351 A  
HETATM   10  C   UNL     1     -10.995   9.943  68.950  1.00  0.00    -0.179 A  
HETATM   11  C   UNL     1     -10.641  13.667  64.438  1.00  0.00    -0.360 C  
HETATM   12  C   UNL     1      -9.737   7.679  69.110  1.00  0.00    -0.164 C  
HETATM   13  N   UNL     1     -11.193   9.889  70.230  1.00  0.00    -0.280 N  
HETATM   14  H   UNL     1     -11.722  10.636  70.680  1.00  0.00     0.000 HD 
HETATM   15  N   UNL     1      -9.844   8.887  67.030  1.00  0.00    -0.194 NA 
HETATM   16  C   UNL     1     -10.717   8.865  70.994  1.00  0.00    -0.247 C  
HETATM   17  N   UNL     1     -10.096   7.799  70.414  1.00  0.00    -0.193 N  
HETATM   18  O   UNL     1      -9.100   6.741  68.660  1.00  0.00    -0.129 OA 
HETATM   19  C   UNL     1     -10.185   8.846  68.280  1.00  0.00    -0.201 A  
HETATM   20  O   UNL     1     -10.830   8.871  72.215  1.00  0.00    -0.332 OA 
ENDROOT
BRANCH   7  21
HETATM   21  C   UNL     1     -11.729  12.325  68.814  1.00  0.00    -0.340 C  
BRANCH  21  22
HETATM   22  C   UNL     1     -10.668  13.377  68.426  1.00  0.00    -0.256 C  
HETATM   23  O   UNL     1      -9.424  13.051  69.045  1.00  0.00    -0.379 OA 
HETATM   24  H   UNL     1      -8.771  13.699  68.806  1.00  0.00     0.000 HD 
BRANCH  22  25
HETATM   25  C   UNL     1     -11.054  14.843  68.736  1.00  0.00    -0.264 C  
HETATM   26  O   UNL     1     -12.439  15.047  68.381  1.00  0.00    -0.529 OA 
HETATM   27  H   UNL     1     -12.676  15.947  68.572  1.00  0.00     0.000 HD 
BRANCH  25  28
HETATM   28  C   UNL     1     -10.224  15.983  68.099  1.00  0.00    -0.243 C  
HETATM   29  O   UNL     1      -8.827  15.759  68.414  1.00  0.00    -0.176 OA 
HETATM   30  H   UNL     1      -8.317  16.458  68.023  1.00  0.00     0.000 HD 
BRANCH  28  31
HETATM   31  C   UNL     1     -10.582  17.411  68.531  1.00  0.00    -0.340 C  
BRANCH  31  32
HETATM   32  O   UNL     1     -11.004  18.114  67.355  1.00  0.00    -0.312 OA 
HETATM   33  P   UNL     1      -9.943  19.053  66.615  1.00  0.00    -0.434 P  
HETATM   34  O   UNL     1      -9.545  20.173  67.681  1.00  0.00    -0.368 OA 
HETATM   35  O   UNL     1     -10.777  19.870  65.529  1.00  0.00    -0.461 OA 
HETATM   36  O   UNL     1      -8.751  18.382  66.030  1.00  0.00    -0.499 OA 
ENDBRANCH  31  32
ENDBRANCH  28  31
ENDBRANCH  25  28
ENDBRANCH  22  25
ENDBRANCH  21  22
ENDBRANCH   7  21
TORSDOF 6
ENDMDL
MODEL       66
REMARK 921   NORMALIZED FREE ENERGY PREDICTED BY IDOCK:   -5.76 KCAL/MOL
REMARK 922        TOTAL FREE ENERGY PREDICTED BY IDOCK:  -10.13 KCAL/MOL
REMARK 923 INTER-LIGAND FREE ENERGY PREDICTED BY IDOCK:   -8.43 KCAL/MOL
REMARK 924 INTRA-LIGAND FREE ENERGY PREDICTED BY IDOCK:   -1.70 KCAL/MOL
REMARK 927      BINDING AFFINITY PREDICTED BY RF-SCORE:    0.00 PKD
ROOT
HETATM    1  C   UNL     1      -8.085   7.646  62.375  1.00  0.00    -0.130 C  
HETATM    2  C   UNL     1      -8.284   8.801  63.315  1.00  0.00    -0.176 A  
HETATM    3  C   UNL     1      -9.203   9.803  63.011  1.00  0.00    -0.226 A  
HETATM    4  C   UNL     1      -9.474  10.822  63.935  1.00  0.00    -0.274 A  
HETATM    5  C   UNL     1      -8.727  10.932  65.133  1.00  0.00    -0.122 A  
HETATM    6  C   UNL     1      -7.661  10.064  65.301  1.00  0.00    -0.137 A  
HETATM    7  N   UNL     1      -9.119  11.836  66.151  1.00  0.00    -0.210 NA 
HETATM    8  H   UNL     1     -13.040  15.005  65.090  1.00  0.00     0.000 HD 
HETATM    9  C   UNL     1      -7.604   8.894  64.537  1.00  0.00    -0.109 A  
HETATM   10  C   UNL     1     -10.217  12.650  65.884  1.00  0.00    -0.274 A  
HETATM   11  C   UNL     1      -7.156   7.684  65.311  1.00  0.00    -0.063 C  
HETATM   12  C   UNL     1     -12.011  13.491  64.209  1.00  0.00    -0.432 C  
HETATM   13  N   UNL     1     -10.700  13.468  66.766  1.00  0.00    -0.277 N  
HETATM   14  H   UNL     1     -10.262  13.518  67.686  1.00  0.00     0.000 HD 
HETATM   15  N   UNL     1     -10.534  11.679  63.629  1.00  0.00    -0.384 NA 
HETATM   16  C   UNL     1     -11.776  14.264  66.503  1.00  0.00    -0.394 C  
HETATM   17  N   UNL     1     -12.323  14.299  65.255  1.00  0.00    -0.429 N  
HETATM   18  O   UNL     1     -12.596  13.503  63.139  1.00  0.00    -0.762 OA 
HETATM   19  C   UNL     1     -10.883  12.553  64.522  1.00  0.00    -0.328 A  
HETATM   20  O   UNL     1     -12.282  14.965  67.373  1.00  0.00    -0.150 OA 
ENDROOT
BRANCH   7  21
HETATM   21  C   UNL     1      -8.826  11.454  67.577  1.00  0.00    -0.146 C  
BRANCH  21  22
HETATM   22  C   UNL     1      -7.585  12.177  68.142  1.00  0.00    -0.125 C  
HETATM   23  O   UNL     1      -7.478  11.918  69.541  1.00  0.00    -0.342 OA 
HETATM   24  H   UNL     1      -6.713  12.363  69.889  1.00  0.00     0.000 HD 
BRANCH  22  25
HETATM   25  C   UNL     1      -7.533  13.699  67.871  1.00  0.00    -0.158 C  
HETATM   26  O   UNL     1      -6.168  14.079  67.589  1.00  0.00    -0.238 OA 
HETATM   27  H   UNL     1      -6.137  15.014  67.423  1.00  0.00     0.000 HD 
BRANCH  25  28
HETATM   28  C   UNL     1      -8.086  14.666  68.946  1.00  0.00    -0.147 C  
HETATM   29  O   UNL     1      -9.419  14.227  69.310  1.00  0.00    -0.402 OA 
HETATM   30  H   UNL     1      -9.758  14.820  69.970  1.00  0.00     0.000 HD 
BRANCH  28  31
HETATM   31  C   UNL     1      -8.169  16.147  68.553  1.00  0.00    -0.186 C  
BRANCH  31  32
HETATM   32  O   UNL     1      -9.105  16.245  67.472  1.00  0.00    -0.192 OA 
HETATM   33  P   UNL     1      -9.005  17.508  66.498  1.00  0.00    -0.217 P  
HETATM   34  O   UNL     1      -9.262  18.784  67.423  1.00  0.00    -0.280 OA 
HETATM   35  O   UNL     1     -10.314  17.454  65.589  1.00  0.00    -0.589 OA 
HETATM   36  O   UNL     1      -7.759  17.635  65.695  1.00  0.00    -0.527 OA 
ENDBRANCH  31  32
ENDBRANCH  28  31
ENDBRANCH  25  28
ENDBRANCH  22  25
ENDBRANCH  21  22
ENDBRANCH   7  21
TORSDOF 6
ENDMDL
MODEL       67
REMARK 921   NORMALIZED FREE ENERGY PREDICTED BY IDOCK:   -5.73 KCAL/MOL
REMARK 922        TOTAL FREE ENERGY PREDICTED BY IDOCK:  -10.08 KCAL/MOL
REMARK 923 INTER-LIGAND FREE ENERGY PREDICTED BY IDOCK:   -8.87 KCAL/MOL
REMARK 924 INTRA-LIGAND FREE ENERGY PREDICTED BY IDOCK:   -1.20 KCAL/MOL
REMARK 927      BINDING AFFINITY PREDICTED BY RF-SCORE:    0.00 PKD
ROOT
HETATM    1  C   UNL     1     -14.115  14.386  72.193  1.00  0.00    -0.627 C  
HETATM    2  C   UNL     1     -13.207  13.422  71.484  1.00  0.00    -0.395 A  
HETATM    3  C   UNL     1     -13.170  12.082  71.865  1.00  0.00    -0.469 A  
HETATM    4  C   UNL     1     -12.410  11.157  71.136  1.00  0.00    -0.346 A  
HETATM    5  C   UNL     1     -11.563  11.583  70.086  1.00  0.00    -0.249 A  
HETATM    6  C   UNL     1     -11.437  12.947  69.882  1.00  0.00    -0.147 A  
HETATM    7  N   UNL     1     -10.942  10.641  69.227  1.00  0.00    -0.227 NA 
HETATM    8  H   UNL     1     -11.522   5.659  70.405  1.00  0.00     0.000 HD 
HETATM    9  C   UNL     1     -12.409  13.808  70.398  1.00  0.00    -0.423 A  
HETATM   10  C   UNL     1     -11.150   9.294  69.513  1.00  0.00    -0.080 A  
HETATM   11  C   UNL     1     -12.798  14.919  69.461  1.00  0.00     0.249 C  
HETATM   12  C   UNL     1     -12.124   7.476  71.087  1.00  0.00    -0.307 C  
HETATM   13  N   UNL     1     -10.684   8.348  68.758  1.00  0.00    -0.413 N  
HETATM   14  H   UNL     1     -10.146   8.599  67.929  1.00  0.00     0.000 HD 
HETATM   15  N   UNL     1     -12.572   9.810  71.473  1.00  0.00    -0.368 NA 
HETATM   16  C   UNL     1     -10.889   7.031  69.039  1.00  0.00    -0.182 C  
HETATM   17  N   UNL     1     -11.513   6.656  70.192  1.00  0.00    -0.376 N  
HETATM   18  O   UNL     1     -12.749   7.082  72.058  1.00  0.00    -0.283 OA 
HETATM   19  C   UNL     1     -11.974   8.926  70.736  1.00  0.00    -0.148 A  
HETATM   20  O   UNL     1     -10.524   6.147  68.271  1.00  0.00    -0.181 OA 
ENDROOT
BRANCH   7  21
HETATM   21  C   UNL     1     -10.693  11.052  67.801  1.00  0.00    -0.227 C  
BRANCH  21  22
HETATM   22  C   UNL     1      -9.210  11.380  67.529  1.00  0.00    -0.160 C  
HETATM   23  O   UNL     1      -8.558  11.699  68.758  1.00  0.00    -0.306 OA 
HETATM   24  H   UNL     1      -7.645  11.901  68.590  1.00  0.00     0.000 HD 
BRANCH  22  25
HETATM   25  C   UNL     1      -8.965  12.496  66.486  1.00  0.00    -0.132 C  
HETATM   26  O   UNL     1      -8.118  13.508  67.072  1.00  0.00    -0.362 OA 
HETATM   27  H   UNL     1      -7.968  14.193  66.431  1.00  0.00     0.000 HD 
BRANCH  25  28
HETATM   28  C   UNL     1     -10.187  13.204  65.852  1.00  0.00    -0.291 C  
HETATM   29  O   UNL     1      -9.919  13.398  64.441  1.00  0.00    -0.634 OA 
HETATM   30  H   UNL     1     -10.669  13.832  64.051  1.00  0.00     0.000 HD 
BRANCH  28  31
HETATM   31  C   UNL     1     -10.575  14.563  66.450  1.00  0.00    -0.302 C  
BRANCH  31  32
HETATM   32  O   UNL     1      -9.758  15.553  65.811  1.00  0.00    -0.329 OA 
HETATM   33  P   UNL     1      -9.136  16.715  66.714  1.00  0.00    -0.274 P  
HETATM   34  O   UNL     1     -10.385  17.499  67.324  1.00  0.00    -0.322 OA 
HETATM   35  O   UNL     1      -8.516  17.769  65.690  1.00  0.00    -0.417 OA 
HETATM   36  O   UNL     1      -8.163  16.300  67.761  1.00  0.00    -0.147 OA 
ENDBRANCH  31  32
ENDBRANCH  28  31
ENDBRANCH  25  28
ENDBRANCH  22  25
ENDBRANCH  21  22
ENDBRANCH   7  21
TORSDOF 6
ENDMDL
MODEL       68
REMARK 921   NORMALIZED FREE ENERGY PREDICTED BY IDOCK:   -5.71 KCAL/MOL
REMARK 922        TOTAL FREE ENERGY PREDICTED BY IDOCK:  -10.06 KCAL/MOL
REMARK 923 INTER-LIGAND FREE ENERGY PREDICTED BY IDOCK:   -8.39 KCAL/MOL
REMARK 924 INTRA-LIGAND FREE ENERGY PREDICTED BY IDOCK:   -1.67 KCAL/MOL
REMARK 927      BINDING AFFINITY PREDICTED BY RF-SCORE:    0.00 PKD
ROOT
HETATM    1  C   UNL     1      -7.725   5.973  66.768  1.00  0.00    -0.100 C  
HETATM    2  C   UNL     1      -8.767   7.006  67.089  1.00  0.00    -0.121 A  
HETATM    3  C   UNL     1      -9.374   7.026  68.343  1.00  0.00    -0.130 A  
HETATM    4  C   UNL     1     -10.264   8.053  68.686  1.00  0.00    -0.206 A  
HETATM    5  C   UNL     1     -10.668   9.011  67.726  1.00  0.00    -0.151 A  
HETATM    6  C   UNL     1     -10.235   8.831  66.423  1.00  0.00    -0.256 A  
HETATM    7  N   UNL     1     -11.412  10.154  68.112  1.00  0.00    -0.209 NA 
HETATM    8  H   UNL     1     -12.968  10.392  73.018  1.00  0.00     0.000 HD 
HETATM    9  C   UNL     1      -9.134   8.005  66.176  1.00  0.00    -0.224 A  
HETATM   10  C   UNL     1     -11.780  10.245  69.452  1.00  0.00    -0.095 A  
HETATM   11  C   UNL     1      -8.185   8.549  65.144  1.00  0.00    -0.153 C  
HETATM   12  C   UNL     1     -11.882   9.170  71.811  1.00  0.00    -0.383 C  
HETATM   13  N   UNL     1     -12.406  11.276  69.927  1.00  0.00    -0.265 N  
HETATM   14  H   UNL     1     -12.638  12.046  69.300  1.00  0.00     0.000 HD 
HETATM   15  N   UNL     1     -10.684   8.099  70.018  1.00  0.00    -0.243 NA 
HETATM   16  C   UNL     1     -12.765  11.363  71.240  1.00  0.00    -0.393 C  
HETATM   17  N   UNL     1     -12.564  10.312  72.084  1.00  0.00    -0.219 N  
HETATM   18  O   UNL     1     -11.652   8.299  72.633  1.00  0.00    -0.399 OA 
HETATM   19  C   UNL     1     -11.409   9.107  70.389  1.00  0.00    -0.224 A  
HETATM   20  O   UNL     1     -13.273  12.381  71.698  1.00  0.00    -0.400 OA 
ENDROOT
BRANCH   7  21
HETATM   21  C   UNL     1     -11.204  11.422  67.327  1.00  0.00    -0.304 C  
BRANCH  21  22
HETATM   22  C   UNL     1      -9.754  11.943  67.414  1.00  0.00    -0.184 C  
HETATM   23  O   UNL     1      -9.553  12.589  68.670  1.00  0.00    -0.370 OA 
HETATM   24  H   UNL     1      -8.660  12.909  68.723  1.00  0.00     0.000 HD 
BRANCH  22  25
HETATM   25  C   UNL     1      -9.321  12.873  66.256  1.00  0.00    -0.141 C  
HETATM   26  O   UNL     1      -8.375  13.840  66.760  1.00  0.00    -0.422 OA 
HETATM   27  H   UNL     1      -8.109  14.411  66.049  1.00  0.00     0.000 HD 
BRANCH  25  28
HETATM   28  C   UNL     1     -10.412  13.637  65.466  1.00  0.00    -0.306 C  
HETATM   29  O   UNL     1     -10.023  13.671  64.070  1.00  0.00    -0.679 OA 
HETATM   30  H   UNL     1     -10.692  14.139  63.585  1.00  0.00     0.000 HD 
BRANCH  28  31
HETATM   31  C   UNL     1     -10.695  15.078  65.913  1.00  0.00    -0.331 C  
BRANCH  31  32
HETATM   32  O   UNL     1     -11.314  15.005  67.204  1.00  0.00    -0.338 OA 
HETATM   33  P   UNL     1     -10.788  15.985  68.350  1.00  0.00    -0.340 P  
HETATM   34  O   UNL     1      -9.254  15.602  68.572  1.00  0.00    -0.185 OA 
HETATM   35  O   UNL     1     -11.482  15.485  69.695  1.00  0.00    -0.281 OA 
HETATM   36  O   UNL     1     -10.977  17.444  68.120  1.00  0.00    -0.334 OA 
ENDBRANCH  31  32
ENDBRANCH  28  31
ENDBRANCH  25  28
ENDBRANCH  22  25
ENDBRANCH  21  22
ENDBRANCH   7  21
TORSDOF 6
ENDMDL
MODEL       69
REMARK 921   NORMALIZED FREE ENERGY PREDICTED BY IDOCK:   -5.69 KCAL/MOL
REMARK 922        TOTAL FREE ENERGY PREDICTED BY IDOCK:  -10.03 KCAL/MOL
REMARK 923 INTER-LIGAND FREE ENERGY PREDICTED BY IDOCK:   -9.31 KCAL/MOL
REMARK 924 INTRA-LIGAND FREE ENERGY PREDICTED BY IDOCK:   -0.72 KCAL/MOL
REMARK 927      BINDING AFFINITY PREDICTED BY RF-SCORE:    0.00 PKD
ROOT
HETATM    1  C   UNL     1      -9.411  10.969  62.732  1.00  0.00    -0.361 C  
HETATM    2  C   UNL     1      -9.961  10.909  64.129  1.00  0.00    -0.403 A  
HETATM    3  C   UNL     1      -9.769   9.772  64.911  1.00  0.00    -0.262 A  
HETATM    4  C   UNL     1     -10.181   9.753  66.251  1.00  0.00    -0.212 A  
HETATM    5  C   UNL     1     -10.917  10.832  66.797  1.00  0.00    -0.148 A  
HETATM    6  C   UNL     1     -11.299  11.845  65.934  1.00  0.00    -0.365 A  
HETATM    7  N   UNL     1     -11.169  10.905  68.190  1.00  0.00    -0.278 NA 
HETATM    8  H   UNL     1      -9.726   6.869  71.049  1.00  0.00     0.000 HD 
HETATM    9  C   UNL     1     -10.635  11.991  64.713  1.00  0.00    -0.340 A  
HETATM   10  C   UNL     1     -10.725   9.840  68.969  1.00  0.00    -0.217 A  
HETATM   11  C   UNL     1     -10.348  13.420  64.344  1.00  0.00    -0.347 C  
HETATM   12  C   UNL     1      -9.652   7.482  69.113  1.00  0.00    -0.157 C  
HETATM   13  N   UNL     1     -10.845   9.831  70.260  1.00  0.00    -0.277 N  
HETATM   14  H   UNL     1     -11.281  10.630  70.721  1.00  0.00     0.000 HD 
HETATM   15  N   UNL     1      -9.789   8.649  67.011  1.00  0.00    -0.197 NA 
HETATM   16  C   UNL     1     -10.409   8.788  71.021  1.00  0.00    -0.233 C  
HETATM   17  N   UNL     1      -9.916   7.660  70.434  1.00  0.00    -0.188 N  
HETATM   18  O   UNL     1      -9.124   6.484  68.651  1.00  0.00    -0.130 OA 
HETATM   19  C   UNL     1     -10.052   8.663  68.281  1.00  0.00    -0.192 A  
HETATM   20  O   UNL     1     -10.443   8.830  72.246  1.00  0.00    -0.329 OA 
ENDROOT
BRANCH   7  21
HETATM   21  C   UNL     1     -11.264  12.272  68.813  1.00  0.00    -0.265 C  
BRANCH  21  22
HETATM   22  C   UNL     1     -10.083  13.185  68.422  1.00  0.00    -0.231 C  
HETATM   23  O   UNL     1      -8.873  12.657  68.962  1.00  0.00    -0.333 OA 
HETATM   24  H   UNL     1      -8.145  13.220  68.721  1.00  0.00     0.000 HD 
BRANCH  22  25
HETATM   25  C   UNL     1     -10.245  14.672  68.819  1.00  0.00    -0.242 C  
HETATM   26  O   UNL     1      -9.306  14.981  69.872  1.00  0.00    -0.461 OA 
HETATM   27  H   UNL     1      -9.405  15.894  70.115  1.00  0.00     0.000 HD 
BRANCH  25  28
HETATM   28  C   UNL     1     -11.640  15.179  69.258  1.00  0.00    -0.324 C  
HETATM   29  O   UNL     1     -12.209  15.946  68.167  1.00  0.00    -0.227 OA 
HETATM   30  H   UNL     1     -13.065  16.257  68.436  1.00  0.00     0.000 HD 
BRANCH  28  31
HETATM   31  C   UNL     1     -11.684  16.049  70.521  1.00  0.00    -0.329 C  
BRANCH  31  32
HETATM   32  O   UNL     1     -11.748  15.159  71.643  1.00  0.00    -0.346 OA 
HETATM   33  P   UNL     1     -12.629  15.595  72.903  1.00  0.00    -0.571 P  
HETATM   34  O   UNL     1     -11.967  16.943  73.444  1.00  0.00    -0.364 OA 
HETATM   35  O   UNL     1     -12.288  14.541  74.051  1.00  0.00    -0.407 OA 
HETATM   36  O   UNL     1     -14.093  15.737  72.677  1.00  0.00    -0.578 OA 
ENDBRANCH  31  32
ENDBRANCH  28  31
ENDBRANCH  25  28
ENDBRANCH  22  25
ENDBRANCH  21  22
ENDBRANCH   7  21
TORSDOF 6
ENDMDL
MODEL       70
REMARK 921   NORMALIZED FREE ENERGY PREDICTED BY IDOCK:   -5.66 KCAL/MOL
REMARK 922        TOTAL FREE ENERGY PREDICTED BY IDOCK:   -9.99 KCAL/MOL
REMARK 923 INTER-LIGAND FREE ENERGY PREDICTED BY IDOCK:   -8.61 KCAL/MOL
REMARK 924 INTRA-LIGAND FREE ENERGY PREDICTED BY IDOCK:   -1.37 KCAL/MOL
REMARK 927      BINDING AFFINITY PREDICTED BY RF-SCORE:    0.00 PKD
ROOT
HETATM    1  C   UNL     1     -10.777  16.277  65.505  1.00  0.00    -0.326 C  
HETATM    2  C   UNL     1     -10.763  15.055  66.379  1.00  0.00    -0.322 A  
HETATM    3  C   UNL     1     -11.278  15.111  67.673  1.00  0.00    -0.329 A  
HETATM    4  C   UNL     1     -11.369  13.949  68.452  1.00  0.00    -0.285 A  
HETATM    5  C   UNL     1     -10.819  12.727  67.996  1.00  0.00    -0.233 A  
HETATM    6  C   UNL     1     -10.104  12.752  66.811  1.00  0.00    -0.239 A  
HETATM    7  N   UNL     1     -11.073  11.516  68.688  1.00  0.00    -0.218 NA 
HETATM    8  H   UNL     1     -13.642  11.854  73.141  1.00  0.00     0.000 HD 
HETATM    9  C   UNL     1     -10.284  13.818  65.925  1.00  0.00    -0.322 A  
HETATM   10  C   UNL     1     -11.819  11.603  69.860  1.00  0.00    -0.358 A  
HETATM   11  C   UNL     1     -10.347  13.404  64.480  1.00  0.00    -0.394 C  
HETATM   12  C   UNL     1     -12.994  13.071  71.649  1.00  0.00    -0.321 C  
HETATM   13  N   UNL     1     -12.164  10.553  70.539  1.00  0.00    -0.318 N  
HETATM   14  H   UNL     1     -11.879   9.633  70.203  1.00  0.00     0.000 HD 
HETATM   15  N   UNL     1     -12.061  14.058  69.661  1.00  0.00    -0.340 NA 
HETATM   16  C   UNL     1     -12.895  10.641  71.686  1.00  0.00    -0.465 C  
HETATM   17  N   UNL     1     -13.206  11.857  72.219  1.00  0.00    -0.315 N  
HETATM   18  O   UNL     1     -13.374  14.126  72.128  1.00  0.00    -0.363 OA 
HETATM   19  C   UNL     1     -12.264  12.974  70.342  1.00  0.00    -0.310 A  
HETATM   20  O   UNL     1     -13.295   9.638  72.268  1.00  0.00    -0.438 OA 
ENDROOT
BRANCH   7  21
HETATM   21  C   UNL     1     -11.134  10.248  67.879  1.00  0.00    -0.276 C  
BRANCH  21  22
HETATM   22  C   UNL     1      -9.929   9.319  68.141  1.00  0.00    -0.177 C  
HETATM   23  O   UNL     1      -8.943   9.522  67.130  1.00  0.00    -0.133 OA 
HETATM   24  H   UNL     1      -8.201   8.950  67.290  1.00  0.00     0.000 HD 
BRANCH  22  25
HETATM   25  C   UNL     1     -10.274   7.816  68.261  1.00  0.00    -0.201 C  
HETATM   26  O   UNL     1     -11.150   7.447  67.174  1.00  0.00    -0.557 OA 
HETATM   27  H   UNL     1     -11.361   6.524  67.248  1.00  0.00     0.000 HD 
BRANCH  25  28
HETATM   28  C   UNL     1     -10.902   7.299  69.578  1.00  0.00    -0.209 C  
HETATM   29  O   UNL     1     -10.406   8.114  70.669  1.00  0.00    -0.196 OA 
HETATM   30  H   UNL     1     -10.792   7.797  71.478  1.00  0.00     0.000 HD 
BRANCH  28  31
HETATM   31  C   UNL     1     -10.638   5.828  69.929  1.00  0.00    -0.318 C  
BRANCH  31  32
HETATM   32  O   UNL     1     -10.252   5.169  68.716  1.00  0.00    -0.177 OA 
HETATM   33  P   UNL     1      -9.063   4.104  68.781  1.00  0.00    -0.157 P  
HETATM   34  O   UNL     1      -7.781   4.921  69.267  1.00  0.00    -0.072 OA 
HETATM   35  O   UNL     1      -8.715   3.756  67.264  1.00  0.00    -0.103 OA 
HETATM   36  O   UNL     1      -9.301   2.886  69.603  1.00  0.00    -0.141 OA 
ENDBRANCH  31  32
ENDBRANCH  28  31
ENDBRANCH  25  28
ENDBRANCH  22  25
ENDBRANCH  21  22
ENDBRANCH   7  21
TORSDOF 6
ENDMDL
MODEL       71
REMARK 921   NORMALIZED FREE ENERGY PREDICTED BY IDOCK:   -5.65 KCAL/MOL
REMARK 922        TOTAL FREE ENERGY PREDICTED BY IDOCK:   -9.97 KCAL/MOL
REMARK 923 INTER-LIGAND FREE ENERGY PREDICTED BY IDOCK:   -8.45 KCAL/MOL
REMARK 924 INTRA-LIGAND FREE ENERGY PREDICTED BY IDOCK:   -1.53 KCAL/MOL
REMARK 927      BINDING AFFINITY PREDICTED BY RF-SCORE:    0.00 PKD
ROOT
HETATM    1  C   UNL     1      -6.223   7.537  63.896  1.00  0.00    -0.049 C  
HETATM    2  C   UNL     1      -7.098   8.198  64.923  1.00  0.00    -0.079 A  
HETATM    3  C   UNL     1      -7.927   7.431  65.739  1.00  0.00    -0.118 A  
HETATM    4  C   UNL     1      -8.661   8.031  66.771  1.00  0.00    -0.130 A  
HETATM    5  C   UNL     1      -8.681   9.439  66.922  1.00  0.00    -0.127 A  
HETATM    6  C   UNL     1      -8.039  10.193  65.954  1.00  0.00    -0.136 A  
HETATM    7  N   UNL     1      -9.261  10.037  68.068  1.00  0.00    -0.134 NA 
HETATM    8  H   UNL     1     -11.688   6.911  71.368  1.00  0.00     0.000 HD 
HETATM    9  C   UNL     1      -7.085   9.584  65.134  1.00  0.00    -0.104 A  
HETATM   10  C   UNL     1      -9.864   9.183  68.989  1.00  0.00    -0.174 A  
HETATM   11  C   UNL     1      -5.865  10.430  64.889  1.00  0.00    -0.130 C  
HETATM   12  C   UNL     1     -10.630   6.790  69.638  1.00  0.00    -0.233 C  
HETATM   13  N   UNL     1     -10.370   9.614  70.102  1.00  0.00    -0.247 N  
HETATM   14  H   UNL     1     -10.325  10.611  70.311  1.00  0.00     0.000 HD 
HETATM   15  N   UNL     1      -9.320   7.171  67.653  1.00  0.00    -0.127 NA 
HETATM   16  C   UNL     1     -10.959   8.777  71.002  1.00  0.00    -0.268 C  
HETATM   17  N   UNL     1     -11.129   7.455  70.711  1.00  0.00    -0.259 N  
HETATM   18  O   UNL     1     -10.734   5.586  69.472  1.00  0.00    -0.310 OA 
HETATM   19  C   UNL     1      -9.905   7.694  68.685  1.00  0.00    -0.171 A  
HETATM   20  O   UNL     1     -11.350   9.180  72.092  1.00  0.00    -0.330 OA 
ENDROOT
BRANCH   7  21
HETATM   21  C   UNL     1      -8.670  11.332  68.557  1.00  0.00    -0.156 C  
BRANCH  21  22
HETATM   22  C   UNL     1      -9.246  12.561  67.821  1.00  0.00    -0.198 C  
HETATM   23  O   UNL     1      -8.280  13.610  67.817  1.00  0.00    -0.150 OA 
HETATM   24  H   UNL     1      -8.635  14.367  67.364  1.00  0.00     0.000 HD 
BRANCH  22  25
HETATM   25  C   UNL     1     -10.598  13.077  68.367  1.00  0.00    -0.251 C  
HETATM   26  O   UNL     1     -10.796  12.557  69.700  1.00  0.00    -0.444 OA 
HETATM   27  H   UNL     1     -11.626  12.874  70.035  1.00  0.00     0.000 HD 
BRANCH  25  28
HETATM   28  C   UNL     1     -11.885  12.805  67.551  1.00  0.00    -0.343 C  
HETATM   29  O   UNL     1     -11.984  11.377  67.321  1.00  0.00    -0.580 OA 
HETATM   30  H   UNL     1     -12.774  11.209  66.821  1.00  0.00     0.000 HD 
BRANCH  28  31
HETATM   31  C   UNL     1     -11.995  13.511  66.194  1.00  0.00    -0.412 C  
BRANCH  31  32
HETATM   32  O   UNL     1     -12.618  12.590  65.289  1.00  0.00    -0.645 OA 
HETATM   33  P   UNL     1     -12.201  12.646  63.748  1.00  0.00    -0.517 P  
HETATM   34  O   UNL     1     -12.610  14.105  63.246  1.00  0.00    -0.766 OA 
HETATM   35  O   UNL     1     -13.236  11.701  62.987  1.00  0.00    -0.411 OA 
HETATM   36  O   UNL     1     -10.786  12.315  63.426  1.00  0.00    -0.446 OA 
ENDBRANCH  31  32
ENDBRANCH  28  31
ENDBRANCH  25  28
ENDBRANCH  22  25
ENDBRANCH  21  22
ENDBRANCH   7  21
TORSDOF 6
ENDMDL
MODEL       72
REMARK 921   NORMALIZED FREE ENERGY PREDICTED BY IDOCK:   -5.64 KCAL/MOL
REMARK 922        TOTAL FREE ENERGY PREDICTED BY IDOCK:   -9.96 KCAL/MOL
REMARK 923 INTER-LIGAND FREE ENERGY PREDICTED BY IDOCK:   -8.70 KCAL/MOL
REMARK 924 INTRA-LIGAND FREE ENERGY PREDICTED BY IDOCK:   -1.26 KCAL/MOL
REMARK 927      BINDING AFFINITY PREDICTED BY RF-SCORE:    0.00 PKD
ROOT
HETATM    1  C   UNL     1     -12.510  12.501  63.604  1.00  0.00    -0.570 C  
HETATM    2  C   UNL     1     -11.527  13.309  64.402  1.00  0.00    -0.416 A  
HETATM    3  C   UNL     1     -11.537  14.701  64.328  1.00  0.00    -0.227 A  
HETATM    4  C   UNL     1     -10.698  15.462  65.154  1.00  0.00    -0.440 A  
HETATM    5  C   UNL     1      -9.732  14.837  65.978  1.00  0.00    -0.321 A  
HETATM    6  C   UNL     1      -9.581  13.466  65.857  1.00  0.00    -0.127 A  
HETATM    7  N   UNL     1      -9.017  15.582  66.949  1.00  0.00    -0.227 NA 
HETATM    8  H   UNL     1      -9.740  20.683  66.989  1.00  0.00     0.000 HD 
HETATM    9  C   UNL     1     -10.606  12.714  65.275  1.00  0.00    -0.317 A  
HETATM   10  C   UNL     1      -9.259  16.953  66.997  1.00  0.00    -0.234 A  
HETATM   11  C   UNL     1     -10.879  11.413  65.979  1.00  0.00    -0.306 C  
HETATM   12  C   UNL     1     -10.414  19.047  65.991  1.00  0.00    -0.458 C  
HETATM   13  N   UNL     1      -8.709  17.720  67.886  1.00  0.00    -0.246 N  
HETATM   14  H   UNL     1      -8.077  17.307  68.572  1.00  0.00     0.000 HD 
HETATM   15  N   UNL     1     -10.900  16.845  65.148  1.00  0.00    -0.597 NA 
HETATM   16  C   UNL     1      -8.948  19.061  67.932  1.00  0.00    -0.300 C  
HETATM   17  N   UNL     1      -9.704  19.664  66.971  1.00  0.00    -0.338 N  
HETATM   18  O   UNL     1     -11.150  19.629  65.211  1.00  0.00    -0.409 OA 
HETATM   19  C   UNL     1     -10.222  17.559  65.990  1.00  0.00    -0.299 A  
HETATM   20  O   UNL     1      -8.496  19.762  68.831  1.00  0.00    -0.258 OA 
ENDROOT
BRANCH   7  21
HETATM   21  C   UNL     1      -8.601  14.872  68.209  1.00  0.00    -0.160 C  
BRANCH  21  22
HETATM   22  C   UNL     1      -7.075  14.655  68.291  1.00  0.00    -0.115 C  
HETATM   23  O   UNL     1      -6.437  15.341  67.215  1.00  0.00    -0.303 OA 
HETATM   24  H   UNL     1      -5.497  15.208  67.266  1.00  0.00     0.000 HD 
BRANCH  22  25
HETATM   25  C   UNL     1      -6.624  13.176  68.327  1.00  0.00    -0.097 C  
HETATM   26  O   UNL     1      -6.522  12.683  66.973  1.00  0.00    -0.402 OA 
HETATM   27  H   UNL     1      -6.245  11.775  66.996  1.00  0.00     0.000 HD 
BRANCH  25  28
HETATM   28  C   UNL     1      -7.461  12.161  69.143  1.00  0.00     0.121 C  
HETATM   29  O   UNL     1      -6.639  11.660  70.227  1.00  0.00    -0.462 OA 
HETATM   30  H   UNL     1      -7.152  11.038  70.728  1.00  0.00     0.000 HD 
BRANCH  28  31
HETATM   31  C   UNL     1      -8.013  10.954  68.372  1.00  0.00    -0.127 C  
BRANCH  31  32
HETATM   32  O   UNL     1      -9.260  10.598  68.983  1.00  0.00    -0.175 OA 
HETATM   33  P   UNL     1      -9.303   9.296  69.907  1.00  0.00    -0.230 P  
HETATM   34  O   UNL     1      -8.915   8.078  68.951  1.00  0.00    -0.141 OA 
HETATM   35  O   UNL     1     -10.847   9.036  70.212  1.00  0.00    -0.226 OA 
HETATM   36  O   UNL     1      -8.476   9.326  71.144  1.00  0.00    -0.294 OA 
ENDBRANCH  31  32
ENDBRANCH  28  31
ENDBRANCH  25  28
ENDBRANCH  22  25
ENDBRANCH  21  22
ENDBRANCH   7  21
TORSDOF 6
ENDMDL
MODEL       73
REMARK 921   NORMALIZED FREE ENERGY PREDICTED BY IDOCK:   -5.64 KCAL/MOL
REMARK 922        TOTAL FREE ENERGY PREDICTED BY IDOCK:   -9.96 KCAL/MOL
REMARK 923 INTER-LIGAND FREE ENERGY PREDICTED BY IDOCK:   -8.12 KCAL/MOL
REMARK 924 INTRA-LIGAND FREE ENERGY PREDICTED BY IDOCK:   -1.84 KCAL/MOL
REMARK 927      BINDING AFFINITY PREDICTED BY RF-SCORE:    0.00 PKD
ROOT
HETATM    1  C   UNL     1     -12.186  14.626  64.483  1.00  0.00    -0.473 C  
HETATM    2  C   UNL     1     -11.677  13.506  65.345  1.00  0.00    -0.351 A  
HETATM    3  C   UNL     1     -11.990  13.466  66.702  1.00  0.00    -0.452 A  
HETATM    4  C   UNL     1     -11.613  12.367  67.486  1.00  0.00    -0.365 A  
HETATM    5  C   UNL     1     -10.795  11.343  66.952  1.00  0.00    -0.285 A  
HETATM    6  C   UNL     1     -10.301  11.524  65.671  1.00  0.00    -0.308 A  
HETATM    7  N   UNL     1     -10.569  10.145  67.674  1.00  0.00    -0.245 NA 
HETATM    8  H   UNL     1     -12.442   9.909  72.468  1.00  0.00     0.000 HD 
HETATM    9  C   UNL     1     -10.921  12.447  64.823  1.00  0.00    -0.340 A  
HETATM   10  C   UNL     1     -11.127  10.060  68.947  1.00  0.00    -0.176 A  
HETATM   11  C   UNL     1     -11.067  11.967  63.405  1.00  0.00    -0.463 C  
HETATM   12  C   UNL     1     -12.414  11.194  70.894  1.00  0.00    -0.409 C  
HETATM   13  N   UNL     1     -11.038   8.988  69.671  1.00  0.00    -0.417 N  
HETATM   14  H   UNL     1     -10.542   8.179  69.296  1.00  0.00     0.000 HD 
HETATM   15  N   UNL     1     -12.122  12.321  68.786  1.00  0.00    -0.210 NA 
HETATM   16  C   UNL     1     -11.586   8.907  70.916  1.00  0.00    -0.283 C  
HETATM   17  N   UNL     1     -12.166   9.999  71.490  1.00  0.00    -0.396 N  
HETATM   18  O   UNL     1     -13.020  12.109  71.426  1.00  0.00    -0.368 OA 
HETATM   19  C   UNL     1     -11.888  11.258  69.491  1.00  0.00    -0.357 A  
HETATM   20  O   UNL     1     -11.577   7.859  71.553  1.00  0.00    -0.257 OA 
ENDROOT
BRANCH   7  21
HETATM   21  C   UNL     1     -10.364   8.880  66.885  1.00  0.00    -0.262 C  
BRANCH  21  22
HETATM   22  C   UNL     1      -8.885   8.649  66.508  1.00  0.00    -0.138 C  
HETATM   23  O   UNL     1      -8.798   8.245  65.143  1.00  0.00    -0.363 OA 
HETATM   24  H   UNL     1      -7.887   8.102  64.911  1.00  0.00     0.000 HD 
BRANCH  22  25
HETATM   25  C   UNL     1      -8.126   7.650  67.414  1.00  0.00    -0.119 C  
HETATM   26  O   UNL     1      -8.801   7.565  68.687  1.00  0.00    -0.128 OA 
HETATM   27  H   UNL     1      -8.335   6.952  69.243  1.00  0.00     0.000 HD 
BRANCH  25  28
HETATM   28  C   UNL     1      -6.620   7.886  67.685  1.00  0.00    -0.060 C  
HETATM   29  O   UNL     1      -6.312   7.378  69.007  1.00  0.00    -0.037 OA 
HETATM   30  H   UNL     1      -5.388   7.522  69.174  1.00  0.00     0.000 HD 
BRANCH  28  31
HETATM   31  C   UNL     1      -6.133   9.339  67.612  1.00  0.00    -0.054 C  
BRANCH  31  32
HETATM   32  O   UNL     1      -5.691   9.702  68.927  1.00  0.00    -0.036 OA 
HETATM   33  P   UNL     1      -6.667  10.583  69.835  1.00  0.00    -0.143 P  
HETATM   34  O   UNL     1      -6.871  11.953  69.042  1.00  0.00    -0.094 OA 
HETATM   35  O   UNL     1      -5.799  11.023  71.098  1.00  0.00    -0.348 OA 
HETATM   36  O   UNL     1      -7.962   9.959  70.224  1.00  0.00    -0.182 OA 
ENDBRANCH  31  32
ENDBRANCH  28  31
ENDBRANCH  25  28
ENDBRANCH  22  25
ENDBRANCH  21  22
ENDBRANCH   7  21
TORSDOF 6
ENDMDL
MODEL       74
REMARK 921   NORMALIZED FREE ENERGY PREDICTED BY IDOCK:   -5.63 KCAL/MOL
REMARK 922        TOTAL FREE ENERGY PREDICTED BY IDOCK:   -9.95 KCAL/MOL
REMARK 923 INTER-LIGAND FREE ENERGY PREDICTED BY IDOCK:   -8.18 KCAL/MOL
REMARK 924 INTRA-LIGAND FREE ENERGY PREDICTED BY IDOCK:   -1.77 KCAL/MOL
REMARK 927      BINDING AFFINITY PREDICTED BY RF-SCORE:    0.00 PKD
ROOT
HETATM    1  C   UNL     1     -12.181  14.344  64.822  1.00  0.00    -0.458 C  
HETATM    2  C   UNL     1     -11.713  13.178  65.646  1.00  0.00    -0.402 A  
HETATM    3  C   UNL     1     -11.996  13.123  67.010  1.00  0.00    -0.412 A  
HETATM    4  C   UNL     1     -11.660  11.988  67.760  1.00  0.00    -0.330 A  
HETATM    5  C   UNL     1     -10.909  10.935  67.184  1.00  0.00    -0.280 A  
HETATM    6  C   UNL     1     -10.437  11.120  65.895  1.00  0.00    -0.310 A  
HETATM    7  N   UNL     1     -10.731   9.710  67.874  1.00  0.00    -0.258 NA 
HETATM    8  H   UNL     1     -12.502   9.463  72.706  1.00  0.00     0.000 HD 
HETATM    9  C   UNL     1     -11.026  12.093  65.084  1.00  0.00    -0.355 A  
HETATM   10  C   UNL     1     -11.264   9.626  69.158  1.00  0.00    -0.019 A  
HETATM   11  C   UNL     1     -11.231  11.655  63.659  1.00  0.00    -0.497 C  
HETATM   12  C   UNL     1     -12.443  10.780  71.160  1.00  0.00    -0.414 C  
HETATM   13  N   UNL     1     -11.215   8.534  69.855  1.00  0.00    -0.442 N  
HETATM   14  H   UNL     1     -10.771   7.709  69.451  1.00  0.00     0.000 HD 
HETATM   15  N   UNL     1     -12.140  11.939  69.071  1.00  0.00    -0.250 NA 
HETATM   16  C   UNL     1     -11.737   8.453  71.112  1.00  0.00    -0.280 C  
HETATM   17  N   UNL     1     -12.245   9.561  71.724  1.00  0.00    -0.382 N  
HETATM   18  O   UNL     1     -12.987  11.714  71.726  1.00  0.00    -0.435 OA 
HETATM   19  C   UNL     1     -11.947  10.849  69.746  1.00  0.00    -0.351 A  
HETATM   20  O   UNL     1     -11.769   7.392  71.726  1.00  0.00    -0.268 OA 
ENDROOT
BRANCH   7  21
HETATM   21  C   UNL     1     -10.612   8.455  67.052  1.00  0.00    -0.246 C  
BRANCH  21  22
HETATM   22  C   UNL     1      -9.145   8.025  66.836  1.00  0.00    -0.152 C  
HETATM   23  O   UNL     1      -9.046   7.249  65.643  1.00  0.00    -0.375 OA 
HETATM   24  H   UNL     1      -8.143   6.984  65.510  1.00  0.00     0.000 HD 
BRANCH  22  25
HETATM   25  C   UNL     1      -8.503   7.268  68.023  1.00  0.00    -0.123 C  
HETATM   26  O   UNL     1      -9.530   6.532  68.722  1.00  0.00    -0.130 OA 
HETATM   27  H   UNL     1      -9.135   6.068  69.450  1.00  0.00     0.000 HD 
BRANCH  25  28
HETATM   28  C   UNL     1      -7.694   8.073  69.070  1.00  0.00    -0.100 C  
HETATM   29  O   UNL     1      -6.745   8.911  68.365  1.00  0.00    -0.059 OA 
HETATM   30  H   UNL     1      -6.249   9.405  69.007  1.00  0.00     0.000 HD 
BRANCH  28  31
HETATM   31  C   UNL     1      -6.919   7.253  70.110  1.00  0.00    -0.060 C  
BRANCH  31  32
HETATM   32  O   UNL     1      -7.879   6.749  71.049  1.00  0.00    -0.099 OA 
HETATM   33  P   UNL     1      -8.031   7.500  72.450  1.00  0.00    -0.115 P  
HETATM   34  O   UNL     1      -6.608   7.375  73.162  1.00  0.00    -0.063 OA 
HETATM   35  O   UNL     1      -8.963   6.562  73.342  1.00  0.00    -0.124 OA 
HETATM   36  O   UNL     1      -8.517   8.906  72.405  1.00  0.00    -0.396 OA 
ENDBRANCH  31  32
ENDBRANCH  28  31
ENDBRANCH  25  28
ENDBRANCH  22  25
ENDBRANCH  21  22
ENDBRANCH   7  21
TORSDOF 6
ENDMDL
MODEL       75
REMARK 921   NORMALIZED FREE ENERGY PREDICTED BY IDOCK:   -5.62 KCAL/MOL
REMARK 922        TOTAL FREE ENERGY PREDICTED BY IDOCK:   -9.93 KCAL/MOL
REMARK 923 INTER-LIGAND FREE ENERGY PREDICTED BY IDOCK:   -9.27 KCAL/MOL
REMARK 924 INTRA-LIGAND FREE ENERGY PREDICTED BY IDOCK:   -0.66 KCAL/MOL
REMARK 927      BINDING AFFINITY PREDICTED BY RF-SCORE:    0.00 PKD
ROOT
HETATM    1  C   UNL     1      -6.163  18.219  68.129  1.00  0.00    -0.183 C  
HETATM    2  C   UNL     1      -7.308  17.249  68.068  1.00  0.00    -0.193 A  
HETATM    3  C   UNL     1      -8.278  17.369  67.075  1.00  0.00    -0.240 A  
HETATM    4  C   UNL     1      -9.286  16.404  66.945  1.00  0.00    -0.218 A  
HETATM    5  C   UNL     1      -9.420  15.365  67.897  1.00  0.00    -0.197 A  
HETATM    6  C   UNL     1      -8.591  15.404  69.006  1.00  0.00    -0.227 A  
HETATM    7  N   UNL     1     -10.309  14.285  67.671  1.00  0.00    -0.246 NA 
HETATM    8  H   UNL     1     -13.338  14.574  63.513  1.00  0.00     0.000 HD 
HETATM    9  C   UNL     1      -7.425  16.174  68.960  1.00  0.00    -0.210 A  
HETATM   10  C   UNL     1     -11.084  14.336  66.514  1.00  0.00    -0.323 A  
HETATM   11  C   UNL     1      -6.231  15.507  69.586  1.00  0.00    -0.156 C  
HETATM   12  C   UNL     1     -11.862  15.643  64.412  1.00  0.00    -0.182 C  
HETATM   13  N   UNL     1     -11.884  13.374  66.175  1.00  0.00    -0.365 N  
HETATM   14  H   UNL     1     -11.948  12.551  66.775  1.00  0.00     0.000 HD 
HETATM   15  N   UNL     1     -10.105  16.500  65.817  1.00  0.00    -0.492 NA 
HETATM   16  C   UNL     1     -12.640  13.426  65.043  1.00  0.00    -0.403 C  
HETATM   17  N   UNL     1     -12.658  14.551  64.272  1.00  0.00    -0.266 N  
HETATM   18  O   UNL     1     -11.855  16.585  63.638  1.00  0.00    -0.811 OA 
HETATM   19  C   UNL     1     -10.964  15.552  65.610  1.00  0.00    -0.303 A  
HETATM   20  O   UNL     1     -13.322  12.472  64.683  1.00  0.00    -0.804 OA 
ENDROOT
BRANCH   7  21
HETATM   21  C   UNL     1      -9.936  12.941  68.236  1.00  0.00    -0.234 C  
BRANCH  21  22
HETATM   22  C   UNL     1     -11.125  12.236  68.923  1.00  0.00    -0.242 C  
HETATM   23  O   UNL     1     -11.341  12.811  70.211  1.00  0.00    -0.481 OA 
HETATM   24  H   UNL     1     -12.073  12.377  70.634  1.00  0.00     0.000 HD 
BRANCH  22  25
HETATM   25  C   UNL     1     -11.000  10.698  69.036  1.00  0.00    -0.248 C  
HETATM   26  O   UNL     1     -12.322  10.117  69.024  1.00  0.00    -0.447 OA 
HETATM   27  H   UNL     1     -12.245   9.173  69.093  1.00  0.00     0.000 HD 
BRANCH  25  28
HETATM   28  C   UNL     1     -10.225  10.099  70.235  1.00  0.00    -0.120 C  
HETATM   29  O   UNL     1      -8.806  10.249  69.980  1.00  0.00    -0.378 OA 
HETATM   30  H   UNL     1      -8.330   9.882  70.715  1.00  0.00     0.000 HD 
BRANCH  28  31
HETATM   31  C   UNL     1     -10.495   8.623  70.553  1.00  0.00    -0.206 C  
BRANCH  31  32
HETATM   32  O   UNL     1      -9.610   7.847  69.734  1.00  0.00    -0.167 OA 
HETATM   33  P   UNL     1     -10.236   7.019  68.520  1.00  0.00    -0.186 P  
HETATM   34  O   UNL     1     -11.248   5.979  69.186  1.00  0.00    -0.378 OA 
HETATM   35  O   UNL     1      -9.060   6.083  67.986  1.00  0.00    -0.119 OA 
HETATM   36  O   UNL     1     -10.874   7.808  67.431  1.00  0.00    -0.248 OA 
ENDBRANCH  31  32
ENDBRANCH  28  31
ENDBRANCH  25  28
ENDBRANCH  22  25
ENDBRANCH  21  22
ENDBRANCH   7  21
TORSDOF 6
ENDMDL
MODEL       76
REMARK 921   NORMALIZED FREE ENERGY PREDICTED BY IDOCK:   -5.62 KCAL/MOL
REMARK 922        TOTAL FREE ENERGY PREDICTED BY IDOCK:   -9.93 KCAL/MOL
REMARK 923 INTER-LIGAND FREE ENERGY PREDICTED BY IDOCK:   -8.75 KCAL/MOL
REMARK 924 INTRA-LIGAND FREE ENERGY PREDICTED BY IDOCK:   -1.18 KCAL/MOL
REMARK 927      BINDING AFFINITY PREDICTED BY RF-SCORE:    0.00 PKD
ROOT
HETATM    1  C   UNL     1      -8.674   6.201  67.895  1.00  0.00    -0.113 C  
HETATM    2  C   UNL     1      -9.303   7.561  68.014  1.00  0.00    -0.142 A  
HETATM    3  C   UNL     1     -10.294   7.795  68.966  1.00  0.00    -0.219 A  
HETATM    4  C   UNL     1     -10.804   9.086  69.157  1.00  0.00    -0.089 A  
HETATM    5  C   UNL     1     -10.425  10.149  68.302  1.00  0.00    -0.211 A  
HETATM    6  C   UNL     1      -9.621   9.839  67.218  1.00  0.00    -0.194 A  
HETATM    7  N   UNL     1     -10.785  11.486  68.604  1.00  0.00    -0.199 NA 
HETATM    8  H   UNL     1     -13.912  12.218  72.633  1.00  0.00     0.000 HD 
HETATM    9  C   UNL     1      -8.896   8.644  67.223  1.00  0.00    -0.141 A  
HETATM   10  C   UNL     1     -11.581  11.686  69.729  1.00  0.00    -0.315 A  
HETATM   11  C   UNL     1      -7.494   8.781  66.695  1.00  0.00    -0.085 C  
HETATM   12  C   UNL     1     -12.972  10.689  71.679  1.00  0.00    -0.477 C  
HETATM   13  N   UNL     1     -11.918  12.871  70.134  1.00  0.00    -0.460 N  
HETATM   14  H   UNL     1     -11.590  13.683  69.612  1.00  0.00     0.000 HD 
HETATM   15  N   UNL     1     -11.657   9.267  70.248  1.00  0.00    -0.177 NA 
HETATM   16  C   UNL     1     -12.697  13.065  71.236  1.00  0.00    -0.293 C  
HETATM   17  N   UNL     1     -13.238  12.003  71.898  1.00  0.00    -0.450 N  
HETATM   18  O   UNL     1     -13.414   9.780  72.362  1.00  0.00    -0.413 OA 
HETATM   19  C   UNL     1     -12.046  10.474  70.519  1.00  0.00    -0.345 A  
HETATM   20  O   UNL     1     -12.933  14.190  71.664  1.00  0.00    -0.315 OA 
ENDROOT
BRANCH   7  21
HETATM   21  C   UNL     1      -9.843  12.579  68.176  1.00  0.00    -0.221 C  
BRANCH  21  22
HETATM   22  C   UNL     1     -10.367  13.370  66.959  1.00  0.00    -0.247 C  
HETATM   23  O   UNL     1      -9.352  13.435  65.959  1.00  0.00    -0.466 OA 
HETATM   24  H   UNL     1      -9.675  13.923  65.209  1.00  0.00     0.000 HD 
BRANCH  22  25
HETATM   25  C   UNL     1     -10.898  14.788  67.278  1.00  0.00    -0.309 C  
HETATM   26  O   UNL     1     -10.385  15.714  66.296  1.00  0.00    -0.281 OA 
HETATM   27  H   UNL     1     -10.711  16.584  66.492  1.00  0.00     0.000 HD 
BRANCH  25  28
HETATM   28  C   UNL     1     -10.633  15.384  68.682  1.00  0.00    -0.239 C  
HETATM   29  O   UNL     1     -11.869  15.961  69.172  1.00  0.00    -0.389 OA 
HETATM   30  H   UNL     1     -11.707  16.327  70.033  1.00  0.00     0.000 HD 
BRANCH  28  31
HETATM   31  C   UNL     1      -9.542  16.459  68.772  1.00  0.00    -0.249 C  
BRANCH  31  32
HETATM   32  O   UNL     1     -10.187  17.684  69.146  1.00  0.00    -0.342 OA 
HETATM   33  P   UNL     1      -9.796  19.015  68.354  1.00  0.00    -0.431 P  
HETATM   34  O   UNL     1      -8.238  19.234  68.626  1.00  0.00    -0.356 OA 
HETATM   35  O   UNL     1     -10.474  20.211  69.163  1.00  0.00    -0.254 OA 
HETATM   36  O   UNL     1     -10.126  19.051  66.903  1.00  0.00    -0.327 OA 
ENDBRANCH  31  32
ENDBRANCH  28  31
ENDBRANCH  25  28
ENDBRANCH  22  25
ENDBRANCH  21  22
ENDBRANCH   7  21
TORSDOF 6
ENDMDL
MODEL       77
REMARK 921   NORMALIZED FREE ENERGY PREDICTED BY IDOCK:   -5.61 KCAL/MOL
REMARK 922        TOTAL FREE ENERGY PREDICTED BY IDOCK:   -9.93 KCAL/MOL
REMARK 923 INTER-LIGAND FREE ENERGY PREDICTED BY IDOCK:   -8.59 KCAL/MOL
REMARK 924 INTRA-LIGAND FREE ENERGY PREDICTED BY IDOCK:   -1.34 KCAL/MOL
REMARK 927      BINDING AFFINITY PREDICTED BY RF-SCORE:    0.00 PKD
ROOT
HETATM    1  C   UNL     1     -10.146   7.273  68.682  1.00  0.00    -0.182 C  
HETATM    2  C   UNL     1     -10.180   8.731  68.321  1.00  0.00    -0.240 A  
HETATM    3  C   UNL     1     -10.457   9.124  67.013  1.00  0.00    -0.311 A  
HETATM    4  C   UNL     1     -10.600  10.481  66.694  1.00  0.00    -0.198 A  
HETATM    5  C   UNL     1     -10.335  11.484  67.658  1.00  0.00    -0.186 A  
HETATM    6  C   UNL     1      -9.833  11.074  68.882  1.00  0.00    -0.189 A  
HETATM    7  N   UNL     1     -10.660  12.839  67.402  1.00  0.00    -0.228 NA 
HETATM    8  H   UNL     1     -12.364  13.990  62.678  1.00  0.00     0.000 HD 
HETATM    9  C   UNL     1      -9.987   9.741  69.273  1.00  0.00    -0.201 A  
HETATM   10  C   UNL     1     -11.177  13.138  66.144  1.00  0.00    -0.295 A  
HETATM   11  C   UNL     1     -10.355   9.571  70.722  1.00  0.00    -0.377 C  
HETATM   12  C   UNL     1     -11.788  12.360  63.746  1.00  0.00    -0.502 C  
HETATM   13  N   UNL     1     -11.566  14.332  65.823  1.00  0.00    -0.339 N  
HETATM   14  H   UNL     1     -11.491  15.079  66.514  1.00  0.00     0.000 HD 
HETATM   15  N   UNL     1     -11.055  10.778  65.407  1.00  0.00     0.123 NA 
HETATM   16  C   UNL     1     -12.072  14.622  64.591  1.00  0.00    -0.454 C  
HETATM   17  N   UNL     1     -12.093  13.676  63.610  1.00  0.00    -0.421 N  
HETATM   18  O   UNL     1     -11.911  11.535  62.855  1.00  0.00     0.038 OA 
HETATM   19  C   UNL     1     -11.311  12.017  65.126  1.00  0.00    -0.304 A  
HETATM   20  O   UNL     1     -12.523  15.732  64.329  1.00  0.00    -0.446 OA 
ENDROOT
BRANCH   7  21
HETATM   21  C   UNL     1     -11.055  13.698  68.573  1.00  0.00    -0.275 C  
BRANCH  21  22
HETATM   22  C   UNL     1     -10.134  14.924  68.748  1.00  0.00    -0.241 C  
HETATM   23  O   UNL     1      -9.107  14.618  69.691  1.00  0.00    -0.406 OA 
HETATM   24  H   UNL     1      -8.540  15.373  69.799  1.00  0.00     0.000 HD 
BRANCH  22  25
HETATM   25  C   UNL     1     -10.854  16.234  69.144  1.00  0.00    -0.314 C  
HETATM   26  O   UNL     1     -12.220  15.929  69.502  1.00  0.00    -0.424 OA 
HETATM   27  H   UNL     1     -12.662  16.734  69.745  1.00  0.00     0.000 HD 
BRANCH  25  28
HETATM   28  C   UNL     1     -10.874  17.408  68.135  1.00  0.00    -0.273 C  
HETATM   29  O   UNL     1     -10.298  16.946  66.888  1.00  0.00    -0.306 OA 
HETATM   30  H   UNL     1     -10.311  17.666  66.269  1.00  0.00     0.000 HD 
BRANCH  28  31
HETATM   31  C   UNL     1     -10.130  18.682  68.556  1.00  0.00    -0.382 C  
BRANCH  31  32
HETATM   32  O   UNL     1      -9.043  18.858  67.637  1.00  0.00    -0.279 OA 
HETATM   33  P   UNL     1      -7.587  18.383  68.092  1.00  0.00    -0.290 P  
HETATM   34  O   UNL     1      -7.230  19.264  69.374  1.00  0.00    -0.308 OA 
HETATM   35  O   UNL     1      -6.587  18.941  66.982  1.00  0.00    -0.194 OA 
HETATM   36  O   UNL     1      -7.406  16.927  68.340  1.00  0.00    -0.184 OA 
ENDBRANCH  31  32
ENDBRANCH  28  31
ENDBRANCH  25  28
ENDBRANCH  22  25
ENDBRANCH  21  22
ENDBRANCH   7  21
TORSDOF 6
ENDMDL
MODEL       78
REMARK 921   NORMALIZED FREE ENERGY PREDICTED BY IDOCK:   -5.60 KCAL/MOL
REMARK 922        TOTAL FREE ENERGY PREDICTED BY IDOCK:   -9.90 KCAL/MOL
REMARK 923 INTER-LIGAND FREE ENERGY PREDICTED BY IDOCK:   -8.61 KCAL/MOL
REMARK 924 INTRA-LIGAND FREE ENERGY PREDICTED BY IDOCK:   -1.30 KCAL/MOL
REMARK 927      BINDING AFFINITY PREDICTED BY RF-SCORE:    0.00 PKD
ROOT
HETATM    1  C   UNL     1      -9.655  10.876  62.694  1.00  0.00    -0.290 C  
HETATM    2  C   UNL     1      -9.936  10.803  64.168  1.00  0.00    -0.405 A  
HETATM    3  C   UNL     1      -9.486   9.717  64.916  1.00  0.00    -0.331 A  
HETATM    4  C   UNL     1      -9.648   9.698  66.308  1.00  0.00    -0.221 A  
HETATM    5  C   UNL     1     -10.386  10.711  66.966  1.00  0.00    -0.231 A  
HETATM    6  C   UNL     1     -11.023  11.651  66.175  1.00  0.00    -0.339 A  
HETATM    7  N   UNL     1     -10.391  10.801  68.381  1.00  0.00    -0.171 NA 
HETATM    8  H   UNL     1      -8.035   7.027  70.979  1.00  0.00     0.000 HD 
HETATM    9  C   UNL     1     -10.607  11.827  64.852  1.00  0.00    -0.344 A  
HETATM   10  C   UNL     1      -9.703   9.812  69.079  1.00  0.00    -0.177 A  
HETATM   11  C   UNL     1     -10.546  13.266  64.420  1.00  0.00    -0.438 C  
HETATM   12  C   UNL     1      -8.374   7.583  69.055  1.00  0.00    -0.129 C  
HETATM   13  N   UNL     1      -9.589   9.831  70.370  1.00  0.00    -0.352 N  
HETATM   14  H   UNL     1     -10.019  10.594  70.893  1.00  0.00     0.000 HD 
HETATM   15  N   UNL     1      -9.010   8.664  66.999  1.00  0.00    -0.130 NA 
HETATM   16  C   UNL     1      -8.914   8.862  71.052  1.00  0.00    -0.241 C  
HETATM   17  N   UNL     1      -8.416   7.774  70.399  1.00  0.00    -0.130 N  
HETATM   18  O   UNL     1      -7.834   6.631  68.517  1.00  0.00    -0.107 OA 
HETATM   19  C   UNL     1      -9.042   8.691  68.294  1.00  0.00    -0.141 A  
HETATM   20  O   UNL     1      -8.733   8.939  72.262  1.00  0.00    -0.395 OA 
ENDROOT
BRANCH   7  21
HETATM   21  C   UNL     1     -10.520  12.169  68.994  1.00  0.00    -0.038 C  
BRANCH  21  22
HETATM   22  C   UNL     1     -11.855  12.359  69.746  1.00  0.00    -0.317 C  
HETATM   23  O   UNL     1     -12.777  11.348  69.343  1.00  0.00    -0.112 OA 
HETATM   24  H   UNL     1     -13.599  11.465  69.806  1.00  0.00     0.000 HD 
BRANCH  22  25
HETATM   25  C   UNL     1     -12.495  13.759  69.601  1.00  0.00    -0.125 C  
HETATM   26  O   UNL     1     -12.243  14.255  68.268  1.00  0.00    -0.562 OA 
HETATM   27  H   UNL     1     -12.637  15.115  68.179  1.00  0.00     0.000 HD 
BRANCH  25  28
HETATM   28  C   UNL     1     -12.100  14.868  70.606  1.00  0.00    -0.307 C  
HETATM   29  O   UNL     1     -13.070  15.940  70.505  1.00  0.00    -0.714 OA 
HETATM   30  H   UNL     1     -12.828  16.621  71.123  1.00  0.00     0.000 HD 
BRANCH  28  31
HETATM   31  C   UNL     1     -10.702  15.477  70.436  1.00  0.00    -0.320 C  
BRANCH  31  32
HETATM   32  O   UNL     1     -10.872  16.747  69.792  1.00  0.00    -0.325 OA 
HETATM   33  P   UNL     1     -10.047  17.031  68.454  1.00  0.00    -0.345 P  
HETATM   34  O   UNL     1      -8.509  16.949  68.873  1.00  0.00    -0.248 OA 
HETATM   35  O   UNL     1     -10.253  18.581  68.143  1.00  0.00    -0.351 OA 
HETATM   36  O   UNL     1     -10.359  16.169  67.281  1.00  0.00    -0.276 OA 
ENDBRANCH  31  32
ENDBRANCH  28  31
ENDBRANCH  25  28
ENDBRANCH  22  25
ENDBRANCH  21  22
ENDBRANCH   7  21
TORSDOF 6
ENDMDL
MODEL       79
REMARK 921   NORMALIZED FREE ENERGY PREDICTED BY IDOCK:   -5.59 KCAL/MOL
REMARK 922        TOTAL FREE ENERGY PREDICTED BY IDOCK:   -9.89 KCAL/MOL
REMARK 923 INTER-LIGAND FREE ENERGY PREDICTED BY IDOCK:   -7.30 KCAL/MOL
REMARK 924 INTRA-LIGAND FREE ENERGY PREDICTED BY IDOCK:   -2.59 KCAL/MOL
REMARK 927      BINDING AFFINITY PREDICTED BY RF-SCORE:    0.00 PKD
ROOT
HETATM    1  C   UNL     1     -12.398  14.607  64.404  1.00  0.00    -0.420 C  
HETATM    2  C   UNL     1     -11.838  13.514  65.269  1.00  0.00    -0.373 A  
HETATM    3  C   UNL     1     -12.103  13.496  66.637  1.00  0.00    -0.447 A  
HETATM    4  C   UNL     1     -11.678  12.421  67.429  1.00  0.00    -0.347 A  
HETATM    5  C   UNL     1     -10.857  11.403  66.888  1.00  0.00    -0.285 A  
HETATM    6  C   UNL     1     -10.411  11.567  65.587  1.00  0.00    -0.317 A  
HETATM    7  N   UNL     1     -10.582  10.224  67.625  1.00  0.00    -0.243 NA 
HETATM    8  H   UNL     1     -12.285  10.051  72.485  1.00  0.00     0.000 HD 
HETATM    9  C   UNL     1     -11.078  12.460  64.743  1.00  0.00    -0.345 A  
HETATM   10  C   UNL     1     -11.095  10.155  68.918  1.00  0.00    -0.207 A  
HETATM   11  C   UNL     1     -11.263  11.948  63.341  1.00  0.00    -0.463 C  
HETATM   12  C   UNL     1     -12.337  11.303  70.886  1.00  0.00    -0.388 C  
HETATM   13  N   UNL     1     -10.960   9.100  69.659  1.00  0.00    -0.363 N  
HETATM   14  H   UNL     1     -10.460   8.294  69.284  1.00  0.00     0.000 HD 
HETATM   15  N   UNL     1     -12.140  12.392  68.747  1.00  0.00    -0.207 NA 
HETATM   16  C   UNL     1     -11.463   9.034  70.924  1.00  0.00    -0.291 C  
HETATM   17  N   UNL     1     -12.045  10.126  71.497  1.00  0.00    -0.376 N  
HETATM   18  O   UNL     1     -12.943  12.217  71.420  1.00  0.00    -0.366 OA 
HETATM   19  C   UNL     1     -11.861  11.349  69.464  1.00  0.00    -0.357 A  
HETATM   20  O   UNL     1     -11.410   8.000  71.582  1.00  0.00    -0.248 OA 
ENDROOT
BRANCH   7  21
HETATM   21  C   UNL     1     -10.379   8.947  66.855  1.00  0.00    -0.262 C  
BRANCH  21  22
HETATM   22  C   UNL     1      -8.934   8.415  66.961  1.00  0.00    -0.142 C  
HETATM   23  O   UNL     1      -8.799   7.636  68.148  1.00  0.00    -0.126 OA 
HETATM   24  H   UNL     1      -7.909   7.308  68.214  1.00  0.00     0.000 HD 
BRANCH  22  25
HETATM   25  C   UNL     1      -7.830   9.497  66.900  1.00  0.00    -0.101 C  
HETATM   26  O   UNL     1      -6.882   9.143  65.869  1.00  0.00    -0.084 OA 
HETATM   27  H   UNL     1      -6.205   9.808  65.832  1.00  0.00     0.000 HD 
BRANCH  25  28
HETATM   28  C   UNL     1      -7.036   9.826  68.187  1.00  0.00    -0.078 C  
HETATM   29  O   UNL     1      -7.982  10.009  69.270  1.00  0.00    -0.105 OA 
HETATM   30  H   UNL     1      -7.495  10.211  70.061  1.00  0.00     0.000 HD 
BRANCH  28  31
HETATM   31  C   UNL     1      -6.133  11.065  68.134  1.00  0.00    -0.049 C  
BRANCH  31  32
HETATM   32  O   UNL     1      -6.788  12.029  67.300  1.00  0.00    -0.127 OA 
HETATM   33  P   UNL     1      -7.281  13.394  67.967  1.00  0.00    -0.165 P  
HETATM   34  O   UNL     1      -8.348  12.969  69.075  1.00  0.00     0.188 OA 
HETATM   35  O   UNL     1      -8.177  14.114  66.862  1.00  0.00    -0.127 OA 
HETATM   36  O   UNL     1      -6.225  14.289  68.515  1.00  0.00    -0.079 OA 
ENDBRANCH  31  32
ENDBRANCH  28  31
ENDBRANCH  25  28
ENDBRANCH  22  25
ENDBRANCH  21  22
ENDBRANCH   7  21
TORSDOF 6
ENDMDL
MODEL       80
REMARK 921   NORMALIZED FREE ENERGY PREDICTED BY IDOCK:   -5.58 KCAL/MOL
REMARK 922        TOTAL FREE ENERGY PREDICTED BY IDOCK:   -9.88 KCAL/MOL
REMARK 923 INTER-LIGAND FREE ENERGY PREDICTED BY IDOCK:   -8.71 KCAL/MOL
REMARK 924 INTRA-LIGAND FREE ENERGY PREDICTED BY IDOCK:   -1.18 KCAL/MOL
REMARK 927      BINDING AFFINITY PREDICTED BY RF-SCORE:    0.00 PKD
ROOT
HETATM    1  C   UNL     1      -6.348   7.958  68.127  1.00  0.00    -0.050 C  
HETATM    2  C   UNL     1      -7.061   9.247  67.832  1.00  0.00    -0.078 A  
HETATM    3  C   UNL     1      -7.585   9.485  66.563  1.00  0.00    -0.094 A  
HETATM    4  C   UNL     1      -8.347  10.635  66.312  1.00  0.00    -0.155 A  
HETATM    5  C   UNL     1      -8.486  11.640  67.299  1.00  0.00    -0.156 A  
HETATM    6  C   UNL     1      -7.760  11.491  68.468  1.00  0.00    -0.134 A  
HETATM    7  N   UNL     1      -9.403  12.707  67.123  1.00  0.00    -0.203 NA 
HETATM    8  H   UNL     1     -11.804  13.006  62.574  1.00  0.00     0.000 HD 
HETATM    9  C   UNL     1      -7.268  10.228  68.812  1.00  0.00    -0.083 A  
HETATM   10  C   UNL     1     -10.095  12.751  65.915  1.00  0.00    -0.276 A  
HETATM   11  C   UNL     1      -7.407   9.898  70.273  1.00  0.00    -0.166 C  
HETATM   12  C   UNL     1     -10.477  11.801  63.531  1.00  0.00    -0.449 C  
HETATM   13  N   UNL     1     -11.003  13.644  65.672  1.00  0.00    -0.288 N  
HETATM   14  H   UNL     1     -11.217  14.338  66.388  1.00  0.00     0.000 HD 
HETATM   15  N   UNL     1      -8.985  10.706  65.071  1.00  0.00    -0.194 NA 
HETATM   16  C   UNL     1     -11.679  13.685  64.489  1.00  0.00    -0.400 C  
HETATM   17  N   UNL     1     -11.349  12.840  63.472  1.00  0.00    -0.462 N  
HETATM   18  O   UNL     1     -10.286  11.017  62.616  1.00  0.00    -0.095 OA 
HETATM   19  C   UNL     1      -9.791  11.699  64.861  1.00  0.00    -0.235 A  
HETATM   20  O   UNL     1     -12.599  14.475  64.305  1.00  0.00    -0.681 OA 
ENDROOT
BRANCH   7  21
HETATM   21  C   UNL     1     -10.049  13.284  68.353  1.00  0.00    -0.237 C  
BRANCH  21  22
HETATM   22  C   UNL     1     -11.551  12.940  68.451  1.00  0.00    -0.333 C  
HETATM   23  O   UNL     1     -12.295  14.126  68.723  1.00  0.00    -0.549 OA 
HETATM   24  H   UNL     1     -13.220  13.914  68.783  1.00  0.00     0.000 HD 
BRANCH  22  25
HETATM   25  C   UNL     1     -11.905  11.837  69.476  1.00  0.00    -0.337 C  
HETATM   26  O   UNL     1     -12.112  12.447  70.769  1.00  0.00    -0.456 OA 
HETATM   27  H   UNL     1     -12.329  11.770  71.398  1.00  0.00     0.000 HD 
BRANCH  25  28
HETATM   28  C   UNL     1     -10.930  10.648  69.659  1.00  0.00    -0.278 C  
HETATM   29  O   UNL     1     -11.233   9.653  68.649  1.00  0.00    -0.464 OA 
HETATM   30  H   UNL     1     -10.635   8.924  68.761  1.00  0.00     0.000 HD 
BRANCH  28  31
HETATM   31  C   UNL     1     -10.948   9.954  71.027  1.00  0.00    -0.290 C  
BRANCH  31  32
HETATM   32  O   UNL     1     -12.242   9.355  71.178  1.00  0.00    -0.306 OA 
HETATM   33  P   UNL     1     -12.316   7.793  71.507  1.00  0.00    -0.318 P  
HETATM   34  O   UNL     1     -11.631   7.060  70.266  1.00  0.00    -0.299 OA 
HETATM   35  O   UNL     1     -13.853   7.395  71.356  1.00  0.00    -0.393 OA 
HETATM   36  O   UNL     1     -11.741   7.356  72.808  1.00  0.00    -0.246 OA 
ENDBRANCH  31  32
ENDBRANCH  28  31
ENDBRANCH  25  28
ENDBRANCH  22  25
ENDBRANCH  21  22
ENDBRANCH   7  21
TORSDOF 6
ENDMDL
MODEL       81
REMARK 921   NORMALIZED FREE ENERGY PREDICTED BY IDOCK:   -5.57 KCAL/MOL
REMARK 922        TOTAL FREE ENERGY PREDICTED BY IDOCK:   -9.87 KCAL/MOL
REMARK 923 INTER-LIGAND FREE ENERGY PREDICTED BY IDOCK:   -8.44 KCAL/MOL
REMARK 924 INTRA-LIGAND FREE ENERGY PREDICTED BY IDOCK:   -1.43 KCAL/MOL
REMARK 927      BINDING AFFINITY PREDICTED BY RF-SCORE:    0.00 PKD
ROOT
HETATM    1  C   UNL     1     -11.872  16.506  72.651  1.00  0.00    -0.445 C  
HETATM    2  C   UNL     1     -12.025  15.654  71.423  1.00  0.00    -0.476 A  
HETATM    3  C   UNL     1     -11.543  16.100  70.194  1.00  0.00    -0.254 A  
HETATM    4  C   UNL     1     -11.582  15.263  69.070  1.00  0.00    -0.343 A  
HETATM    5  C   UNL     1     -12.231  14.006  69.125  1.00  0.00    -0.262 A  
HETATM    6  C   UNL     1     -12.908  13.688  70.290  1.00  0.00    -0.053 A  
HETATM    7  N   UNL     1     -12.110  13.082  68.057  1.00  0.00    -0.265 NA 
HETATM    8  H   UNL     1      -9.645  14.690  63.829  1.00  0.00     0.000 HD 
HETATM    9  C   UNL     1     -12.604  14.378  71.467  1.00  0.00    -0.424 A  
HETATM   10  C   UNL     1     -11.392  13.498  66.939  1.00  0.00    -0.326 A  
HETATM   11  C   UNL     1     -12.540  13.500  72.687  1.00  0.00     0.109 C  
HETATM   12  C   UNL     1     -10.135  15.383  65.675  1.00  0.00    -0.376 C  
HETATM   13  N   UNL     1     -11.165  12.713  65.933  1.00  0.00    -0.301 N  
HETATM   14  H   UNL     1     -11.525  11.759  65.959  1.00  0.00     0.000 HD 
HETATM   15  N   UNL     1     -10.917  15.717  67.928  1.00  0.00    -0.310 NA 
HETATM   16  C   UNL     1     -10.461  13.122  64.840  1.00  0.00    -0.351 C  
HETATM   17  N   UNL     1     -10.053  14.418  64.723  1.00  0.00    -0.261 N  
HETATM   18  O   UNL     1      -9.671  16.504  65.552  1.00  0.00    -0.524 OA 
HETATM   19  C   UNL     1     -10.834  14.912  66.915  1.00  0.00    -0.319 A  
HETATM   20  O   UNL     1     -10.173  12.345  63.936  1.00  0.00    -0.387 OA 
ENDROOT
BRANCH   7  21
HETATM   21  C   UNL     1     -12.146  11.615  68.395  1.00  0.00    -0.035 C  
BRANCH  21  22
HETATM   22  C   UNL     1     -10.827  11.120  69.025  1.00  0.00    -0.231 C  
HETATM   23  O   UNL     1      -9.819  11.033  68.019  1.00  0.00    -0.164 OA 
HETATM   24  H   UNL     1      -9.007  10.728  68.407  1.00  0.00     0.000 HD 
BRANCH  22  25
HETATM   25  C   UNL     1     -10.931   9.784  69.798  1.00  0.00    -0.256 C  
HETATM   26  O   UNL     1     -10.239   9.915  71.059  1.00  0.00    -0.320 OA 
HETATM   27  H   UNL     1     -10.303   9.095  71.533  1.00  0.00     0.000 HD 
BRANCH  25  28
HETATM   28  C   UNL     1     -10.435   8.486  69.113  1.00  0.00    -0.205 C  
HETATM   29  O   UNL     1     -11.066   8.390  67.812  1.00  0.00    -0.481 OA 
HETATM   30  H   UNL     1     -10.761   7.594  67.392  1.00  0.00     0.000 HD 
BRANCH  28  31
HETATM   31  C   UNL     1     -10.699   7.175  69.865  1.00  0.00    -0.239 C  
BRANCH  31  32
HETATM   32  O   UNL     1      -9.574   6.949  70.725  1.00  0.00    -0.165 OA 
HETATM   33  P   UNL     1      -9.855   6.478  72.226  1.00  0.00    -0.153 P  
HETATM   34  O   UNL     1     -10.695   7.659  72.896  1.00  0.00    -0.305 OA 
HETATM   35  O   UNL     1      -8.449   6.568  72.975  1.00  0.00    -0.119 OA 
HETATM   36  O   UNL     1     -10.508   5.152  72.399  1.00  0.00    -0.203 OA 
ENDBRANCH  31  32
ENDBRANCH  28  31
ENDBRANCH  25  28
ENDBRANCH  22  25
ENDBRANCH  21  22
ENDBRANCH   7  21
TORSDOF 6
ENDMDL
MODEL       82
REMARK 921   NORMALIZED FREE ENERGY PREDICTED BY IDOCK:   -5.57 KCAL/MOL
REMARK 922        TOTAL FREE ENERGY PREDICTED BY IDOCK:   -9.87 KCAL/MOL
REMARK 923 INTER-LIGAND FREE ENERGY PREDICTED BY IDOCK:   -8.67 KCAL/MOL
REMARK 924 INTRA-LIGAND FREE ENERGY PREDICTED BY IDOCK:   -1.20 KCAL/MOL
REMARK 927      BINDING AFFINITY PREDICTED BY RF-SCORE:    0.00 PKD
ROOT
HETATM    1  C   UNL     1      -7.836   3.089  65.111  1.00  0.00    -0.082 C  
HETATM    2  C   UNL     1      -8.506   4.092  66.006  1.00  0.00    -0.109 A  
HETATM    3  C   UNL     1      -8.954   3.716  67.271  1.00  0.00    -0.160 A  
HETATM    4  C   UNL     1      -9.479   4.672  68.153  1.00  0.00    -0.146 A  
HETATM    5  C   UNL     1      -9.688   6.007  67.732  1.00  0.00    -0.115 A  
HETATM    6  C   UNL     1      -9.455   6.300  66.399  1.00  0.00    -0.165 A  
HETATM    7  N   UNL     1     -10.035   7.015  68.666  1.00  0.00    -0.152 NA 
HETATM    8  H   UNL     1     -10.967   5.507  73.504  1.00  0.00     0.000 HD 
HETATM    9  C   UNL     1      -8.664   5.435  65.637  1.00  0.00    -0.152 A  
HETATM   10  C   UNL     1     -10.228   6.614  69.986  1.00  0.00    -0.187 A  
HETATM   11  C   UNL     1      -7.706   6.141  64.716  1.00  0.00    -0.099 C  
HETATM   12  C   UNL     1     -10.395   4.699  71.729  1.00  0.00    -0.138 C  
HETATM   13  N   UNL     1     -10.486   7.459  70.934  1.00  0.00    -0.216 N  
HETATM   14  H   UNL     1     -10.551   8.451  70.707  1.00  0.00     0.000 HD 
HETATM   15  N   UNL     1      -9.734   4.246  69.458  1.00  0.00    -0.208 NA 
HETATM   16  C   UNL     1     -10.673   7.064  72.225  1.00  0.00    -0.220 C  
HETATM   17  N   UNL     1     -10.696   5.740  72.548  1.00  0.00    -0.223 N  
HETATM   18  O   UNL     1     -10.342   3.536  72.094  1.00  0.00    -0.133 OA 
HETATM   19  C   UNL     1     -10.104   5.137  70.324  1.00  0.00    -0.268 A  
HETATM   20  O   UNL     1     -10.824   7.879  73.129  1.00  0.00    -0.375 OA 
ENDROOT
BRANCH   7  21
HETATM   21  C   UNL     1      -9.556   8.416  68.395  1.00  0.00    -0.148 C  
BRANCH  21  22
HETATM   22  C   UNL     1     -10.669   9.324  67.829  1.00  0.00    -0.207 C  
HETATM   23  O   UNL     1     -10.358   9.675  66.481  1.00  0.00    -0.239 OA 
HETATM   24  H   UNL     1     -11.043  10.234  66.133  1.00  0.00     0.000 HD 
BRANCH  22  25
HETATM   25  C   UNL     1     -10.965  10.594  68.660  1.00  0.00    -0.246 C  
HETATM   26  O   UNL     1     -12.379  10.645  68.952  1.00  0.00    -0.800 OA 
HETATM   27  H   UNL     1     -12.560  11.424  69.463  1.00  0.00     0.000 HD 
BRANCH  25  28
HETATM   28  C   UNL     1     -10.543  11.971  68.094  1.00  0.00    -0.210 C  
HETATM   29  O   UNL     1      -9.913  12.727  69.158  1.00  0.00    -0.393 OA 
HETATM   30  H   UNL     1      -9.654  13.572  68.810  1.00  0.00     0.000 HD 
BRANCH  28  31
HETATM   31  C   UNL     1     -11.663  12.836  67.498  1.00  0.00    -0.364 C  
BRANCH  31  32
HETATM   32  O   UNL     1     -12.152  12.151  66.338  1.00  0.00    -0.630 OA 
HETATM   33  P   UNL     1     -12.215  12.953  64.958  1.00  0.00    -0.489 P  
HETATM   34  O   UNL     1     -13.220  14.167  65.212  1.00  0.00    -0.760 OA 
HETATM   35  O   UNL     1     -13.027  12.018  63.954  1.00  0.00    -0.669 OA 
HETATM   36  O   UNL     1     -10.916  13.406  64.389  1.00  0.00    -0.370 OA 
ENDBRANCH  31  32
ENDBRANCH  28  31
ENDBRANCH  25  28
ENDBRANCH  22  25
ENDBRANCH  21  22
ENDBRANCH   7  21
TORSDOF 6
ENDMDL
MODEL       83
REMARK 921   NORMALIZED FREE ENERGY PREDICTED BY IDOCK:   -5.55 KCAL/MOL
REMARK 922        TOTAL FREE ENERGY PREDICTED BY IDOCK:   -9.84 KCAL/MOL
REMARK 923 INTER-LIGAND FREE ENERGY PREDICTED BY IDOCK:   -7.98 KCAL/MOL
REMARK 924 INTRA-LIGAND FREE ENERGY PREDICTED BY IDOCK:   -1.86 KCAL/MOL
REMARK 927      BINDING AFFINITY PREDICTED BY RF-SCORE:    0.00 PKD
ROOT
HETATM    1  C   UNL     1     -12.325  12.129  63.445  1.00  0.00    -0.648 C  
HETATM    2  C   UNL     1     -11.633  12.639  64.677  1.00  0.00    -0.392 A  
HETATM    3  C   UNL     1     -10.634  11.882  65.285  1.00  0.00    -0.320 A  
HETATM    4  C   UNL     1      -9.909  12.400  66.367  1.00  0.00    -0.240 A  
HETATM    5  C   UNL     1     -10.264  13.641  66.949  1.00  0.00    -0.261 A  
HETATM    6  C   UNL     1     -11.408  14.262  66.477  1.00  0.00    -0.351 A  
HETATM    7  N   UNL     1      -9.425  14.257  67.911  1.00  0.00    -0.207 NA 
HETATM    8  H   UNL     1      -5.340  11.563  69.525  1.00  0.00     0.000 HD 
HETATM    9  C   UNL     1     -11.922  13.894  65.230  1.00  0.00    -0.384 A  
HETATM   10  C   UNL     1      -8.289  13.552  68.301  1.00  0.00    -0.165 A  
HETATM   11  C   UNL     1     -12.399  15.055  64.402  1.00  0.00    -0.283 C  
HETATM   12  C   UNL     1      -6.872  11.380  68.204  1.00  0.00    -0.064 C  
HETATM   13  N   UNL     1      -7.420  14.046  69.127  1.00  0.00    -0.287 N  
HETATM   14  H   UNL     1      -7.573  14.981  69.504  1.00  0.00     0.000 HD 
HETATM   15  N   UNL     1      -8.809  11.654  66.799  1.00  0.00    -0.179 NA 
HETATM   16  C   UNL     1      -6.308  13.355  69.506  1.00  0.00    -0.106 C  
HETATM   17  N   UNL     1      -6.122  12.065  69.105  1.00  0.00    -0.073 N  
HETATM   18  O   UNL     1      -6.609  10.256  67.809  1.00  0.00    -0.065 OA 
HETATM   19  C   UNL     1      -8.052  12.169  67.716  1.00  0.00    -0.152 A  
HETATM   20  O   UNL     1      -5.446  13.866  70.214  1.00  0.00    -0.101 OA 
ENDROOT
BRANCH   7  21
HETATM   21  C   UNL     1      -9.400  15.761  67.958  1.00  0.00    -0.197 C  
BRANCH  21  22
HETATM   22  C   UNL     1      -8.468  16.371  66.889  1.00  0.00    -0.221 C  
HETATM   23  O   UNL     1      -7.146  16.480  67.416  1.00  0.00    -0.127 OA 
HETATM   24  H   UNL     1      -6.572  16.856  66.758  1.00  0.00     0.000 HD 
BRANCH  22  25
HETATM   25  C   UNL     1      -8.931  17.731  66.315  1.00  0.00    -0.174 C  
HETATM   26  O   UNL     1      -7.792  18.413  65.748  1.00  0.00    -0.510 OA 
HETATM   27  H   UNL     1      -8.077  19.248  65.395  1.00  0.00     0.000 HD 
BRANCH  25  28
HETATM   28  C   UNL     1      -9.667  18.722  67.248  1.00  0.00    -0.302 C  
HETATM   29  O   UNL     1     -10.584  19.507  66.445  1.00  0.00    -0.444 OA 
HETATM   30  H   UNL     1     -11.036  20.116  67.018  1.00  0.00     0.000 HD 
BRANCH  28  31
HETATM   31  C   UNL     1      -8.786  19.694  68.044  1.00  0.00    -0.319 C  
BRANCH  31  32
HETATM   32  O   UNL     1      -8.007  18.906  68.955  1.00  0.00    -0.325 OA 
HETATM   33  P   UNL     1      -6.452  19.241  69.103  1.00  0.00    -0.318 P  
HETATM   34  O   UNL     1      -5.821  18.999  67.657  1.00  0.00    -0.189 OA 
HETATM   35  O   UNL     1      -5.837  18.051  69.968  1.00  0.00    -0.243 OA 
HETATM   36  O   UNL     1      -6.106  20.580  69.652  1.00  0.00    -0.339 OA 
ENDBRANCH  31  32
ENDBRANCH  28  31
ENDBRANCH  25  28
ENDBRANCH  22  25
ENDBRANCH  21  22
ENDBRANCH   7  21
TORSDOF 6
ENDMDL
MODEL       84
REMARK 921   NORMALIZED FREE ENERGY PREDICTED BY IDOCK:   -5.53 KCAL/MOL
REMARK 922        TOTAL FREE ENERGY PREDICTED BY IDOCK:   -9.82 KCAL/MOL
REMARK 923 INTER-LIGAND FREE ENERGY PREDICTED BY IDOCK:   -8.29 KCAL/MOL
REMARK 924 INTRA-LIGAND FREE ENERGY PREDICTED BY IDOCK:   -1.53 KCAL/MOL
REMARK 927      BINDING AFFINITY PREDICTED BY RF-SCORE:    0.00 PKD
ROOT
HETATM    1  C   UNL     1     -12.642  12.232  63.648  1.00  0.00    -0.599 C  
HETATM    2  C   UNL     1     -11.648  13.006  64.467  1.00  0.00    -0.406 A  
HETATM    3  C   UNL     1     -11.600  14.396  64.382  1.00  0.00    -0.346 A  
HETATM    4  C   UNL     1     -10.753  15.130  65.224  1.00  0.00    -0.404 A  
HETATM    5  C   UNL     1      -9.835  14.473  66.079  1.00  0.00    -0.318 A  
HETATM    6  C   UNL     1      -9.737  13.096  65.972  1.00  0.00    -0.234 A  
HETATM    7  N   UNL     1      -9.116  15.197  67.063  1.00  0.00    -0.216 NA 
HETATM    8  H   UNL     1      -9.630  20.324  67.045  1.00  0.00     0.000 HD 
HETATM    9  C   UNL     1     -10.776  12.381  65.369  1.00  0.00    -0.317 A  
HETATM   10  C   UNL     1      -9.303  16.577  67.095  1.00  0.00    -0.233 A  
HETATM   11  C   UNL     1     -11.121  11.098  66.075  1.00  0.00    -0.117 C  
HETATM   12  C   UNL     1     -10.345  18.707  66.042  1.00  0.00    -0.399 C  
HETATM   13  N   UNL     1      -8.746  17.329  67.992  1.00  0.00    -0.225 N  
HETATM   14  H   UNL     1      -8.150  16.896  68.697  1.00  0.00     0.000 HD 
HETATM   15  N   UNL     1     -10.898  16.519  65.202  1.00  0.00    -0.574 NA 
HETATM   16  C   UNL     1      -8.931  18.679  68.021  1.00  0.00    -0.302 C  
HETATM   17  N   UNL     1      -9.636  19.304  67.036  1.00  0.00    -0.313 N  
HETATM   18  O   UNL     1     -11.035  19.312  65.238  1.00  0.00    -0.487 OA 
HETATM   19  C   UNL     1     -10.213  17.213  66.057  1.00  0.00    -0.321 A  
HETATM   20  O   UNL     1      -8.475  19.368  68.927  1.00  0.00    -0.367 OA 
ENDROOT
BRANCH   7  21
HETATM   21  C   UNL     1      -8.763  14.482  68.339  1.00  0.00    -0.175 C  
BRANCH  21  22
HETATM   22  C   UNL     1      -7.240  14.301  68.516  1.00  0.00    -0.118 C  
HETATM   23  O   UNL     1      -6.551  15.308  67.777  1.00  0.00    -0.134 OA 
HETATM   24  H   UNL     1      -5.614  15.196  67.885  1.00  0.00     0.000 HD 
BRANCH  22  25
HETATM   25  C   UNL     1      -6.700  12.899  68.148  1.00  0.00    -0.096 C  
HETATM   26  O   UNL     1      -6.260  12.913  66.772  1.00  0.00    -0.407 OA 
HETATM   27  H   UNL     1      -5.927  12.052  66.546  1.00  0.00     0.000 HD 
BRANCH  25  28
HETATM   28  C   UNL     1      -7.620  11.670  68.344  1.00  0.00    -0.126 C  
HETATM   29  O   UNL     1      -7.644  11.340  69.755  1.00  0.00    -0.350 OA 
HETATM   30  H   UNL     1      -8.209  10.586  69.876  1.00  0.00     0.000 HD 
BRANCH  28  31
HETATM   31  C   UNL     1      -7.238  10.401  67.569  1.00  0.00    -0.087 C  
BRANCH  31  32
HETATM   32  O   UNL     1      -7.922  10.455  66.310  1.00  0.00    -0.126 OA 
HETATM   33  P   UNL     1      -7.206   9.812  65.035  1.00  0.00    -0.138 P  
HETATM   34  O   UNL     1      -5.854  10.638  64.840  1.00  0.00    -0.126 OA 
HETATM   35  O   UNL     1      -8.083  10.258  63.780  1.00  0.00    -0.157 OA 
HETATM   36  O   UNL     1      -6.969   8.343  65.070  1.00  0.00    -0.072 OA 
ENDBRANCH  31  32
ENDBRANCH  28  31
ENDBRANCH  25  28
ENDBRANCH  22  25
ENDBRANCH  21  22
ENDBRANCH   7  21
TORSDOF 6
ENDMDL
MODEL       85
REMARK 921   NORMALIZED FREE ENERGY PREDICTED BY IDOCK:   -5.51 KCAL/MOL
REMARK 922        TOTAL FREE ENERGY PREDICTED BY IDOCK:   -9.79 KCAL/MOL
REMARK 923 INTER-LIGAND FREE ENERGY PREDICTED BY IDOCK:   -8.00 KCAL/MOL
REMARK 924 INTRA-LIGAND FREE ENERGY PREDICTED BY IDOCK:   -1.79 KCAL/MOL
REMARK 927      BINDING AFFINITY PREDICTED BY RF-SCORE:    0.00 PKD
ROOT
HETATM    1  C   UNL     1     -12.492  11.879  63.264  1.00  0.00    -0.506 C  
HETATM    2  C   UNL     1     -11.769  12.015  64.574  1.00  0.00    -0.380 A  
HETATM    3  C   UNL     1     -10.546  11.378  64.771  1.00  0.00    -0.377 A  
HETATM    4  C   UNL     1      -9.815  11.591  65.948  1.00  0.00    -0.231 A  
HETATM    5  C   UNL     1     -10.362  12.346  67.013  1.00  0.00    -0.220 A  
HETATM    6  C   UNL     1     -11.674  12.770  66.886  1.00  0.00    -0.447 A  
HETATM    7  N   UNL     1      -9.561  12.723  68.120  1.00  0.00    -0.220 NA 
HETATM    8  H   UNL     1      -4.776  10.822  68.306  1.00  0.00     0.000 HD 
HETATM    9  C   UNL     1     -12.260  12.811  65.618  1.00  0.00    -0.503 A  
HETATM   10  C   UNL     1      -8.249  12.257  68.138  1.00  0.00    -0.168 A  
HETATM   11  C   UNL     1     -13.106  14.032  65.379  1.00  0.00    -0.215 C  
HETATM   12  C   UNL     1      -6.396  10.780  67.081  1.00  0.00    -0.072 C  
HETATM   13  N   UNL     1      -7.410  12.591  69.068  1.00  0.00    -0.295 N  
HETATM   14  H   UNL     1      -7.721  13.216  69.812  1.00  0.00     0.000 HD 
HETATM   15  N   UNL     1      -8.522  11.062  65.987  1.00  0.00    -0.169 NA 
HETATM   16  C   UNL     1      -6.126  12.134  69.083  1.00  0.00    -0.082 C  
HETATM   17  N   UNL     1      -5.705  11.219  68.165  1.00  0.00    -0.046 N  
HETATM   18  O   UNL     1      -5.937  10.027  66.237  1.00  0.00    -0.060 OA 
HETATM   19  C   UNL     1      -7.782  11.348  67.012  1.00  0.00    -0.154 A  
HETATM   20  O   UNL     1      -5.315  12.530  69.914  1.00  0.00    -0.078 OA 
ENDROOT
BRANCH   7  21
HETATM   21  C   UNL     1      -9.879  14.027  68.802  1.00  0.00    -0.139 C  
BRANCH  21  22
HETATM   22  C   UNL     1      -9.362  15.249  68.014  1.00  0.00    -0.197 C  
HETATM   23  O   UNL     1      -8.089  15.643  68.525  1.00  0.00    -0.136 OA 
HETATM   24  H   UNL     1      -7.771  16.396  68.040  1.00  0.00     0.000 HD 
BRANCH  22  25
HETATM   25  C   UNL     1     -10.324  16.460  67.979  1.00  0.00    -0.288 C  
HETATM   26  O   UNL     1     -11.657  16.010  68.304  1.00  0.00    -0.338 OA 
HETATM   27  H   UNL     1     -12.247  16.754  68.282  1.00  0.00     0.000 HD 
BRANCH  25  28
HETATM   28  C   UNL     1     -10.408  17.308  66.686  1.00  0.00    -0.305 C  
HETATM   29  O   UNL     1      -9.362  16.867  65.784  1.00  0.00    -0.521 OA 
HETATM   30  H   UNL     1      -9.414  17.387  64.991  1.00  0.00     0.000 HD 
BRANCH  28  31
HETATM   31  C   UNL     1     -10.274  18.827  66.857  1.00  0.00    -0.386 C  
BRANCH  31  32
HETATM   32  O   UNL     1      -9.514  19.052  68.052  1.00  0.00    -0.299 OA 
HETATM   33  P   UNL     1      -7.987  19.500  67.903  1.00  0.00    -0.312 P  
HETATM   34  O   UNL     1      -7.262  18.302  67.135  1.00  0.00    -0.196 OA 
HETATM   35  O   UNL     1      -7.369  19.413  69.370  1.00  0.00    -0.314 OA 
HETATM   36  O   UNL     1      -7.737  20.817  67.257  1.00  0.00    -0.348 OA 
ENDBRANCH  31  32
ENDBRANCH  28  31
ENDBRANCH  25  28
ENDBRANCH  22  25
ENDBRANCH  21  22
ENDBRANCH   7  21
TORSDOF 6
ENDMDL
MODEL       86
REMARK 921   NORMALIZED FREE ENERGY PREDICTED BY IDOCK:   -5.50 KCAL/MOL
REMARK 922        TOTAL FREE ENERGY PREDICTED BY IDOCK:   -9.77 KCAL/MOL
REMARK 923 INTER-LIGAND FREE ENERGY PREDICTED BY IDOCK:   -8.66 KCAL/MOL
REMARK 924 INTRA-LIGAND FREE ENERGY PREDICTED BY IDOCK:   -1.11 KCAL/MOL
REMARK 927      BINDING AFFINITY PREDICTED BY RF-SCORE:    0.00 PKD
ROOT
HETATM    1  C   UNL     1     -11.165   7.666  73.105  1.00  0.00    -0.311 C  
HETATM    2  C   UNL     1     -10.698   7.613  71.679  1.00  0.00    -0.243 A  
HETATM    3  C   UNL     1     -10.295   6.403  71.116  1.00  0.00    -0.244 A  
HETATM    4  C   UNL     1      -9.965   6.327  69.756  1.00  0.00    -0.168 A  
HETATM    5  C   UNL     1      -9.904   7.496  68.959  1.00  0.00    -0.170 A  
HETATM    6  C   UNL     1     -10.078   8.713  69.597  1.00  0.00    -0.201 A  
HETATM    7  N   UNL     1      -9.759   7.407  67.552  1.00  0.00    -0.141 NA 
HETATM    8  H   UNL     1      -8.983   2.715  65.568  1.00  0.00     0.000 HD 
HETATM    9  C   UNL     1     -10.692   8.745  70.852  1.00  0.00    -0.282 A  
HETATM   10  C   UNL     1      -9.610   6.131  67.012  1.00  0.00    -0.135 A  
HETATM   11  C   UNL     1     -11.667   9.879  71.023  1.00  0.00    -0.466 C  
HETATM   12  C   UNL     1      -9.316   3.579  67.377  1.00  0.00    -0.206 C  
HETATM   13  N   UNL     1      -9.533   5.927  65.734  1.00  0.00    -0.363 N  
HETATM   14  H   UNL     1      -9.583   6.727  65.103  1.00  0.00     0.000 HD 
HETATM   15  N   UNL     1      -9.749   5.049  69.234  1.00  0.00    -0.162 NA 
HETATM   16  C   UNL     1      -9.387   4.678  65.208  1.00  0.00    -0.157 C  
HETATM   17  N   UNL     1      -9.214   3.599  66.023  1.00  0.00    -0.156 N  
HETATM   18  O   UNL     1      -9.242   2.566  68.053  1.00  0.00    -0.170 OA 
HETATM   19  C   UNL     1      -9.562   4.941  67.956  1.00  0.00    -0.146 A  
HETATM   20  O   UNL     1      -9.409   4.487  63.997  1.00  0.00    -0.145 OA 
ENDROOT
BRANCH   7  21
HETATM   21  C   UNL     1     -10.397   8.481  66.713  1.00  0.00    -0.276 C  
BRANCH  21  22
HETATM   22  C   UNL     1      -9.362   9.313  65.927  1.00  0.00    -0.236 C  
HETATM   23  O   UNL     1      -8.156   9.411  66.683  1.00  0.00    -0.107 OA 
HETATM   24  H   UNL     1      -7.518   9.923  66.199  1.00  0.00     0.000 HD 
BRANCH  22  25
HETATM   25  C   UNL     1      -9.842  10.720  65.497  1.00  0.00    -0.255 C  
HETATM   26  O   UNL     1     -10.969  11.101  66.315  1.00  0.00    -0.251 OA 
HETATM   27  H   UNL     1     -11.263  11.965  66.051  1.00  0.00     0.000 HD 
BRANCH  25  28
HETATM   28  C   UNL     1     -10.223  10.957  64.016  1.00  0.00    -0.357 C  
HETATM   29  O   UNL     1      -9.008  11.217  63.270  1.00  0.00    -0.417 OA 
HETATM   30  H   UNL     1      -9.242  11.362  62.361  1.00  0.00     0.000 HD 
BRANCH  28  31
HETATM   31  C   UNL     1     -11.203  12.104  63.739  1.00  0.00    -0.436 C  
BRANCH  31  32
HETATM   32  O   UNL     1     -10.649  13.285  64.335  1.00  0.00    -0.397 OA 
HETATM   33  P   UNL     1     -11.651  14.330  65.011  1.00  0.00    -0.408 P  
HETATM   34  O   UNL     1     -12.604  14.834  63.833  1.00  0.00    -0.834 OA 
HETATM   35  O   UNL     1     -10.771  15.619  65.338  1.00  0.00    -0.362 OA 
HETATM   36  O   UNL     1     -12.420  13.851  66.192  1.00  0.00    -0.459 OA 
ENDBRANCH  31  32
ENDBRANCH  28  31
ENDBRANCH  25  28
ENDBRANCH  22  25
ENDBRANCH  21  22
ENDBRANCH   7  21
TORSDOF 6
ENDMDL
MODEL       87
REMARK 921   NORMALIZED FREE ENERGY PREDICTED BY IDOCK:   -5.47 KCAL/MOL
REMARK 922        TOTAL FREE ENERGY PREDICTED BY IDOCK:   -9.73 KCAL/MOL
REMARK 923 INTER-LIGAND FREE ENERGY PREDICTED BY IDOCK:   -8.47 KCAL/MOL
REMARK 924 INTRA-LIGAND FREE ENERGY PREDICTED BY IDOCK:   -1.26 KCAL/MOL
REMARK 927      BINDING AFFINITY PREDICTED BY RF-SCORE:    0.00 PKD
ROOT
HETATM    1  C   UNL     1     -12.741  11.902  63.690  1.00  0.00    -0.509 C  
HETATM    2  C   UNL     1     -11.957  12.378  64.879  1.00  0.00    -0.458 A  
HETATM    3  C   UNL     1     -11.108  11.504  65.557  1.00  0.00    -0.254 A  
HETATM    4  C   UNL     1     -10.291  11.969  66.596  1.00  0.00    -0.208 A  
HETATM    5  C   UNL     1     -10.406  13.299  67.068  1.00  0.00    -0.246 A  
HETATM    6  C   UNL     1     -11.421  14.078  66.538  1.00  0.00    -0.368 A  
HETATM    7  N   UNL     1      -9.460  13.829  67.980  1.00  0.00    -0.201 NA 
HETATM    8  H   UNL     1      -5.925  10.576  69.844  1.00  0.00     0.000 HD 
HETATM    9  C   UNL     1     -12.005  13.707  65.323  1.00  0.00    -0.395 A  
HETATM   10  C   UNL     1      -8.469  12.963  68.436  1.00  0.00    -0.115 A  
HETATM   11  C   UNL     1     -12.267  14.862  64.396  1.00  0.00    -0.399 C  
HETATM   12  C   UNL     1      -7.477  10.567  68.532  1.00  0.00    -0.091 C  
HETATM   13  N   UNL     1      -7.517  13.356  69.223  1.00  0.00    -0.313 N  
HETATM   14  H   UNL     1      -7.492  14.332  69.519  1.00  0.00     0.000 HD 
HETATM   15  N   UNL     1      -9.343  11.073  67.097  1.00  0.00    -0.163 NA 
HETATM   16  C   UNL     1      -6.548  12.507  69.668  1.00  0.00     0.002 C  
HETATM   17  N   UNL     1      -6.606  11.176  69.378  1.00  0.00    -0.095 N  
HETATM   18  O   UNL     1      -7.429   9.384  68.237  1.00  0.00    -0.078 OA 
HETATM   19  C   UNL     1      -8.496  11.515  67.972  1.00  0.00    -0.148 A  
HETATM   20  O   UNL     1      -5.601  12.909  70.335  1.00  0.00    -0.133 OA 
ENDROOT
BRANCH   7  21
HETATM   21  C   UNL     1      -9.158  15.301  67.900  1.00  0.00    -0.175 C  
BRANCH  21  22
HETATM   22  C   UNL     1      -9.835  16.108  69.028  1.00  0.00    -0.245 C  
HETATM   23  O   UNL     1     -10.885  15.333  69.605  1.00  0.00    -0.255 OA 
HETATM   24  H   UNL     1     -11.302  15.830  70.299  1.00  0.00     0.000 HD 
BRANCH  22  25
HETATM   25  C   UNL     1     -10.363  17.501  68.611  1.00  0.00    -0.369 C  
HETATM   26  O   UNL     1     -10.620  17.500  67.190  1.00  0.00    -0.330 OA 
HETATM   27  H   UNL     1     -10.944  18.355  66.935  1.00  0.00     0.000 HD 
BRANCH  25  28
HETATM   28  C   UNL     1      -9.510  18.751  68.942  1.00  0.00    -0.286 C  
HETATM   29  O   UNL     1     -10.390  19.774  69.470  1.00  0.00    -0.635 OA 
HETATM   30  H   UNL     1      -9.867  20.541  69.674  1.00  0.00     0.000 HD 
BRANCH  28  31
HETATM   31  C   UNL     1      -8.717  19.363  67.779  1.00  0.00    -0.311 C  
BRANCH  31  32
HETATM   32  O   UNL     1      -7.533  18.572  67.615  1.00  0.00    -0.225 OA 
HETATM   33  P   UNL     1      -7.123  18.126  66.137  1.00  0.00    -0.277 P  
HETATM   34  O   UNL     1      -8.332  17.227  65.608  1.00  0.00    -0.475 OA 
HETATM   35  O   UNL     1      -5.942  17.069  66.319  1.00  0.00    -0.286 OA 
HETATM   36  O   UNL     1      -6.770  19.213  65.184  1.00  0.00    -0.431 OA 
ENDBRANCH  31  32
ENDBRANCH  28  31
ENDBRANCH  25  28
ENDBRANCH  22  25
ENDBRANCH  21  22
ENDBRANCH   7  21
TORSDOF 6
ENDMDL
MODEL       88
REMARK 921   NORMALIZED FREE ENERGY PREDICTED BY IDOCK:   -5.47 KCAL/MOL
REMARK 922        TOTAL FREE ENERGY PREDICTED BY IDOCK:   -9.73 KCAL/MOL
REMARK 923 INTER-LIGAND FREE ENERGY PREDICTED BY IDOCK:   -8.29 KCAL/MOL
REMARK 924 INTRA-LIGAND FREE ENERGY PREDICTED BY IDOCK:   -1.44 KCAL/MOL
REMARK 927      BINDING AFFINITY PREDICTED BY RF-SCORE:    0.00 PKD
ROOT
HETATM    1  C   UNL     1     -10.812  16.619  66.337  1.00  0.00    -0.012 C  
HETATM    2  C   UNL     1     -10.827  15.315  67.083  1.00  0.00    -0.322 A  
HETATM    3  C   UNL     1     -11.429  15.230  68.337  1.00  0.00    -0.358 A  
HETATM    4  C   UNL     1     -11.544  13.994  68.987  1.00  0.00    -0.306 A  
HETATM    5  C   UNL     1     -10.936  12.834  68.450  1.00  0.00    -0.254 A  
HETATM    6  C   UNL     1     -10.143  12.991  67.326  1.00  0.00    -0.235 A  
HETATM    7  N   UNL     1     -11.206  11.555  68.997  1.00  0.00    -0.240 NA 
HETATM    8  H   UNL     1     -14.076  11.393  73.274  1.00  0.00     0.000 HD 
HETATM    9  C   UNL     1     -10.289  14.139  66.541  1.00  0.00    -0.284 A  
HETATM   10  C   UNL     1     -12.032  11.509  70.118  1.00  0.00    -0.369 A  
HETATM   11  C   UNL     1     -10.246  13.874  65.061  1.00  0.00    -0.383 C  
HETATM   12  C   UNL     1     -13.358  12.767  71.960  1.00  0.00    -0.466 C  
HETATM   13  N   UNL     1     -12.396  10.390  70.662  1.00  0.00    -0.323 N  
HETATM   14  H   UNL     1     -12.067   9.514  70.257  1.00  0.00     0.000 HD 
HETATM   15  N   UNL     1     -12.318  13.967  70.150  1.00  0.00    -0.345 NA 
HETATM   16  C   UNL     1     -13.204  10.348  71.759  1.00  0.00    -0.424 C  
HETATM   17  N   UNL     1     -13.579  11.497  72.389  1.00  0.00     0.035 N  
HETATM   18  O   UNL     1     -13.795  13.761  72.515  1.00  0.00    -0.609 OA 
HETATM   19  C   UNL     1     -12.540  12.816  70.703  1.00  0.00    -0.168 A  
HETATM   20  O   UNL     1     -13.618   9.284  72.209  1.00  0.00    -0.438 OA 
ENDROOT
BRANCH   7  21
HETATM   21  C   UNL     1     -11.183  10.375  68.063  1.00  0.00    -0.272 C  
BRANCH  21  22
HETATM   22  C   UNL     1      -9.871   9.567  68.162  1.00  0.00    -0.155 C  
HETATM   23  O   UNL     1      -9.461   9.162  66.856  1.00  0.00    -0.153 OA 
HETATM   24  H   UNL     1      -8.653   8.665  66.917  1.00  0.00     0.000 HD 
BRANCH  22  25
HETATM   25  C   UNL     1      -9.923   8.346  69.111  1.00  0.00    -0.196 C  
HETATM   26  O   UNL     1     -11.276   7.843  69.154  1.00  0.00    -0.421 OA 
HETATM   27  H   UNL     1     -11.307   7.093  69.737  1.00  0.00     0.000 HD 
BRANCH  25  28
HETATM   28  C   UNL     1      -9.427   8.513  70.568  1.00  0.00    -0.170 C  
HETATM   29  O   UNL     1      -8.968   9.877  70.738  1.00  0.00    -0.351 OA 
HETATM   30  H   UNL     1      -8.665   9.979  71.633  1.00  0.00     0.000 HD 
BRANCH  28  31
HETATM   31  C   UNL     1      -8.299   7.575  71.016  1.00  0.00    -0.113 C  
BRANCH  31  32
HETATM   32  O   UNL     1      -7.610   8.228  72.091  1.00  0.00    -0.107 OA 
HETATM   33  P   UNL     1      -7.898   7.735  73.583  1.00  0.00    -0.191 P  
HETATM   34  O   UNL     1      -9.453   7.997  73.829  1.00  0.00    -0.218 OA 
HETATM   35  O   UNL     1      -7.198   8.807  74.533  1.00  0.00    -0.351 OA 
HETATM   36  O   UNL     1      -7.503   6.338  73.913  1.00  0.00    -0.087 OA 
ENDBRANCH  31  32
ENDBRANCH  28  31
ENDBRANCH  25  28
ENDBRANCH  22  25
ENDBRANCH  21  22
ENDBRANCH   7  21
TORSDOF 6
ENDMDL
MODEL       89
REMARK 921   NORMALIZED FREE ENERGY PREDICTED BY IDOCK:   -5.45 KCAL/MOL
REMARK 922        TOTAL FREE ENERGY PREDICTED BY IDOCK:   -9.70 KCAL/MOL
REMARK 923 INTER-LIGAND FREE ENERGY PREDICTED BY IDOCK:   -8.23 KCAL/MOL
REMARK 924 INTRA-LIGAND FREE ENERGY PREDICTED BY IDOCK:   -1.47 KCAL/MOL
REMARK 927      BINDING AFFINITY PREDICTED BY RF-SCORE:    0.00 PKD
ROOT
HETATM    1  C   UNL     1     -12.535  12.014  63.119  1.00  0.00    -0.387 C  
HETATM    2  C   UNL     1     -11.906  12.014  64.483  1.00  0.00    -0.363 A  
HETATM    3  C   UNL     1     -10.901  11.099  64.792  1.00  0.00    -0.277 A  
HETATM    4  C   UNL     1     -10.234  11.166  66.023  1.00  0.00    -0.250 A  
HETATM    5  C   UNL     1     -10.654  12.072  67.026  1.00  0.00    -0.227 A  
HETATM    6  C   UNL     1     -11.804  12.805  66.783  1.00  0.00    -0.452 A  
HETATM    7  N   UNL     1      -9.873  12.278  68.191  1.00  0.00    -0.207 NA 
HETATM    8  H   UNL     1      -5.749   9.251  68.811  1.00  0.00     0.000 HD 
HETATM    9  C   UNL     1     -12.260  12.945  65.469  1.00  0.00    -0.527 A  
HETATM   10  C   UNL     1      -8.725  11.500  68.327  1.00  0.00    -0.162 A  
HETATM   11  C   UNL     1     -12.750  14.328  65.139  1.00  0.00    -0.332 C  
HETATM   12  C   UNL     1      -7.227   9.569  67.454  1.00  0.00    -0.087 C  
HETATM   13  N   UNL     1      -7.904  11.648  69.319  1.00  0.00    -0.352 N  
HETATM   14  H   UNL     1      -8.105  12.357  70.024  1.00  0.00     0.000 HD 
HETATM   15  N   UNL     1      -9.123  10.333  66.180  1.00  0.00    -0.152 NA 
HETATM   16  C   UNL     1      -6.782  10.886  69.449  1.00  0.00    -0.107 C  
HETATM   17  N   UNL     1      -6.535   9.861  68.585  1.00  0.00    -0.046 N  
HETATM   18  O   UNL     1      -6.909   8.696  66.664  1.00  0.00    -0.067 OA 
HETATM   19  C   UNL     1      -8.417  10.462  67.259  1.00  0.00    -0.122 A  
HETATM   20  O   UNL     1      -5.965  11.097  70.339  1.00  0.00    -0.136 OA 
ENDROOT
BRANCH   7  21
HETATM   21  C   UNL     1      -9.904  13.643  68.823  1.00  0.00    -0.062 C  
BRANCH  21  22
HETATM   22  C   UNL     1      -8.676  14.499  68.446  1.00  0.00    -0.175 C  
HETATM   23  O   UNL     1      -7.825  14.638  69.582  1.00  0.00    -0.381 OA 
HETATM   24  H   UNL     1      -7.069  15.165  69.350  1.00  0.00     0.000 HD 
BRANCH  22  25
HETATM   25  C   UNL     1      -9.004  15.888  67.847  1.00  0.00    -0.181 C  
HETATM   26  O   UNL     1     -10.256  15.807  67.133  1.00  0.00    -0.267 OA 
HETATM   27  H   UNL     1     -10.457  16.660  66.766  1.00  0.00     0.000 HD 
BRANCH  25  28
HETATM   28  C   UNL     1      -7.966  16.563  66.918  1.00  0.00    -0.225 C  
HETATM   29  O   UNL     1      -6.650  16.064  67.267  1.00  0.00    -0.174 OA 
HETATM   30  H   UNL     1      -6.013  16.477  66.697  1.00  0.00     0.000 HD 
BRANCH  28  31
HETATM   31  C   UNL     1      -7.913  18.096  66.953  1.00  0.00    -0.232 C  
BRANCH  31  32
HETATM   32  O   UNL     1      -8.867  18.572  65.994  1.00  0.00    -0.493 OA 
HETATM   33  P   UNL     1     -10.055  19.508  66.512  1.00  0.00    -0.521 P  
HETATM   34  O   UNL     1     -10.878  18.621  67.553  1.00  0.00    -0.435 OA 
HETATM   35  O   UNL     1     -11.060  19.645  65.281  1.00  0.00    -0.409 OA 
HETATM   36  O   UNL     1      -9.666  20.828  67.078  1.00  0.00    -0.422 OA 
ENDBRANCH  31  32
ENDBRANCH  28  31
ENDBRANCH  25  28
ENDBRANCH  22  25
ENDBRANCH  21  22
ENDBRANCH   7  21
TORSDOF 6
ENDMDL
MODEL       90
REMARK 921   NORMALIZED FREE ENERGY PREDICTED BY IDOCK:   -5.43 KCAL/MOL
REMARK 922        TOTAL FREE ENERGY PREDICTED BY IDOCK:   -9.68 KCAL/MOL
REMARK 923 INTER-LIGAND FREE ENERGY PREDICTED BY IDOCK:   -8.84 KCAL/MOL
REMARK 924 INTRA-LIGAND FREE ENERGY PREDICTED BY IDOCK:   -0.85 KCAL/MOL
REMARK 927      BINDING AFFINITY PREDICTED BY RF-SCORE:    0.00 PKD
ROOT
HETATM    1  C   UNL     1      -9.449   9.496  65.108  1.00  0.00    -0.305 C  
HETATM    2  C   UNL     1      -9.934   9.758  66.505  1.00  0.00    -0.304 A  
HETATM    3  C   UNL     1     -10.203  11.061  66.922  1.00  0.00    -0.263 A  
HETATM    4  C   UNL     1     -10.760  11.301  68.186  1.00  0.00    -0.204 A  
HETATM    5  C   UNL     1     -10.936  10.246  69.113  1.00  0.00    -0.238 A  
HETATM    6  C   UNL     1     -10.443   9.001  68.762  1.00  0.00    -0.230 A  
HETATM    7  N   UNL     1     -11.669  10.447  70.309  1.00  0.00    -0.296 NA 
HETATM    8  H   UNL     1     -13.210  15.256  71.333  1.00  0.00     0.000 HD 
HETATM    9  C   UNL     1     -10.179   8.723  67.418  1.00  0.00    -0.318 A  
HETATM   10  C   UNL     1     -12.136  11.736  70.554  1.00  0.00    -0.347 A  
HETATM   11  C   UNL     1     -10.602   7.345  66.987  1.00  0.00    -0.414 C  
HETATM   12  C   UNL     1     -12.226  14.239  69.875  1.00  0.00    -0.352 C  
HETATM   13  N   UNL     1     -12.870  12.020  71.584  1.00  0.00    -0.342 N  
HETATM   14  H   UNL     1     -13.113  11.276  72.238  1.00  0.00     0.000 HD 
HETATM   15  N   UNL     1     -11.165  12.612  68.452  1.00  0.00    -0.258 NA 
HETATM   16  C   UNL     1     -13.327  13.282  71.822  1.00  0.00    -0.393 C  
HETATM   17  N   UNL     1     -12.938  14.321  71.029  1.00  0.00    -0.342 N  
HETATM   18  O   UNL     1     -11.983  15.192  69.154  1.00  0.00    -0.307 OA 
HETATM   19  C   UNL     1     -11.793  12.837  69.564  1.00  0.00    -0.316 A  
HETATM   20  O   UNL     1     -14.096  13.522  72.747  1.00  0.00    -0.719 OA 
ENDROOT
BRANCH   7  21
HETATM   21  C   UNL     1     -12.436   9.278  70.865  1.00  0.00    -0.128 C  
BRANCH  21  22
HETATM   22  C   UNL     1     -11.717   8.609  72.056  1.00  0.00    -0.369 C  
HETATM   23  O   UNL     1     -10.372   9.080  72.126  1.00  0.00    -0.316 OA 
HETATM   24  H   UNL     1      -9.929   8.668  72.859  1.00  0.00     0.000 HD 
BRANCH  22  25
HETATM   25  C   UNL     1     -11.745   7.062  72.053  1.00  0.00    -0.295 C  
HETATM   26  O   UNL     1     -13.108   6.617  72.223  1.00  0.00    -0.546 OA 
HETATM   27  H   UNL     1     -13.125   5.668  72.221  1.00  0.00     0.000 HD 
BRANCH  25  28
HETATM   28  C   UNL     1     -10.862   6.299  73.071  1.00  0.00    -0.259 C  
HETATM   29  O   UNL     1      -9.496   6.311  72.587  1.00  0.00    -0.150 OA 
HETATM   30  H   UNL     1      -8.954   5.843  73.212  1.00  0.00     0.000 HD 
BRANCH  28  31
HETATM   31  C   UNL     1     -11.251   4.842  73.354  1.00  0.00    -0.343 C  
BRANCH  31  32
HETATM   32  O   UNL     1     -10.123   4.220  73.984  1.00  0.00    -0.140 OA 
HETATM   33  P   UNL     1      -9.403   3.014  73.222  1.00  0.00    -0.090 P  
HETATM   34  O   UNL     1     -10.513   1.875  73.076  1.00  0.00    -0.115 OA 
HETATM   35  O   UNL     1      -8.382   2.389  74.276  1.00  0.00    -0.061 OA 
HETATM   36  O   UNL     1      -8.753   3.337  71.923  1.00  0.00    -0.079 OA 
ENDBRANCH  31  32
ENDBRANCH  28  31
ENDBRANCH  25  28
ENDBRANCH  22  25
ENDBRANCH  21  22
ENDBRANCH   7  21
TORSDOF 6
ENDMDL
MODEL       91
REMARK 921   NORMALIZED FREE ENERGY PREDICTED BY IDOCK:   -5.42 KCAL/MOL
REMARK 922        TOTAL FREE ENERGY PREDICTED BY IDOCK:   -9.67 KCAL/MOL
REMARK 923 INTER-LIGAND FREE ENERGY PREDICTED BY IDOCK:   -8.44 KCAL/MOL
REMARK 924 INTRA-LIGAND FREE ENERGY PREDICTED BY IDOCK:   -1.23 KCAL/MOL
REMARK 927      BINDING AFFINITY PREDICTED BY RF-SCORE:    0.00 PKD
ROOT
HETATM    1  C   UNL     1      -5.194  16.969  67.544  1.00  0.00    -0.140 C  
HETATM    2  C   UNL     1      -6.412  16.089  67.548  1.00  0.00    -0.207 A  
HETATM    3  C   UNL     1      -7.507  16.402  66.746  1.00  0.00    -0.278 A  
HETATM    4  C   UNL     1      -8.599  15.527  66.661  1.00  0.00    -0.290 A  
HETATM    5  C   UNL     1      -8.673  14.379  67.486  1.00  0.00    -0.197 A  
HETATM    6  C   UNL     1      -7.685  14.216  68.442  1.00  0.00    -0.140 A  
HETATM    7  N   UNL     1      -9.671  13.396  67.272  1.00  0.00    -0.226 NA 
HETATM    8  H   UNL     1     -13.260  14.433  63.724  1.00  0.00     0.000 HD 
HETATM    9  C   UNL     1      -6.480  14.912  68.306  1.00  0.00    -0.120 A  
HETATM   10  C   UNL     1     -10.605  13.652  66.271  1.00  0.00    -0.289 A  
HETATM   11  C   UNL     1      -5.264  14.093  68.644  1.00  0.00    -0.091 C  
HETATM   12  C   UNL     1     -11.582  15.277  64.500  1.00  0.00    -0.312 C  
HETATM   13  N   UNL     1     -11.523  12.795  65.948  1.00  0.00    -0.338 N  
HETATM   14  H   UNL     1     -11.564  11.905  66.443  1.00  0.00     0.000 HD 
HETATM   15  N   UNL     1      -9.568  15.826  65.700  1.00  0.00    -0.349 NA 
HETATM   16  C   UNL     1     -12.436  13.047  64.967  1.00  0.00    -0.477 C  
HETATM   17  N   UNL     1     -12.477  14.265  64.355  1.00  0.00    -0.368 N  
HETATM   18  O   UNL     1     -11.614  16.313  63.858  1.00  0.00    -0.987 OA 
HETATM   19  C   UNL     1     -10.524  14.969  65.518  1.00  0.00    -0.365 A  
HETATM   20  O   UNL     1     -13.240  12.195  64.606  1.00  0.00    -0.659 OA 
ENDROOT
BRANCH   7  21
HETATM   21  C   UNL     1      -9.329  11.967  67.599  1.00  0.00    -0.185 C  
BRANCH  21  22
HETATM   22  C   UNL     1      -8.340  11.349  66.589  1.00  0.00    -0.172 C  
HETATM   23  O   UNL     1      -8.780  11.625  65.260  1.00  0.00    -0.392 OA 
HETATM   24  H   UNL     1      -8.171  11.244  64.638  1.00  0.00     0.000 HD 
BRANCH  22  25
HETATM   25  C   UNL     1      -8.084   9.833  66.766  1.00  0.00    -0.120 C  
HETATM   26  O   UNL     1      -6.678   9.621  67.018  1.00  0.00    -0.073 OA 
HETATM   27  H   UNL     1      -6.521   8.691  67.127  1.00  0.00     0.000 HD 
BRANCH  25  28
HETATM   28  C   UNL     1      -8.518   8.867  65.637  1.00  0.00    -0.157 C  
HETATM   29  O   UNL     1      -9.893   9.164  65.287  1.00  0.00    -0.444 OA 
HETATM   30  H   UNL     1     -10.159   8.572  64.594  1.00  0.00     0.000 HD 
BRANCH  28  31
HETATM   31  C   UNL     1      -8.423   7.368  65.947  1.00  0.00    -0.150 C  
BRANCH  31  32
HETATM   32  O   UNL     1      -8.694   7.209  67.346  1.00  0.00    -0.120 OA 
HETATM   33  P   UNL     1      -9.929   6.291  67.776  1.00  0.00    -0.157 P  
HETATM   34  O   UNL     1     -11.221   6.989  67.150  1.00  0.00    -0.315 OA 
HETATM   35  O   UNL     1     -10.115   6.527  69.342  1.00  0.00    -0.164 OA 
HETATM   36  O   UNL     1      -9.842   4.847  67.425  1.00  0.00    -0.161 OA 
ENDBRANCH  31  32
ENDBRANCH  28  31
ENDBRANCH  25  28
ENDBRANCH  22  25
ENDBRANCH  21  22
ENDBRANCH   7  21
TORSDOF 6
ENDMDL
MODEL       92
REMARK 921   NORMALIZED FREE ENERGY PREDICTED BY IDOCK:   -5.40 KCAL/MOL
REMARK 922        TOTAL FREE ENERGY PREDICTED BY IDOCK:   -9.63 KCAL/MOL
REMARK 923 INTER-LIGAND FREE ENERGY PREDICTED BY IDOCK:   -8.01 KCAL/MOL
REMARK 924 INTRA-LIGAND FREE ENERGY PREDICTED BY IDOCK:   -1.63 KCAL/MOL
REMARK 927      BINDING AFFINITY PREDICTED BY RF-SCORE:    0.00 PKD
ROOT
HETATM    1  C   UNL     1     -12.350  16.031  70.630  1.00  0.00    -0.161 C  
HETATM    2  C   UNL     1     -12.295  14.553  70.366  1.00  0.00    -0.400 A  
HETATM    3  C   UNL     1     -11.925  14.078  69.109  1.00  0.00    -0.400 A  
HETATM    4  C   UNL     1     -11.764  12.703  68.889  1.00  0.00    -0.325 A  
HETATM    5  C   UNL     1     -12.103  11.764  69.893  1.00  0.00    -0.287 A  
HETATM    6  C   UNL     1     -12.693  12.250  71.048  1.00  0.00    -0.319 A  
HETATM    7  N   UNL     1     -11.766  10.395  69.748  1.00  0.00    -0.252 NA 
HETATM    8  H   UNL     1      -9.724   8.948  65.244  1.00  0.00     0.000 HD 
HETATM    9  C   UNL     1     -12.563  13.606  71.364  1.00  0.00    -0.415 A  
HETATM   10  C   UNL     1     -11.159  10.017  68.552  1.00  0.00    -0.167 A  
HETATM   11  C   UNL     1     -12.301  13.867  72.822  1.00  0.00     0.173 C  
HETATM   12  C   UNL     1     -10.370  10.642  66.161  1.00  0.00    -0.227 C  
HETATM   13  N   UNL     1     -10.752   8.805  68.338  1.00  0.00    -0.425 N  
HETATM   14  H   UNL     1     -10.881   8.104  69.068  1.00  0.00     0.000 HD 
HETATM   15  N   UNL     1     -11.217  12.325  67.660  1.00  0.00    -0.271 NA 
HETATM   16  C   UNL     1     -10.158   8.438  67.167  1.00  0.00    -0.265 C  
HETATM   17  N   UNL     1     -10.062   9.320  66.132  1.00  0.00    -0.276 N  
HETATM   18  O   UNL     1     -10.178  11.408  65.232  1.00  0.00    -0.245 OA 
HETATM   19  C   UNL     1     -10.946  11.071  67.478  1.00  0.00    -0.281 A  
HETATM   20  O   UNL     1      -9.693   7.314  67.010  1.00  0.00    -0.158 OA 
ENDROOT
BRANCH   7  21
HETATM   21  C   UNL     1     -11.461   9.613  70.997  1.00  0.00    -0.371 C  
BRANCH  21  22
HETATM   22  C   UNL     1     -12.284   8.311  71.097  1.00  0.00    -0.233 C  
HETATM   23  O   UNL     1     -13.676   8.624  71.085  1.00  0.00    -0.558 OA 
HETATM   24  H   UNL     1     -14.183   7.823  71.147  1.00  0.00     0.000 HD 
BRANCH  22  25
HETATM   25  C   UNL     1     -11.946   7.414  72.311  1.00  0.00    -0.239 C  
HETATM   26  O   UNL     1     -10.885   8.032  73.070  1.00  0.00    -0.368 OA 
HETATM   27  H   UNL     1     -10.678   7.481  73.816  1.00  0.00     0.000 HD 
BRANCH  25  28
HETATM   28  C   UNL     1     -11.558   5.936  72.061  1.00  0.00    -0.228 C  
HETATM   29  O   UNL     1     -11.898   5.170  73.243  1.00  0.00    -0.527 OA 
HETATM   30  H   UNL     1     -11.660   4.263  73.090  1.00  0.00     0.000 HD 
BRANCH  28  31
HETATM   31  C   UNL     1     -10.084   5.665  71.730  1.00  0.00    -0.192 C  
BRANCH  31  32
HETATM   32  O   UNL     1      -9.688   6.630  70.747  1.00  0.00    -0.178 OA 
HETATM   33  P   UNL     1      -8.213   7.235  70.834  1.00  0.00    -0.116 P  
HETATM   34  O   UNL     1      -8.138   7.983  72.242  1.00  0.00    -0.116 OA 
HETATM   35  O   UNL     1      -8.179   8.437  69.787  1.00  0.00    -0.114 OA 
HETATM   36  O   UNL     1      -7.086   6.281  70.642  1.00  0.00    -0.065 OA 
ENDBRANCH  31  32
ENDBRANCH  28  31
ENDBRANCH  25  28
ENDBRANCH  22  25
ENDBRANCH  21  22
ENDBRANCH   7  21
TORSDOF 6
ENDMDL
MODEL       93
REMARK 921   NORMALIZED FREE ENERGY PREDICTED BY IDOCK:   -5.38 KCAL/MOL
REMARK 922        TOTAL FREE ENERGY PREDICTED BY IDOCK:   -9.61 KCAL/MOL
REMARK 923 INTER-LIGAND FREE ENERGY PREDICTED BY IDOCK:   -8.95 KCAL/MOL
REMARK 924 INTRA-LIGAND FREE ENERGY PREDICTED BY IDOCK:   -0.66 KCAL/MOL
REMARK 927      BINDING AFFINITY PREDICTED BY RF-SCORE:    0.00 PKD
ROOT
HETATM    1  C   UNL     1      -7.772   6.144  65.153  1.00  0.00    -0.097 C  
HETATM    2  C   UNL     1      -8.141   7.476  65.741  1.00  0.00    -0.127 A  
HETATM    3  C   UNL     1      -8.787   8.433  64.961  1.00  0.00    -0.028 A  
HETATM    4  C   UNL     1      -9.232   9.633  65.534  1.00  0.00    -0.234 A  
HETATM    5  C   UNL     1      -8.919   9.955  66.876  1.00  0.00    -0.138 A  
HETATM    6  C   UNL     1      -8.075   9.095  67.558  1.00  0.00    -0.104 A  
HETATM    7  N   UNL     1      -9.522  11.068  67.514  1.00  0.00    -0.163 NA 
HETATM    8  H   UNL     1     -12.482  14.118  64.603  1.00  0.00     0.000 HD 
HETATM    9  C   UNL     1      -7.900   7.791  67.086  1.00  0.00    -0.113 A  
HETATM   10  C   UNL     1     -10.369  11.856  66.740  1.00  0.00    -0.209 A  
HETATM   11  C   UNL     1      -7.874   6.749  68.171  1.00  0.00    -0.113 C  
HETATM   12  C   UNL     1     -11.397  12.410  64.423  1.00  0.00    -0.340 C  
HETATM   13  N   UNL     1     -11.023  12.860  67.236  1.00  0.00    -0.255 N  
HETATM   14  H   UNL     1     -10.912  13.081  68.226  1.00  0.00     0.000 HD 
HETATM   15  N   UNL     1     -10.027  10.454  64.730  1.00  0.00    -0.334 NA 
HETATM   16  C   UNL     1     -11.852  13.631  66.476  1.00  0.00    -0.404 C  
HETATM   17  N   UNL     1     -11.945  13.431  65.131  1.00  0.00    -0.358 N  
HETATM   18  O   UNL     1     -11.588  12.225  63.232  1.00  0.00    -0.424 OA 
HETATM   19  C   UNL     1     -10.551  11.508  65.272  1.00  0.00    -0.283 A  
HETATM   20  O   UNL     1     -12.536  14.519  66.974  1.00  0.00    -0.198 OA 
ENDROOT
BRANCH   7  21
HETATM   21  C   UNL     1      -9.765  10.977  68.997  1.00  0.00    -0.134 C  
BRANCH  21  22
HETATM   22  C   UNL     1     -10.824   9.914  69.360  1.00  0.00    -0.237 C  
HETATM   23  O   UNL     1     -12.002  10.130  68.585  1.00  0.00    -0.623 OA 
HETATM   24  H   UNL     1     -12.654   9.476  68.809  1.00  0.00     0.000 HD 
BRANCH  22  25
HETATM   25  C   UNL     1     -11.177   9.828  70.864  1.00  0.00    -0.359 C  
HETATM   26  O   UNL     1     -11.045   8.458  71.299  1.00  0.00    -0.239 OA 
HETATM   27  H   UNL     1     -11.262   8.406  72.223  1.00  0.00     0.000 HD 
BRANCH  25  28
HETATM   28  C   UNL     1     -12.556  10.350  71.336  1.00  0.00    -0.434 C  
HETATM   29  O   UNL     1     -13.582   9.483  70.789  1.00  0.00    -0.598 OA 
HETATM   30  H   UNL     1     -14.428   9.802  71.079  1.00  0.00     0.000 HD 
BRANCH  28  31
HETATM   31  C   UNL     1     -12.907  11.794  70.956  1.00  0.00    -0.215 C  
BRANCH  31  32
HETATM   32  O   UNL     1     -13.047  12.529  72.179  1.00  0.00    -0.416 OA 
HETATM   33  P   UNL     1     -13.162  14.121  72.094  1.00  0.00    -0.491 P  
HETATM   34  O   UNL     1     -11.795  14.615  71.434  1.00  0.00    -0.332 OA 
HETATM   35  O   UNL     1     -13.044  14.641  73.597  1.00  0.00    -0.519 OA 
HETATM   36  O   UNL     1     -14.356  14.668  71.395  1.00  0.00    -0.433 OA 
ENDBRANCH  31  32
ENDBRANCH  28  31
ENDBRANCH  25  28
ENDBRANCH  22  25
ENDBRANCH  21  22
ENDBRANCH   7  21
TORSDOF 6
ENDMDL
MODEL       94
REMARK 921   NORMALIZED FREE ENERGY PREDICTED BY IDOCK:   -5.38 KCAL/MOL
REMARK 922        TOTAL FREE ENERGY PREDICTED BY IDOCK:   -9.61 KCAL/MOL
REMARK 923 INTER-LIGAND FREE ENERGY PREDICTED BY IDOCK:   -8.41 KCAL/MOL
REMARK 924 INTRA-LIGAND FREE ENERGY PREDICTED BY IDOCK:   -1.20 KCAL/MOL
REMARK 927      BINDING AFFINITY PREDICTED BY RF-SCORE:    0.00 PKD
ROOT
HETATM    1  C   UNL     1      -6.893   5.074  67.346  1.00  0.00    -0.056 C  
HETATM    2  C   UNL     1      -8.011   6.053  67.562  1.00  0.00    -0.102 A  
HETATM    3  C   UNL     1      -8.619   6.161  68.811  1.00  0.00    -0.120 A  
HETATM    4  C   UNL     1      -9.585   7.148  69.049  1.00  0.00    -0.146 A  
HETATM    5  C   UNL     1     -10.060   7.966  67.996  1.00  0.00    -0.192 A  
HETATM    6  C   UNL     1      -9.613   7.681  66.716  1.00  0.00    -0.269 A  
HETATM    7  N   UNL     1     -10.888   9.084  68.263  1.00  0.00    -0.087 NA 
HETATM    8  H   UNL     1     -12.465   9.724  73.126  1.00  0.00     0.000 HD 
HETATM    9  C   UNL     1      -8.452   6.919  66.551  1.00  0.00    -0.125 A  
HETATM   10  C   UNL     1     -11.264   9.289  69.588  1.00  0.00    -0.041 A  
HETATM   11  C   UNL     1      -7.546   7.420  65.460  1.00  0.00    -0.094 C  
HETATM   12  C   UNL     1     -11.287   8.467  72.049  1.00  0.00    -0.342 C  
HETATM   13  N   UNL     1     -11.967  10.314  69.956  1.00  0.00    -0.426 N  
HETATM   14  H   UNL     1     -12.256  10.993  69.251  1.00  0.00     0.000 HD 
HETATM   15  N   UNL     1     -10.009   7.304  70.371  1.00  0.00    -0.190 NA 
HETATM   16  C   UNL     1     -12.333  10.513  71.254  1.00  0.00    -0.397 C  
HETATM   17  N   UNL     1     -12.054   9.576  72.204  1.00  0.00    -0.254 N  
HETATM   18  O   UNL     1     -10.992   7.708  72.957  1.00  0.00    -0.371 OA 
HETATM   19  C   UNL     1     -10.809   8.289  70.638  1.00  0.00    -0.236 A  
HETATM   20  O   UNL     1     -12.918  11.532  71.605  1.00  0.00    -0.437 OA 
ENDROOT
BRANCH   7  21
HETATM   21  C   UNL     1     -10.777  10.273  67.346  1.00  0.00    -0.281 C  
BRANCH  21  22
HETATM   22  C   UNL     1      -9.604  11.203  67.722  1.00  0.00    -0.172 C  
HETATM   23  O   UNL     1     -10.072  12.235  68.588  1.00  0.00    -0.302 OA 
HETATM   24  H   UNL     1      -9.350  12.808  68.819  1.00  0.00     0.000 HD 
BRANCH  22  25
HETATM   25  C   UNL     1      -8.841  11.813  66.522  1.00  0.00    -0.183 C  
HETATM   26  O   UNL     1      -8.914  13.253  66.603  1.00  0.00    -0.368 OA 
HETATM   27  H   UNL     1      -8.445  13.627  65.866  1.00  0.00     0.000 HD 
BRANCH  25  28
HETATM   28  C   UNL     1      -9.249  11.393  65.088  1.00  0.00    -0.103 C  
HETATM   29  O   UNL     1      -8.082  10.844  64.426  1.00  0.00    -0.366 OA 
HETATM   30  H   UNL     1      -8.332  10.586  63.547  1.00  0.00     0.000 HD 
BRANCH  28  31
HETATM   31  C   UNL     1      -9.825  12.497  64.191  1.00  0.00    -0.095 C  
BRANCH  31  32
HETATM   32  O   UNL     1     -10.997  11.961  63.563  1.00  0.00    -0.396 OA 
HETATM   33  P   UNL     1     -12.409  12.621  63.912  1.00  0.00    -0.441 P  
HETATM   34  O   UNL     1     -12.609  12.403  65.481  1.00  0.00    -0.616 OA 
HETATM   35  O   UNL     1     -13.505  11.654  63.273  1.00  0.00    -0.363 OA 
HETATM   36  O   UNL     1     -12.600  14.041  63.511  1.00  0.00    -0.842 OA 
ENDBRANCH  31  32
ENDBRANCH  28  31
ENDBRANCH  25  28
ENDBRANCH  22  25
ENDBRANCH  21  22
ENDBRANCH   7  21
TORSDOF 6
ENDMDL
MODEL       95
REMARK 921   NORMALIZED FREE ENERGY PREDICTED BY IDOCK:   -5.37 KCAL/MOL
REMARK 922        TOTAL FREE ENERGY PREDICTED BY IDOCK:   -9.59 KCAL/MOL
REMARK 923 INTER-LIGAND FREE ENERGY PREDICTED BY IDOCK:   -7.97 KCAL/MOL
REMARK 924 INTRA-LIGAND FREE ENERGY PREDICTED BY IDOCK:   -1.63 KCAL/MOL
REMARK 927      BINDING AFFINITY PREDICTED BY RF-SCORE:    0.00 PKD
ROOT
HETATM    1  C   UNL     1      -8.796   9.236  62.508  1.00  0.00    -0.226 C  
HETATM    2  C   UNL     1      -8.901   9.707  63.931  1.00  0.00    -0.255 A  
HETATM    3  C   UNL     1      -9.590  10.880  64.233  1.00  0.00    -0.318 A  
HETATM    4  C   UNL     1      -9.786  11.265  65.567  1.00  0.00    -0.231 A  
HETATM    5  C   UNL     1      -9.177  10.548  66.625  1.00  0.00    -0.156 A  
HETATM    6  C   UNL     1      -8.305   9.528  66.285  1.00  0.00    -0.117 A  
HETATM    7  N   UNL     1      -9.522  10.814  67.973  1.00  0.00    -0.157 NA 
HETATM    8  H   UNL     1     -12.684  14.788  68.844  1.00  0.00     0.000 HD 
HETATM    9  C   UNL     1      -8.362   8.978  65.000  1.00  0.00    -0.174 A  
HETATM   10  C   UNL     1     -10.424  11.850  68.202  1.00  0.00    -0.207 A  
HETATM   11  C   UNL     1      -8.225   7.480  64.974  1.00  0.00    -0.105 C  
HETATM   12  C   UNL     1     -11.837  13.818  67.272  1.00  0.00    -0.401 C  
HETATM   13  N   UNL     1     -10.858  12.139  69.389  1.00  0.00    -0.453 N  
HETATM   14  H   UNL     1     -10.528  11.590  70.182  1.00  0.00     0.000 HD 
HETATM   15  N   UNL     1     -10.639  12.349  65.787  1.00  0.00    -0.250 NA 
HETATM   16  C   UNL     1     -11.741  13.154  69.610  1.00  0.00    -0.303 C  
HETATM   17  N   UNL     1     -12.124  13.974  68.590  1.00  0.00    -0.339 N  
HETATM   18  O   UNL     1     -12.282  14.531  66.388  1.00  0.00    -0.373 OA 
HETATM   19  C   UNL     1     -10.933  12.649  67.013  1.00  0.00    -0.265 A  
HETATM   20  O   UNL     1     -12.216  13.358  70.722  1.00  0.00    -0.358 OA 
ENDROOT
BRANCH   7  21
HETATM   21  C   UNL     1      -9.469   9.668  68.948  1.00  0.00    -0.157 C  
BRANCH  21  22
HETATM   22  C   UNL     1     -10.707   8.751  68.853  1.00  0.00    -0.087 C  
HETATM   23  O   UNL     1     -11.576   9.007  69.955  1.00  0.00    -0.453 OA 
HETATM   24  H   UNL     1     -12.338   8.442  69.897  1.00  0.00     0.000 HD 
BRANCH  22  25
HETATM   25  C   UNL     1     -10.396   7.239  68.754  1.00  0.00    -0.200 C  
HETATM   26  O   UNL     1     -11.542   6.493  69.218  1.00  0.00    -0.628 OA 
HETATM   27  H   UNL     1     -11.351   5.564  69.156  1.00  0.00     0.000 HD 
BRANCH  25  28
HETATM   28  C   UNL     1      -9.143   6.687  69.476  1.00  0.00    -0.144 C  
HETATM   29  O   UNL     1      -9.067   5.260  69.229  1.00  0.00    -0.105 OA 
HETATM   30  H   UNL     1      -8.298   4.921  69.671  1.00  0.00     0.000 HD 
BRANCH  28  31
HETATM   31  C   UNL     1      -9.075   6.908  70.992  1.00  0.00    -0.155 C  
BRANCH  31  32
HETATM   32  O   UNL     1      -9.777   5.821  71.609  1.00  0.00    -0.159 OA 
HETATM   33  P   UNL     1     -10.947   6.167  72.641  1.00  0.00    -0.268 P  
HETATM   34  O   UNL     1     -10.248   6.972  73.828  1.00  0.00    -0.312 OA 
HETATM   35  O   UNL     1     -11.338   4.781  73.327  1.00  0.00    -0.319 OA 
HETATM   36  O   UNL     1     -12.131   6.884  72.093  1.00  0.00    -0.291 OA 
ENDBRANCH  31  32
ENDBRANCH  28  31
ENDBRANCH  25  28
ENDBRANCH  22  25
ENDBRANCH  21  22
ENDBRANCH   7  21
TORSDOF 6
ENDMDL
MODEL       96
REMARK 921   NORMALIZED FREE ENERGY PREDICTED BY IDOCK:   -5.36 KCAL/MOL
REMARK 922        TOTAL FREE ENERGY PREDICTED BY IDOCK:   -9.59 KCAL/MOL
REMARK 923 INTER-LIGAND FREE ENERGY PREDICTED BY IDOCK:   -8.43 KCAL/MOL
REMARK 924 INTRA-LIGAND FREE ENERGY PREDICTED BY IDOCK:   -1.16 KCAL/MOL
REMARK 927      BINDING AFFINITY PREDICTED BY RF-SCORE:    0.00 PKD
ROOT
HETATM    1  C   UNL     1      -5.651  16.079  68.274  1.00  0.00    -0.110 C  
HETATM    2  C   UNL     1      -6.840  15.222  67.942  1.00  0.00    -0.167 A  
HETATM    3  C   UNL     1      -7.865  15.722  67.141  1.00  0.00    -0.247 A  
HETATM    4  C   UNL     1      -8.920  14.893  66.738  1.00  0.00    -0.268 A  
HETATM    5  C   UNL     1      -9.039  13.576  67.242  1.00  0.00    -0.225 A  
HETATM    6  C   UNL     1      -8.140  13.183  68.219  1.00  0.00    -0.152 A  
HETATM    7  N   UNL     1      -9.988  12.674  66.697  1.00  0.00    -0.237 NA 
HETATM    8  H   UNL     1     -13.259  14.553  63.187  1.00  0.00     0.000 HD 
HETATM    9  C   UNL     1      -6.947  13.893  68.376  1.00  0.00    -0.102 A  
HETATM   10  C   UNL     1     -10.831  13.169  65.705  1.00  0.00    -0.278 A  
HETATM   11  C   UNL     1      -5.746  13.019  68.616  1.00  0.00    -0.069 C  
HETATM   12  C   UNL     1     -11.683  15.181  64.305  1.00  0.00    -0.224 C  
HETATM   13  N   UNL     1     -11.692  12.417  65.093  1.00  0.00    -0.370 N  
HETATM   14  H   UNL     1     -11.755  11.431  65.346  1.00  0.00     0.000 HD 
HETATM   15  N   UNL     1      -9.804  15.419  65.792  1.00  0.00    -0.349 NA 
HETATM   16  C   UNL     1     -12.516  12.904  64.122  1.00  0.00    -0.335 C  
HETATM   17  N   UNL     1     -12.533  14.235  63.829  1.00  0.00    -0.121 N  
HETATM   18  O   UNL     1     -11.683  16.345  63.940  1.00  0.00    -1.085 OA 
HETATM   19  C   UNL     1     -10.716  14.633  65.312  1.00  0.00    -0.381 A  
HETATM   20  O   UNL     1     -13.261  12.166  63.485  1.00  0.00    -0.744 OA 
ENDROOT
BRANCH   7  21
HETATM   21  C   UNL     1      -9.639  11.210  66.691  1.00  0.00    -0.190 C  
BRANCH  21  22
HETATM   22  C   UNL     1     -10.787  10.326  67.222  1.00  0.00    -0.250 C  
HETATM   23  O   UNL     1     -11.684  11.121  67.995  1.00  0.00    -0.517 OA 
HETATM   24  H   UNL     1     -12.391  10.577  68.323  1.00  0.00     0.000 HD 
BRANCH  22  25
HETATM   25  C   UNL     1     -10.338   9.084  68.030  1.00  0.00    -0.224 C  
HETATM   26  O   UNL     1     -11.012   7.918  67.509  1.00  0.00    -0.517 OA 
HETATM   27  H   UNL     1     -10.735   7.156  68.005  1.00  0.00     0.000 HD 
BRANCH  25  28
HETATM   28  C   UNL     1     -10.514   9.092  69.568  1.00  0.00    -0.219 C  
HETATM   29  O   UNL     1      -9.545  10.010  70.132  1.00  0.00    -0.360 OA 
HETATM   30  H   UNL     1      -9.653  10.015  71.076  1.00  0.00     0.000 HD 
BRANCH  28  31
HETATM   31  C   UNL     1     -10.356   7.742  70.279  1.00  0.00    -0.215 C  
BRANCH  31  32
HETATM   32  O   UNL     1      -9.236   7.078  69.679  1.00  0.00    -0.147 OA 
HETATM   33  P   UNL     1      -7.905   6.909  70.546  1.00  0.00    -0.107 P  
HETATM   34  O   UNL     1      -7.416   8.392  70.875  1.00  0.00    -0.055 OA 
HETATM   35  O   UNL     1      -6.795   6.381  69.530  1.00  0.00    -0.060 OA 
HETATM   36  O   UNL     1      -8.006   6.064  71.767  1.00  0.00    -0.105 OA 
ENDBRANCH  31  32
ENDBRANCH  28  31
ENDBRANCH  25  28
ENDBRANCH  22  25
ENDBRANCH  21  22
ENDBRANCH   7  21
TORSDOF 6
ENDMDL
MODEL       97
REMARK 921   NORMALIZED FREE ENERGY PREDICTED BY IDOCK:   -5.36 KCAL/MOL
REMARK 922        TOTAL FREE ENERGY PREDICTED BY IDOCK:   -9.59 KCAL/MOL
REMARK 923 INTER-LIGAND FREE ENERGY PREDICTED BY IDOCK:   -8.05 KCAL/MOL
REMARK 924 INTRA-LIGAND FREE ENERGY PREDICTED BY IDOCK:   -1.53 KCAL/MOL
REMARK 927      BINDING AFFINITY PREDICTED BY RF-SCORE:    0.00 PKD
ROOT
HETATM    1  C   UNL     1     -12.248  15.429  64.292  1.00  0.00    -0.140 C  
HETATM    2  C   UNL     1     -11.850  14.165  64.999  1.00  0.00    -0.390 A  
HETATM    3  C   UNL     1     -11.283  13.110  64.287  1.00  0.00    -0.422 A  
HETATM    4  C   UNL     1     -10.808  11.974  64.956  1.00  0.00    -0.304 A  
HETATM    5  C   UNL     1     -11.014  11.815  66.348  1.00  0.00    -0.294 A  
HETATM    6  C   UNL     1     -11.788  12.767  66.991  1.00  0.00    -0.428 A  
HETATM    7  N   UNL     1     -10.376  10.769  67.060  1.00  0.00    -0.217 NA 
HETATM    8  H   UNL     1      -7.705   7.340  64.294  1.00  0.00     0.000 HD 
HETATM    9  C   UNL     1     -11.984  14.011  66.386  1.00  0.00    -0.462 A  
HETATM   10  C   UNL     1      -9.605   9.878  66.317  1.00  0.00    -0.209 A  
HETATM   11  C   UNL     1     -11.907  15.170  67.342  1.00  0.00    -0.086 C  
HETATM   12  C   UNL     1      -8.778   9.041  64.005  1.00  0.00    -0.086 C  
HETATM   13  N   UNL     1      -8.926   8.923  66.872  1.00  0.00    -0.125 N  
HETATM   14  H   UNL     1      -8.958   8.820  67.886  1.00  0.00     0.000 HD 
HETATM   15  N   UNL     1     -10.093  11.049  64.192  1.00  0.00    -0.315 NA 
HETATM   16  C   UNL     1      -8.172   8.053  66.143  1.00  0.00    -0.116 C  
HETATM   17  N   UNL     1      -8.187   8.095  64.781  1.00  0.00    -0.150 N  
HETATM   18  O   UNL     1      -8.684   9.083  62.789  1.00  0.00    -0.216 OA 
HETATM   19  C   UNL     1      -9.540  10.052  64.809  1.00  0.00    -0.308 A  
HETATM   20  O   UNL     1      -7.462   7.212  66.684  1.00  0.00    -0.084 OA 
ENDROOT
BRANCH   7  21
HETATM   21  C   UNL     1     -10.010  11.023  68.498  1.00  0.00    -0.193 C  
BRANCH  21  22
HETATM   22  C   UNL     1     -11.152  10.662  69.472  1.00  0.00    -0.274 C  
HETATM   23  O   UNL     1     -11.436  11.782  70.309  1.00  0.00    -0.508 OA 
HETATM   24  H   UNL     1     -12.139  11.560  70.909  1.00  0.00     0.000 HD 
BRANCH  22  25
HETATM   25  C   UNL     1     -10.906   9.399  70.331  1.00  0.00    -0.269 C  
HETATM   26  O   UNL     1     -10.151   8.444  69.554  1.00  0.00    -0.190 OA 
HETATM   27  H   UNL     1     -10.000   7.668  70.082  1.00  0.00     0.000 HD 
BRANCH  25  28
HETATM   28  C   UNL     1     -12.124   8.664  70.941  1.00  0.00    -0.147 C  
HETATM   29  O   UNL     1     -13.253   9.572  70.934  1.00  0.00    -0.553 OA 
HETATM   30  H   UNL     1     -14.001   9.121  71.308  1.00  0.00     0.000 HD 
BRANCH  28  31
HETATM   31  C   UNL     1     -11.954   8.131  72.370  1.00  0.00    -0.372 C  
BRANCH  31  32
HETATM   32  O   UNL     1     -10.671   7.495  72.433  1.00  0.00    -0.228 OA 
HETATM   33  P   UNL     1     -10.572   5.954  72.020  1.00  0.00    -0.237 P  
HETATM   34  O   UNL     1     -11.505   5.173  73.053  1.00  0.00    -0.316 OA 
HETATM   35  O   UNL     1      -9.105   5.491  72.439  1.00  0.00    -0.141 OA 
HETATM   36  O   UNL     1     -10.892   5.619  70.606  1.00  0.00    -0.273 OA 
ENDBRANCH  31  32
ENDBRANCH  28  31
ENDBRANCH  25  28
ENDBRANCH  22  25
ENDBRANCH  21  22
ENDBRANCH   7  21
TORSDOF 6
ENDMDL
MODEL       98
REMARK 921   NORMALIZED FREE ENERGY PREDICTED BY IDOCK:   -5.35 KCAL/MOL
REMARK 922        TOTAL FREE ENERGY PREDICTED BY IDOCK:   -9.57 KCAL/MOL
REMARK 923 INTER-LIGAND FREE ENERGY PREDICTED BY IDOCK:   -8.12 KCAL/MOL
REMARK 924 INTRA-LIGAND FREE ENERGY PREDICTED BY IDOCK:   -1.45 KCAL/MOL
REMARK 927      BINDING AFFINITY PREDICTED BY RF-SCORE:    0.00 PKD
ROOT
HETATM    1  C   UNL     1      -6.632  19.823  69.683  1.00  0.00    -0.378 C  
HETATM    2  C   UNL     1      -7.250  18.759  68.820  1.00  0.00    -0.336 A  
HETATM    3  C   UNL     1      -6.621  17.525  68.670  1.00  0.00    -0.206 A  
HETATM    4  C   UNL     1      -7.245  16.491  67.958  1.00  0.00    -0.143 A  
HETATM    5  C   UNL     1      -8.459  16.719  67.267  1.00  0.00    -0.184 A  
HETATM    6  C   UNL     1      -8.942  18.016  67.235  1.00  0.00    -0.251 A  
HETATM    7  N   UNL     1      -9.189  15.639  66.709  1.00  0.00    -0.233 NA 
HETATM    8  H   UNL     1      -6.991  10.983  66.891  1.00  0.00     0.000 HD 
HETATM    9  C   UNL     1      -8.483  18.940  68.180  1.00  0.00    -0.342 A  
HETATM   10  C   UNL     1      -8.620  14.372  66.813  1.00  0.00    -0.108 A  
HETATM   11  C   UNL     1      -9.563  19.829  68.734  1.00  0.00    -0.391 C  
HETATM   12  C   UNL     1      -6.607  12.884  67.496  1.00  0.00    -0.157 C  
HETATM   13  N   UNL     1      -9.227  13.306  66.394  1.00  0.00    -0.440 N  
HETATM   14  H   UNL     1     -10.152  13.398  65.974  1.00  0.00     0.000 HD 
HETATM   15  N   UNL     1      -6.633  15.236  68.010  1.00  0.00    -0.127 NA 
HETATM   16  C   UNL     1      -8.669  12.067  66.497  1.00  0.00    -0.138 C  
HETATM   17  N   UNL     1      -7.394  11.917  66.957  1.00  0.00    -0.139 N  
HETATM   18  O   UNL     1      -5.505  12.678  67.978  1.00  0.00    -0.069 OA 
HETATM   19  C   UNL     1      -7.252  14.238  67.463  1.00  0.00    -0.176 A  
HETATM   20  O   UNL     1      -9.289  11.057  66.184  1.00  0.00    -0.179 OA 
ENDROOT
BRANCH   7  21
HETATM   21  C   UNL     1     -10.688  15.761  66.655  1.00  0.00    -0.287 C  
BRANCH  21  22
HETATM   22  C   UNL     1     -11.388  14.961  67.774  1.00  0.00    -0.329 C  
HETATM   23  O   UNL     1     -12.646  14.482  67.303  1.00  0.00    -0.508 OA 
HETATM   24  H   UNL     1     -13.077  13.989  67.992  1.00  0.00     0.000 HD 
BRANCH  22  25
HETATM   25  C   UNL     1     -11.568  15.721  69.109  1.00  0.00    -0.392 C  
HETATM   26  O   UNL     1     -10.288  15.821  69.769  1.00  0.00    -0.273 OA 
HETATM   27  H   UNL     1     -10.399  16.288  70.589  1.00  0.00     0.000 HD 
BRANCH  25  28
HETATM   28  C   UNL     1     -12.596  15.188  70.137  1.00  0.00    -0.279 C  
HETATM   29  O   UNL     1     -12.673  16.133  71.234  1.00  0.00    -0.528 OA 
HETATM   30  H   UNL     1     -13.304  15.806  71.865  1.00  0.00     0.000 HD 
BRANCH  28  31
HETATM   31  C   UNL     1     -12.315  13.800  70.728  1.00  0.00    -0.379 C  
BRANCH  31  32
HETATM   32  O   UNL     1     -12.612  12.840  69.706  1.00  0.00     0.035 OA 
HETATM   33  P   UNL     1     -11.665  11.560  69.574  1.00  0.00    -0.377 P  
HETATM   34  O   UNL     1     -10.214  12.133  69.234  1.00  0.00     0.089 OA 
HETATM   35  O   UNL     1     -12.096  10.845  68.215  1.00  0.00    -0.562 OA 
HETATM   36  O   UNL     1     -11.644  10.622  70.729  1.00  0.00    -0.333 OA 
ENDBRANCH  31  32
ENDBRANCH  28  31
ENDBRANCH  25  28
ENDBRANCH  22  25
ENDBRANCH  21  22
ENDBRANCH   7  21
TORSDOF 6
ENDMDL
MODEL       99
REMARK 921   NORMALIZED FREE ENERGY PREDICTED BY IDOCK:   -5.33 KCAL/MOL
REMARK 922        TOTAL FREE ENERGY PREDICTED BY IDOCK:   -9.54 KCAL/MOL
REMARK 923 INTER-LIGAND FREE ENERGY PREDICTED BY IDOCK:   -8.40 KCAL/MOL
REMARK 924 INTRA-LIGAND FREE ENERGY PREDICTED BY IDOCK:   -1.14 KCAL/MOL
REMARK 927      BINDING AFFINITY PREDICTED BY RF-SCORE:    0.00 PKD
ROOT
HETATM    1  C   UNL     1      -5.735  13.323  70.141  1.00  0.00    -0.137 C  
HETATM    2  C   UNL     1      -6.523  12.475  69.183  1.00  0.00    -0.099 A  
HETATM    3  C   UNL     1      -6.584  11.093  69.355  1.00  0.00    -0.109 A  
HETATM    4  C   UNL     1      -7.406  10.311  68.533  1.00  0.00    -0.082 A  
HETATM    5  C   UNL     1      -8.084  10.884  67.431  1.00  0.00    -0.114 A  
HETATM    6  C   UNL     1      -7.820  12.212  67.140  1.00  0.00    -0.160 A  
HETATM    7  N   UNL     1      -9.060  10.145  66.715  1.00  0.00    -0.139 NA 
HETATM    8  H   UNL     1      -9.648   5.189  67.995  1.00  0.00     0.000 HD 
HETATM    9  C   UNL     1      -7.256  13.029  68.124  1.00  0.00    -0.116 A  
HETATM   10  C   UNL     1      -9.259   8.822  67.103  1.00  0.00    -0.136 A  
HETATM   11  C   UNL     1      -7.852  14.409  68.184  1.00  0.00    -0.138 C  
HETATM   12  C   UNL     1      -8.557   6.803  68.573  1.00  0.00    -0.125 C  
HETATM   13  N   UNL     1     -10.168   8.074  66.561  1.00  0.00    -0.468 N  
HETATM   14  H   UNL     1     -10.757   8.465  65.826  1.00  0.00     0.000 HD 
HETATM   15  N   UNL     1      -7.549   8.967  68.887  1.00  0.00    -0.086 NA 
HETATM   16  C   UNL     1     -10.362   6.780  66.943  1.00  0.00    -0.254 C  
HETATM   17  N   UNL     1      -9.529   6.191  67.848  1.00  0.00    -0.116 N  
HETATM   18  O   UNL     1      -7.900   6.248  69.438  1.00  0.00    -0.100 OA 
HETATM   19  C   UNL     1      -8.397   8.251  68.217  1.00  0.00    -0.132 A  
HETATM   20  O   UNL     1     -11.284   6.110  66.490  1.00  0.00    -0.147 OA 
ENDROOT
BRANCH   7  21
HETATM   21  C   UNL     1     -10.207  10.906  66.107  1.00  0.00    -0.249 C  
BRANCH  21  22
HETATM   22  C   UNL     1     -10.204  10.850  64.565  1.00  0.00    -0.356 C  
HETATM   23  O   UNL     1      -8.871  11.011  64.084  1.00  0.00    -0.342 OA 
HETATM   24  H   UNL     1      -8.869  10.977  63.134  1.00  0.00     0.000 HD 
BRANCH  22  25
HETATM   25  C   UNL     1     -11.151  11.858  63.871  1.00  0.00    -0.412 C  
HETATM   26  O   UNL     1     -10.375  12.701  62.991  1.00  0.00    -0.452 OA 
HETATM   27  H   UNL     1     -10.957  13.319  62.565  1.00  0.00     0.000 HD 
BRANCH  25  28
HETATM   28  C   UNL     1     -12.040  12.772  64.748  1.00  0.00    -0.432 C  
HETATM   29  O   UNL     1     -13.418  12.348  64.595  1.00  0.00    -0.671 OA 
HETATM   30  H   UNL     1     -13.964  12.909  65.134  1.00  0.00     0.000 HD 
BRANCH  28  31
HETATM   31  C   UNL     1     -11.972  14.276  64.454  1.00  0.00    -0.456 C  
BRANCH  31  32
HETATM   32  O   UNL     1     -10.656  14.716  64.812  1.00  0.00    -0.421 OA 
HETATM   33  P   UNL     1     -10.511  16.094  65.608  1.00  0.00    -0.298 P  
HETATM   34  O   UNL     1     -11.104  17.214  64.638  1.00  0.00    -1.036 OA 
HETATM   35  O   UNL     1      -8.950  16.421  65.622  1.00  0.00    -0.427 OA 
HETATM   36  O   UNL     1     -11.116  16.148  66.967  1.00  0.00    -0.189 OA 
ENDBRANCH  31  32
ENDBRANCH  28  31
ENDBRANCH  25  28
ENDBRANCH  22  25
ENDBRANCH  21  22
ENDBRANCH   7  21
TORSDOF 6
ENDMDL
MODEL      100
REMARK 921   NORMALIZED FREE ENERGY PREDICTED BY IDOCK:   -5.31 KCAL/MOL
REMARK 922        TOTAL FREE ENERGY PREDICTED BY IDOCK:   -9.52 KCAL/MOL
REMARK 923 INTER-LIGAND FREE ENERGY PREDICTED BY IDOCK:   -7.81 KCAL/MOL
REMARK 924 INTRA-LIGAND FREE ENERGY PREDICTED BY IDOCK:   -1.71 KCAL/MOL
REMARK 927      BINDING AFFINITY PREDICTED BY RF-SCORE:    0.00 PKD
ROOT
HETATM    1  C   UNL     1     -12.225  14.686  64.422  1.00  0.00    -0.473 C  
HETATM    2  C   UNL     1     -11.753  13.544  65.276  1.00  0.00    -0.341 A  
HETATM    3  C   UNL     1     -11.982  13.553  66.651  1.00  0.00    -0.452 A  
HETATM    4  C   UNL     1     -11.644  12.442  67.436  1.00  0.00    -0.365 A  
HETATM    5  C   UNL     1     -10.943  11.347  66.876  1.00  0.00    -0.299 A  
HETATM    6  C   UNL     1     -10.518  11.465  65.563  1.00  0.00    -0.322 A  
HETATM    7  N   UNL     1     -10.767  10.147  67.610  1.00  0.00    -0.267 NA 
HETATM    8  H   UNL     1     -12.347  10.148  72.514  1.00  0.00     0.000 HD 
HETATM    9  C   UNL     1     -11.116  12.419  64.734  1.00  0.00    -0.345 A  
HETATM   10  C   UNL     1     -11.249  10.130  68.917  1.00  0.00    -0.170 A  
HETATM   11  C   UNL     1     -11.388  11.927  63.339  1.00  0.00    -0.465 C  
HETATM   12  C   UNL     1     -12.318  11.398  70.912  1.00  0.00    -0.381 C  
HETATM   13  N   UNL     1     -11.198   9.068  69.658  1.00  0.00    -0.434 N  
HETATM   14  H   UNL     1     -10.792   8.216  69.272  1.00  0.00     0.000 HD 
HETATM   15  N   UNL     1     -12.071  12.460  68.765  1.00  0.00    -0.207 NA 
HETATM   16  C   UNL     1     -11.672   9.053  70.936  1.00  0.00    -0.276 C  
HETATM   17  N   UNL     1     -12.127  10.198  71.519  1.00  0.00    -0.376 N  
HETATM   18  O   UNL     1     -12.816  12.368  71.459  1.00  0.00    -0.366 OA 
HETATM   19  C   UNL     1     -11.878  11.395  69.478  1.00  0.00    -0.357 A  
HETATM   20  O   UNL     1     -11.704   8.020  71.595  1.00  0.00    -0.264 OA 
ENDROOT
BRANCH   7  21
HETATM   21  C   UNL     1     -10.711   8.856  66.839  1.00  0.00    -0.083 C  
BRANCH  21  22
HETATM   22  C   UNL     1      -9.266   8.368  66.604  1.00  0.00    -0.180 C  
HETATM   23  O   UNL     1      -9.010   8.290  65.202  1.00  0.00    -0.390 OA 
HETATM   24  H   UNL     1      -8.120   7.989  65.058  1.00  0.00     0.000 HD 
BRANCH  22  25
HETATM   25  C   UNL     1      -8.907   7.028  67.290  1.00  0.00    -0.119 C  
HETATM   26  O   UNL     1      -9.753   6.853  68.447  1.00  0.00    -0.136 OA 
HETATM   27  H   UNL     1      -9.532   6.030  68.868  1.00  0.00     0.000 HD 
BRANCH  25  28
HETATM   28  C   UNL     1      -7.442   6.784  67.727  1.00  0.00    -0.098 C  
HETATM   29  O   UNL     1      -6.567   7.399  66.749  1.00  0.00    -0.053 OA 
HETATM   30  H   UNL     1      -5.668   7.249  67.017  1.00  0.00     0.000 HD 
BRANCH  28  31
HETATM   31  C   UNL     1      -7.014   5.320  67.890  1.00  0.00    -0.065 C  
BRANCH  31  32
HETATM   32  O   UNL     1      -7.683   4.812  69.052  1.00  0.00    -0.070 OA 
HETATM   33  P   UNL     1      -8.462   3.423  68.928  1.00  0.00    -0.085 P  
HETATM   34  O   UNL     1      -9.598   3.665  67.833  1.00  0.00    -0.184 OA 
HETATM   35  O   UNL     1      -9.292   3.273  70.281  1.00  0.00    -0.143 OA 
HETATM   36  O   UNL     1      -7.639   2.219  68.630  1.00  0.00    -0.047 OA 
ENDBRANCH  31  32
ENDBRANCH  28  31
ENDBRANCH  25  28
ENDBRANCH  22  25
ENDBRANCH  21  22
ENDBRANCH   7  21
TORSDOF 6
ENDMDL
MODEL      101
REMARK 921   NORMALIZED FREE ENERGY PREDICTED BY IDOCK:   -5.30 KCAL/MOL
REMARK 922        TOTAL FREE ENERGY PREDICTED BY IDOCK:   -9.50 KCAL/MOL
REMARK 923 INTER-LIGAND FREE ENERGY PREDICTED BY IDOCK:   -8.01 KCAL/MOL
REMARK 924 INTRA-LIGAND FREE ENERGY PREDICTED BY IDOCK:   -1.49 KCAL/MOL
REMARK 927      BINDING AFFINITY PREDICTED BY RF-SCORE:    0.00 PKD
ROOT
HETATM    1  C   UNL     1     -12.446  13.431  63.235  1.00  0.00    -0.137 C  
HETATM    2  C   UNL     1     -11.799  12.557  64.271  1.00  0.00    -0.468 A  
HETATM    3  C   UNL     1     -11.006  11.478  63.885  1.00  0.00    -0.474 A  
HETATM    4  C   UNL     1     -10.310  10.729  64.843  1.00  0.00    -0.299 A  
HETATM    5  C   UNL     1     -10.502  10.964  66.226  1.00  0.00    -0.245 A  
HETATM    6  C   UNL     1     -11.473  11.882  66.588  1.00  0.00    -0.382 A  
HETATM    7  N   UNL     1      -9.666  10.345  67.189  1.00  0.00    -0.168 NA 
HETATM    8  H   UNL     1      -6.273   6.873  65.463  1.00  0.00     0.000 HD 
HETATM    9  C   UNL     1     -11.921  12.812  65.644  1.00  0.00    -0.503 A  
HETATM   10  C   UNL     1      -8.709   9.452  66.714  1.00  0.00    -0.127 A  
HETATM   11  C   UNL     1     -12.111  14.197  66.199  1.00  0.00    -0.454 C  
HETATM   12  C   UNL     1      -7.682   8.138  64.726  1.00  0.00    -0.123 C  
HETATM   13  N   UNL     1      -7.852   8.877  67.498  1.00  0.00    -0.101 N  
HETATM   14  H   UNL     1      -7.878   9.086  68.496  1.00  0.00     0.000 HD 
HETATM   15  N   UNL     1      -9.400   9.785  64.360  1.00  0.00    -0.256 NA 
HETATM   16  C   UNL     1      -6.916   8.004  67.030  1.00  0.00    -0.074 C  
HETATM   17  N   UNL     1      -6.915   7.622  65.721  1.00  0.00    -0.059 N  
HETATM   18  O   UNL     1      -7.577   7.825  63.552  1.00  0.00    -0.111 OA 
HETATM   19  C   UNL     1      -8.657   9.165  65.222  1.00  0.00    -0.167 A  
HETATM   20  O   UNL     1      -6.051   7.538  67.765  1.00  0.00    -0.040 OA 
ENDROOT
BRANCH   7  21
HETATM   21  C   UNL     1      -9.389  11.098  68.462  1.00  0.00    -0.190 C  
BRANCH  21  22
HETATM   22  C   UNL     1      -8.204  12.078  68.326  1.00  0.00    -0.161 C  
HETATM   23  O   UNL     1      -7.420  12.047  69.518  1.00  0.00    -0.334 OA 
HETATM   24  H   UNL     1      -6.691  12.650  69.434  1.00  0.00     0.000 HD 
BRANCH  22  25
HETATM   25  C   UNL     1      -8.593  13.533  67.976  1.00  0.00    -0.177 C  
HETATM   26  O   UNL     1      -8.477  13.720  66.548  1.00  0.00    -0.424 OA 
HETATM   27  H   UNL     1      -8.717  14.614  66.334  1.00  0.00     0.000 HD 
BRANCH  25  28
HETATM   28  C   UNL     1      -7.842  14.694  68.673  1.00  0.00    -0.138 C  
HETATM   29  O   UNL     1      -8.580  15.062  69.865  1.00  0.00    -0.430 OA 
HETATM   30  H   UNL     1      -8.119  15.774  70.293  1.00  0.00     0.000 HD 
BRANCH  28  31
HETATM   31  C   UNL     1      -7.626  15.965  67.840  1.00  0.00    -0.133 C  
BRANCH  31  32
HETATM   32  O   UNL     1      -8.861  16.694  67.857  1.00  0.00    -0.200 OA 
HETATM   33  P   UNL     1      -9.420  17.263  66.473  1.00  0.00    -0.257 P  
HETATM   34  O   UNL     1      -8.311  18.283  65.948  1.00  0.00    -0.506 OA 
HETATM   35  O   UNL     1     -10.634  18.222  66.862  1.00  0.00    -0.379 OA 
HETATM   36  O   UNL     1      -9.797  16.259  65.441  1.00  0.00    -0.496 OA 
ENDBRANCH  31  32
ENDBRANCH  28  31
ENDBRANCH  25  28
ENDBRANCH  22  25
ENDBRANCH  21  22
ENDBRANCH   7  21
TORSDOF 6
ENDMDL
MODEL      102
REMARK 921   NORMALIZED FREE ENERGY PREDICTED BY IDOCK:   -5.30 KCAL/MOL
REMARK 922        TOTAL FREE ENERGY PREDICTED BY IDOCK:   -9.50 KCAL/MOL
REMARK 923 INTER-LIGAND FREE ENERGY PREDICTED BY IDOCK:   -7.63 KCAL/MOL
REMARK 924 INTRA-LIGAND FREE ENERGY PREDICTED BY IDOCK:   -1.87 KCAL/MOL
REMARK 927      BINDING AFFINITY PREDICTED BY RF-SCORE:    0.00 PKD
ROOT
HETATM    1  C   UNL     1      -9.979   4.580  69.607  1.00  0.00    -0.251 C  
HETATM    2  C   UNL     1      -9.938   5.964  69.023  1.00  0.00    -0.211 A  
HETATM    3  C   UNL     1      -9.303   6.192  67.804  1.00  0.00    -0.109 A  
HETATM    4  C   UNL     1      -9.358   7.456  67.200  1.00  0.00    -0.142 A  
HETATM    5  C   UNL     1      -9.940   8.556  67.875  1.00  0.00    -0.181 A  
HETATM    6  C   UNL     1     -10.352   8.357  69.182  1.00  0.00    -0.229 A  
HETATM    7  N   UNL     1     -10.168   9.782  67.201  1.00  0.00    -0.213 NA 
HETATM    8  H   UNL     1      -8.353  10.186  62.396  1.00  0.00     0.000 HD 
HETATM    9  C   UNL     1     -10.565   7.054  69.641  1.00  0.00    -0.253 A  
HETATM   10  C   UNL     1      -9.730   9.868  65.881  1.00  0.00    -0.262 A  
HETATM   11  C   UNL     1     -11.791   6.905  70.500  1.00  0.00    -0.385 C  
HETATM   12  C   UNL     1      -8.457   8.807  63.884  1.00  0.00    -0.098 C  
HETATM   13  N   UNL     1      -9.942  10.917  65.150  1.00  0.00    -0.263 N  
HETATM   14  H   UNL     1     -10.446  11.707  65.554  1.00  0.00     0.000 HD 
HETATM   15  N   UNL     1      -8.854   7.553  65.901  1.00  0.00    -0.155 NA 
HETATM   16  C   UNL     1      -9.512  10.999  63.859  1.00  0.00    -0.251 C  
HETATM   17  N   UNL     1      -8.747  10.008  63.319  1.00  0.00    -0.198 N  
HETATM   18  O   UNL     1      -7.844   7.917  63.319  1.00  0.00    -0.133 OA 
HETATM   19  C   UNL     1      -9.002   8.679  65.276  1.00  0.00    -0.098 A  
HETATM   20  O   UNL     1      -9.799  11.956  63.148  1.00  0.00    -0.405 OA 
ENDROOT
BRANCH   7  21
HETATM   21  C   UNL     1     -11.353  10.606  67.628  1.00  0.00    -0.207 C  
BRANCH  21  22
HETATM   22  C   UNL     1     -10.956  11.782  68.546  1.00  0.00    -0.227 C  
HETATM   23  O   UNL     1     -11.920  12.828  68.425  1.00  0.00    -0.319 OA 
HETATM   24  H   UNL     1     -11.675  13.552  68.990  1.00  0.00     0.000 HD 
BRANCH  22  25
HETATM   25  C   UNL     1      -9.530  12.338  68.321  1.00  0.00    -0.209 C  
HETATM   26  O   UNL     1      -8.611  11.634  69.185  1.00  0.00    -0.368 OA 
HETATM   27  H   UNL     1      -7.735  11.975  69.046  1.00  0.00     0.000 HD 
BRANCH  25  28
HETATM   28  C   UNL     1      -9.285  13.856  68.497  1.00  0.00    -0.154 C  
HETATM   29  O   UNL     1     -10.386  14.409  69.259  1.00  0.00    -0.362 OA 
HETATM   30  H   UNL     1     -10.236  15.341  69.368  1.00  0.00     0.000 HD 
BRANCH  28  31
HETATM   31  C   UNL     1      -9.142  14.678  67.209  1.00  0.00    -0.206 C  
BRANCH  31  32
HETATM   32  O   UNL     1      -9.885  13.996  66.190  1.00  0.00    -0.292 OA 
HETATM   33  P   UNL     1     -11.132  14.749  65.534  1.00  0.00    -0.371 P  
HETATM   34  O   UNL     1     -12.156  15.005  66.732  1.00  0.00    -0.125 OA 
HETATM   35  O   UNL     1     -11.880  13.652  64.650  1.00  0.00    -0.364 OA 
HETATM   36  O   UNL     1     -10.837  15.991  64.769  1.00  0.00    -0.587 OA 
ENDBRANCH  31  32
ENDBRANCH  28  31
ENDBRANCH  25  28
ENDBRANCH  22  25
ENDBRANCH  21  22
ENDBRANCH   7  21
TORSDOF 6
ENDMDL
MODEL      103
REMARK 921   NORMALIZED FREE ENERGY PREDICTED BY IDOCK:   -5.27 KCAL/MOL
REMARK 922        TOTAL FREE ENERGY PREDICTED BY IDOCK:   -9.46 KCAL/MOL
REMARK 923 INTER-LIGAND FREE ENERGY PREDICTED BY IDOCK:   -8.15 KCAL/MOL
REMARK 924 INTRA-LIGAND FREE ENERGY PREDICTED BY IDOCK:   -1.31 KCAL/MOL
REMARK 927      BINDING AFFINITY PREDICTED BY RF-SCORE:    0.00 PKD
ROOT
HETATM    1  C   UNL     1      -7.663   7.664  62.762  1.00  0.00    -0.123 C  
HETATM    2  C   UNL     1      -7.957   8.840  63.648  1.00  0.00    -0.158 A  
HETATM    3  C   UNL     1      -9.049   9.664  63.383  1.00  0.00    -0.213 A  
HETATM    4  C   UNL     1      -9.393  10.695  64.268  1.00  0.00    -0.258 A  
HETATM    5  C   UNL     1      -8.566  11.007  65.374  1.00  0.00    -0.068 A  
HETATM    6  C   UNL     1      -7.363  10.328  65.481  1.00  0.00    -0.149 A  
HETATM    7  N   UNL     1      -9.001  11.913  66.373  1.00  0.00    -0.200 NA 
HETATM    8  H   UNL     1     -13.463  14.352  65.539  1.00  0.00     0.000 HD 
HETATM    9  C   UNL     1      -7.190   9.128  64.786  1.00  0.00    -0.097 A  
HETATM   10  C   UNL     1     -10.236  12.526  66.174  1.00  0.00    -0.252 A  
HETATM   11  C   UNL     1      -6.484   8.063  65.579  1.00  0.00    -0.045 C  
HETATM   12  C   UNL     1     -12.290  12.953  64.647  1.00  0.00    -0.439 C  
HETATM   13  N   UNL     1     -10.761  13.323  67.052  1.00  0.00    -0.259 N  
HETATM   14  H   UNL     1     -10.252  13.508  67.916  1.00  0.00     0.000 HD 
HETATM   15  N   UNL     1     -10.602  11.353  64.025  1.00  0.00    -0.356 NA 
HETATM   16  C   UNL     1     -11.969  13.921  66.855  1.00  0.00    -0.433 C  
HETATM   17  N   UNL     1     -12.629  13.779  65.670  1.00  0.00    -0.510 N  
HETATM   18  O   UNL     1     -12.966  12.796  63.644  1.00  0.00    -0.663 OA 
HETATM   19  C   UNL     1     -11.002  12.226  64.896  1.00  0.00    -0.302 A  
HETATM   20  O   UNL     1     -12.498  14.599  67.730  1.00  0.00    -0.032 OA 
ENDROOT
BRANCH   7  21
HETATM   21  C   UNL     1      -8.520  11.687  67.781  1.00  0.00    -0.144 C  
BRANCH  21  22
HETATM   22  C   UNL     1      -9.581  11.001  68.667  1.00  0.00    -0.195 C  
HETATM   23  O   UNL     1      -8.949  10.433  69.814  1.00  0.00    -0.383 OA 
HETATM   24  H   UNL     1      -9.603  10.010  70.359  1.00  0.00     0.000 HD 
BRANCH  22  25
HETATM   25  C   UNL     1     -10.448   9.939  67.950  1.00  0.00    -0.236 C  
HETATM   26  O   UNL     1     -11.821  10.096  68.366  1.00  0.00    -0.676 OA 
HETATM   27  H   UNL     1     -12.353   9.444  67.925  1.00  0.00     0.000 HD 
BRANCH  25  28
HETATM   28  C   UNL     1     -10.070   8.445  68.097  1.00  0.00    -0.200 C  
HETATM   29  O   UNL     1     -10.183   7.817  66.796  1.00  0.00    -0.281 OA 
HETATM   30  H   UNL     1      -9.951   6.900  66.886  1.00  0.00     0.000 HD 
BRANCH  28  31
HETATM   31  C   UNL     1     -10.904   7.626  69.091  1.00  0.00    -0.068 C  
BRANCH  31  32
HETATM   32  O   UNL     1     -10.208   7.649  70.344  1.00  0.00    -0.199 OA 
HETATM   33  P   UNL     1     -11.003   8.140  71.640  1.00  0.00    -0.286 P  
HETATM   34  O   UNL     1     -11.423   9.650  71.339  1.00  0.00    -0.356 OA 
HETATM   35  O   UNL     1      -9.904   8.294  72.786  1.00  0.00    -0.274 OA 
HETATM   36  O   UNL     1     -12.160   7.308  72.070  1.00  0.00    -0.296 OA 
ENDBRANCH  31  32
ENDBRANCH  28  31
ENDBRANCH  25  28
ENDBRANCH  22  25
ENDBRANCH  21  22
ENDBRANCH   7  21
TORSDOF 6
ENDMDL
MODEL      104
REMARK 921   NORMALIZED FREE ENERGY PREDICTED BY IDOCK:   -5.24 KCAL/MOL
REMARK 922        TOTAL FREE ENERGY PREDICTED BY IDOCK:   -9.43 KCAL/MOL
REMARK 923 INTER-LIGAND FREE ENERGY PREDICTED BY IDOCK:   -8.54 KCAL/MOL
REMARK 924 INTRA-LIGAND FREE ENERGY PREDICTED BY IDOCK:   -0.89 KCAL/MOL
REMARK 927      BINDING AFFINITY PREDICTED BY RF-SCORE:    0.00 PKD
ROOT
HETATM    1  C   UNL     1      -6.563   5.382  67.803  1.00  0.00    -0.053 C  
HETATM    2  C   UNL     1      -7.713   6.343  67.908  1.00  0.00    -0.104 A  
HETATM    3  C   UNL     1      -8.497   6.377  69.059  1.00  0.00    -0.124 A  
HETATM    4  C   UNL     1      -9.499   7.345  69.208  1.00  0.00    -0.154 A  
HETATM    5  C   UNL     1      -9.826   8.219  68.144  1.00  0.00    -0.172 A  
HETATM    6  C   UNL     1      -9.194   8.009  66.929  1.00  0.00    -0.191 A  
HETATM    7  N   UNL     1     -10.698   9.317  68.349  1.00  0.00    -0.185 NA 
HETATM    8  H   UNL     1     -12.973   9.673  72.958  1.00  0.00     0.000 HD 
HETATM    9  C   UNL     1      -8.012   7.263  66.893  1.00  0.00    -0.112 A  
HETATM   10  C   UNL     1     -11.265   9.445  69.615  1.00  0.00    -0.074 A  
HETATM   11  C   UNL     1      -6.963   7.830  65.976  1.00  0.00    -0.061 C  
HETATM   12  C   UNL     1     -11.636   8.484  71.996  1.00  0.00    -0.362 C  
HETATM   13  N   UNL     1     -12.027  10.445  69.932  1.00  0.00    -0.431 N  
HETATM   14  H   UNL     1     -12.219  11.161  69.232  1.00  0.00     0.000 HD 
HETATM   15  N   UNL     1     -10.113   7.424  70.461  1.00  0.00    -0.191 NA 
HETATM   16  C   UNL     1     -12.580  10.568  71.172  1.00  0.00    -0.417 C  
HETATM   17  N   UNL     1     -12.431   9.580  72.099  1.00  0.00    -0.336 N  
HETATM   18  O   UNL     1     -11.467   7.676  72.894  1.00  0.00    -0.354 OA 
HETATM   19  C   UNL     1     -10.956   8.388  70.662  1.00  0.00    -0.243 A  
HETATM   20  O   UNL     1     -13.223  11.563  71.490  1.00  0.00    -0.372 OA 
ENDROOT
BRANCH   7  21
HETATM   21  C   UNL     1     -10.470  10.557  67.526  1.00  0.00    -0.239 C  
BRANCH  21  22
HETATM   22  C   UNL     1      -9.361  11.459  68.109  1.00  0.00    -0.181 C  
HETATM   23  O   UNL     1      -9.043  11.030  69.432  1.00  0.00    -0.395 OA 
HETATM   24  H   UNL     1      -8.361  11.585  69.790  1.00  0.00     0.000 HD 
BRANCH  22  25
HETATM   25  C   UNL     1      -9.676  12.974  68.097  1.00  0.00    -0.228 C  
HETATM   26  O   UNL     1     -11.104  13.157  68.202  1.00  0.00    -0.235 OA 
HETATM   27  H   UNL     1     -11.296  14.088  68.195  1.00  0.00     0.000 HD 
BRANCH  25  28
HETATM   28  C   UNL     1      -9.169  13.831  66.911  1.00  0.00    -0.255 C  
HETATM   29  O   UNL     1      -8.173  14.757  67.412  1.00  0.00    -0.168 OA 
HETATM   30  H   UNL     1      -7.862  15.283  66.685  1.00  0.00     0.000 HD 
BRANCH  28  31
HETATM   31  C   UNL     1     -10.229  14.641  66.153  1.00  0.00    -0.301 C  
BRANCH  31  32
HETATM   32  O   UNL     1     -10.401  14.017  64.874  1.00  0.00    -0.404 OA 
HETATM   33  P   UNL     1     -11.884  13.648  64.408  1.00  0.00    -0.430 P  
HETATM   34  O   UNL     1     -12.425  12.603  65.486  1.00  0.00    -0.622 OA 
HETATM   35  O   UNL     1     -11.712  12.755  63.097  1.00  0.00    -0.472 OA 
HETATM   36  O   UNL     1     -12.823  14.784  64.203  1.00  0.00    -0.678 OA 
ENDBRANCH  31  32
ENDBRANCH  28  31
ENDBRANCH  25  28
ENDBRANCH  22  25
ENDBRANCH  21  22
ENDBRANCH   7  21
TORSDOF 6
ENDMDL
MODEL      105
REMARK 921   NORMALIZED FREE ENERGY PREDICTED BY IDOCK:   -5.23 KCAL/MOL
REMARK 922        TOTAL FREE ENERGY PREDICTED BY IDOCK:   -9.41 KCAL/MOL
REMARK 923 INTER-LIGAND FREE ENERGY PREDICTED BY IDOCK:   -8.20 KCAL/MOL
REMARK 924 INTRA-LIGAND FREE ENERGY PREDICTED BY IDOCK:   -1.22 KCAL/MOL
REMARK 927      BINDING AFFINITY PREDICTED BY RF-SCORE:    0.00 PKD
ROOT
HETATM    1  C   UNL     1      -5.353  14.129  68.978  1.00  0.00    -0.081 C  
HETATM    2  C   UNL     1      -6.603  13.493  68.439  1.00  0.00    -0.095 A  
HETATM    3  C   UNL     1      -7.527  14.255  67.727  1.00  0.00    -0.175 A  
HETATM    4  C   UNL     1      -8.638  13.647  67.127  1.00  0.00    -0.192 A  
HETATM    5  C   UNL     1      -8.918  12.276  67.344  1.00  0.00    -0.183 A  
HETATM    6  C   UNL     1      -8.117  11.597  68.247  1.00  0.00    -0.150 A  
HETATM    7  N   UNL     1      -9.922  11.614  66.594  1.00  0.00    -0.200 NA 
HETATM    8  H   UNL     1     -12.792  14.513  63.447  1.00  0.00     0.000 HD 
HETATM    9  C   UNL     1      -6.868  12.125  68.585  1.00  0.00    -0.089 A  
HETATM   10  C   UNL     1     -10.656  12.389  65.700  1.00  0.00    -0.265 A  
HETATM   11  C   UNL     1      -5.777  11.093  68.677  1.00  0.00    -0.042 C  
HETATM   12  C   UNL     1     -11.223  14.724  64.720  1.00  0.00    -0.385 C  
HETATM   13  N   UNL     1     -11.555  11.876  64.919  1.00  0.00    -0.271 N  
HETATM   14  H   UNL     1     -11.731  10.872  64.961  1.00  0.00     0.000 HD 
HETATM   15  N   UNL     1      -9.412  14.447  66.283  1.00  0.00    -0.290 NA 
HETATM   16  C   UNL     1     -12.272  12.636  64.044  1.00  0.00    -0.463 C  
HETATM   17  N   UNL     1     -12.138  13.993  64.032  1.00  0.00    -0.437 N  
HETATM   18  O   UNL     1     -11.085  15.930  64.604  1.00  0.00    -0.476 OA 
HETATM   19  C   UNL     1     -10.372  13.880  65.622  1.00  0.00    -0.325 A  
HETATM   20  O   UNL     1     -13.053  12.129  63.245  1.00  0.00    -0.693 OA 
ENDROOT
BRANCH   7  21
HETATM   21  C   UNL     1      -9.724  10.152  66.297  1.00  0.00    -0.218 C  
BRANCH  21  22
HETATM   22  C   UNL     1     -10.730   9.253  67.048  1.00  0.00    -0.129 C  
HETATM   23  O   UNL     1     -11.335   9.994  68.106  1.00  0.00    -0.509 OA 
HETATM   24  H   UNL     1     -11.954   9.441  68.569  1.00  0.00     0.000 HD 
BRANCH  22  25
HETATM   25  C   UNL     1     -10.148   7.925  67.587  1.00  0.00    -0.203 C  
HETATM   26  O   UNL     1     -11.233   7.007  67.845  1.00  0.00    -0.520 OA 
HETATM   27  H   UNL     1     -10.875   6.192  68.176  1.00  0.00     0.000 HD 
BRANCH  25  28
HETATM   28  C   UNL     1      -9.243   7.962  68.842  1.00  0.00    -0.144 C  
HETATM   29  O   UNL     1      -7.862   8.029  68.406  1.00  0.00    -0.117 OA 
HETATM   30  H   UNL     1      -7.307   8.053  69.177  1.00  0.00     0.000 HD 
BRANCH  28  31
HETATM   31  C   UNL     1      -9.375   6.783  69.814  1.00  0.00    -0.145 C  
BRANCH  31  32
HETATM   32  O   UNL     1      -9.822   7.317  71.068  1.00  0.00    -0.183 OA 
HETATM   33  P   UNL     1     -11.120   6.675  71.743  1.00  0.00    -0.276 P  
HETATM   34  O   UNL     1     -12.309   6.922  70.707  1.00  0.00    -0.376 OA 
HETATM   35  O   UNL     1     -11.494   7.639  72.957  1.00  0.00    -0.342 OA 
HETATM   36  O   UNL     1     -11.021   5.249  72.158  1.00  0.00    -0.223 OA 
ENDBRANCH  31  32
ENDBRANCH  28  31
ENDBRANCH  25  28
ENDBRANCH  22  25
ENDBRANCH  21  22
ENDBRANCH   7  21
TORSDOF 6
ENDMDL
MODEL      106
REMARK 921   NORMALIZED FREE ENERGY PREDICTED BY IDOCK:   -5.22 KCAL/MOL
REMARK 922        TOTAL FREE ENERGY PREDICTED BY IDOCK:   -9.40 KCAL/MOL
REMARK 923 INTER-LIGAND FREE ENERGY PREDICTED BY IDOCK:   -8.37 KCAL/MOL
REMARK 924 INTRA-LIGAND FREE ENERGY PREDICTED BY IDOCK:   -1.03 KCAL/MOL
REMARK 927      BINDING AFFINITY PREDICTED BY RF-SCORE:    0.00 PKD
ROOT
HETATM    1  C   UNL     1      -9.737  19.983  66.564  1.00  0.00    -0.564 C  
HETATM    2  C   UNL     1      -9.719  18.484  66.664  1.00  0.00    -0.353 A  
HETATM    3  C   UNL     1     -10.575  17.717  65.876  1.00  0.00    -0.205 A  
HETATM    4  C   UNL     1     -10.485  16.319  65.883  1.00  0.00    -0.345 A  
HETATM    5  C   UNL     1      -9.621  15.653  66.785  1.00  0.00    -0.240 A  
HETATM    6  C   UNL     1      -8.956  16.428  67.721  1.00  0.00    -0.198 A  
HETATM    7  N   UNL     1      -9.385  14.260  66.669  1.00  0.00    -0.280 NA 
HETATM    8  H   UNL     1     -12.162  11.697  63.167  1.00  0.00     0.000 HD 
HETATM    9  C   UNL     1      -8.826  17.802  67.502  1.00  0.00    -0.243 A  
HETATM   10  C   UNL     1     -10.093  13.580  65.681  1.00  0.00    -0.278 A  
HETATM   11  C   UNL     1      -7.470  18.348  67.858  1.00  0.00    -0.245 C  
HETATM   12  C   UNL     1     -11.915  13.600  63.834  1.00  0.00    -0.408 C  
HETATM   13  N   UNL     1      -9.909  12.319  65.444  1.00  0.00    -0.353 N  
HETATM   14  H   UNL     1      -9.224  11.807  65.999  1.00  0.00     0.000 HD 
HETATM   15  N   UNL     1     -11.250  15.637  64.933  1.00  0.00    -0.399 NA 
HETATM   16  C   UNL     1     -10.603  11.656  64.476  1.00  0.00    -0.318 C  
HETATM   17  N   UNL     1     -11.598  12.281  63.784  1.00  0.00    -0.428 N  
HETATM   18  O   UNL     1     -12.756  14.128  63.124  1.00  0.00    -0.627 OA 
HETATM   19  C   UNL     1     -11.094  14.354  64.838  1.00  0.00    -0.398 A  
HETATM   20  O   UNL     1     -10.356  10.487  64.197  1.00  0.00    -0.313 OA 
ENDROOT
BRANCH   7  21
HETATM   21  C   UNL     1      -8.033  13.743  67.081  1.00  0.00    -0.044 C  
BRANCH  21  22
HETATM   22  C   UNL     1      -8.111  12.364  67.771  1.00  0.00    -0.162 C  
HETATM   23  O   UNL     1      -8.132  12.539  69.187  1.00  0.00    -0.320 OA 
HETATM   24  H   UNL     1      -8.180  11.691  69.611  1.00  0.00     0.000 HD 
BRANCH  22  25
HETATM   25  C   UNL     1      -7.000  11.366  67.369  1.00  0.00    -0.106 C  
HETATM   26  O   UNL     1      -6.068  12.031  66.489  1.00  0.00    -0.470 OA 
HETATM   27  H   UNL     1      -5.385  11.418  66.243  1.00  0.00     0.000 HD 
BRANCH  25  28
HETATM   28  C   UNL     1      -7.405  10.024  66.712  1.00  0.00    -0.095 C  
HETATM   29  O   UNL     1      -7.597  10.252  65.294  1.00  0.00    -0.141 OA 
HETATM   30  H   UNL     1      -7.845   9.429  64.890  1.00  0.00     0.000 HD 
BRANCH  28  31
HETATM   31  C   UNL     1      -8.670   9.351  67.259  1.00  0.00    -0.128 C  
BRANCH  31  32
HETATM   32  O   UNL     1      -8.280   8.066  67.763  1.00  0.00    -0.125 OA 
HETATM   33  P   UNL     1      -9.020   6.773  67.186  1.00  0.00    -0.121 P  
HETATM   34  O   UNL     1     -10.558   6.951  67.572  1.00  0.00    -0.215 OA 
HETATM   35  O   UNL     1      -8.554   5.562  68.114  1.00  0.00    -0.101 OA 
HETATM   36  O   UNL     1      -8.831   6.485  65.738  1.00  0.00    -0.148 OA 
ENDBRANCH  31  32
ENDBRANCH  28  31
ENDBRANCH  25  28
ENDBRANCH  22  25
ENDBRANCH  21  22
ENDBRANCH   7  21
TORSDOF 6
ENDMDL
MODEL      107
REMARK 921   NORMALIZED FREE ENERGY PREDICTED BY IDOCK:   -5.22 KCAL/MOL
REMARK 922        TOTAL FREE ENERGY PREDICTED BY IDOCK:   -9.39 KCAL/MOL
REMARK 923 INTER-LIGAND FREE ENERGY PREDICTED BY IDOCK:   -7.70 KCAL/MOL
REMARK 924 INTRA-LIGAND FREE ENERGY PREDICTED BY IDOCK:   -1.69 KCAL/MOL
REMARK 927      BINDING AFFINITY PREDICTED BY RF-SCORE:    0.00 PKD
ROOT
HETATM    1  C   UNL     1      -7.642   7.422  62.853  1.00  0.00    -0.113 C  
HETATM    2  C   UNL     1      -7.898   8.637  63.699  1.00  0.00    -0.148 A  
HETATM    3  C   UNL     1      -9.022   9.427  63.470  1.00  0.00    -0.148 A  
HETATM    4  C   UNL     1      -9.325  10.496  64.325  1.00  0.00    -0.267 A  
HETATM    5  C   UNL     1      -8.429  10.878  65.353  1.00  0.00    -0.088 A  
HETATM    6  C   UNL     1      -7.209  10.226  65.409  1.00  0.00    -0.143 A  
HETATM    7  N   UNL     1      -8.813  11.826  66.333  1.00  0.00    -0.191 NA 
HETATM    8  H   UNL     1     -13.370  14.145  65.695  1.00  0.00     0.000 HD 
HETATM    9  C   UNL     1      -7.060   8.995  64.764  1.00  0.00    -0.092 A  
HETATM   10  C   UNL     1     -10.071  12.408  66.191  1.00  0.00    -0.248 A  
HETATM   11  C   UNL     1      -6.278   7.984  65.557  1.00  0.00    -0.038 C  
HETATM   12  C   UNL     1     -12.234  12.722  64.793  1.00  0.00    -0.459 C  
HETATM   13  N   UNL     1     -10.549  13.239  67.063  1.00  0.00    -0.259 N  
HETATM   14  H   UNL     1      -9.986  13.477  67.879  1.00  0.00     0.000 HD 
HETATM   15  N   UNL     1     -10.560  11.120  64.134  1.00  0.00    -0.364 NA 
HETATM   16  C   UNL     1     -11.781  13.806  66.922  1.00  0.00    -0.395 C  
HETATM   17  N   UNL     1     -12.518  13.593  65.795  1.00  0.00    -0.476 N  
HETATM   18  O   UNL     1     -12.975  12.502  63.849  1.00  0.00    -0.730 OA 
HETATM   19  C   UNL     1     -10.917  12.030  64.986  1.00  0.00    -0.306 A  
HETATM   20  O   UNL     1     -12.262  14.519  67.797  1.00  0.00    -0.287 OA 
ENDROOT
BRANCH   7  21
HETATM   21  C   UNL     1      -8.231  11.681  67.713  1.00  0.00    -0.141 C  
BRANCH  21  22
HETATM   22  C   UNL     1      -8.918  10.568  68.533  1.00  0.00    -0.147 C  
HETATM   23  O   UNL     1     -10.014  11.120  69.261  1.00  0.00    -0.393 OA 
HETATM   24  H   UNL     1     -10.437  10.435  69.766  1.00  0.00     0.000 HD 
BRANCH  22  25
HETATM   25  C   UNL     1      -7.984   9.781  69.482  1.00  0.00    -0.137 C  
HETATM   26  O   UNL     1      -6.684   9.659  68.866  1.00  0.00    -0.047 OA 
HETATM   27  H   UNL     1      -6.110   9.176  69.449  1.00  0.00     0.000 HD 
BRANCH  25  28
HETATM   28  C   UNL     1      -8.420   8.375  69.961  1.00  0.00    -0.125 C  
HETATM   29  O   UNL     1      -9.546   7.949  69.153  1.00  0.00    -0.152 OA 
HETATM   30  H   UNL     1      -9.814   7.086  69.446  1.00  0.00     0.000 HD 
BRANCH  28  31
HETATM   31  C   UNL     1      -8.824   8.251  71.436  1.00  0.00    -0.162 C  
BRANCH  31  32
HETATM   32  O   UNL     1      -9.951   9.113  71.638  1.00  0.00    -0.316 OA 
HETATM   33  P   UNL     1     -11.341   8.450  72.066  1.00  0.00    -0.386 P  
HETATM   34  O   UNL     1     -11.738   7.476  70.866  1.00  0.00    -0.289 OA 
HETATM   35  O   UNL     1     -12.424   9.616  71.957  1.00  0.00    -0.370 OA 
HETATM   36  O   UNL     1     -11.375   7.764  73.386  1.00  0.00    -0.287 OA 
ENDBRANCH  31  32
ENDBRANCH  28  31
ENDBRANCH  25  28
ENDBRANCH  22  25
ENDBRANCH  21  22
ENDBRANCH   7  21
TORSDOF 6
ENDMDL
MODEL      108
REMARK 921   NORMALIZED FREE ENERGY PREDICTED BY IDOCK:   -5.18 KCAL/MOL
REMARK 922        TOTAL FREE ENERGY PREDICTED BY IDOCK:   -9.34 KCAL/MOL
REMARK 923 INTER-LIGAND FREE ENERGY PREDICTED BY IDOCK:   -7.91 KCAL/MOL
REMARK 924 INTRA-LIGAND FREE ENERGY PREDICTED BY IDOCK:   -1.43 KCAL/MOL
REMARK 927      BINDING AFFINITY PREDICTED BY RF-SCORE:    0.00 PKD
ROOT
HETATM    1  C   UNL     1     -12.621   7.402  72.068  1.00  0.00    -0.262 C  
HETATM    2  C   UNL     1     -11.768   7.900  70.936  1.00  0.00    -0.271 A  
HETATM    3  C   UNL     1     -11.107   6.997  70.104  1.00  0.00    -0.323 A  
HETATM    4  C   UNL     1     -10.402   7.451  68.981  1.00  0.00    -0.210 A  
HETATM    5  C   UNL     1     -10.232   8.836  68.744  1.00  0.00    -0.206 A  
HETATM    6  C   UNL     1     -10.696   9.711  69.712  1.00  0.00    -0.269 A  
HETATM    7  N   UNL     1      -9.689   9.300  67.520  1.00  0.00    -0.152 NA 
HETATM    8  H   UNL     1      -7.936   5.739  64.234  1.00  0.00     0.000 HD 
HETATM    9  C   UNL     1     -11.639   9.264  70.642  1.00  0.00    -0.305 A  
HETATM   10  C   UNL     1      -9.271   8.334  66.608  1.00  0.00    -0.179 A  
HETATM   11  C   UNL     1     -12.727  10.262  70.932  1.00  0.00    -0.462 C  
HETATM   12  C   UNL     1      -8.846   5.836  66.048  1.00  0.00    -0.148 C  
HETATM   13  N   UNL     1      -8.818   8.643  65.433  1.00  0.00    -0.281 N  
HETATM   14  H   UNL     1      -8.765   9.626  65.167  1.00  0.00     0.000 HD 
HETATM   15  N   UNL     1      -9.925   6.474  68.104  1.00  0.00    -0.134 NA 
HETATM   16  C   UNL     1      -8.410   7.696  64.542  1.00  0.00     0.029 C  
HETATM   17  N   UNL     1      -8.369   6.380  64.899  1.00  0.00    -0.105 N  
HETATM   18  O   UNL     1      -8.868   4.638  66.278  1.00  0.00    -0.113 OA 
HETATM   19  C   UNL     1      -9.376   6.869  66.998  1.00  0.00    -0.145 A  
HETATM   20  O   UNL     1      -8.071   7.993  63.401  1.00  0.00    -0.154 OA 
ENDROOT
BRANCH   7  21
HETATM   21  C   UNL     1     -10.166  10.630  67.002  1.00  0.00    -0.220 C  
BRANCH  21  22
HETATM   22  C   UNL     1      -9.055  11.701  67.005  1.00  0.00    -0.179 C  
HETATM   23  O   UNL     1      -7.985  11.276  67.848  1.00  0.00    -0.111 OA 
HETATM   24  H   UNL     1      -7.301  11.935  67.851  1.00  0.00     0.000 HD 
BRANCH  22  25
HETATM   25  C   UNL     1      -9.516  13.124  67.400  1.00  0.00    -0.214 C  
HETATM   26  O   UNL     1     -10.940  13.105  67.642  1.00  0.00    -0.251 OA 
HETATM   27  H   UNL     1     -11.223  13.979  67.885  1.00  0.00     0.000 HD 
BRANCH  25  28
HETATM   28  C   UNL     1      -9.209  14.300  66.442  1.00  0.00    -0.199 C  
HETATM   29  O   UNL     1      -8.941  15.480  67.240  1.00  0.00    -0.188 OA 
HETATM   30  H   UNL     1      -8.753  16.201  66.652  1.00  0.00     0.000 HD 
BRANCH  28  31
HETATM   31  C   UNL     1     -10.303  14.656  65.426  1.00  0.00    -0.383 C  
BRANCH  31  32
HETATM   32  O   UNL     1     -10.582  13.467  64.674  1.00  0.00    -0.387 OA 
HETATM   33  P   UNL     1     -12.077  13.230  64.164  1.00  0.00    -0.413 P  
HETATM   34  O   UNL     1     -12.970  13.138  65.484  1.00  0.00    -0.536 OA 
HETATM   35  O   UNL     1     -12.109  11.737  63.605  1.00  0.00    -0.458 OA 
HETATM   36  O   UNL     1     -12.615  14.215  63.187  1.00  0.00    -0.686 OA 
ENDBRANCH  31  32
ENDBRANCH  28  31
ENDBRANCH  25  28
ENDBRANCH  22  25
ENDBRANCH  21  22
ENDBRANCH   7  21
TORSDOF 6
ENDMDL
MODEL      109
REMARK 921   NORMALIZED FREE ENERGY PREDICTED BY IDOCK:   -5.18 KCAL/MOL
REMARK 922        TOTAL FREE ENERGY PREDICTED BY IDOCK:   -9.34 KCAL/MOL
REMARK 923 INTER-LIGAND FREE ENERGY PREDICTED BY IDOCK:   -8.28 KCAL/MOL
REMARK 924 INTRA-LIGAND FREE ENERGY PREDICTED BY IDOCK:   -1.06 KCAL/MOL
REMARK 927      BINDING AFFINITY PREDICTED BY RF-SCORE:    0.00 PKD
ROOT
HETATM    1  C   UNL     1     -11.022  15.600  64.712  1.00  0.00    -0.418 C  
HETATM    2  C   UNL     1     -10.954  14.480  65.711  1.00  0.00    -0.319 A  
HETATM    3  C   UNL     1     -11.363  14.687  67.027  1.00  0.00    -0.362 A  
HETATM    4  C   UNL     1     -11.407  13.619  67.934  1.00  0.00    -0.295 A  
HETATM    5  C   UNL     1     -10.912  12.342  67.573  1.00  0.00    -0.252 A  
HETATM    6  C   UNL     1     -10.294  12.222  66.340  1.00  0.00    -0.250 A  
HETATM    7  N   UNL     1     -11.126  11.219  68.411  1.00  0.00    -0.219 NA 
HETATM    8  H   UNL     1     -13.324  12.094  72.988  1.00  0.00     0.000 HD 
HETATM    9  C   UNL     1     -10.531  13.191  65.360  1.00  0.00    -0.307 A  
HETATM   10  C   UNL     1     -11.775  11.449  69.622  1.00  0.00    -0.345 A  
HETATM   11  C   UNL     1     -10.716  12.625  63.978  1.00  0.00    -0.457 C  
HETATM   12  C   UNL     1     -12.781  13.128  71.325  1.00  0.00    -0.306 C  
HETATM   13  N   UNL     1     -12.079  10.487  70.436  1.00  0.00    -0.304 N  
HETATM   14  H   UNL     1     -11.834   9.530  70.183  1.00  0.00     0.000 HD 
HETATM   15  N   UNL     1     -11.998  13.873  69.174  1.00  0.00    -0.348 NA 
HETATM   16  C   UNL     1     -12.714  10.715  71.621  1.00  0.00    -0.426 C  
HETATM   17  N   UNL     1     -12.964  11.987  72.040  1.00  0.00    -0.346 N  
HETATM   18  O   UNL     1     -13.108  14.237  71.714  1.00  0.00    -0.324 OA 
HETATM   19  C   UNL     1     -12.160  12.874  69.984  1.00  0.00    -0.286 A  
HETATM   20  O   UNL     1     -13.079   9.790  72.339  1.00  0.00    -0.388 OA 
ENDROOT
BRANCH   7  21
HETATM   21  C   UNL     1     -11.270   9.873  67.754  1.00  0.00    -0.003 C  
BRANCH  21  22
HETATM   22  C   UNL     1     -10.165   8.884  68.181  1.00  0.00    -0.201 C  
HETATM   23  O   UNL     1      -8.911   9.563  68.236  1.00  0.00    -0.124 OA 
HETATM   24  H   UNL     1      -8.231   8.954  68.499  1.00  0.00     0.000 HD 
BRANCH  22  25
HETATM   25  C   UNL     1     -10.048   7.613  67.306  1.00  0.00    -0.237 C  
HETATM   26  O   UNL     1     -11.368   7.220  66.872  1.00  0.00    -0.461 OA 
HETATM   27  H   UNL     1     -11.296   6.440  66.334  1.00  0.00     0.000 HD 
BRANCH  25  28
HETATM   28  C   UNL     1      -9.347   6.364  67.894  1.00  0.00    -0.114 C  
HETATM   29  O   UNL     1      -8.203   6.807  68.667  1.00  0.00    -0.118 OA 
HETATM   30  H   UNL     1      -7.773   6.041  69.029  1.00  0.00     0.000 HD 
BRANCH  28  31
HETATM   31  C   UNL     1      -8.858   5.317  66.885  1.00  0.00    -0.110 C  
BRANCH  31  32
HETATM   32  O   UNL     1     -10.004   4.881  66.142  1.00  0.00    -0.187 OA 
HETATM   33  P   UNL     1      -9.764   3.994  64.835  1.00  0.00    -0.195 P  
HETATM   34  O   UNL     1      -8.916   4.913  63.843  1.00  0.00    -0.123 OA 
HETATM   35  O   UNL     1     -11.183   3.899  64.113  1.00  0.00    -0.328 OA 
HETATM   36  O   UNL     1      -9.140   2.659  65.040  1.00  0.00    -0.131 OA 
ENDBRANCH  31  32
ENDBRANCH  28  31
ENDBRANCH  25  28
ENDBRANCH  22  25
ENDBRANCH  21  22
ENDBRANCH   7  21
TORSDOF 6
ENDMDL
MODEL      110
REMARK 921   NORMALIZED FREE ENERGY PREDICTED BY IDOCK:   -5.16 KCAL/MOL
REMARK 922        TOTAL FREE ENERGY PREDICTED BY IDOCK:   -9.32 KCAL/MOL
REMARK 923 INTER-LIGAND FREE ENERGY PREDICTED BY IDOCK:   -8.42 KCAL/MOL
REMARK 924 INTRA-LIGAND FREE ENERGY PREDICTED BY IDOCK:   -0.89 KCAL/MOL
REMARK 927      BINDING AFFINITY PREDICTED BY RF-SCORE:    0.00 PKD
ROOT
HETATM    1  C   UNL     1     -11.523   6.762  72.348  1.00  0.00    -0.302 C  
HETATM    2  C   UNL     1     -11.573   8.009  71.510  1.00  0.00    -0.313 A  
HETATM    3  C   UNL     1     -12.291   9.120  71.947  1.00  0.00    -0.455 A  
HETATM    4  C   UNL     1     -12.249  10.321  71.225  1.00  0.00    -0.395 A  
HETATM    5  C   UNL     1     -11.591  10.392  69.974  1.00  0.00    -0.301 A  
HETATM    6  C   UNL     1     -11.088   9.213  69.451  1.00  0.00    -0.027 A  
HETATM    7  N   UNL     1     -11.382  11.639  69.334  1.00  0.00    -0.269 NA 
HETATM    8  H   UNL     1     -13.538  15.781  71.514  1.00  0.00     0.000 HD 
HETATM    9  C   UNL     1     -10.874   8.123  70.300  1.00  0.00    -0.244 A  
HETATM   10  C   UNL     1     -11.915  12.765  69.957  1.00  0.00    -0.301 A  
HETATM   11  C   UNL     1      -9.592   7.385  70.031  1.00  0.00    -0.168 C  
HETATM   12  C   UNL     1     -13.358  13.786  71.857  1.00  0.00    -0.414 C  
HETATM   13  N   UNL     1     -11.731  13.962  69.495  1.00  0.00    -0.293 N  
HETATM   14  H   UNL     1     -11.179  14.084  68.646  1.00  0.00     0.000 HD 
HETATM   15  N   UNL     1     -12.845  11.433  71.825  1.00  0.00    -0.389 NA 
HETATM   16  C   UNL     1     -12.253  15.063  70.107  1.00  0.00    -0.343 C  
HETATM   17  N   UNL     1     -13.081  14.931  71.182  1.00  0.00    -0.370 N  
HETATM   18  O   UNL     1     -14.035  13.738  72.871  1.00  0.00    -0.635 OA 
HETATM   19  C   UNL     1     -12.715  12.581  71.236  1.00  0.00    -0.252 A  
HETATM   20  O   UNL     1     -11.996  16.196  69.714  1.00  0.00    -0.244 OA 
ENDROOT
BRANCH   7  21
HETATM   21  C   UNL     1     -10.149  11.793  68.486  1.00  0.00    -0.207 C  
BRANCH  21  22
HETATM   22  C   UNL     1     -10.475  12.214  67.037  1.00  0.00    -0.220 C  
HETATM   23  O   UNL     1     -11.672  11.565  66.610  1.00  0.00    -0.486 OA 
HETATM   24  H   UNL     1     -11.872  11.824  65.717  1.00  0.00     0.000 HD 
BRANCH  22  25
HETATM   25  C   UNL     1      -9.339  11.974  66.014  1.00  0.00    -0.190 C  
HETATM   26  O   UNL     1      -9.896  11.999  64.681  1.00  0.00    -0.365 OA 
HETATM   27  H   UNL     1      -9.198  11.853  64.053  1.00  0.00     0.000 HD 
BRANCH  25  28
HETATM   28  C   UNL     1      -8.473  10.698  66.146  1.00  0.00    -0.159 C  
HETATM   29  O   UNL     1      -7.528  10.674  65.048  1.00  0.00    -0.327 OA 
HETATM   30  H   UNL     1      -6.996   9.891  65.129  1.00  0.00     0.000 HD 
BRANCH  28  31
HETATM   31  C   UNL     1      -9.224   9.361  66.153  1.00  0.00    -0.190 C  
BRANCH  31  32
HETATM   32  O   UNL     1      -8.434   8.438  66.915  1.00  0.00    -0.115 OA 
HETATM   33  P   UNL     1      -8.203   6.973  66.320  1.00  0.00    -0.132 P  
HETATM   34  O   UNL     1      -9.656   6.322  66.206  1.00  0.00    -0.153 OA 
HETATM   35  O   UNL     1      -7.525   6.134  67.495  1.00  0.00    -0.079 OA 
HETATM   36  O   UNL     1      -7.442   6.882  65.044  1.00  0.00    -0.083 OA 
ENDBRANCH  31  32
ENDBRANCH  28  31
ENDBRANCH  25  28
ENDBRANCH  22  25
ENDBRANCH  21  22
ENDBRANCH   7  21
TORSDOF 6
ENDMDL
MODEL      111
REMARK 921   NORMALIZED FREE ENERGY PREDICTED BY IDOCK:   -5.15 KCAL/MOL
REMARK 922        TOTAL FREE ENERGY PREDICTED BY IDOCK:   -9.30 KCAL/MOL
REMARK 923 INTER-LIGAND FREE ENERGY PREDICTED BY IDOCK:   -8.38 KCAL/MOL
REMARK 924 INTRA-LIGAND FREE ENERGY PREDICTED BY IDOCK:   -0.92 KCAL/MOL
REMARK 927      BINDING AFFINITY PREDICTED BY RF-SCORE:    0.00 PKD
ROOT
HETATM    1  C   UNL     1     -12.096  16.369  72.554  1.00  0.00    -0.528 C  
HETATM    2  C   UNL     1     -12.182  15.496  71.334  1.00  0.00    -0.453 A  
HETATM    3  C   UNL     1     -11.707  15.956  70.107  1.00  0.00    -0.342 A  
HETATM    4  C   UNL     1     -11.682  15.107  68.992  1.00  0.00    -0.335 A  
HETATM    5  C   UNL     1     -12.260  13.816  69.051  1.00  0.00    -0.224 A  
HETATM    6  C   UNL     1     -12.936  13.473  70.210  1.00  0.00     0.131 A  
HETATM    7  N   UNL     1     -12.071  12.888  67.997  1.00  0.00    -0.251 NA 
HETATM    8  H   UNL     1      -9.635  14.589  63.787  1.00  0.00     0.000 HD 
HETATM    9  C   UNL     1     -12.690  14.191  71.384  1.00  0.00    -0.439 A  
HETATM   10  C   UNL     1     -11.360  13.332  66.885  1.00  0.00    -0.318 A  
HETATM   11  C   UNL     1     -12.595  13.330  72.614  1.00  0.00     0.328 C  
HETATM   12  C   UNL     1     -10.191  15.272  65.618  1.00  0.00    -0.372 C  
HETATM   13  N   UNL     1     -11.074  12.551  65.890  1.00  0.00    -0.288 N  
HETATM   14  H   UNL     1     -11.381  11.579  65.923  1.00  0.00     0.000 HD 
HETATM   15  N   UNL     1     -11.025  15.585  67.855  1.00  0.00    -0.307 NA 
HETATM   16  C   UNL     1     -10.377  12.988  64.803  1.00  0.00    -0.336 C  
HETATM   17  N   UNL     1     -10.041  14.303  64.678  1.00  0.00    -0.179 N  
HETATM   18  O   UNL     1      -9.789  16.416  65.489  1.00  0.00    -0.522 OA 
HETATM   19  C   UNL     1     -10.882  14.775  66.853  1.00  0.00    -0.316 A  
HETATM   20  O   UNL     1     -10.032  12.219  63.913  1.00  0.00    -0.338 OA 
ENDROOT
BRANCH   7  21
HETATM   21  C   UNL     1     -12.030  11.426  68.350  1.00  0.00    -0.200 C  
BRANCH  21  22
HETATM   22  C   UNL     1     -10.909  11.091  69.357  1.00  0.00    -0.231 C  
HETATM   23  O   UNL     1      -9.668  11.608  68.879  1.00  0.00    -0.370 OA 
HETATM   24  H   UNL     1      -8.978  11.402  69.499  1.00  0.00     0.000 HD 
BRANCH  22  25
HETATM   25  C   UNL     1     -10.767   9.590  69.705  1.00  0.00    -0.238 C  
HETATM   26  O   UNL     1     -10.923   8.812  68.498  1.00  0.00    -0.448 OA 
HETATM   27  H   UNL     1     -10.835   7.891  68.712  1.00  0.00     0.000 HD 
BRANCH  25  28
HETATM   28  C   UNL     1     -11.694   8.985  70.787  1.00  0.00    -0.242 C  
HETATM   29  O   UNL     1     -11.965  10.008  71.777  1.00  0.00    -0.354 OA 
HETATM   30  H   UNL     1     -12.534   9.637  72.441  1.00  0.00     0.000 HD 
BRANCH  28  31
HETATM   31  C   UNL     1     -11.167   7.745  71.521  1.00  0.00    -0.244 C  
BRANCH  31  32
HETATM   32  O   UNL     1     -11.202   6.657  70.587  1.00  0.00    -0.273 OA 
HETATM   33  P   UNL     1      -9.869   5.801  70.376  1.00  0.00    -0.209 P  
HETATM   34  O   UNL     1      -8.783   6.829  69.818  1.00  0.00    -0.139 OA 
HETATM   35  O   UNL     1     -10.156   4.863  69.119  1.00  0.00    -0.199 OA 
HETATM   36  O   UNL     1      -9.371   5.038  71.553  1.00  0.00    -0.142 OA 
ENDBRANCH  31  32
ENDBRANCH  28  31
ENDBRANCH  25  28
ENDBRANCH  22  25
ENDBRANCH  21  22
ENDBRANCH   7  21
TORSDOF 6
ENDMDL
MODEL      112
REMARK 921   NORMALIZED FREE ENERGY PREDICTED BY IDOCK:   -5.15 KCAL/MOL
REMARK 922        TOTAL FREE ENERGY PREDICTED BY IDOCK:   -9.29 KCAL/MOL
REMARK 923 INTER-LIGAND FREE ENERGY PREDICTED BY IDOCK:   -8.25 KCAL/MOL
REMARK 924 INTRA-LIGAND FREE ENERGY PREDICTED BY IDOCK:   -1.05 KCAL/MOL
REMARK 927      BINDING AFFINITY PREDICTED BY RF-SCORE:    0.00 PKD
ROOT
HETATM    1  C   UNL     1     -12.225  14.485  64.757  1.00  0.00    -0.441 C  
HETATM    2  C   UNL     1     -11.739  13.326  65.581  1.00  0.00    -0.389 A  
HETATM    3  C   UNL     1     -12.019  13.268  66.945  1.00  0.00    -0.430 A  
HETATM    4  C   UNL     1     -11.666  12.138  67.695  1.00  0.00    -0.316 A  
HETATM    5  C   UNL     1     -10.903  11.095  67.118  1.00  0.00    -0.273 A  
HETATM    6  C   UNL     1     -10.435  11.285  65.828  1.00  0.00    -0.310 A  
HETATM    7  N   UNL     1     -10.707   9.873  67.808  1.00  0.00    -0.266 NA 
HETATM    8  H   UNL     1     -12.463   9.606  72.645  1.00  0.00     0.000 HD 
HETATM    9  C   UNL     1     -11.039  12.250  65.017  1.00  0.00    -0.359 A  
HETATM   10  C   UNL     1     -11.235   9.782  69.094  1.00  0.00    -0.061 A  
HETATM   11  C   UNL     1     -11.241  11.808  63.594  1.00  0.00    -0.519 C  
HETATM   12  C   UNL     1     -12.425  10.922  71.098  1.00  0.00    -0.405 C  
HETATM   13  N   UNL     1     -11.170   8.692  69.792  1.00  0.00    -0.447 N  
HETATM   14  H   UNL     1     -10.716   7.873  69.387  1.00  0.00     0.000 HD 
HETATM   15  N   UNL     1     -12.142  12.084  69.007  1.00  0.00    -0.233 NA 
HETATM   16  C   UNL     1     -11.689   8.605  71.049  1.00  0.00    -0.278 C  
HETATM   17  N   UNL     1     -12.209   9.706  71.662  1.00  0.00    -0.383 N  
HETATM   18  O   UNL     1     -12.980  11.849  71.665  1.00  0.00    -0.412 OA 
HETATM   19  C   UNL     1     -11.933  10.997  69.683  1.00  0.00    -0.353 A  
HETATM   20  O   UNL     1     -11.704   7.544  71.664  1.00  0.00    -0.265 OA 
ENDROOT
BRANCH   7  21
HETATM   21  C   UNL     1     -10.572   8.619  66.987  1.00  0.00    -0.223 C  
BRANCH  21  22
HETATM   22  C   UNL     1      -9.167   7.989  67.092  1.00  0.00    -0.142 C  
HETATM   23  O   UNL     1      -8.496   8.508  68.240  1.00  0.00    -0.132 OA 
HETATM   24  H   UNL     1      -7.631   8.120  68.304  1.00  0.00     0.000 HD 
BRANCH  22  25
HETATM   25  C   UNL     1      -8.281   8.149  65.834  1.00  0.00    -0.122 C  
HETATM   26  O   UNL     1      -9.129   8.404  64.693  1.00  0.00    -0.376 OA 
HETATM   27  H   UNL     1      -8.585   8.503  63.921  1.00  0.00     0.000 HD 
BRANCH  25  28
HETATM   28  C   UNL     1      -7.306   7.007  65.459  1.00  0.00    -0.079 C  
HETATM   29  O   UNL     1      -7.165   6.985  64.016  1.00  0.00    -0.059 OA 
HETATM   30  H   UNL     1      -6.566   6.284  63.786  1.00  0.00     0.000 HD 
BRANCH  28  31
HETATM   31  C   UNL     1      -7.697   5.596  65.918  1.00  0.00    -0.095 C  
BRANCH  31  32
HETATM   32  O   UNL     1      -8.331   4.952  64.805  1.00  0.00    -0.123 OA 
HETATM   33  P   UNL     1      -9.642   4.083  65.083  1.00  0.00    -0.194 P  
HETATM   34  O   UNL     1      -9.181   2.913  66.067  1.00  0.00    -0.146 OA 
HETATM   35  O   UNL     1      -9.942   3.309  63.721  1.00  0.00    -0.143 OA 
HETATM   36  O   UNL     1     -10.833   4.814  65.595  1.00  0.00    -0.274 OA 
ENDBRANCH  31  32
ENDBRANCH  28  31
ENDBRANCH  25  28
ENDBRANCH  22  25
ENDBRANCH  21  22
ENDBRANCH   7  21
TORSDOF 6
ENDMDL
MODEL      113
REMARK 921   NORMALIZED FREE ENERGY PREDICTED BY IDOCK:   -5.14 KCAL/MOL
REMARK 922        TOTAL FREE ENERGY PREDICTED BY IDOCK:   -9.29 KCAL/MOL
REMARK 923 INTER-LIGAND FREE ENERGY PREDICTED BY IDOCK:   -7.80 KCAL/MOL
REMARK 924 INTRA-LIGAND FREE ENERGY PREDICTED BY IDOCK:   -1.50 KCAL/MOL
REMARK 927      BINDING AFFINITY PREDICTED BY RF-SCORE:    0.00 PKD
ROOT
HETATM    1  C   UNL     1      -5.386  13.961  69.319  1.00  0.00    -0.081 C  
HETATM    2  C   UNL     1      -6.363  12.881  68.952  1.00  0.00    -0.090 A  
HETATM    3  C   UNL     1      -6.521  11.768  69.776  1.00  0.00    -0.094 A  
HETATM    4  C   UNL     1      -7.509  10.813  69.498  1.00  0.00    -0.110 A  
HETATM    5  C   UNL     1      -8.272  10.885  68.307  1.00  0.00    -0.127 A  
HETATM    6  C   UNL     1      -7.932  11.867  67.391  1.00  0.00    -0.162 A  
HETATM    7  N   UNL     1      -9.392  10.040  68.112  1.00  0.00    -0.131 NA 
HETATM    8  H   UNL     1     -10.240   6.413  71.672  1.00  0.00     0.000 HD 
HETATM    9  C   UNL     1      -7.176  12.964  67.813  1.00  0.00    -0.134 A  
HETATM   10  C   UNL     1      -9.655   9.100  69.106  1.00  0.00    -0.161 A  
HETATM   11  C   UNL     1      -7.636  14.276  67.239  1.00  0.00    -0.118 C  
HETATM   12  C   UNL     1      -8.947   7.939  71.316  1.00  0.00    -0.135 C  
HETATM   13  N   UNL     1     -10.688   8.319  69.062  1.00  0.00    -0.392 N  
HETATM   14  H   UNL     1     -11.331   8.394  68.273  1.00  0.00     0.000 HD 
HETATM   15  N   UNL     1      -7.721   9.831  70.468  1.00  0.00    -0.268 NA 
HETATM   16  C   UNL     1     -10.943   7.400  70.035  1.00  0.00    -0.248 C  
HETATM   17  N   UNL     1     -10.054   7.199  71.049  1.00  0.00    -0.192 N  
HETATM   18  O   UNL     1      -8.234   7.774  72.291  1.00  0.00    -0.104 OA 
HETATM   19  C   UNL     1      -8.709   9.009  70.292  1.00  0.00    -0.184 A  
HETATM   20  O   UNL     1     -11.972   6.731  70.032  1.00  0.00    -0.291 OA 
ENDROOT
BRANCH   7  21
HETATM   21  C   UNL     1     -10.538  10.574  67.296  1.00  0.00    -0.264 C  
BRANCH  21  22
HETATM   22  C   UNL     1     -11.371  11.626  68.060  1.00  0.00    -0.296 C  
HETATM   23  O   UNL     1     -12.274  10.967  68.946  1.00  0.00    -0.709 OA 
HETATM   24  H   UNL     1     -12.787  11.614  69.416  1.00  0.00     0.000 HD 
BRANCH  22  25
HETATM   25  C   UNL     1     -12.133  12.633  67.167  1.00  0.00    -0.122 C  
HETATM   26  O   UNL     1     -12.010  12.225  65.787  1.00  0.00    -0.521 OA 
HETATM   27  H   UNL     1     -12.478  12.843  65.240  1.00  0.00     0.000 HD 
BRANCH  25  28
HETATM   28  C   UNL     1     -11.767  14.135  67.256  1.00  0.00    -0.392 C  
HETATM   29  O   UNL     1     -10.846  14.442  66.180  1.00  0.00    -0.300 OA 
HETATM   30  H   UNL     1     -10.621  15.364  66.234  1.00  0.00     0.000 HD 
BRANCH  28  31
HETATM   31  C   UNL     1     -11.131  14.605  68.571  1.00  0.00    -0.260 C  
BRANCH  31  32
HETATM   32  O   UNL     1     -12.147  15.302  69.304  1.00  0.00    -0.306 OA 
HETATM   33  P   UNL     1     -12.389  14.898  70.831  1.00  0.00    -0.400 P  
HETATM   34  O   UNL     1     -12.836  13.366  70.803  1.00  0.00    -0.247 OA 
HETATM   35  O   UNL     1     -13.723  15.654  71.269  1.00  0.00    -0.568 OA 
HETATM   36  O   UNL     1     -11.262  15.140  71.772  1.00  0.00    -0.389 OA 
ENDBRANCH  31  32
ENDBRANCH  28  31
ENDBRANCH  25  28
ENDBRANCH  22  25
ENDBRANCH  21  22
ENDBRANCH   7  21
TORSDOF 6
ENDMDL
MODEL      114
REMARK 921   NORMALIZED FREE ENERGY PREDICTED BY IDOCK:   -5.11 KCAL/MOL
REMARK 922        TOTAL FREE ENERGY PREDICTED BY IDOCK:   -9.25 KCAL/MOL
REMARK 923 INTER-LIGAND FREE ENERGY PREDICTED BY IDOCK:   -8.42 KCAL/MOL
REMARK 924 INTRA-LIGAND FREE ENERGY PREDICTED BY IDOCK:   -0.84 KCAL/MOL
REMARK 927      BINDING AFFINITY PREDICTED BY RF-SCORE:    0.00 PKD
ROOT
HETATM    1  C   UNL     1      -9.830   6.849  69.273  1.00  0.00    -0.159 C  
HETATM    2  C   UNL     1     -10.391   8.206  68.957  1.00  0.00    -0.229 A  
HETATM    3  C   UNL     1     -11.143   8.893  69.907  1.00  0.00    -0.146 A  
HETATM    4  C   UNL     1     -11.575  10.204  69.660  1.00  0.00    -0.153 A  
HETATM    5  C   UNL     1     -11.373  10.806  68.395  1.00  0.00    -0.302 A  
HETATM    6  C   UNL     1     -10.834  10.018  67.392  1.00  0.00    -0.313 A  
HETATM    7  N   UNL     1     -11.633  12.185  68.199  1.00  0.00    -0.317 NA 
HETATM    8  H   UNL     1     -13.781  14.745  72.121  1.00  0.00     0.000 HD 
HETATM    9  C   UNL     1     -10.148   8.849  67.735  1.00  0.00    -0.263 A  
HETATM   10  C   UNL     1     -12.158  12.888  69.281  1.00  0.00    -0.182 A  
HETATM   11  C   UNL     1      -8.895   8.622  66.934  1.00  0.00    -0.147 C  
HETATM   12  C   UNL     1     -13.104  12.877  71.697  1.00  0.00    -0.335 C  
HETATM   13  N   UNL     1     -12.375  14.166  69.234  1.00  0.00    -0.504 N  
HETATM   14  H   UNL     1     -12.155  14.673  68.377  1.00  0.00     0.000 HD 
HETATM   15  N   UNL     1     -12.163  10.882  70.731  1.00  0.00    -0.353 NA 
HETATM   16  C   UNL     1     -12.888  14.852  70.294  1.00  0.00    -0.220 C  
HETATM   17  N   UNL     1     -13.290  14.193  71.418  1.00  0.00    -0.341 N  
HETATM   18  O   UNL     1     -13.401  12.355  72.759  1.00  0.00    -0.147 OA 
HETATM   19  C   UNL     1     -12.460  12.133  70.565  1.00  0.00    -0.198 A  
HETATM   20  O   UNL     1     -13.003  16.073  70.272  1.00  0.00    -0.215 OA 
ENDROOT
BRANCH   7  21
HETATM   21  C   UNL     1     -10.788  12.921  67.195  1.00  0.00    -0.256 C  
BRANCH  21  22
HETATM   22  C   UNL     1      -9.331  13.106  67.668  1.00  0.00    -0.205 C  
HETATM   23  O   UNL     1      -9.312  13.342  69.075  1.00  0.00    -0.381 OA 
HETATM   24  H   UNL     1      -8.415  13.456  69.366  1.00  0.00     0.000 HD 
BRANCH  22  25
HETATM   25  C   UNL     1      -8.536  14.208  66.928  1.00  0.00    -0.133 C  
HETATM   26  O   UNL     1      -7.131  14.050  67.220  1.00  0.00    -0.291 OA 
HETATM   27  H   UNL     1      -6.643  14.726  66.765  1.00  0.00     0.000 HD 
BRANCH  25  28
HETATM   28  C   UNL     1      -8.912  15.690  67.173  1.00  0.00    -0.214 C  
HETATM   29  O   UNL     1      -9.833  15.747  68.291  1.00  0.00    -0.210 OA 
HETATM   30  H   UNL     1     -10.063  16.656  68.442  1.00  0.00     0.000 HD 
BRANCH  28  31
HETATM   31  C   UNL     1      -9.552  16.436  65.995  1.00  0.00    -0.319 C  
BRANCH  31  32
HETATM   32  O   UNL     1      -8.752  17.599  65.747  1.00  0.00    -0.511 OA 
HETATM   33  P   UNL     1      -9.089  18.933  66.559  1.00  0.00    -0.293 P  
HETATM   34  O   UNL     1     -10.579  19.325  66.143  1.00  0.00    -0.454 OA 
HETATM   35  O   UNL     1      -8.213  20.081  65.882  1.00  0.00    -0.334 OA 
HETATM   36  O   UNL     1      -8.911  18.880  68.036  1.00  0.00    -0.290 OA 
ENDBRANCH  31  32
ENDBRANCH  28  31
ENDBRANCH  25  28
ENDBRANCH  22  25
ENDBRANCH  21  22
ENDBRANCH   7  21
TORSDOF 6
ENDMDL
MODEL      115
REMARK 921   NORMALIZED FREE ENERGY PREDICTED BY IDOCK:   -5.11 KCAL/MOL
REMARK 922        TOTAL FREE ENERGY PREDICTED BY IDOCK:   -9.25 KCAL/MOL
REMARK 923 INTER-LIGAND FREE ENERGY PREDICTED BY IDOCK:   -7.69 KCAL/MOL
REMARK 924 INTRA-LIGAND FREE ENERGY PREDICTED BY IDOCK:   -1.56 KCAL/MOL
REMARK 927      BINDING AFFINITY PREDICTED BY RF-SCORE:    0.00 PKD
ROOT
HETATM    1  C   UNL     1      -8.733  20.525  67.430  1.00  0.00    -0.373 C  
HETATM    2  C   UNL     1      -8.805  19.053  67.721  1.00  0.00    -0.326 A  
HETATM    3  C   UNL     1      -9.778  18.554  68.584  1.00  0.00    -0.398 A  
HETATM    4  C   UNL     1      -9.921  17.172  68.772  1.00  0.00    -0.315 A  
HETATM    5  C   UNL     1      -8.999  16.264  68.198  1.00  0.00    -0.187 A  
HETATM    6  C   UNL     1      -7.904  16.798  67.540  1.00  0.00    -0.187 A  
HETATM    7  N   UNL     1      -9.244  14.869  68.225  1.00  0.00    -0.182 NA 
HETATM    8  H   UNL     1     -13.341  13.260  70.903  1.00  0.00     0.000 HD 
HETATM    9  C   UNL     1      -7.945  18.128  67.112  1.00  0.00    -0.230 A  
HETATM   10  C   UNL     1     -10.385  14.441  68.899  1.00  0.00    -0.231 A  
HETATM   11  C   UNL     1      -7.359  18.344  65.743  1.00  0.00    -0.176 C  
HETATM   12  C   UNL     1     -12.434  15.003  70.389  1.00  0.00    -0.356 C  
HETATM   13  N   UNL     1     -10.741  13.195  68.933  1.00  0.00    -0.367 N  
HETATM   14  H   UNL     1     -10.166  12.504  68.451  1.00  0.00     0.000 HD 
HETATM   15  N   UNL     1     -11.032  16.752  69.508  1.00  0.00    -0.245 NA 
HETATM   16  C   UNL     1     -11.859  12.778  69.593  1.00  0.00    -0.317 C  
HETATM   17  N   UNL     1     -12.594  13.656  70.333  1.00  0.00    -0.270 N  
HETATM   18  O   UNL     1     -13.179  15.755  70.996  1.00  0.00    -0.547 OA 
HETATM   19  C   UNL     1     -11.254  15.477  69.594  1.00  0.00    -0.300 A  
HETATM   20  O   UNL     1     -12.236  11.613  69.541  1.00  0.00    -0.271 OA 
ENDROOT
BRANCH   7  21
HETATM   21  C   UNL     1      -8.726  14.045  67.077  1.00  0.00    -0.203 C  
BRANCH  21  22
HETATM   22  C   UNL     1      -7.742  12.946  67.532  1.00  0.00    -0.174 C  
HETATM   23  O   UNL     1      -6.446  13.217  67.000  1.00  0.00    -0.469 OA 
HETATM   24  H   UNL     1      -5.840  12.540  67.281  1.00  0.00     0.000 HD 
BRANCH  22  25
HETATM   25  C   UNL     1      -8.171  11.500  67.192  1.00  0.00    -0.161 C  
HETATM   26  O   UNL     1      -7.014  10.761  66.742  1.00  0.00    -0.104 OA 
HETATM   27  H   UNL     1      -7.278   9.873  66.533  1.00  0.00     0.000 HD 
BRANCH  25  28
HETATM   28  C   UNL     1      -9.308  11.282  66.164  1.00  0.00    -0.211 C  
HETATM   29  O   UNL     1     -10.525  10.977  66.890  1.00  0.00    -0.225 OA 
HETATM   30  H   UNL     1     -11.223  10.844  66.259  1.00  0.00     0.000 HD 
BRANCH  28  31
HETATM   31  C   UNL     1      -9.086  10.173  65.127  1.00  0.00    -0.201 C  
BRANCH  31  32
HETATM   32  O   UNL     1      -9.450   8.934  65.750  1.00  0.00    -0.238 OA 
HETATM   33  P   UNL     1      -8.401   7.729  65.703  1.00  0.00    -0.120 P  
HETATM   34  O   UNL     1      -8.194   7.401  64.155  1.00  0.00    -0.083 OA 
HETATM   35  O   UNL     1      -9.191   6.451  66.239  1.00  0.00    -0.158 OA 
HETATM   36  O   UNL     1      -7.110   7.939  66.413  1.00  0.00    -0.068 OA 
ENDBRANCH  31  32
ENDBRANCH  28  31
ENDBRANCH  25  28
ENDBRANCH  22  25
ENDBRANCH  21  22
ENDBRANCH   7  21
TORSDOF 6
ENDMDL
MODEL      116
REMARK 921   NORMALIZED FREE ENERGY PREDICTED BY IDOCK:   -5.11 KCAL/MOL
REMARK 922        TOTAL FREE ENERGY PREDICTED BY IDOCK:   -9.25 KCAL/MOL
REMARK 923 INTER-LIGAND FREE ENERGY PREDICTED BY IDOCK:   -7.75 KCAL/MOL
REMARK 924 INTRA-LIGAND FREE ENERGY PREDICTED BY IDOCK:   -1.49 KCAL/MOL
REMARK 927      BINDING AFFINITY PREDICTED BY RF-SCORE:    0.00 PKD
ROOT
HETATM    1  C   UNL     1      -8.525   4.368  64.024  1.00  0.00    -0.116 C  
HETATM    2  C   UNL     1      -8.631   5.445  65.065  1.00  0.00    -0.142 A  
HETATM    3  C   UNL     1      -9.160   5.158  66.322  1.00  0.00    -0.136 A  
HETATM    4  C   UNL     1      -9.160   6.129  67.332  1.00  0.00    -0.110 A  
HETATM    5  C   UNL     1      -8.749   7.456  67.060  1.00  0.00    -0.123 A  
HETATM    6  C   UNL     1      -8.453   7.776  65.746  1.00  0.00    -0.155 A  
HETATM    7  N   UNL     1      -8.566   8.388  68.112  1.00  0.00    -0.138 NA 
HETATM    8  H   UNL     1      -9.924   6.874  72.847  1.00  0.00     0.000 HD 
HETATM    9  C   UNL     1      -8.170   6.750  64.840  1.00  0.00    -0.082 A  
HETATM   10  C   UNL     1      -8.877   7.956  69.400  1.00  0.00    -0.145 A  
HETATM   11  C   UNL     1      -7.027   7.057  63.911  1.00  0.00    -0.057 C  
HETATM   12  C   UNL     1      -9.844   6.123  70.960  1.00  0.00    -0.182 C  
HETATM   13  N   UNL     1      -8.689   8.702  70.443  1.00  0.00    -0.145 N  
HETATM   14  H   UNL     1      -8.300   9.637  70.318  1.00  0.00     0.000 HD 
HETATM   15  N   UNL     1      -9.539   5.706  68.608  1.00  0.00    -0.125 NA 
HETATM   16  C   UNL     1      -8.993   8.277  71.702  1.00  0.00    -0.180 C  
HETATM   17  N   UNL     1      -9.608   7.076  71.898  1.00  0.00    -0.151 N  
HETATM   18  O   UNL     1     -10.316   5.025  71.206  1.00  0.00    -0.217 OA 
HETATM   19  C   UNL     1      -9.431   6.553  69.584  1.00  0.00    -0.145 A  
HETATM   20  O   UNL     1      -8.725   8.954  72.689  1.00  0.00    -0.373 OA 
ENDROOT
BRANCH   7  21
HETATM   21  C   UNL     1      -7.509   9.445  67.936  1.00  0.00    -0.084 C  
BRANCH  21  22
HETATM   22  C   UNL     1      -8.097  10.871  67.899  1.00  0.00    -0.113 C  
HETATM   23  O   UNL     1      -8.279  11.347  69.232  1.00  0.00    -0.371 OA 
HETATM   24  H   UNL     1      -8.641  12.225  69.209  1.00  0.00     0.000 HD 
BRANCH  22  25
HETATM   25  C   UNL     1      -9.409  11.019  67.092  1.00  0.00    -0.164 C  
HETATM   26  O   UNL     1      -9.207  11.991  66.043  1.00  0.00    -0.310 OA 
HETATM   27  H   UNL     1     -10.012  12.081  65.548  1.00  0.00     0.000 HD 
BRANCH  25  28
HETATM   28  C   UNL     1     -10.709  11.391  67.845  1.00  0.00    -0.200 C  
HETATM   29  O   UNL     1     -11.585  10.236  67.838  1.00  0.00    -0.672 OA 
HETATM   30  H   UNL     1     -12.383  10.463  68.300  1.00  0.00     0.000 HD 
BRANCH  28  31
HETATM   31  C   UNL     1     -11.499  12.586  67.295  1.00  0.00    -0.353 C  
BRANCH  31  32
HETATM   32  O   UNL     1     -12.048  12.183  66.034  1.00  0.00    -0.612 OA 
HETATM   33  P   UNL     1     -12.054  13.245  64.840  1.00  0.00    -0.445 P  
HETATM   34  O   UNL     1     -12.959  14.458  65.349  1.00  0.00    -0.571 OA 
HETATM   35  O   UNL     1     -12.944  12.592  63.689  1.00  0.00    -0.730 OA 
HETATM   36  O   UNL     1     -10.727  13.701  64.344  1.00  0.00    -0.410 OA 
ENDBRANCH  31  32
ENDBRANCH  28  31
ENDBRANCH  25  28
ENDBRANCH  22  25
ENDBRANCH  21  22
ENDBRANCH   7  21
TORSDOF 6
ENDMDL
MODEL      117
REMARK 921   NORMALIZED FREE ENERGY PREDICTED BY IDOCK:   -5.11 KCAL/MOL
REMARK 922        TOTAL FREE ENERGY PREDICTED BY IDOCK:   -9.24 KCAL/MOL
REMARK 923 INTER-LIGAND FREE ENERGY PREDICTED BY IDOCK:   -7.50 KCAL/MOL
REMARK 924 INTRA-LIGAND FREE ENERGY PREDICTED BY IDOCK:   -1.75 KCAL/MOL
REMARK 927      BINDING AFFINITY PREDICTED BY RF-SCORE:    0.00 PKD
ROOT
HETATM    1  C   UNL     1     -11.740  14.637  66.089  1.00  0.00    -0.316 C  
HETATM    2  C   UNL     1     -11.554  13.296  66.739  1.00  0.00    -0.408 A  
HETATM    3  C   UNL     1     -10.978  12.244  66.029  1.00  0.00    -0.327 A  
HETATM    4  C   UNL     1     -10.701  11.026  66.663  1.00  0.00    -0.249 A  
HETATM    5  C   UNL     1     -11.121  10.790  67.994  1.00  0.00    -0.299 A  
HETATM    6  C   UNL     1     -11.899  11.763  68.599  1.00  0.00    -0.369 A  
HETATM    7  N   UNL     1     -10.681   9.643  68.701  1.00  0.00    -0.218 NA 
HETATM    8  H   UNL     1      -7.927   6.179  66.062  1.00  0.00     0.000 HD 
HETATM    9  C   UNL     1     -11.901  13.060  68.077  1.00  0.00    -0.391 A  
HETATM   10  C   UNL     1      -9.886   8.737  68.002  1.00  0.00    -0.169 A  
HETATM   11  C   UNL     1     -11.869  14.138  69.126  1.00  0.00    -0.380 C  
HETATM   12  C   UNL     1      -8.803   7.988  65.766  1.00  0.00    -0.132 C  
HETATM   13  N   UNL     1      -9.377   7.687  68.566  1.00  0.00    -0.147 N  
HETATM   14  H   UNL     1      -9.564   7.517  69.554  1.00  0.00     0.000 HD 
HETATM   15  N   UNL     1      -9.961  10.093  65.932  1.00  0.00    -0.257 NA 
HETATM   16  C   UNL     1      -8.599   6.803  67.880  1.00  0.00    -0.122 C  
HETATM   17  N   UNL     1      -8.411   6.941  66.537  1.00  0.00    -0.120 N  
HETATM   18  O   UNL     1      -8.529   8.106  64.583  1.00  0.00    -0.129 OA 
HETATM   19  C   UNL     1      -9.588   9.009  66.536  1.00  0.00    -0.223 A  
HETATM   20  O   UNL     1      -8.047   5.864  68.444  1.00  0.00    -0.107 OA 
ENDROOT
BRANCH   7  21
HETATM   21  C   UNL     1     -10.509   9.762  70.191  1.00  0.00    -0.286 C  
BRANCH  21  22
HETATM   22  C   UNL     1     -11.595   8.995  70.976  1.00  0.00    -0.300 C  
HETATM   23  O   UNL     1     -12.308   9.903  71.815  1.00  0.00    -0.383 OA 
HETATM   24  H   UNL     1     -12.976   9.431  72.298  1.00  0.00     0.000 HD 
BRANCH  22  25
HETATM   25  C   UNL     1     -11.081   7.792  71.801  1.00  0.00    -0.245 C  
HETATM   26  O   UNL     1      -9.759   7.438  71.341  1.00  0.00    -0.167 OA 
HETATM   27  H   UNL     1      -9.444   6.699  71.848  1.00  0.00     0.000 HD 
BRANCH  25  28
HETATM   28  C   UNL     1     -11.934   6.501  71.847  1.00  0.00    -0.341 C  
HETATM   29  O   UNL     1     -13.303   6.870  72.145  1.00  0.00    -0.544 OA 
HETATM   30  H   UNL     1     -13.827   6.078  72.172  1.00  0.00     0.000 HD 
BRANCH  28  31
HETATM   31  C   UNL     1     -11.501   5.432  72.860  1.00  0.00    -0.275 C  
BRANCH  31  32
HETATM   32  O   UNL     1     -10.405   4.717  72.275  1.00  0.00    -0.188 OA 
HETATM   33  P   UNL     1      -9.105   4.465  73.169  1.00  0.00    -0.118 P  
HETATM   34  O   UNL     1      -8.545   5.915  73.530  1.00  0.00    -0.120 OA 
HETATM   35  O   UNL     1      -8.002   3.891  72.171  1.00  0.00    -0.076 OA 
HETATM   36  O   UNL     1      -9.280   3.611  74.376  1.00  0.00    -0.088 OA 
ENDBRANCH  31  32
ENDBRANCH  28  31
ENDBRANCH  25  28
ENDBRANCH  22  25
ENDBRANCH  21  22
ENDBRANCH   7  21
TORSDOF 6
ENDMDL
MODEL      118
REMARK 921   NORMALIZED FREE ENERGY PREDICTED BY IDOCK:   -5.10 KCAL/MOL
REMARK 922        TOTAL FREE ENERGY PREDICTED BY IDOCK:   -9.23 KCAL/MOL
REMARK 923 INTER-LIGAND FREE ENERGY PREDICTED BY IDOCK:   -8.03 KCAL/MOL
REMARK 924 INTRA-LIGAND FREE ENERGY PREDICTED BY IDOCK:   -1.20 KCAL/MOL
REMARK 927      BINDING AFFINITY PREDICTED BY RF-SCORE:    0.00 PKD
ROOT
HETATM    1  C   UNL     1      -7.572  19.644  66.872  1.00  0.00    -0.278 C  
HETATM    2  C   UNL     1      -8.243  18.348  67.226  1.00  0.00    -0.246 A  
HETATM    3  C   UNL     1      -7.640  17.134  66.901  1.00  0.00    -0.240 A  
HETATM    4  C   UNL     1      -8.205  15.924  67.327  1.00  0.00    -0.185 A  
HETATM    5  C   UNL     1      -9.463  15.900  67.975  1.00  0.00    -0.206 A  
HETATM    6  C   UNL     1     -10.152  17.098  68.075  1.00  0.00    -0.311 A  
HETATM    7  N   UNL     1      -9.949  14.711  68.574  1.00  0.00    -0.229 NA 
HETATM    8  H   UNL     1      -7.178  10.427  67.854  1.00  0.00     0.000 HD 
HETATM    9  C   UNL     1      -9.456  18.301  67.927  1.00  0.00    -0.288 A  
HETATM   10  C   UNL     1      -9.167  13.567  68.428  1.00  0.00    -0.159 A  
HETATM   11  C   UNL     1      -9.868  19.367  68.906  1.00  0.00    -0.523 C  
HETATM   12  C   UNL     1      -7.097  12.402  67.384  1.00  0.00    -0.152 C  
HETATM   13  N   UNL     1      -9.482  12.440  68.987  1.00  0.00    -0.323 N  
HETATM   14  H   UNL     1     -10.331  12.389  69.551  1.00  0.00     0.000 HD 
HETATM   15  N   UNL     1      -7.446  14.770  67.117  1.00  0.00    -0.126 NA 
HETATM   16  C   UNL     1      -8.716  11.322  68.844  1.00  0.00    -0.046 C  
HETATM   17  N   UNL     1      -7.633  11.325  68.016  1.00  0.00    -0.101 N  
HETATM   18  O   UNL     1      -6.071  12.367  66.726  1.00  0.00    -0.210 OA 
HETATM   19  C   UNL     1      -7.890  13.655  67.609  1.00  0.00    -0.174 A  
HETATM   20  O   UNL     1      -8.972  10.288  69.451  1.00  0.00    -0.185 OA 
ENDROOT
BRANCH   7  21
HETATM   21  C   UNL     1     -10.821  14.846  69.793  1.00  0.00    -0.235 C  
BRANCH  21  22
HETATM   22  C   UNL     1     -12.210  14.201  69.603  1.00  0.00    -0.326 C  
HETATM   23  O   UNL     1     -12.619  14.342  68.243  1.00  0.00    -0.519 OA 
HETATM   24  H   UNL     1     -13.475  13.945  68.126  1.00  0.00     0.000 HD 
BRANCH  22  25
HETATM   25  C   UNL     1     -13.312  14.726  70.553  1.00  0.00    -0.062 C  
HETATM   26  O   UNL     1     -12.922  16.024  71.052  1.00  0.00    -0.594 OA 
HETATM   27  H   UNL     1     -13.599  16.346  71.634  1.00  0.00     0.000 HD 
BRANCH  25  28
HETATM   28  C   UNL     1     -13.732  13.855  71.762  1.00  0.00    -0.377 C  
HETATM   29  O   UNL     1     -13.932  14.726  72.902  1.00  0.00    -0.483 OA 
HETATM   30  H   UNL     1     -14.190  14.192  73.644  1.00  0.00     0.000 HD 
BRANCH  28  31
HETATM   31  C   UNL     1     -12.753  12.749  72.178  1.00  0.00     0.035 C  
BRANCH  31  32
HETATM   32  O   UNL     1     -13.416  11.496  71.961  1.00  0.00    -0.405 OA 
HETATM   33  P   UNL     1     -12.584  10.309  71.290  1.00  0.00    -0.481 P  
HETATM   34  O   UNL     1     -12.162  10.842  69.846  1.00  0.00    -0.325 OA 
HETATM   35  O   UNL     1     -13.652   9.172  70.955  1.00  0.00    -0.189 OA 
HETATM   36  O   UNL     1     -11.422   9.788  72.060  1.00  0.00    -0.089 OA 
ENDBRANCH  31  32
ENDBRANCH  28  31
ENDBRANCH  25  28
ENDBRANCH  22  25
ENDBRANCH  21  22
ENDBRANCH   7  21
TORSDOF 6
ENDMDL
MODEL      119
REMARK 921   NORMALIZED FREE ENERGY PREDICTED BY IDOCK:   -5.07 KCAL/MOL
REMARK 922        TOTAL FREE ENERGY PREDICTED BY IDOCK:   -9.19 KCAL/MOL
REMARK 923 INTER-LIGAND FREE ENERGY PREDICTED BY IDOCK:   -7.65 KCAL/MOL
REMARK 924 INTRA-LIGAND FREE ENERGY PREDICTED BY IDOCK:   -1.53 KCAL/MOL
REMARK 927      BINDING AFFINITY PREDICTED BY RF-SCORE:    0.00 PKD
ROOT
HETATM    1  C   UNL     1     -12.388  15.833  64.320  1.00  0.00     0.196 C  
HETATM    2  C   UNL     1     -11.338  15.009  65.009  1.00  0.00    -0.395 A  
HETATM    3  C   UNL     1     -10.342  15.628  65.762  1.00  0.00    -0.386 A  
HETATM    4  C   UNL     1      -9.427  14.862  66.497  1.00  0.00    -0.283 A  
HETATM    5  C   UNL     1      -9.410  13.451  66.386  1.00  0.00    -0.172 A  
HETATM    6  C   UNL     1     -10.253  12.875  65.451  1.00  0.00    -0.301 A  
HETATM    7  N   UNL     1      -8.622  12.664  67.263  1.00  0.00    -0.188 NA 
HETATM    8  H   UNL     1      -5.498  15.178  70.499  1.00  0.00     0.000 HD 
HETATM    9  C   UNL     1     -11.340  13.608  64.967  1.00  0.00    -0.339 A  
HETATM   10  C   UNL     1      -7.823  13.346  68.178  1.00  0.00    -0.145 A  
HETATM   11  C   UNL     1     -12.604  12.803  64.830  1.00  0.00    -0.541 C  
HETATM   12  C   UNL     1      -6.885  15.594  69.073  1.00  0.00    -0.140 C  
HETATM   13  N   UNL     1      -7.112  12.729  69.068  1.00  0.00    -0.237 N  
HETATM   14  H   UNL     1      -7.136  11.710  69.100  1.00  0.00     0.000 HD 
HETATM   15  N   UNL     1      -8.581  15.558  67.364  1.00  0.00    -0.169 NA 
HETATM   16  C   UNL     1      -6.331  13.399  69.963  1.00  0.00    -0.031 C  
HETATM   17  N   UNL     1      -6.193  14.753  69.885  1.00  0.00    -0.139 N  
HETATM   18  O   UNL     1      -6.789  16.809  69.108  1.00  0.00    -0.206 OA 
HETATM   19  C   UNL     1      -7.810  14.866  68.144  1.00  0.00    -0.122 A  
HETATM   20  O   UNL     1      -5.735  12.811  70.859  1.00  0.00    -0.235 OA 
ENDROOT
BRANCH   7  21
HETATM   21  C   UNL     1      -9.131  11.294  67.622  1.00  0.00    -0.149 C  
BRANCH  21  22
HETATM   22  C   UNL     1      -9.925  11.284  68.945  1.00  0.00    -0.155 C  
HETATM   23  O   UNL     1      -9.133  10.691  69.973  1.00  0.00    -0.286 OA 
HETATM   24  H   UNL     1      -9.622  10.685  70.788  1.00  0.00     0.000 HD 
BRANCH  22  25
HETATM   25  C   UNL     1     -11.311  10.601  68.873  1.00  0.00    -0.274 C  
HETATM   26  O   UNL     1     -12.010  11.080  67.704  1.00  0.00    -0.619 OA 
HETATM   27  H   UNL     1     -12.861  10.660  67.660  1.00  0.00     0.000 HD 
BRANCH  25  28
HETATM   28  C   UNL     1     -12.266  10.722  70.085  1.00  0.00    -0.346 C  
HETATM   29  O   UNL     1     -12.019  11.995  70.734  1.00  0.00    -0.452 OA 
HETATM   30  H   UNL     1     -12.606  12.069  71.477  1.00  0.00     0.000 HD 
BRANCH  28  31
HETATM   31  C   UNL     1     -12.162   9.622  71.150  1.00  0.00    -0.350 C  
BRANCH  31  32
HETATM   32  O   UNL     1     -11.394   8.554  70.578  1.00  0.00    -0.262 OA 
HETATM   33  P   UNL     1     -10.537   7.630  71.560  1.00  0.00    -0.216 P  
HETATM   34  O   UNL     1      -9.485   8.607  72.257  1.00  0.00    -0.283 OA 
HETATM   35  O   UNL     1      -9.621   6.732  70.613  1.00  0.00    -0.169 OA 
HETATM   36  O   UNL     1     -11.298   6.821  72.550  1.00  0.00    -0.262 OA 
ENDBRANCH  31  32
ENDBRANCH  28  31
ENDBRANCH  25  28
ENDBRANCH  22  25
ENDBRANCH  21  22
ENDBRANCH   7  21
TORSDOF 6
ENDMDL
MODEL      120
REMARK 921   NORMALIZED FREE ENERGY PREDICTED BY IDOCK:   -5.06 KCAL/MOL
REMARK 922        TOTAL FREE ENERGY PREDICTED BY IDOCK:   -9.18 KCAL/MOL
REMARK 923 INTER-LIGAND FREE ENERGY PREDICTED BY IDOCK:   -7.70 KCAL/MOL
REMARK 924 INTRA-LIGAND FREE ENERGY PREDICTED BY IDOCK:   -1.47 KCAL/MOL
REMARK 927      BINDING AFFINITY PREDICTED BY RF-SCORE:    0.00 PKD
ROOT
HETATM    1  C   UNL     1      -5.398  12.780  68.922  1.00  0.00    -0.067 C  
HETATM    2  C   UNL     1      -6.377  11.677  69.207  1.00  0.00    -0.098 A  
HETATM    3  C   UNL     1      -6.173  10.818  70.285  1.00  0.00    -0.146 A  
HETATM    4  C   UNL     1      -7.138   9.859  70.622  1.00  0.00    -0.043 A  
HETATM    5  C   UNL     1      -8.272   9.652  69.800  1.00  0.00    -0.161 A  
HETATM    6  C   UNL     1      -8.332  10.355  68.608  1.00  0.00    -0.127 A  
HETATM    7  N   UNL     1      -9.339   8.826  70.231  1.00  0.00    -0.165 NA 
HETATM    8  H   UNL     1      -8.678   6.261  74.651  1.00  0.00     0.000 HD 
HETATM    9  C   UNL     1      -7.541  11.496  68.446  1.00  0.00    -0.125 A  
HETATM   10  C   UNL     1      -9.183   8.180  71.456  1.00  0.00    -0.161 A  
HETATM   11  C   UNL     1      -8.247  12.633  67.761  1.00  0.00    -0.171 C  
HETATM   12  C   UNL     1      -7.681   7.598  73.490  1.00  0.00    -0.121 C  
HETATM   13  N   UNL     1     -10.120   7.451  71.977  1.00  0.00    -0.180 N  
HETATM   14  H   UNL     1     -11.001   7.346  71.473  1.00  0.00     0.000 HD 
HETATM   15  N   UNL     1      -6.941   9.166  71.819  1.00  0.00    -0.309 NA 
HETATM   16  C   UNL     1      -9.965   6.821  73.175  1.00  0.00    -0.192 C  
HETATM   17  N   UNL     1      -8.767   6.855  73.826  1.00  0.00    -0.139 N  
HETATM   18  O   UNL     1      -6.664   7.662  74.160  1.00  0.00    -0.086 OA 
HETATM   19  C   UNL     1      -7.878   8.362  72.214  1.00  0.00    -0.110 A  
HETATM   20  O   UNL     1     -10.889   6.211  73.702  1.00  0.00    -0.245 OA 
ENDROOT
BRANCH   7  21
HETATM   21  C   UNL     1     -10.727   9.174  69.765  1.00  0.00    -0.228 C  
BRANCH  21  22
HETATM   22  C   UNL     1     -11.283  10.440  70.453  1.00  0.00    -0.321 C  
HETATM   23  O   UNL     1     -12.070  10.063  71.582  1.00  0.00    -0.387 OA 
HETATM   24  H   UNL     1     -12.412  10.842  72.005  1.00  0.00     0.000 HD 
BRANCH  22  25
HETATM   25  C   UNL     1     -12.087  11.387  69.531  1.00  0.00    -0.302 C  
HETATM   26  O   UNL     1     -12.270  10.749  68.248  1.00  0.00    -0.815 OA 
HETATM   27  H   UNL     1     -12.764  11.331  67.682  1.00  0.00     0.000 HD 
BRANCH  25  28
HETATM   28  C   UNL     1     -11.549  12.817  69.281  1.00  0.00    -0.314 C  
HETATM   29  O   UNL     1     -11.552  13.531  70.543  1.00  0.00    -0.521 OA 
HETATM   30  H   UNL     1     -11.222  14.408  70.390  1.00  0.00     0.000 HD 
BRANCH  28  31
HETATM   31  C   UNL     1     -12.315  13.665  68.257  1.00  0.00     0.079 C  
BRANCH  31  32
HETATM   32  O   UNL     1     -11.403  13.964  67.192  1.00  0.00    -0.302 OA 
HETATM   33  P   UNL     1     -11.771  13.462  65.720  1.00  0.00    -0.392 P  
HETATM   34  O   UNL     1     -11.836  11.870  65.814  1.00  0.00    -0.435 OA 
HETATM   35  O   UNL     1     -10.466  13.718  64.840  1.00  0.00    -0.377 OA 
HETATM   36  O   UNL     1     -12.996  14.041  65.103  1.00  0.00    -0.744 OA 
ENDBRANCH  31  32
ENDBRANCH  28  31
ENDBRANCH  25  28
ENDBRANCH  22  25
ENDBRANCH  21  22
ENDBRANCH   7  21
TORSDOF 6
ENDMDL
MODEL      121
REMARK 921   NORMALIZED FREE ENERGY PREDICTED BY IDOCK:   -5.04 KCAL/MOL
REMARK 922        TOTAL FREE ENERGY PREDICTED BY IDOCK:   -9.15 KCAL/MOL
REMARK 923 INTER-LIGAND FREE ENERGY PREDICTED BY IDOCK:   -7.66 KCAL/MOL
REMARK 924 INTRA-LIGAND FREE ENERGY PREDICTED BY IDOCK:   -1.50 KCAL/MOL
REMARK 927      BINDING AFFINITY PREDICTED BY RF-SCORE:    0.00 PKD
ROOT
HETATM    1  C   UNL     1      -8.656   9.266  63.417  1.00  0.00    -0.206 C  
HETATM    2  C   UNL     1      -8.973   9.630  64.839  1.00  0.00    -0.260 A  
HETATM    3  C   UNL     1      -9.480  10.892  65.144  1.00  0.00    -0.268 A  
HETATM    4  C   UNL     1      -9.882  11.199  66.451  1.00  0.00    -0.211 A  
HETATM    5  C   UNL     1      -9.660  10.287  67.511  1.00  0.00    -0.156 A  
HETATM    6  C   UNL     1      -8.941   9.139  67.223  1.00  0.00    -0.136 A  
HETATM    7  N   UNL     1     -10.230  10.508  68.789  1.00  0.00    -0.180 NA 
HETATM    8  H   UNL     1     -12.705  14.969  69.512  1.00  0.00     0.000 HD 
HETATM    9  C   UNL     1      -8.823   8.720  65.895  1.00  0.00    -0.222 A  
HETATM   10  C   UNL     1     -10.950  11.687  68.964  1.00  0.00    -0.233 A  
HETATM   11  C   UNL     1      -8.965   7.234  65.711  1.00  0.00    -0.052 C  
HETATM   12  C   UNL     1     -11.737  13.976  68.028  1.00  0.00    -0.359 C  
HETATM   13  N   UNL     1     -11.567  11.962  70.071  1.00  0.00    -0.501 N  
HETATM   14  H   UNL     1     -11.524  11.293  70.839  1.00  0.00     0.000 HD 
HETATM   15  N   UNL     1     -10.544  12.416  66.633  1.00  0.00    -0.228 NA 
HETATM   16  C   UNL     1     -12.271  13.117  70.239  1.00  0.00    -0.306 C  
HETATM   17  N   UNL     1     -12.266  14.079  69.274  1.00  0.00    -0.330 N  
HETATM   18  O   UNL     1     -11.840  14.835  67.168  1.00  0.00    -0.374 OA 
HETATM   19  C   UNL     1     -11.033  12.669  67.807  1.00  0.00    -0.234 A  
HETATM   20  O   UNL     1     -12.927  13.324  71.255  1.00  0.00    -0.328 OA 
ENDROOT
BRANCH   7  21
HETATM   21  C   UNL     1     -10.603   9.301  69.607  1.00  0.00    -0.229 C  
BRANCH  21  22
HETATM   22  C   UNL     1      -9.923   9.291  70.993  1.00  0.00    -0.293 C  
HETATM   23  O   UNL     1      -8.617   8.729  70.879  1.00  0.00    -0.154 OA 
HETATM   24  H   UNL     1      -8.198   8.722  71.733  1.00  0.00     0.000 HD 
BRANCH  22  25
HETATM   25  C   UNL     1     -10.721   8.575  72.109  1.00  0.00    -0.356 C  
HETATM   26  O   UNL     1      -9.809   8.177  73.155  1.00  0.00    -0.279 OA 
HETATM   27  H   UNL     1     -10.299   7.738  73.841  1.00  0.00     0.000 HD 
BRANCH  25  28
HETATM   28  C   UNL     1     -11.587   7.348  71.737  1.00  0.00    -0.272 C  
HETATM   29  O   UNL     1     -12.857   7.461  72.427  1.00  0.00    -0.502 OA 
HETATM   30  H   UNL     1     -13.389   6.708  72.198  1.00  0.00     0.000 HD 
BRANCH  28  31
HETATM   31  C   UNL     1     -10.995   5.970  72.061  1.00  0.00    -0.263 C  
BRANCH  31  32
HETATM   32  O   UNL     1      -9.677   5.935  71.496  1.00  0.00    -0.159 OA 
HETATM   33  P   UNL     1      -9.487   5.249  70.066  1.00  0.00    -0.188 P  
HETATM   34  O   UNL     1      -9.927   3.726  70.258  1.00  0.00    -0.134 OA 
HETATM   35  O   UNL     1      -7.911   5.142  69.846  1.00  0.00    -0.076 OA 
HETATM   36  O   UNL     1     -10.179   5.895  68.917  1.00  0.00    -0.164 OA 
ENDBRANCH  31  32
ENDBRANCH  28  31
ENDBRANCH  25  28
ENDBRANCH  22  25
ENDBRANCH  21  22
ENDBRANCH   7  21
TORSDOF 6
ENDMDL
MODEL      122
REMARK 921   NORMALIZED FREE ENERGY PREDICTED BY IDOCK:   -5.02 KCAL/MOL
REMARK 922        TOTAL FREE ENERGY PREDICTED BY IDOCK:   -9.12 KCAL/MOL
REMARK 923 INTER-LIGAND FREE ENERGY PREDICTED BY IDOCK:   -7.75 KCAL/MOL
REMARK 924 INTRA-LIGAND FREE ENERGY PREDICTED BY IDOCK:   -1.37 KCAL/MOL
REMARK 927      BINDING AFFINITY PREDICTED BY RF-SCORE:    0.00 PKD
ROOT
HETATM    1  C   UNL     1     -10.195   7.767  72.414  1.00  0.00    -0.305 C  
HETATM    2  C   UNL     1     -10.445   8.437  71.093  1.00  0.00    -0.263 A  
HETATM    3  C   UNL     1     -11.024   9.704  71.048  1.00  0.00    -0.431 A  
HETATM    4  C   UNL     1     -11.158  10.381  69.827  1.00  0.00    -0.295 A  
HETATM    5  C   UNL     1     -10.834   9.742  68.606  1.00  0.00    -0.188 A  
HETATM    6  C   UNL     1     -10.485   8.403  68.659  1.00  0.00    -0.197 A  
HETATM    7  N   UNL     1     -10.785  10.477  67.395  1.00  0.00    -0.263 NA 
HETATM    8  H   UNL     1     -12.301  15.398  67.575  1.00  0.00     0.000 HD 
HETATM    9  C   UNL     1     -10.072   7.852  69.876  1.00  0.00    -0.197 A  
HETATM   10  C   UNL     1     -11.138  11.823  67.458  1.00  0.00    -0.272 A  
HETATM   11  C   UNL     1      -8.903   6.914  69.752  1.00  0.00    -0.141 C  
HETATM   12  C   UNL     1     -12.053  13.823  68.834  1.00  0.00    -0.313 C  
HETATM   13  N   UNL     1     -11.068  12.604  66.425  1.00  0.00    -0.276 N  
HETATM   14  H   UNL     1     -10.746  12.220  65.537  1.00  0.00     0.000 HD 
HETATM   15  N   UNL     1     -11.578  11.712  69.891  1.00  0.00    -0.302 NA 
HETATM   16  C   UNL     1     -11.414  13.921  66.490  1.00  0.00    -0.348 C  
HETATM   17  N   UNL     1     -11.946  14.443  67.631  1.00  0.00    -0.370 N  
HETATM   18  O   UNL     1     -12.453  14.367  69.850  1.00  0.00    -0.327 OA 
HETATM   19  C   UNL     1     -11.593  12.396  68.790  1.00  0.00    -0.326 A  
HETATM   20  O   UNL     1     -11.257  14.671  65.533  1.00  0.00    -0.325 OA 
ENDROOT
BRANCH   7  21
HETATM   21  C   UNL     1      -9.803  10.031  66.345  1.00  0.00    -0.224 C  
BRANCH  21  22
HETATM   22  C   UNL     1      -8.740  11.106  66.033  1.00  0.00    -0.183 C  
HETATM   23  O   UNL     1      -8.367  11.023  64.658  1.00  0.00    -0.375 OA 
HETATM   24  H   UNL     1      -7.712  11.685  64.466  1.00  0.00     0.000 HD 
BRANCH  22  25
HETATM   25  C   UNL     1      -7.483  11.067  66.934  1.00  0.00    -0.133 C  
HETATM   26  O   UNL     1      -7.495   9.844  67.702  1.00  0.00    -0.089 OA 
HETATM   27  H   UNL     1      -6.723   9.821  68.255  1.00  0.00     0.000 HD 
BRANCH  25  28
HETATM   28  C   UNL     1      -7.228  12.242  67.909  1.00  0.00    -0.106 C  
HETATM   29  O   UNL     1      -7.990  12.003  69.119  1.00  0.00    -0.348 OA 
HETATM   30  H   UNL     1      -7.833  12.724  69.717  1.00  0.00     0.000 HD 
BRANCH  28  31
HETATM   31  C   UNL     1      -7.584  13.644  67.396  1.00  0.00    -0.130 C  
BRANCH  31  32
HETATM   32  O   UNL     1      -8.602  14.163  68.261  1.00  0.00    -0.162 OA 
HETATM   33  P   UNL     1      -8.648  15.741  68.511  1.00  0.00    -0.208 P  
HETATM   34  O   UNL     1      -7.255  16.107  69.199  1.00  0.00    -0.189 OA 
HETATM   35  O   UNL     1      -9.699  15.958  69.691  1.00  0.00    -0.265 OA 
HETATM   36  O   UNL     1      -8.936  16.597  67.329  1.00  0.00    -0.196 OA 
ENDBRANCH  31  32
ENDBRANCH  28  31
ENDBRANCH  25  28
ENDBRANCH  22  25
ENDBRANCH  21  22
ENDBRANCH   7  21
TORSDOF 6
ENDMDL
MODEL      123
REMARK 921   NORMALIZED FREE ENERGY PREDICTED BY IDOCK:   -5.01 KCAL/MOL
REMARK 922        TOTAL FREE ENERGY PREDICTED BY IDOCK:   -9.12 KCAL/MOL
REMARK 923 INTER-LIGAND FREE ENERGY PREDICTED BY IDOCK:   -8.38 KCAL/MOL
REMARK 924 INTRA-LIGAND FREE ENERGY PREDICTED BY IDOCK:   -0.74 KCAL/MOL
REMARK 927      BINDING AFFINITY PREDICTED BY RF-SCORE:    0.00 PKD
ROOT
HETATM    1  C   UNL     1     -13.438  13.398  72.445  1.00  0.00    -0.685 C  
HETATM    2  C   UNL     1     -12.746  13.679  71.142  1.00  0.00    -0.432 A  
HETATM    3  C   UNL     1     -12.354  14.977  70.821  1.00  0.00    -0.400 A  
HETATM    4  C   UNL     1     -11.610  15.228  69.659  1.00  0.00    -0.321 A  
HETATM    5  C   UNL     1     -11.358  14.196  68.724  1.00  0.00    -0.278 A  
HETATM    6  C   UNL     1     -11.960  12.970  68.949  1.00  0.00    -0.303 A  
HETATM    7  N   UNL     1     -10.453  14.395  67.652  1.00  0.00    -0.245 NA 
HETATM    8  H   UNL     1      -8.536  19.141  67.053  1.00  0.00     0.000 HD 
HETATM    9  C   UNL     1     -12.427  12.663  70.231  1.00  0.00    -0.163 A  
HETATM   10  C   UNL     1      -9.890  15.663  67.528  1.00  0.00    -0.228 A  
HETATM   11  C   UNL     1     -12.140  11.250  70.660  1.00  0.00    -0.480 C  
HETATM   12  C   UNL     1      -9.769  18.133  68.315  1.00  0.00    -0.337 C  
HETATM   13  N   UNL     1      -9.003  15.940  66.624  1.00  0.00    -0.241 N  
HETATM   14  H   UNL     1      -8.708  15.205  65.981  1.00  0.00     0.000 HD 
HETATM   15  N   UNL     1     -11.104  16.522  69.507  1.00  0.00    -0.294 NA 
HETATM   16  C   UNL     1      -8.453  17.181  66.505  1.00  0.00    -0.274 C  
HETATM   17  N   UNL     1      -8.897  18.213  67.278  1.00  0.00    -0.248 N  
HETATM   18  O   UNL     1     -10.063  19.073  69.034  1.00  0.00    -0.403 OA 
HETATM   19  C   UNL     1     -10.313  16.748  68.505  1.00  0.00    -0.316 A  
HETATM   20  O   UNL     1      -7.548  17.407  65.708  1.00  0.00    -0.484 OA 
ENDROOT
BRANCH   7  21
HETATM   21  C   UNL     1      -9.676  13.204  67.161  1.00  0.00    -0.235 C  
BRANCH  21  22
HETATM   22  C   UNL     1     -10.171  12.696  65.790  1.00  0.00    -0.272 C  
HETATM   23  O   UNL     1     -11.511  13.135  65.575  1.00  0.00    -0.304 OA 
HETATM   24  H   UNL     1     -11.816  12.822  64.731  1.00  0.00     0.000 HD 
BRANCH  22  25
HETATM   25  C   UNL     1     -10.066  11.167  65.580  1.00  0.00    -0.253 C  
HETATM   26  O   UNL     1     -10.136  10.511  66.865  1.00  0.00    -0.200 OA 
HETATM   27  H   UNL     1     -10.072   9.573  66.736  1.00  0.00     0.000 HD 
BRANCH  25  28
HETATM   28  C   UNL     1      -8.842  10.601  64.820  1.00  0.00    -0.182 C  
HETATM   29  O   UNL     1      -9.306   9.572  63.912  1.00  0.00    -0.419 OA 
HETATM   30  H   UNL     1      -8.555   9.225  63.445  1.00  0.00     0.000 HD 
BRANCH  28  31
HETATM   31  C   UNL     1      -7.722  10.001  65.681  1.00  0.00    -0.136 C  
BRANCH  31  32
HETATM   32  O   UNL     1      -7.554   8.640  65.264  1.00  0.00    -0.084 OA 
HETATM   33  P   UNL     1      -6.068   8.063  65.148  1.00  0.00    -0.045 P  
HETATM   34  O   UNL     1      -5.346   8.957  64.040  1.00  0.00    -0.058 OA 
HETATM   35  O   UNL     1      -6.212   6.647  64.430  1.00  0.00    -0.034 OA 
HETATM   36  O   UNL     1      -5.282   7.984  66.409  1.00  0.00    -0.024 OA 
ENDBRANCH  31  32
ENDBRANCH  28  31
ENDBRANCH  25  28
ENDBRANCH  22  25
ENDBRANCH  21  22
ENDBRANCH   7  21
TORSDOF 6
ENDMDL
MODEL      124
REMARK 921   NORMALIZED FREE ENERGY PREDICTED BY IDOCK:   -5.00 KCAL/MOL
REMARK 922        TOTAL FREE ENERGY PREDICTED BY IDOCK:   -9.09 KCAL/MOL
REMARK 923 INTER-LIGAND FREE ENERGY PREDICTED BY IDOCK:   -7.98 KCAL/MOL
REMARK 924 INTRA-LIGAND FREE ENERGY PREDICTED BY IDOCK:   -1.11 KCAL/MOL
REMARK 927      BINDING AFFINITY PREDICTED BY RF-SCORE:    0.00 PKD
ROOT
HETATM    1  C   UNL     1     -12.340  15.239  74.183  1.00  0.00    -0.762 C  
HETATM    2  C   UNL     1     -12.326  15.119  72.686  1.00  0.00    -0.473 A  
HETATM    3  C   UNL     1     -11.563  15.996  71.918  1.00  0.00    -0.524 A  
HETATM    4  C   UNL     1     -11.458  15.820  70.531  1.00  0.00    -0.381 A  
HETATM    5  C   UNL     1     -12.227  14.836  69.866  1.00  0.00    -0.311 A  
HETATM    6  C   UNL     1     -13.155  14.135  70.619  1.00  0.00    -0.211 A  
HETATM    7  N   UNL     1     -11.987  14.526  68.504  1.00  0.00    -0.315 NA 
HETATM    8  H   UNL     1      -8.566  17.457  66.003  1.00  0.00     0.000 HD 
HETATM    9  C   UNL     1     -13.028  14.111  72.010  1.00  0.00    -0.444 A  
HETATM   10  C   UNL     1     -11.018  15.281  67.846  1.00  0.00    -0.306 A  
HETATM   11  C   UNL     1     -13.301  12.764  72.622  1.00  0.00    -0.074 C  
HETATM   12  C   UNL     1      -9.348  17.266  67.868  1.00  0.00    -0.258 C  
HETATM   13  N   UNL     1     -10.672  15.043  66.620  1.00  0.00    -0.306 N  
HETATM   14  H   UNL     1     -11.125  14.278  66.119  1.00  0.00     0.000 HD 
HETATM   15  N   UNL     1     -10.532  16.628  69.865  1.00  0.00    -0.179 NA 
HETATM   16  C   UNL     1      -9.724  15.782  65.978  1.00  0.00    -0.345 C  
HETATM   17  N   UNL     1      -9.173  16.875  66.580  1.00  0.00    -0.256 N  
HETATM   18  O   UNL     1      -8.758  18.201  68.384  1.00  0.00    -0.280 OA 
HETATM   19  C   UNL     1     -10.328  16.402  68.605  1.00  0.00    -0.273 A  
HETATM   20  O   UNL     1      -9.339  15.491  64.851  1.00  0.00     0.277 OA 
ENDROOT
BRANCH   7  21
HETATM   21  C   UNL     1     -12.237  13.112  68.053  1.00  0.00    -0.048 C  
BRANCH  21  22
HETATM   22  C   UNL     1     -11.164  12.128  68.565  1.00  0.00    -0.260 C  
HETATM   23  O   UNL     1     -10.083  12.074  67.635  1.00  0.00    -0.192 OA 
HETATM   24  H   UNL     1      -9.423  11.468  67.950  1.00  0.00     0.000 HD 
BRANCH  22  25
HETATM   25  C   UNL     1     -11.678  10.702  68.875  1.00  0.00    -0.211 C  
HETATM   26  O   UNL     1     -13.095  10.762  69.146  1.00  0.00    -0.299 OA 
HETATM   27  H   UNL     1     -13.410   9.886  69.336  1.00  0.00     0.000 HD 
BRANCH  25  28
HETATM   28  C   UNL     1     -11.006   9.899  70.015  1.00  0.00    -0.291 C  
HETATM   29  O   UNL     1      -9.575  10.125  69.949  1.00  0.00    -0.327 OA 
HETATM   30  H   UNL     1      -9.163   9.633  70.649  1.00  0.00     0.000 HD 
BRANCH  28  31
HETATM   31  C   UNL     1     -11.246   8.384  70.016  1.00  0.00    -0.085 C  
BRANCH  31  32
HETATM   32  O   UNL     1      -9.958   7.753  69.992  1.00  0.00    -0.184 OA 
HETATM   33  P   UNL     1      -9.751   6.496  69.028  1.00  0.00    -0.138 P  
HETATM   34  O   UNL     1     -10.777   5.387  69.543  1.00  0.00    -0.295 OA 
HETATM   35  O   UNL     1      -8.332   5.883  69.420  1.00  0.00    -0.111 OA 
HETATM   36  O   UNL     1      -9.878   6.747  67.566  1.00  0.00    -0.124 OA 
ENDBRANCH  31  32
ENDBRANCH  28  31
ENDBRANCH  25  28
ENDBRANCH  22  25
ENDBRANCH  21  22
ENDBRANCH   7  21
TORSDOF 6
ENDMDL
MODEL      125
REMARK 921   NORMALIZED FREE ENERGY PREDICTED BY IDOCK:   -4.98 KCAL/MOL
REMARK 922        TOTAL FREE ENERGY PREDICTED BY IDOCK:   -9.07 KCAL/MOL
REMARK 923 INTER-LIGAND FREE ENERGY PREDICTED BY IDOCK:   -8.23 KCAL/MOL
REMARK 924 INTRA-LIGAND FREE ENERGY PREDICTED BY IDOCK:   -0.84 KCAL/MOL
REMARK 927      BINDING AFFINITY PREDICTED BY RF-SCORE:    0.00 PKD
ROOT
HETATM    1  C   UNL     1     -11.858  14.464  67.361  1.00  0.00    -0.430 C  
HETATM    2  C   UNL     1     -11.558  12.992  67.361  1.00  0.00    -0.407 A  
HETATM    3  C   UNL     1     -10.946  12.399  66.258  1.00  0.00    -0.323 A  
HETATM    4  C   UNL     1     -10.563  11.052  66.297  1.00  0.00    -0.237 A  
HETATM    5  C   UNL     1     -10.909  10.232  67.398  1.00  0.00    -0.277 A  
HETATM    6  C   UNL     1     -11.723  10.783  68.373  1.00  0.00    -0.232 A  
HETATM    7  N   UNL     1     -10.366   8.929  67.531  1.00  0.00    -0.247 NA 
HETATM    8  H   UNL     1      -7.507   7.172  63.621  1.00  0.00     0.000 HD 
HETATM    9  C   UNL     1     -11.832  12.174  68.466  1.00  0.00    -0.365 A  
HETATM   10  C   UNL     1      -9.545   8.480  66.500  1.00  0.00    -0.236 A  
HETATM   11  C   UNL     1     -11.825  12.691  69.879  1.00  0.00    -0.364 C  
HETATM   12  C   UNL     1      -8.511   8.858  64.150  1.00  0.00    -0.142 C  
HETATM   13  N   UNL     1      -8.945   7.331  66.546  1.00  0.00    -0.146 N  
HETATM   14  H   UNL     1      -9.079   6.737  67.363  1.00  0.00     0.000 HD 
HETATM   15  N   UNL     1      -9.796  10.587  65.226  1.00  0.00    -0.262 NA 
HETATM   16  C   UNL     1      -8.141   6.894  65.536  1.00  0.00    -0.132 C  
HETATM   17  N   UNL     1      -8.020   7.614  64.384  1.00  0.00    -0.138 N  
HETATM   18  O   UNL     1      -8.296   9.497  63.133  1.00  0.00    -0.154 OA 
HETATM   19  C   UNL     1      -9.327   9.380  65.295  1.00  0.00    -0.238 A  
HETATM   20  O   UNL     1      -7.505   5.849  65.630  1.00  0.00    -0.078 OA 
ENDROOT
BRANCH   7  21
HETATM   21  C   UNL     1     -10.140   8.404  68.923  1.00  0.00    -0.199 C  
BRANCH  21  22
HETATM   22  C   UNL     1     -10.874   7.071  69.180  1.00  0.00    -0.195 C  
HETATM   23  O   UNL     1     -11.547   6.659  67.991  1.00  0.00    -0.574 OA 
HETATM   24  H   UNL     1     -11.999   5.838  68.150  1.00  0.00     0.000 HD 
BRANCH  22  25
HETATM   25  C   UNL     1     -11.855   7.083  70.376  1.00  0.00    -0.247 C  
HETATM   26  O   UNL     1     -12.382   8.418  70.536  1.00  0.00    -0.479 OA 
HETATM   27  H   UNL     1     -12.985   8.425  71.270  1.00  0.00     0.000 HD 
BRANCH  25  28
HETATM   28  C   UNL     1     -11.353   6.598  71.757  1.00  0.00    -0.279 C  
HETATM   29  O   UNL     1     -12.507   6.294  72.580  1.00  0.00    -0.542 OA 
HETATM   30  H   UNL     1     -12.199   5.996  73.428  1.00  0.00     0.000 HD 
BRANCH  28  31
HETATM   31  C   UNL     1     -10.459   7.570  72.539  1.00  0.00    -0.249 C  
BRANCH  31  32
HETATM   32  O   UNL     1      -9.147   6.994  72.581  1.00  0.00    -0.134 OA 
HETATM   33  P   UNL     1      -7.910   7.955  72.897  1.00  0.00    -0.148 P  
HETATM   34  O   UNL     1      -7.886   9.026  71.714  1.00  0.00    -0.333 OA 
HETATM   35  O   UNL     1      -6.605   7.082  72.619  1.00  0.00    -0.060 OA 
HETATM   36  O   UNL     1      -7.889   8.597  74.240  1.00  0.00    -0.390 OA 
ENDBRANCH  31  32
ENDBRANCH  28  31
ENDBRANCH  25  28
ENDBRANCH  22  25
ENDBRANCH  21  22
ENDBRANCH   7  21
TORSDOF 6
ENDMDL
MODEL      126
REMARK 921   NORMALIZED FREE ENERGY PREDICTED BY IDOCK:   -4.96 KCAL/MOL
REMARK 922        TOTAL FREE ENERGY PREDICTED BY IDOCK:   -9.05 KCAL/MOL
REMARK 923 INTER-LIGAND FREE ENERGY PREDICTED BY IDOCK:   -7.35 KCAL/MOL
REMARK 924 INTRA-LIGAND FREE ENERGY PREDICTED BY IDOCK:   -1.69 KCAL/MOL
REMARK 927      BINDING AFFINITY PREDICTED BY RF-SCORE:    0.00 PKD
ROOT
HETATM    1  C   UNL     1      -7.582   7.415  62.750  1.00  0.00    -0.112 C  
HETATM    2  C   UNL     1      -7.854   8.618  63.608  1.00  0.00    -0.148 A  
HETATM    3  C   UNL     1      -8.997   9.388  63.396  1.00  0.00    -0.150 A  
HETATM    4  C   UNL     1      -9.313  10.443  64.263  1.00  0.00    -0.277 A  
HETATM    5  C   UNL     1      -8.415  10.834  65.285  1.00  0.00    -0.115 A  
HETATM    6  C   UNL     1      -7.181  10.207  65.325  1.00  0.00    -0.141 A  
HETATM    7  N   UNL     1      -8.809  11.767  66.277  1.00  0.00    -0.178 NA 
HETATM    8  H   UNL     1     -13.417  13.998  65.700  1.00  0.00     0.000 HD 
HETATM    9  C   UNL     1      -7.014   8.985  64.668  1.00  0.00    -0.085 A  
HETATM   10  C   UNL     1     -10.079  12.324  66.152  1.00  0.00    -0.245 A  
HETATM   11  C   UNL     1      -6.205   7.983  65.446  1.00  0.00    -0.045 C  
HETATM   12  C   UNL     1     -12.261  12.606  64.776  1.00  0.00    -0.465 C  
HETATM   13  N   UNL     1     -10.566  13.139  67.035  1.00  0.00    -0.257 N  
HETATM   14  H   UNL     1     -10.000  13.381  67.848  1.00  0.00     0.000 HD 
HETATM   15  N   UNL     1     -10.562  11.044  64.089  1.00  0.00    -0.380 NA 
HETATM   16  C   UNL     1     -11.810  13.682  66.910  1.00  0.00    -0.411 C  
HETATM   17  N   UNL     1     -12.553  13.463  65.788  1.00  0.00    -0.431 N  
HETATM   18  O   UNL     1     -13.006  12.379  63.837  1.00  0.00    -0.754 OA 
HETATM   19  C   UNL     1     -10.929  11.939  64.951  1.00  0.00    -0.313 A  
HETATM   20  O   UNL     1     -12.297  14.378  67.795  1.00  0.00    -0.236 OA 
ENDROOT
BRANCH   7  21
HETATM   21  C   UNL     1      -8.211  11.623  67.651  1.00  0.00    -0.141 C  
BRANCH  21  22
HETATM   22  C   UNL     1      -9.036  10.688  68.561  1.00  0.00    -0.156 C  
HETATM   23  O   UNL     1      -9.911  11.466  69.375  1.00  0.00    -0.426 OA 
HETATM   24  H   UNL     1     -10.419  10.890  69.936  1.00  0.00     0.000 HD 
BRANCH  22  25
HETATM   25  C   UNL     1      -8.202   9.723  69.438  1.00  0.00    -0.135 C  
HETATM   26  O   UNL     1      -7.561   8.749  68.585  1.00  0.00    -0.093 OA 
HETATM   27  H   UNL     1      -7.049   8.158  69.124  1.00  0.00     0.000 HD 
BRANCH  25  28
HETATM   28  C   UNL     1      -8.907   8.963  70.587  1.00  0.00    -0.198 C  
HETATM   29  O   UNL     1      -8.141   9.163  71.801  1.00  0.00    -0.343 OA 
HETATM   30  H   UNL     1      -8.574   8.697  72.507  1.00  0.00     0.000 HD 
BRANCH  28  31
HETATM   31  C   UNL     1      -9.097   7.453  70.391  1.00  0.00    -0.157 C  
BRANCH  31  32
HETATM   32  O   UNL     1     -10.064   7.282  69.347  1.00  0.00    -0.174 OA 
HETATM   33  P   UNL     1      -9.960   5.980  68.427  1.00  0.00    -0.172 P  
HETATM   34  O   UNL     1      -8.541   6.078  67.704  1.00  0.00    -0.108 OA 
HETATM   35  O   UNL     1     -10.990   6.215  67.233  1.00  0.00    -0.329 OA 
HETATM   36  O   UNL     1     -10.160   4.668  69.101  1.00  0.00    -0.174 OA 
ENDBRANCH  31  32
ENDBRANCH  28  31
ENDBRANCH  25  28
ENDBRANCH  22  25
ENDBRANCH  21  22
ENDBRANCH   7  21
TORSDOF 6
ENDMDL
MODEL      127
REMARK 921   NORMALIZED FREE ENERGY PREDICTED BY IDOCK:   -4.92 KCAL/MOL
REMARK 922        TOTAL FREE ENERGY PREDICTED BY IDOCK:   -8.99 KCAL/MOL
REMARK 923 INTER-LIGAND FREE ENERGY PREDICTED BY IDOCK:   -7.30 KCAL/MOL
REMARK 924 INTRA-LIGAND FREE ENERGY PREDICTED BY IDOCK:   -1.69 KCAL/MOL
REMARK 927      BINDING AFFINITY PREDICTED BY RF-SCORE:    0.00 PKD
ROOT
HETATM    1  C   UNL     1      -8.899   4.989  69.738  1.00  0.00    -0.125 C  
HETATM    2  C   UNL     1      -9.034   6.326  69.065  1.00  0.00    -0.123 A  
HETATM    3  C   UNL     1      -8.603   6.497  67.751  1.00  0.00    -0.117 A  
HETATM    4  C   UNL     1      -8.828   7.708  67.082  1.00  0.00    -0.125 A  
HETATM    5  C   UNL     1      -9.373   8.822  67.764  1.00  0.00    -0.141 A  
HETATM    6  C   UNL     1      -9.573   8.699  69.129  1.00  0.00    -0.163 A  
HETATM    7  N   UNL     1      -9.778   9.980  67.054  1.00  0.00    -0.174 NA 
HETATM    8  H   UNL     1      -8.726  10.123  62.012  1.00  0.00     0.000 HD 
HETATM    9  C   UNL     1      -9.631   7.424  69.699  1.00  0.00    -0.156 A  
HETATM   10  C   UNL     1      -9.546   9.991  65.681  1.00  0.00    -0.252 A  
HETATM   11  C   UNL     1     -10.704   7.273  70.743  1.00  0.00    -0.248 C  
HETATM   12  C   UNL     1      -8.519   8.855  63.586  1.00  0.00    -0.138 C  
HETATM   13  N   UNL     1      -9.932  10.970  64.923  1.00  0.00    -0.265 N  
HETATM   14  H   UNL     1     -10.420  11.759  65.347  1.00  0.00     0.000 HD 
HETATM   15  N   UNL     1      -8.530   7.734  65.717  1.00  0.00    -0.140 NA 
HETATM   16  C   UNL     1      -9.705  10.978  63.579  1.00  0.00    -0.337 C  
HETATM   17  N   UNL     1      -8.966   9.993  62.995  1.00  0.00    -0.238 N  
HETATM   18  O   UNL     1      -7.940   7.960  62.994  1.00  0.00    -0.147 OA 
HETATM   19  C   UNL     1      -8.841   8.801  65.050  1.00  0.00    -0.107 A  
HETATM   20  O   UNL     1     -10.155  11.864  62.859  1.00  0.00    -0.285 OA 
ENDROOT
BRANCH   7  21
HETATM   21  C   UNL     1     -10.936  10.769  67.602  1.00  0.00    -0.306 C  
BRANCH  21  22
HETATM   22  C   UNL     1     -10.594  12.260  67.808  1.00  0.00    -0.219 C  
HETATM   23  O   UNL     1     -10.590  12.560  69.203  1.00  0.00    -0.422 OA 
HETATM   24  H   UNL     1     -10.379  13.478  69.329  1.00  0.00     0.000 HD 
BRANCH  22  25
HETATM   25  C   UNL     1     -11.505  13.252  67.048  1.00  0.00    -0.339 C  
HETATM   26  O   UNL     1     -12.396  12.508  66.188  1.00  0.00    -0.596 OA 
HETATM   27  H   UNL     1     -12.955  13.117  65.722  1.00  0.00     0.000 HD 
BRANCH  25  28
HETATM   28  C   UNL     1     -10.847  14.370  66.202  1.00  0.00    -0.309 C  
HETATM   29  O   UNL     1      -9.599  13.861  65.669  1.00  0.00    -0.504 OA 
HETATM   30  H   UNL     1      -9.196  14.547  65.149  1.00  0.00     0.000 HD 
BRANCH  28  31
HETATM   31  C   UNL     1     -10.549  15.689  66.927  1.00  0.00    -0.311 C  
BRANCH  31  32
HETATM   32  O   UNL     1      -9.940  15.352  68.181  1.00  0.00    -0.218 OA 
HETATM   33  P   UNL     1      -8.525  16.004  68.532  1.00  0.00    -0.213 P  
HETATM   34  O   UNL     1      -7.523  15.491  67.401  1.00  0.00    -0.167 OA 
HETATM   35  O   UNL     1      -8.014  15.245  69.838  1.00  0.00    -0.139 OA 
HETATM   36  O   UNL     1      -8.492  17.484  68.686  1.00  0.00    -0.276 OA 
ENDBRANCH  31  32
ENDBRANCH  28  31
ENDBRANCH  25  28
ENDBRANCH  22  25
ENDBRANCH  21  22
ENDBRANCH   7  21
TORSDOF 6
ENDMDL
MODEL      128
REMARK 921   NORMALIZED FREE ENERGY PREDICTED BY IDOCK:   -4.92 KCAL/MOL
REMARK 922        TOTAL FREE ENERGY PREDICTED BY IDOCK:   -8.99 KCAL/MOL
REMARK 923 INTER-LIGAND FREE ENERGY PREDICTED BY IDOCK:   -8.11 KCAL/MOL
REMARK 924 INTRA-LIGAND FREE ENERGY PREDICTED BY IDOCK:   -0.88 KCAL/MOL
REMARK 927      BINDING AFFINITY PREDICTED BY RF-SCORE:    0.00 PKD
ROOT
HETATM    1  C   UNL     1      -8.823   9.025  62.346  1.00  0.00    -0.177 C  
HETATM    2  C   UNL     1      -8.890   9.614  63.726  1.00  0.00    -0.257 A  
HETATM    3  C   UNL     1      -9.672  10.741  63.972  1.00  0.00    -0.367 A  
HETATM    4  C   UNL     1      -9.827  11.227  65.277  1.00  0.00    -0.246 A  
HETATM    5  C   UNL     1      -9.089  10.671  66.350  1.00  0.00    -0.164 A  
HETATM    6  C   UNL     1      -8.141   9.709  66.041  1.00  0.00    -0.112 A  
HETATM    7  N   UNL     1      -9.379  11.027  67.690  1.00  0.00    -0.155 NA 
HETATM    8  H   UNL     1     -12.860  14.754  68.425  1.00  0.00     0.000 HD 
HETATM    9  C   UNL     1      -8.220   9.040  64.816  1.00  0.00    -0.161 A  
HETATM   10  C   UNL     1     -10.363  11.992  67.889  1.00  0.00    -0.197 A  
HETATM   11  C   UNL     1      -7.937   7.566  64.909  1.00  0.00    -0.132 C  
HETATM   12  C   UNL     1     -12.015  13.726  66.890  1.00  0.00    -0.421 C  
HETATM   13  N   UNL     1     -10.753  12.348  69.073  1.00  0.00    -0.394 N  
HETATM   14  H   UNL     1     -10.325  11.907  69.887  1.00  0.00     0.000 HD 
HETATM   15  N   UNL     1     -10.768  12.244  65.460  1.00  0.00    -0.270 NA 
HETATM   16  C   UNL     1     -11.717  13.292  69.264  1.00  0.00    -0.326 C  
HETATM   17  N   UNL     1     -12.239  13.975  68.206  1.00  0.00    -0.267 N  
HETATM   18  O   UNL     1     -12.579  14.309  65.979  1.00  0.00    -0.447 OA 
HETATM   19  C   UNL     1     -11.017  12.627  66.672  1.00  0.00    -0.258 A  
HETATM   20  O   UNL     1     -12.144  13.554  70.384  1.00  0.00    -0.338 OA 
ENDROOT
BRANCH   7  21
HETATM   21  C   UNL     1      -9.156   9.987  68.755  1.00  0.00    -0.148 C  
BRANCH  21  22
HETATM   22  C   UNL     1     -10.314   8.970  68.842  1.00  0.00    -0.215 C  
HETATM   23  O   UNL     1     -11.058   8.989  67.624  1.00  0.00    -0.484 OA 
HETATM   24  H   UNL     1     -11.771   8.363  67.678  1.00  0.00     0.000 HD 
BRANCH  22  25
HETATM   25  C   UNL     1     -11.260   9.155  70.052  1.00  0.00    -0.150 C  
HETATM   26  O   UNL     1     -10.649  10.068  70.989  1.00  0.00    -0.333 OA 
HETATM   27  H   UNL     1     -11.230  10.181  71.732  1.00  0.00     0.000 HD 
BRANCH  25  28
HETATM   28  C   UNL     1     -11.721   7.902  70.836  1.00  0.00    -0.257 C  
HETATM   29  O   UNL     1     -13.167   7.933  70.933  1.00  0.00    -0.532 OA 
HETATM   30  H   UNL     1     -13.450   7.164  71.413  1.00  0.00     0.000 HD 
BRANCH  28  31
HETATM   31  C   UNL     1     -11.156   7.737  72.252  1.00  0.00    -0.301 C  
BRANCH  31  32
HETATM   32  O   UNL     1      -9.971   6.937  72.142  1.00  0.00    -0.164 OA 
HETATM   33  P   UNL     1      -8.661   7.418  72.921  1.00  0.00    -0.152 P  
HETATM   34  O   UNL     1      -8.293   8.843  72.303  1.00  0.00    -0.384 OA 
HETATM   35  O   UNL     1      -7.481   6.482  72.396  1.00  0.00    -0.092 OA 
HETATM   36  O   UNL     1      -8.742   7.452  74.407  1.00  0.00    -0.209 OA 
ENDBRANCH  31  32
ENDBRANCH  28  31
ENDBRANCH  25  28
ENDBRANCH  22  25
ENDBRANCH  21  22
ENDBRANCH   7  21
TORSDOF 6
ENDMDL
MODEL      129
REMARK 921   NORMALIZED FREE ENERGY PREDICTED BY IDOCK:   -4.92 KCAL/MOL
REMARK 922        TOTAL FREE ENERGY PREDICTED BY IDOCK:   -8.98 KCAL/MOL
REMARK 923 INTER-LIGAND FREE ENERGY PREDICTED BY IDOCK:   -7.69 KCAL/MOL
REMARK 924 INTRA-LIGAND FREE ENERGY PREDICTED BY IDOCK:   -1.29 KCAL/MOL
REMARK 927      BINDING AFFINITY PREDICTED BY RF-SCORE:    0.00 PKD
ROOT
HETATM    1  C   UNL     1      -8.121   2.040  66.277  1.00  0.00    -0.081 C  
HETATM    2  C   UNL     1      -8.951   3.206  66.731  1.00  0.00    -0.172 A  
HETATM    3  C   UNL     1      -9.222   3.390  68.086  1.00  0.00    -0.234 A  
HETATM    4  C   UNL     1      -9.901   4.534  68.526  1.00  0.00    -0.089 A  
HETATM    5  C   UNL     1     -10.441   5.458  67.599  1.00  0.00    -0.150 A  
HETATM    6  C   UNL     1     -10.364   5.131  66.255  1.00  0.00    -0.313 A  
HETATM    7  N   UNL     1     -10.957   6.704  68.033  1.00  0.00    -0.264 NA 
HETATM    8  H   UNL     1     -11.217   7.487  73.119  1.00  0.00     0.000 HD 
HETATM    9  C   UNL     1      -9.440   4.169  65.837  1.00  0.00    -0.178 A  
HETATM   10  C   UNL     1     -10.971   6.937  69.406  1.00  0.00    -0.237 A  
HETATM   11  C   UNL     1      -8.731   4.522  64.558  1.00  0.00    -0.148 C  
HETATM   12  C   UNL     1     -10.581   6.062  71.818  1.00  0.00    -0.229 C  
HETATM   13  N   UNL     1     -11.361   8.066  69.911  1.00  0.00    -0.456 N  
HETATM   14  H   UNL     1     -11.670   8.807  69.283  1.00  0.00     0.000 HD 
HETATM   15  N   UNL     1      -9.971   4.729  69.908  1.00  0.00    -0.225 NA 
HETATM   16  C   UNL     1     -11.373   8.292  71.255  1.00  0.00    -0.267 C  
HETATM   17  N   UNL     1     -11.066   7.292  72.130  1.00  0.00    -0.237 N  
HETATM   18  O   UNL     1     -10.236   5.235  72.645  1.00  0.00    -0.172 OA 
HETATM   19  C   UNL     1     -10.485   5.838  70.338  1.00  0.00    -0.273 A  
HETATM   20  O   UNL     1     -11.656   9.392  71.717  1.00  0.00    -0.377 OA 
ENDROOT
BRANCH   7  21
HETATM   21  C   UNL     1     -10.836   7.877  67.098  1.00  0.00    -0.116 C  
BRANCH  21  22
HETATM   22  C   UNL     1      -9.525   8.665  67.302  1.00  0.00    -0.156 C  
HETATM   23  O   UNL     1      -9.769   9.788  68.147  1.00  0.00    -0.142 OA 
HETATM   24  H   UNL     1      -8.962  10.273  68.272  1.00  0.00     0.000 HD 
BRANCH  22  25
HETATM   25  C   UNL     1      -8.821   9.115  66.000  1.00  0.00    -0.168 C  
HETATM   26  O   UNL     1      -7.773  10.052  66.332  1.00  0.00    -0.100 OA 
HETATM   27  H   UNL     1      -7.341  10.328  65.533  1.00  0.00     0.000 HD 
BRANCH  25  28
HETATM   28  C   UNL     1      -9.675   9.736  64.867  1.00  0.00    -0.192 C  
HETATM   29  O   UNL     1      -9.113   9.325  63.596  1.00  0.00    -0.423 OA 
HETATM   30  H   UNL     1      -9.637   9.705  62.901  1.00  0.00     0.000 HD 
BRANCH  28  31
HETATM   31  C   UNL     1      -9.792  11.266  64.860  1.00  0.00    -0.264 C  
BRANCH  31  32
HETATM   32  O   UNL     1     -10.611  11.631  65.979  1.00  0.00    -0.242 OA 
HETATM   33  P   UNL     1     -11.719  12.762  65.766  1.00  0.00    -0.436 P  
HETATM   34  O   UNL     1     -10.914  14.079  65.358  1.00  0.00    -0.302 OA 
HETATM   35  O   UNL     1     -12.263  13.111  67.224  1.00  0.00    -0.317 OA 
HETATM   36  O   UNL     1     -12.815  12.452  64.809  1.00  0.00    -0.728 OA 
ENDBRANCH  31  32
ENDBRANCH  28  31
ENDBRANCH  25  28
ENDBRANCH  22  25
ENDBRANCH  21  22
ENDBRANCH   7  21
TORSDOF 6
ENDMDL
MODEL      130
REMARK 921   NORMALIZED FREE ENERGY PREDICTED BY IDOCK:   -4.89 KCAL/MOL
REMARK 922        TOTAL FREE ENERGY PREDICTED BY IDOCK:   -8.94 KCAL/MOL
REMARK 923 INTER-LIGAND FREE ENERGY PREDICTED BY IDOCK:   -7.59 KCAL/MOL
REMARK 924 INTRA-LIGAND FREE ENERGY PREDICTED BY IDOCK:   -1.36 KCAL/MOL
REMARK 927      BINDING AFFINITY PREDICTED BY RF-SCORE:    0.00 PKD
ROOT
HETATM    1  C   UNL     1      -8.741   8.701  62.381  1.00  0.00    -0.112 C  
HETATM    2  C   UNL     1      -8.820   9.501  63.651  1.00  0.00    -0.236 A  
HETATM    3  C   UNL     1      -9.690  10.585  63.745  1.00  0.00    -0.385 A  
HETATM    4  C   UNL     1      -9.849  11.265  64.960  1.00  0.00    -0.261 A  
HETATM    5  C   UNL     1      -9.035  10.954  66.076  1.00  0.00    -0.186 A  
HETATM    6  C   UNL     1      -8.016  10.035  65.886  1.00  0.00    -0.124 A  
HETATM    7  N   UNL     1      -9.316  11.501  67.353  1.00  0.00    -0.165 NA 
HETATM    8  H   UNL     1     -13.086  15.002  67.626  1.00  0.00     0.000 HD 
HETATM    9  C   UNL     1      -8.071   9.170  64.789  1.00  0.00    -0.140 A  
HETATM   10  C   UNL     1     -10.375  12.402  67.435  1.00  0.00    -0.207 A  
HETATM   11  C   UNL     1      -7.658   7.759  65.107  1.00  0.00    -0.094 C  
HETATM   12  C   UNL     1     -12.200  13.808  66.241  1.00  0.00    -0.447 C  
HETATM   13  N   UNL     1     -10.760  12.914  68.562  1.00  0.00    -0.249 N  
HETATM   14  H   UNL     1     -10.271  12.649  69.417  1.00  0.00     0.000 HD 
HETATM   15  N   UNL     1     -10.869  12.217  65.016  1.00  0.00    -0.287 NA 
HETATM   16  C   UNL     1     -11.797  13.795  68.640  1.00  0.00    -0.374 C  
HETATM   17  N   UNL     1     -12.406  14.251  67.508  1.00  0.00    -0.191 N  
HETATM   18  O   UNL     1     -12.839  14.186  65.273  1.00  0.00    -0.670 OA 
HETATM   19  C   UNL     1     -11.117  12.773  66.161  1.00  0.00    -0.290 A  
HETATM   20  O   UNL     1     -12.212  14.201  69.720  1.00  0.00    -0.326 OA 
ENDROOT
BRANCH   7  21
HETATM   21  C   UNL     1      -8.972  10.671  68.560  1.00  0.00    -0.156 C  
BRANCH  21  22
HETATM   22  C   UNL     1     -10.194   9.918  69.129  1.00  0.00    -0.205 C  
HETATM   23  O   UNL     1     -10.598  10.522  70.357  1.00  0.00    -0.438 OA 
HETATM   24  H   UNL     1     -11.349  10.058  70.707  1.00  0.00     0.000 HD 
BRANCH  22  25
HETATM   25  C   UNL     1      -9.995   8.395  69.319  1.00  0.00    -0.195 C  
HETATM   26  O   UNL     1      -8.792   8.171  70.086  1.00  0.00    -0.142 OA 
HETATM   27  H   UNL     1      -8.671   7.237  70.203  1.00  0.00     0.000 HD 
BRANCH  25  28
HETATM   28  C   UNL     1      -9.939   7.489  68.066  1.00  0.00    -0.172 C  
HETATM   29  O   UNL     1     -10.847   8.029  67.073  1.00  0.00    -0.443 OA 
HETATM   30  H   UNL     1     -10.813   7.473  66.304  1.00  0.00     0.000 HD 
BRANCH  28  31
HETATM   31  C   UNL     1     -10.294   6.011  68.276  1.00  0.00    -0.207 C  
BRANCH  31  32
HETATM   32  O   UNL     1     -10.488   5.820  69.684  1.00  0.00    -0.236 OA 
HETATM   33  P   UNL     1      -9.426   4.929  70.478  1.00  0.00    -0.199 P  
HETATM   34  O   UNL     1      -9.507   3.477  69.820  1.00  0.00    -0.166 OA 
HETATM   35  O   UNL     1     -10.054   4.703  71.927  1.00  0.00    -0.188 OA 
HETATM   36  O   UNL     1      -8.032   5.445  70.537  1.00  0.00    -0.096 OA 
ENDBRANCH  31  32
ENDBRANCH  28  31
ENDBRANCH  25  28
ENDBRANCH  22  25
ENDBRANCH  21  22
ENDBRANCH   7  21
TORSDOF 6
ENDMDL
MODEL      131
REMARK 921   NORMALIZED FREE ENERGY PREDICTED BY IDOCK:   -4.88 KCAL/MOL
REMARK 922        TOTAL FREE ENERGY PREDICTED BY IDOCK:   -8.94 KCAL/MOL
REMARK 923 INTER-LIGAND FREE ENERGY PREDICTED BY IDOCK:   -7.48 KCAL/MOL
REMARK 924 INTRA-LIGAND FREE ENERGY PREDICTED BY IDOCK:   -1.46 KCAL/MOL
REMARK 927      BINDING AFFINITY PREDICTED BY RF-SCORE:    0.00 PKD
ROOT
HETATM    1  C   UNL     1     -10.715   6.694  71.123  1.00  0.00    -0.274 C  
HETATM    2  C   UNL     1     -10.944   7.969  70.364  1.00  0.00    -0.248 A  
HETATM    3  C   UNL     1     -11.644   9.021  70.952  1.00  0.00    -0.344 A  
HETATM    4  C   UNL     1     -11.764  10.251  70.292  1.00  0.00    -0.306 A  
HETATM    5  C   UNL     1     -11.297  10.411  68.965  1.00  0.00    -0.219 A  
HETATM    6  C   UNL     1     -10.818   9.284  68.318  1.00  0.00    -0.132 A  
HETATM    7  N   UNL     1     -11.243  11.693  68.365  1.00  0.00    -0.226 NA 
HETATM    8  H   UNL     1     -13.259  15.615  71.029  1.00  0.00     0.000 HD 
HETATM    9  C   UNL     1     -10.433   8.173  69.074  1.00  0.00    -0.211 A  
HETATM   10  C   UNL     1     -11.734  12.761  69.112  1.00  0.00    -0.322 A  
HETATM   11  C   UNL     1      -9.169   7.517  68.590  1.00  0.00    -0.144 C  
HETATM   12  C   UNL     1     -12.936  13.621  71.244  1.00  0.00    -0.322 C  
HETATM   13  N   UNL     1     -11.676  13.985  68.688  1.00  0.00    -0.332 N  
HETATM   14  H   UNL     1     -11.258  14.172  67.776  1.00  0.00     0.000 HD 
HETATM   15  N   UNL     1     -12.321  11.303  71.024  1.00  0.00    -0.380 NA 
HETATM   16  C   UNL     1     -12.157  15.029  69.421  1.00  0.00    -0.255 C  
HETATM   17  N   UNL     1     -12.814  14.807  70.595  1.00  0.00    -0.351 N  
HETATM   18  O   UNL     1     -13.456  13.493  72.340  1.00  0.00    -0.511 OA 
HETATM   19  C   UNL     1     -12.332  12.480  70.480  1.00  0.00    -0.262 A  
HETATM   20  O   UNL     1     -12.014  16.190  69.052  1.00  0.00    -0.291 OA 
ENDROOT
BRANCH   7  21
HETATM   21  C   UNL     1     -10.153  11.950  67.359  1.00  0.00    -0.196 C  
BRANCH  21  22
HETATM   22  C   UNL     1      -8.763  12.095  68.015  1.00  0.00    -0.180 C  
HETATM   23  O   UNL     1      -8.792  13.161  68.962  1.00  0.00    -0.343 OA 
HETATM   24  H   UNL     1      -7.936  13.251  69.366  1.00  0.00     0.000 HD 
BRANCH  22  25
HETATM   25  C   UNL     1      -7.589  12.287  67.026  1.00  0.00    -0.071 C  
HETATM   26  O   UNL     1      -7.680  11.286  65.989  1.00  0.00    -0.345 OA 
HETATM   27  H   UNL     1      -6.959  11.404  65.382  1.00  0.00     0.000 HD 
BRANCH  25  28
HETATM   28  C   UNL     1      -6.142  12.276  67.576  1.00  0.00    -0.140 C  
HETATM   29  O   UNL     1      -6.129  11.511  68.807  1.00  0.00    -0.047 OA 
HETATM   30  H   UNL     1      -5.241  11.504  69.145  1.00  0.00     0.000 HD 
BRANCH  28  31
HETATM   31  C   UNL     1      -5.510  13.645  67.863  1.00  0.00    -0.099 C  
BRANCH  31  32
HETATM   32  O   UNL     1      -6.378  14.636  67.298  1.00  0.00    -0.303 OA 
HETATM   33  P   UNL     1      -6.618  15.986  68.119  1.00  0.00    -0.142 P  
HETATM   34  O   UNL     1      -7.293  15.538  69.494  1.00  0.00    -0.200 OA 
HETATM   35  O   UNL     1      -7.803  16.742  67.366  1.00  0.00    -0.161 OA 
HETATM   36  O   UNL     1      -5.430  16.858  68.332  1.00  0.00    -0.125 OA 
ENDBRANCH  31  32
ENDBRANCH  28  31
ENDBRANCH  25  28
ENDBRANCH  22  25
ENDBRANCH  21  22
ENDBRANCH   7  21
TORSDOF 6
ENDMDL
MODEL      132
REMARK 921   NORMALIZED FREE ENERGY PREDICTED BY IDOCK:   -4.87 KCAL/MOL
REMARK 922        TOTAL FREE ENERGY PREDICTED BY IDOCK:   -8.92 KCAL/MOL
REMARK 923 INTER-LIGAND FREE ENERGY PREDICTED BY IDOCK:   -8.38 KCAL/MOL
REMARK 924 INTRA-LIGAND FREE ENERGY PREDICTED BY IDOCK:   -0.54 KCAL/MOL
REMARK 927      BINDING AFFINITY PREDICTED BY RF-SCORE:    0.00 PKD
ROOT
HETATM    1  C   UNL     1     -11.450   6.618  71.078  1.00  0.00    -0.382 C  
HETATM    2  C   UNL     1     -11.418   8.024  70.550  1.00  0.00    -0.192 A  
HETATM    3  C   UNL     1     -12.148   9.028  71.182  1.00  0.00    -0.345 A  
HETATM    4  C   UNL     1     -12.035  10.361  70.762  1.00  0.00    -0.363 A  
HETATM    5  C   UNL     1     -11.287  10.696  69.609  1.00  0.00    -0.294 A  
HETATM    6  C   UNL     1     -10.765   9.652  68.862  1.00  0.00    -0.230 A  
HETATM    7  N   UNL     1     -11.012  12.049  69.290  1.00  0.00    -0.179 NA 
HETATM    8  H   UNL     1     -13.256  15.647  72.217  1.00  0.00     0.000 HD 
HETATM    9  C   UNL     1     -10.631   8.391  69.449  1.00  0.00    -0.204 A  
HETATM   10  C   UNL     1     -11.571  13.019  70.119  1.00  0.00    -0.064 A  
HETATM   11  C   UNL     1      -9.345   7.693  69.103  1.00  0.00    -0.147 C  
HETATM   12  C   UNL     1     -13.133  13.622  72.101  1.00  0.00    -0.396 C  
HETATM   13  N   UNL     1     -11.336  14.283  69.959  1.00  0.00    -0.428 N  
HETATM   14  H   UNL     1     -10.721  14.579  69.201  1.00  0.00     0.000 HD 
HETATM   15  N   UNL     1     -12.656  11.324  71.561  1.00  0.00    -0.346 NA 
HETATM   16  C   UNL     1     -11.883  15.230  70.772  1.00  0.00    -0.338 C  
HETATM   17  N   UNL     1     -12.789  14.882  71.730  1.00  0.00    -0.312 N  
HETATM   18  O   UNL     1     -13.882  13.364  73.029  1.00  0.00    -0.433 OA 
HETATM   19  C   UNL     1     -12.466  12.571  71.264  1.00  0.00    -0.170 A  
HETATM   20  O   UNL     1     -11.581  16.414  70.671  1.00  0.00    -0.300 OA 
ENDROOT
BRANCH   7  21
HETATM   21  C   UNL     1      -9.718  12.354  68.585  1.00  0.00    -0.055 C  
BRANCH  21  22
HETATM   22  C   UNL     1      -9.903  12.552  67.066  1.00  0.00    -0.217 C  
HETATM   23  O   UNL     1      -8.862  13.389  66.564  1.00  0.00    -0.434 OA 
HETATM   24  H   UNL     1      -8.976  13.512  65.628  1.00  0.00     0.000 HD 
BRANCH  22  25
HETATM   25  C   UNL     1     -11.286  13.100  66.640  1.00  0.00    -0.304 C  
HETATM   26  O   UNL     1     -12.271  12.056  66.792  1.00  0.00    -0.545 OA 
HETATM   27  H   UNL     1     -13.120  12.393  66.531  1.00  0.00     0.000 HD 
BRANCH  25  28
HETATM   28  C   UNL     1     -11.444  13.705  65.223  1.00  0.00    -0.308 C  
HETATM   29  O   UNL     1     -12.699  13.240  64.668  1.00  0.00    -0.643 OA 
HETATM   30  H   UNL     1     -12.797  13.611  63.799  1.00  0.00     0.000 HD 
BRANCH  28  31
HETATM   31  C   UNL     1     -10.333  13.381  64.215  1.00  0.00    -0.226 C  
BRANCH  31  32
HETATM   32  O   UNL     1     -10.704  12.163  63.556  1.00  0.00    -0.410 OA 
HETATM   33  P   UNL     1      -9.592  11.028  63.386  1.00  0.00    -0.388 P  
HETATM   34  O   UNL     1      -8.443  11.684  62.492  1.00  0.00    -0.185 OA 
HETATM   35  O   UNL     1     -10.232   9.942  62.410  1.00  0.00     0.646 OA 
HETATM   36  O   UNL     1      -9.057  10.424  64.637  1.00  0.00    -0.188 OA 
ENDBRANCH  31  32
ENDBRANCH  28  31
ENDBRANCH  25  28
ENDBRANCH  22  25
ENDBRANCH  21  22
ENDBRANCH   7  21
TORSDOF 6
ENDMDL
MODEL      133
REMARK 921   NORMALIZED FREE ENERGY PREDICTED BY IDOCK:   -4.87 KCAL/MOL
REMARK 922        TOTAL FREE ENERGY PREDICTED BY IDOCK:   -8.92 KCAL/MOL
REMARK 923 INTER-LIGAND FREE ENERGY PREDICTED BY IDOCK:   -7.33 KCAL/MOL
REMARK 924 INTRA-LIGAND FREE ENERGY PREDICTED BY IDOCK:   -1.59 KCAL/MOL
REMARK 927      BINDING AFFINITY PREDICTED BY RF-SCORE:    0.00 PKD
ROOT
HETATM    1  C   UNL     1      -9.507   9.470  70.547  1.00  0.00    -0.306 C  
HETATM    2  C   UNL     1     -10.117  10.287  69.444  1.00  0.00    -0.255 A  
HETATM    3  C   UNL     1     -10.107  11.679  69.514  1.00  0.00     0.482 A  
HETATM    4  C   UNL     1     -10.573  12.448  68.439  1.00  0.00    -0.236 A  
HETATM    5  C   UNL     1     -11.186  11.833  67.320  1.00  0.00    -0.305 A  
HETATM    6  C   UNL     1     -11.397  10.466  67.381  1.00  0.00    -0.045 A  
HETATM    7  N   UNL     1     -11.484  12.582  66.155  1.00  0.00    -0.356 NA 
HETATM    8  H   UNL     1     -10.697  17.669  66.372  1.00  0.00     0.000 HD 
HETATM    9  C   UNL     1     -10.669   9.701  68.297  1.00  0.00    -0.262 A  
HETATM   10  C   UNL     1     -11.214  13.948  66.195  1.00  0.00    -0.303 A  
HETATM   11  C   UNL     1     -10.184   8.389  67.743  1.00  0.00    -0.283 C  
HETATM   12  C   UNL     1     -10.464  16.030  67.549  1.00  0.00    -0.297 C  
HETATM   13  N   UNL     1     -11.389  14.717  65.166  1.00  0.00    -0.364 N  
HETATM   14  H   UNL     1     -11.736  14.309  64.298  1.00  0.00     0.000 HD 
HETATM   15  N   UNL     1     -10.361  13.827  68.516  1.00  0.00    -0.242 NA 
HETATM   16  C   UNL     1     -11.123  16.053  65.208  1.00  0.00    -0.213 C  
HETATM   17  N   UNL     1     -10.757  16.651  66.378  1.00  0.00    -0.191 N  
HETATM   18  O   UNL     1     -10.051  16.606  68.543  1.00  0.00    -0.240 OA 
HETATM   19  C   UNL     1     -10.672  14.546  67.483  1.00  0.00    -0.276 A  
HETATM   20  O   UNL     1     -11.203  16.754  64.205  1.00  0.00    -1.155 OA 
ENDROOT
BRANCH   7  21
HETATM   21  C   UNL     1     -11.427  11.869  64.831  1.00  0.00    -0.253 C  
BRANCH  21  22
HETATM   22  C   UNL     1     -10.019  11.903  64.199  1.00  0.00    -0.262 C  
HETATM   23  O   UNL     1     -10.129  12.179  62.804  1.00  0.00    -0.388 OA 
HETATM   24  H   UNL     1      -9.262  12.200  62.415  1.00  0.00     0.000 HD 
BRANCH  22  25
HETATM   25  C   UNL     1      -9.166  10.633  64.430  1.00  0.00    -0.234 C  
HETATM   26  O   UNL     1     -10.033   9.479  64.429  1.00  0.00    -0.332 OA 
HETATM   27  H   UNL     1      -9.509   8.699  64.571  1.00  0.00     0.000 HD 
BRANCH  25  28
HETATM   28  C   UNL     1      -8.268  10.557  65.688  1.00  0.00    -0.161 C  
HETATM   29  O   UNL     1      -7.920  11.908  66.081  1.00  0.00    -0.371 OA 
HETATM   30  H   UNL     1      -7.369  11.862  66.854  1.00  0.00     0.000 HD 
BRANCH  28  31
HETATM   31  C   UNL     1      -6.967   9.755  65.552  1.00  0.00    -0.099 C  
BRANCH  31  32
HETATM   32  O   UNL     1      -7.061   8.644  66.453  1.00  0.00    -0.077 OA 
HETATM   33  P   UNL     1      -6.981   7.169  65.844  1.00  0.00    -0.067 P  
HETATM   34  O   UNL     1      -8.229   7.044  64.857  1.00  0.00    -0.132 OA 
HETATM   35  O   UNL     1      -7.369   6.189  67.041  1.00  0.00    -0.080 OA 
HETATM   36  O   UNL     1      -5.701   6.785  65.188  1.00  0.00    -0.029 OA 
ENDBRANCH  31  32
ENDBRANCH  28  31
ENDBRANCH  25  28
ENDBRANCH  22  25
ENDBRANCH  21  22
ENDBRANCH   7  21
TORSDOF 6
ENDMDL
MODEL      134
REMARK 921   NORMALIZED FREE ENERGY PREDICTED BY IDOCK:   -4.86 KCAL/MOL
REMARK 922        TOTAL FREE ENERGY PREDICTED BY IDOCK:   -8.92 KCAL/MOL
REMARK 923 INTER-LIGAND FREE ENERGY PREDICTED BY IDOCK:   -7.66 KCAL/MOL
REMARK 924 INTRA-LIGAND FREE ENERGY PREDICTED BY IDOCK:   -1.26 KCAL/MOL
REMARK 927      BINDING AFFINITY PREDICTED BY RF-SCORE:    0.00 PKD
ROOT
HETATM    1  C   UNL     1     -10.741   5.725  72.515  1.00  0.00    -0.279 C  
HETATM    2  C   UNL     1     -10.884   6.845  71.524  1.00  0.00    -0.257 A  
HETATM    3  C   UNL     1     -11.610   7.988  71.856  1.00  0.00    -0.348 A  
HETATM    4  C   UNL     1     -11.653   9.081  70.980  1.00  0.00    -0.300 A  
HETATM    5  C   UNL     1     -11.077   8.998  69.689  1.00  0.00    -0.067 A  
HETATM    6  C   UNL     1     -10.568   7.772  69.295  1.00  0.00    -0.199 A  
HETATM    7  N   UNL     1     -10.950  10.152  68.877  1.00  0.00    -0.227 NA 
HETATM    8  H   UNL     1     -13.103  14.496  70.623  1.00  0.00     0.000 HD 
HETATM    9  C   UNL     1     -10.266   6.813  70.267  1.00  0.00    -0.216 A  
HETATM   10  C   UNL     1     -11.480  11.339  69.378  1.00  0.00    -0.301 A  
HETATM   11  C   UNL     1      -8.979   6.076  70.014  1.00  0.00    -0.149 C  
HETATM   12  C   UNL     1     -12.836  12.571  71.216  1.00  0.00    -0.241 C  
HETATM   13  N   UNL     1     -11.366  12.467  68.749  1.00  0.00    -0.270 N  
HETATM   14  H   UNL     1     -10.871  12.486  67.857  1.00  0.00     0.000 HD 
HETATM   15  N   UNL     1     -12.248  10.249  71.464  1.00  0.00    -0.374 NA 
HETATM   16  C   UNL     1     -11.885  13.626  69.242  1.00  0.00    -0.346 C  
HETATM   17  N   UNL     1     -12.639  13.621  70.378  1.00  0.00    -0.270 N  
HETATM   18  O   UNL     1     -13.446  12.643  72.270  1.00  0.00    -0.561 OA 
HETATM   19  C   UNL     1     -12.193  11.309  70.720  1.00  0.00    -0.380 A  
HETATM   20  O   UNL     1     -11.691  14.702  68.686  1.00  0.00    -0.307 OA 
ENDROOT
BRANCH   7  21
HETATM   21  C   UNL     1      -9.778  10.221  67.935  1.00  0.00    -0.145 C  
BRANCH  21  22
HETATM   22  C   UNL     1     -10.206  10.211  66.453  1.00  0.00    -0.221 C  
HETATM   23  O   UNL     1      -9.947   8.926  65.889  1.00  0.00    -0.441 OA 
HETATM   24  H   UNL     1     -10.211   8.920  64.976  1.00  0.00     0.000 HD 
BRANCH  22  25
HETATM   25  C   UNL     1      -9.571  11.318  65.579  1.00  0.00    -0.228 C  
HETATM   26  O   UNL     1     -10.474  12.443  65.517  1.00  0.00    -0.261 OA 
HETATM   27  H   UNL     1     -10.084  13.123  64.981  1.00  0.00     0.000 HD 
BRANCH  25  28
HETATM   28  C   UNL     1      -9.138  10.972  64.134  1.00  0.00    -0.097 C  
HETATM   29  O   UNL     1     -10.247  10.313  63.473  1.00  0.00    -0.470 OA 
HETATM   30  H   UNL     1      -9.982  10.101  62.586  1.00  0.00     0.000 HD 
BRANCH  28  31
HETATM   31  C   UNL     1      -7.902  10.075  63.988  1.00  0.00    -0.150 C  
BRANCH  31  32
HETATM   32  O   UNL     1      -8.319   8.891  63.295  1.00  0.00    -0.184 OA 
HETATM   33  P   UNL     1      -7.670   7.496  63.724  1.00  0.00    -0.092 P  
HETATM   34  O   UNL     1      -6.106   7.646  63.443  1.00  0.00    -0.053 OA 
HETATM   35  O   UNL     1      -8.136   6.447  62.618  1.00  0.00    -0.109 OA 
HETATM   36  O   UNL     1      -7.951   7.026  65.108  1.00  0.00    -0.117 OA 
ENDBRANCH  31  32
ENDBRANCH  28  31
ENDBRANCH  25  28
ENDBRANCH  22  25
ENDBRANCH  21  22
ENDBRANCH   7  21
TORSDOF 6
ENDMDL
MODEL      135
REMARK 921   NORMALIZED FREE ENERGY PREDICTED BY IDOCK:   -4.84 KCAL/MOL
REMARK 922        TOTAL FREE ENERGY PREDICTED BY IDOCK:   -8.89 KCAL/MOL
REMARK 923 INTER-LIGAND FREE ENERGY PREDICTED BY IDOCK:   -7.61 KCAL/MOL
REMARK 924 INTRA-LIGAND FREE ENERGY PREDICTED BY IDOCK:   -1.28 KCAL/MOL
REMARK 927      BINDING AFFINITY PREDICTED BY RF-SCORE:    0.00 PKD
ROOT
HETATM    1  C   UNL     1     -10.730   5.761  73.792  1.00  0.00    -0.247 C  
HETATM    2  C   UNL     1     -10.857   6.662  72.596  1.00  0.00    -0.279 A  
HETATM    3  C   UNL     1     -11.571   7.855  72.688  1.00  0.00    -0.435 A  
HETATM    4  C   UNL     1     -11.600   8.751  71.611  1.00  0.00    -0.320 A  
HETATM    5  C   UNL     1     -11.020   8.406  70.366  1.00  0.00    -0.239 A  
HETATM    6  C   UNL     1     -10.524   7.120  70.229  1.00  0.00    -0.232 A  
HETATM    7  N   UNL     1     -10.878   9.372  69.340  1.00  0.00    -0.218 NA 
HETATM    8  H   UNL     1     -12.987  14.000  70.170  1.00  0.00     0.000 HD 
HETATM    9  C   UNL     1     -10.236   6.372  71.374  1.00  0.00    -0.228 A  
HETATM   10  C   UNL     1     -11.396  10.641  69.591  1.00  0.00    -0.294 A  
HETATM   11  C   UNL     1      -8.957   5.586  71.280  1.00  0.00    -0.153 C  
HETATM   12  C   UNL     1     -12.743  12.230  71.137  1.00  0.00    -0.243 C  
HETATM   13  N   UNL     1     -11.266  11.618  68.749  1.00  0.00    -0.222 N  
HETATM   14  H   UNL     1     -10.769  11.454  67.874  1.00  0.00     0.000 HD 
HETATM   15  N   UNL     1     -12.182   9.998  71.848  1.00  0.00    -0.290 NA 
HETATM   16  C   UNL     1     -11.774  12.859  68.997  1.00  0.00    -0.327 C  
HETATM   17  N   UNL     1     -12.532  13.089  70.107  1.00  0.00    -0.162 N  
HETATM   18  O   UNL     1     -13.356  12.518  72.152  1.00  0.00    -0.525 OA 
HETATM   19  C   UNL     1     -12.113  10.888  70.908  1.00  0.00    -0.349 A  
HETATM   20  O   UNL     1     -11.566  13.799  68.238  1.00  0.00    -0.295 OA 
ENDROOT
BRANCH   7  21
HETATM   21  C   UNL     1      -9.702   9.238  68.410  1.00  0.00    -0.154 C  
BRANCH  21  22
HETATM   22  C   UNL     1     -10.117   8.807  66.987  1.00  0.00    -0.265 C  
HETATM   23  O   UNL     1     -10.912   7.625  67.060  1.00  0.00    -0.489 OA 
HETATM   24  H   UNL     1     -11.167   7.359  66.184  1.00  0.00     0.000 HD 
BRANCH  22  25
HETATM   25  C   UNL     1      -8.947   8.608  65.995  1.00  0.00    -0.184 C  
HETATM   26  O   UNL     1      -9.378   9.004  64.675  1.00  0.00    -0.425 OA 
HETATM   27  H   UNL     1      -8.659   8.881  64.067  1.00  0.00     0.000 HD 
BRANCH  25  28
HETATM   28  C   UNL     1      -8.292   7.209  65.886  1.00  0.00    -0.141 C  
HETATM   29  O   UNL     1      -9.264   6.296  65.316  1.00  0.00    -0.363 OA 
HETATM   30  H   UNL     1      -8.862   5.438  65.248  1.00  0.00     0.000 HD 
BRANCH  28  31
HETATM   31  C   UNL     1      -7.775   6.593  67.192  1.00  0.00    -0.100 C  
BRANCH  31  32
HETATM   32  O   UNL     1      -8.787   5.693  67.663  1.00  0.00    -0.108 OA 
HETATM   33  P   UNL     1      -8.420   4.143  67.786  1.00  0.00    -0.102 P  
HETATM   34  O   UNL     1      -8.061   3.669  66.305  1.00  0.00    -0.095 OA 
HETATM   35  O   UNL     1      -9.800   3.397  68.078  1.00  0.00    -0.072 OA 
HETATM   36  O   UNL     1      -7.360   3.782  68.766  1.00  0.00    -0.053 OA 
ENDBRANCH  31  32
ENDBRANCH  28  31
ENDBRANCH  25  28
ENDBRANCH  22  25
ENDBRANCH  21  22
ENDBRANCH   7  21
TORSDOF 6
ENDMDL
MODEL      136
REMARK 921   NORMALIZED FREE ENERGY PREDICTED BY IDOCK:   -4.84 KCAL/MOL
REMARK 922        TOTAL FREE ENERGY PREDICTED BY IDOCK:   -8.88 KCAL/MOL
REMARK 923 INTER-LIGAND FREE ENERGY PREDICTED BY IDOCK:   -7.89 KCAL/MOL
REMARK 924 INTRA-LIGAND FREE ENERGY PREDICTED BY IDOCK:   -0.99 KCAL/MOL
REMARK 927      BINDING AFFINITY PREDICTED BY RF-SCORE:    0.00 PKD
ROOT
HETATM    1  C   UNL     1     -12.755  12.839  62.840  1.00  0.00     0.534 C  
HETATM    2  C   UNL     1     -11.991  12.332  64.030  1.00  0.00    -0.551 A  
HETATM    3  C   UNL     1     -10.856  11.544  63.853  1.00  0.00    -0.469 A  
HETATM    4  C   UNL     1     -10.077  11.162  64.954  1.00  0.00    -0.289 A  
HETATM    5  C   UNL     1     -10.498  11.451  66.274  1.00  0.00    -0.255 A  
HETATM    6  C   UNL     1     -11.747  12.027  66.433  1.00  0.00    -0.326 A  
HETATM    7  N   UNL     1      -9.630  11.239  67.374  1.00  0.00    -0.169 NA 
HETATM    8  H   UNL     1      -5.126   8.934  66.396  1.00  0.00     0.000 HD 
HETATM    9  C   UNL     1     -12.352  12.662  65.344  1.00  0.00    -0.499 A  
HETATM   10  C   UNL     1      -8.389  10.670  67.099  1.00  0.00    -0.125 A  
HETATM   11  C   UNL     1     -13.038  13.953  65.698  1.00  0.00    -0.205 C  
HETATM   12  C   UNL     1      -6.766   9.587  65.388  1.00  0.00    -0.081 C  
HETATM   13  N   UNL     1      -7.493  10.489  68.018  1.00  0.00    -0.089 N  
HETATM   14  H   UNL     1      -7.704  10.771  68.975  1.00  0.00     0.000 HD 
HETATM   15  N   UNL     1      -8.863  10.530  64.673  1.00  0.00    -0.191 NA 
HETATM   16  C   UNL     1      -6.278   9.934  67.746  1.00  0.00    -0.055 C  
HETATM   17  N   UNL     1      -6.000   9.451  66.501  1.00  0.00    -0.058 N  
HETATM   18  O   UNL     1      -6.427   9.215  64.277  1.00  0.00    -0.081 OA 
HETATM   19  C   UNL     1      -8.069  10.276  65.666  1.00  0.00    -0.155 A  
HETATM   20  O   UNL     1      -5.405   9.852  68.603  1.00  0.00    -0.036 OA 
ENDROOT
BRANCH   7  21
HETATM   21  C   UNL     1      -9.762  12.159  68.558  1.00  0.00    -0.149 C  
BRANCH  21  22
HETATM   22  C   UNL     1      -9.037  13.505  68.346  1.00  0.00    -0.155 C  
HETATM   23  O   UNL     1      -7.810  13.506  69.074  1.00  0.00    -0.325 OA 
HETATM   24  H   UNL     1      -7.364  14.335  68.944  1.00  0.00     0.000 HD 
BRANCH  22  25
HETATM   25  C   UNL     1      -9.871  14.761  68.695  1.00  0.00    -0.225 C  
HETATM   26  O   UNL     1      -9.389  15.312  69.940  1.00  0.00    -0.440 OA 
HETATM   27  H   UNL     1      -9.901  16.083  70.153  1.00  0.00     0.000 HD 
BRANCH  25  28
HETATM   28  C   UNL     1     -11.410  14.630  68.793  1.00  0.00    -0.281 C  
HETATM   29  O   UNL     1     -11.973  15.960  68.914  1.00  0.00    -0.476 OA 
HETATM   30  H   UNL     1     -12.918  15.880  68.973  1.00  0.00     0.000 HD 
BRANCH  28  31
HETATM   31  C   UNL     1     -11.950  13.781  69.952  1.00  0.00    -0.347 C  
BRANCH  31  32
HETATM   32  O   UNL     1     -11.819  14.566  71.145  1.00  0.00    -0.326 OA 
HETATM   33  P   UNL     1     -13.132  14.847  72.012  1.00  0.00    -0.416 P  
HETATM   34  O   UNL     1     -14.113  15.661  71.052  1.00  0.00    -0.499 OA 
HETATM   35  O   UNL     1     -12.705  15.935  73.097  1.00  0.00    -0.430 OA 
HETATM   36  O   UNL     1     -13.795  13.663  72.623  1.00  0.00    -0.715 OA 
ENDBRANCH  31  32
ENDBRANCH  28  31
ENDBRANCH  25  28
ENDBRANCH  22  25
ENDBRANCH  21  22
ENDBRANCH   7  21
TORSDOF 6
ENDMDL
MODEL      137
REMARK 921   NORMALIZED FREE ENERGY PREDICTED BY IDOCK:   -4.84 KCAL/MOL
REMARK 922        TOTAL FREE ENERGY PREDICTED BY IDOCK:   -8.88 KCAL/MOL
REMARK 923 INTER-LIGAND FREE ENERGY PREDICTED BY IDOCK:   -7.47 KCAL/MOL
REMARK 924 INTRA-LIGAND FREE ENERGY PREDICTED BY IDOCK:   -1.41 KCAL/MOL
REMARK 927      BINDING AFFINITY PREDICTED BY RF-SCORE:    0.00 PKD
ROOT
HETATM    1  C   UNL     1      -5.799   8.154  67.938  1.00  0.00    -0.042 C  
HETATM    2  C   UNL     1      -6.665   9.361  67.712  1.00  0.00    -0.067 A  
HETATM    3  C   UNL     1      -7.218   9.603  66.456  1.00  0.00    -0.090 A  
HETATM    4  C   UNL     1      -8.114  10.663  66.267  1.00  0.00    -0.151 A  
HETATM    5  C   UNL     1      -8.373  11.588  67.307  1.00  0.00    -0.154 A  
HETATM    6  C   UNL     1      -7.630  11.463  68.470  1.00  0.00    -0.129 A  
HETATM    7  N   UNL     1      -9.413  12.542  67.187  1.00  0.00    -0.202 NA 
HETATM    8  H   UNL     1     -11.845  12.799  62.652  1.00  0.00     0.000 HD 
HETATM    9  C   UNL     1      -6.987  10.253  68.744  1.00  0.00    -0.067 A  
HETATM   10  C   UNL     1     -10.109  12.569  65.981  1.00  0.00    -0.253 A  
HETATM   11  C   UNL     1      -7.081   9.827  70.184  1.00  0.00    -0.130 C  
HETATM   12  C   UNL     1     -10.379  11.714  63.546  1.00  0.00    -0.441 C  
HETATM   13  N   UNL     1     -11.120  13.357  65.784  1.00  0.00    -0.282 N  
HETATM   14  H   UNL     1     -11.415  13.978  66.537  1.00  0.00     0.000 HD 
HETATM   15  N   UNL     1      -8.760  10.725  65.029  1.00  0.00    -0.180 NA 
HETATM   16  C   UNL     1     -11.800  13.381  64.603  1.00  0.00    -0.391 C  
HETATM   17  N   UNL     1     -11.371  12.641  63.541  1.00  0.00    -0.481 N  
HETATM   18  O   UNL     1     -10.095  11.011  62.590  1.00  0.00    -0.157 OA 
HETATM   19  C   UNL     1      -9.682  11.622  64.871  1.00  0.00    -0.206 A  
HETATM   20  O   UNL     1     -12.810  14.061  64.459  1.00  0.00    -0.644 OA 
ENDROOT
BRANCH   7  21
HETATM   21  C   UNL     1     -10.122  12.967  68.445  1.00  0.00    -0.225 C  
BRANCH  21  22
HETATM   22  C   UNL     1     -11.227  11.975  68.867  1.00  0.00    -0.261 C  
HETATM   23  O   UNL     1     -11.761  12.365  70.131  1.00  0.00    -0.489 OA 
HETATM   24  H   UNL     1     -12.441  11.754  70.391  1.00  0.00     0.000 HD 
BRANCH  22  25
HETATM   25  C   UNL     1     -10.795  10.490  68.902  1.00  0.00    -0.235 C  
HETATM   26  O   UNL     1     -11.353   9.812  67.755  1.00  0.00    -0.497 OA 
HETATM   27  H   UNL     1     -11.088   8.901  67.776  1.00  0.00     0.000 HD 
BRANCH  25  28
HETATM   28  C   UNL     1     -11.121   9.648  70.160  1.00  0.00    -0.269 C  
HETATM   29  O   UNL     1     -10.171   9.996  71.198  1.00  0.00    -0.201 OA 
HETATM   30  H   UNL     1     -10.371   9.481  71.970  1.00  0.00     0.000 HD 
BRANCH  28  31
HETATM   31  C   UNL     1     -11.094   8.124  69.987  1.00  0.00    -0.146 C  
BRANCH  31  32
HETATM   32  O   UNL     1     -10.007   7.819  69.102  1.00  0.00    -0.174 OA 
HETATM   33  P   UNL     1     -10.203   6.638  68.044  1.00  0.00    -0.207 P  
HETATM   34  O   UNL     1     -10.450   5.321  68.912  1.00  0.00    -0.193 OA 
HETATM   35  O   UNL     1      -8.762   6.386  67.410  1.00  0.00    -0.108 OA 
HETATM   36  O   UNL     1     -11.254   6.836  67.009  1.00  0.00    -0.393 OA 
ENDBRANCH  31  32
ENDBRANCH  28  31
ENDBRANCH  25  28
ENDBRANCH  22  25
ENDBRANCH  21  22
ENDBRANCH   7  21
TORSDOF 6
ENDMDL
MODEL      138
REMARK 921   NORMALIZED FREE ENERGY PREDICTED BY IDOCK:   -4.81 KCAL/MOL
REMARK 922        TOTAL FREE ENERGY PREDICTED BY IDOCK:   -8.84 KCAL/MOL
REMARK 923 INTER-LIGAND FREE ENERGY PREDICTED BY IDOCK:   -7.54 KCAL/MOL
REMARK 924 INTRA-LIGAND FREE ENERGY PREDICTED BY IDOCK:   -1.29 KCAL/MOL
REMARK 927      BINDING AFFINITY PREDICTED BY RF-SCORE:    0.00 PKD
ROOT
HETATM    1  C   UNL     1     -10.602   5.339  71.733  1.00  0.00    -0.268 C  
HETATM    2  C   UNL     1     -10.353   6.505  70.819  1.00  0.00    -0.241 A  
HETATM    3  C   UNL     1     -11.124   7.661  70.929  1.00  0.00    -0.275 A  
HETATM    4  C   UNL     1     -10.825   8.791  70.156  1.00  0.00    -0.227 A  
HETATM    5  C   UNL     1      -9.824   8.740  69.156  1.00  0.00    -0.181 A  
HETATM    6  C   UNL     1      -9.235   7.512  68.905  1.00  0.00    -0.142 A  
HETATM    7  N   UNL     1      -9.387   9.922  68.507  1.00  0.00    -0.140 NA 
HETATM    8  H   UNL     1     -11.927  14.270  69.597  1.00  0.00     0.000 HD 
HETATM    9  C   UNL     1      -9.325   6.501  69.867  1.00  0.00    -0.155 A  
HETATM   10  C   UNL     1     -10.036  11.106  68.848  1.00  0.00    -0.175 A  
HETATM   11  C   UNL     1      -8.050   5.725  70.053  1.00  0.00    -0.108 C  
HETATM   12  C   UNL     1     -11.935  12.312  70.141  1.00  0.00    -0.298 C  
HETATM   13  N   UNL     1      -9.677  12.254  68.365  1.00  0.00    -0.270 N  
HETATM   14  H   UNL     1      -8.894  12.292  67.712  1.00  0.00     0.000 HD 
HETATM   15  N   UNL     1     -11.527   9.960  70.457  1.00  0.00    -0.295 NA 
HETATM   16  C   UNL     1     -10.313  13.412  68.700  1.00  0.00    -0.205 C  
HETATM   17  N   UNL     1     -11.426  13.389  69.488  1.00  0.00    -0.265 N  
HETATM   18  O   UNL     1     -12.882  12.364  70.908  1.00  0.00    -0.218 OA 
HETATM   19  C   UNL     1     -11.185  11.048  69.842  1.00  0.00    -0.252 A  
HETATM   20  O   UNL     1      -9.908  14.502  68.310  1.00  0.00    -0.216 OA 
ENDROOT
BRANCH   7  21
HETATM   21  C   UNL     1      -7.953   9.983  68.054  1.00  0.00    -0.101 C  
BRANCH  21  22
HETATM   22  C   UNL     1      -7.820  10.214  66.534  1.00  0.00    -0.112 C  
HETATM   23  O   UNL     1      -7.587  11.598  66.280  1.00  0.00    -0.372 OA 
HETATM   24  H   UNL     1      -7.506  11.741  65.344  1.00  0.00     0.000 HD 
BRANCH  22  25
HETATM   25  C   UNL     1      -9.011   9.706  65.687  1.00  0.00    -0.169 C  
HETATM   26  O   UNL     1      -8.652   8.445  65.081  1.00  0.00    -0.223 OA 
HETATM   27  H   UNL     1      -9.384   8.134  64.562  1.00  0.00     0.000 HD 
BRANCH  25  28
HETATM   28  C   UNL     1      -9.584  10.624  64.580  1.00  0.00    -0.280 C  
HETATM   29  O   UNL     1      -8.583  11.618  64.251  1.00  0.00    -0.061 OA 
HETATM   30  H   UNL     1      -8.934  12.181  63.571  1.00  0.00     0.000 HD 
BRANCH  28  31
HETATM   31  C   UNL     1     -10.890  11.359  64.911  1.00  0.00    -0.257 C  
BRANCH  31  32
HETATM   32  O   UNL     1     -10.554  12.736  65.130  1.00  0.00    -0.287 OA 
HETATM   33  P   UNL     1     -11.728  13.817  65.071  1.00  0.00    -0.390 P  
HETATM   34  O   UNL     1     -12.315  13.735  63.589  1.00  0.00    -0.678 OA 
HETATM   35  O   UNL     1     -11.005  15.239  65.093  1.00  0.00    -0.368 OA 
HETATM   36  O   UNL     1     -12.792  13.705  66.106  1.00  0.00    -0.313 OA 
ENDBRANCH  31  32
ENDBRANCH  28  31
ENDBRANCH  25  28
ENDBRANCH  22  25
ENDBRANCH  21  22
ENDBRANCH   7  21
TORSDOF 6
ENDMDL
MODEL      139
REMARK 921   NORMALIZED FREE ENERGY PREDICTED BY IDOCK:   -4.80 KCAL/MOL
REMARK 922        TOTAL FREE ENERGY PREDICTED BY IDOCK:   -8.83 KCAL/MOL
REMARK 923 INTER-LIGAND FREE ENERGY PREDICTED BY IDOCK:   -8.35 KCAL/MOL
REMARK 924 INTRA-LIGAND FREE ENERGY PREDICTED BY IDOCK:   -0.48 KCAL/MOL
REMARK 927      BINDING AFFINITY PREDICTED BY RF-SCORE:    0.00 PKD
ROOT
HETATM    1  C   UNL     1     -12.782  12.000  63.450  1.00  0.00    -0.527 C  
HETATM    2  C   UNL     1     -11.730  12.752  64.216  1.00  0.00    -0.443 A  
HETATM    3  C   UNL     1     -11.712  14.145  64.200  1.00  0.00    -0.306 A  
HETATM    4  C   UNL     1     -10.804  14.853  65.000  1.00  0.00    -0.423 A  
HETATM    5  C   UNL     1      -9.803  14.173  65.735  1.00  0.00    -0.271 A  
HETATM    6  C   UNL     1      -9.693  12.805  65.548  1.00  0.00    -0.089 A  
HETATM    7  N   UNL     1      -9.010  14.860  66.687  1.00  0.00    -0.270 NA 
HETATM    8  H   UNL     1      -9.605  19.970  66.982  1.00  0.00     0.000 HD 
HETATM    9  C   UNL     1     -10.771  12.100  65.003  1.00  0.00    -0.338 A  
HETATM   10  C   UNL     1      -9.216  16.233  66.807  1.00  0.00    -0.230 A  
HETATM   11  C   UNL     1     -11.031  10.777  65.669  1.00  0.00     0.033 C  
HETATM   12  C   UNL     1     -10.381  18.392  65.964  1.00  0.00    -0.375 C  
HETATM   13  N   UNL     1      -8.592  16.950  67.689  1.00  0.00    -0.206 N  
HETATM   14  H   UNL     1      -7.928  16.494  68.315  1.00  0.00     0.000 HD 
HETATM   15  N   UNL     1     -10.972  16.238  65.063  1.00  0.00    -0.527 NA 
HETATM   16  C   UNL     1      -8.795  18.292  67.805  1.00  0.00    -0.263 C  
HETATM   17  N   UNL     1      -9.595  18.952  66.920  1.00  0.00    -0.303 N  
HETATM   18  O   UNL     1     -11.150  19.022  65.257  1.00  0.00    -0.401 OA 
HETATM   19  C   UNL     1     -10.225  16.902  65.889  1.00  0.00    -0.314 A  
HETATM   20  O   UNL     1      -8.271  18.944  68.702  1.00  0.00    -0.338 OA 
ENDROOT
BRANCH   7  21
HETATM   21  C   UNL     1      -8.533  14.089  67.888  1.00  0.00    -0.170 C  
BRANCH  21  22
HETATM   22  C   UNL     1      -9.607  13.128  68.441  1.00  0.00    -0.186 C  
HETATM   23  O   UNL     1     -10.313  13.763  69.506  1.00  0.00    -0.417 OA 
HETATM   24  H   UNL     1     -10.974  13.171  69.846  1.00  0.00     0.000 HD 
BRANCH  22  25
HETATM   25  C   UNL     1      -9.079  11.746  68.895  1.00  0.00     0.117 C  
HETATM   26  O   UNL     1      -7.933  11.394  68.089  1.00  0.00    -0.119 OA 
HETATM   27  H   UNL     1      -7.609  10.546  68.369  1.00  0.00     0.000 HD 
BRANCH  25  28
HETATM   28  C   UNL     1     -10.051  10.541  68.897  1.00  0.00    -0.202 C  
HETATM   29  O   UNL     1     -11.325  10.985  69.427  1.00  0.00    -0.235 OA 
HETATM   30  H   UNL     1     -11.921  10.246  69.429  1.00  0.00     0.000 HD 
BRANCH  28  31
HETATM   31  C   UNL     1      -9.609   9.309  69.698  1.00  0.00    -0.183 C  
BRANCH  31  32
HETATM   32  O   UNL     1     -10.682   8.361  69.639  1.00  0.00    -0.232 OA 
HETATM   33  P   UNL     1     -11.416   7.964  71.001  1.00  0.00    -0.264 P  
HETATM   34  O   UNL     1     -10.290   7.302  71.918  1.00  0.00    -0.189 OA 
HETATM   35  O   UNL     1     -12.358   6.729  70.639  1.00  0.00    -0.359 OA 
HETATM   36  O   UNL     1     -12.150   9.051  71.706  1.00  0.00    -0.321 OA 
ENDBRANCH  31  32
ENDBRANCH  28  31
ENDBRANCH  25  28
ENDBRANCH  22  25
ENDBRANCH  21  22
ENDBRANCH   7  21
TORSDOF 6
ENDMDL
MODEL      140
REMARK 921   NORMALIZED FREE ENERGY PREDICTED BY IDOCK:   -4.80 KCAL/MOL
REMARK 922        TOTAL FREE ENERGY PREDICTED BY IDOCK:   -8.83 KCAL/MOL
REMARK 923 INTER-LIGAND FREE ENERGY PREDICTED BY IDOCK:   -7.04 KCAL/MOL
REMARK 924 INTRA-LIGAND FREE ENERGY PREDICTED BY IDOCK:   -1.79 KCAL/MOL
REMARK 927      BINDING AFFINITY PREDICTED BY RF-SCORE:    0.00 PKD
ROOT
HETATM    1  C   UNL     1     -14.086  15.702  72.026  1.00  0.00    -0.514 C  
HETATM    2  C   UNL     1     -13.337  14.473  71.595  1.00  0.00    -0.441 A  
HETATM    3  C   UNL     1     -13.617  13.239  72.178  1.00  0.00    -0.655 A  
HETATM    4  C   UNL     1     -13.002  12.073  71.702  1.00  0.00    -0.334 A  
HETATM    5  C   UNL     1     -11.989  12.138  70.717  1.00  0.00    -0.023 A  
HETATM    6  C   UNL     1     -11.561  13.396  70.324  1.00  0.00    -0.116 A  
HETATM    7  N   UNL     1     -11.501  10.960  70.099  1.00  0.00    -0.313 NA 
HETATM    8  H   UNL     1     -13.220   6.465  71.940  1.00  0.00     0.000 HD 
HETATM    9  C   UNL     1     -12.376  14.504  70.574  1.00  0.00    -0.403 A  
HETATM   10  C   UNL     1     -12.012   9.748  70.558  1.00  0.00    -0.206 A  
HETATM   11  C   UNL     1     -12.433  15.486  69.436  1.00  0.00    -0.030 C  
HETATM   12  C   UNL     1     -13.490   8.454  72.253  1.00  0.00    -0.263 C  
HETATM   13  N   UNL     1     -11.685   8.614  70.023  1.00  0.00    -0.423 N  
HETATM   14  H   UNL     1     -11.031   8.607  69.240  1.00  0.00     0.000 HD 
HETATM   15  N   UNL     1     -13.473  10.862  72.217  1.00  0.00    -0.170 NA 
HETATM   16  C   UNL     1     -12.187   7.429  70.473  1.00  0.00     0.002 C  
HETATM   17  N   UNL     1     -12.982   7.390  71.580  1.00  0.00    -0.362 N  
HETATM   18  O   UNL     1     -14.272   8.364  73.185  1.00  0.00    -0.072 OA 
HETATM   19  C   UNL     1     -13.007   9.765  71.707  1.00  0.00    -0.438 A  
HETATM   20  O   UNL     1     -11.944   6.372  69.902  1.00  0.00    -0.304 OA 
ENDROOT
BRANCH   7  21
HETATM   21  C   UNL     1     -11.037  11.059  68.670  1.00  0.00    -0.240 C  
BRANCH  21  22
HETATM   22  C   UNL     1      -9.516  11.295  68.556  1.00  0.00    -0.191 C  
HETATM   23  O   UNL     1      -9.275  12.556  67.931  1.00  0.00    -0.185 OA 
HETATM   24  H   UNL     1      -8.339  12.701  67.861  1.00  0.00     0.000 HD 
BRANCH  22  25
HETATM   25  C   UNL     1      -8.732  10.177  67.829  1.00  0.00    -0.121 C  
HETATM   26  O   UNL     1      -9.439   9.815  66.623  1.00  0.00    -0.158 OA 
HETATM   27  H   UNL     1      -8.957   9.129  66.177  1.00  0.00     0.000 HD 
BRANCH  25  28
HETATM   28  C   UNL     1      -8.404   8.875  68.600  1.00  0.00    -0.124 C  
HETATM   29  O   UNL     1      -9.490   7.939  68.394  1.00  0.00    -0.147 OA 
HETATM   30  H   UNL     1      -9.289   7.140  68.866  1.00  0.00     0.000 HD 
BRANCH  28  31
HETATM   31  C   UNL     1      -8.180   9.015  70.112  1.00  0.00    -0.136 C  
BRANCH  31  32
HETATM   32  O   UNL     1      -8.643   7.802  70.720  1.00  0.00    -0.129 OA 
HETATM   33  P   UNL     1      -8.450   7.626  72.296  1.00  0.00    -0.143 P  
HETATM   34  O   UNL     1      -6.874   7.672  72.543  1.00  0.00    -0.059 OA 
HETATM   35  O   UNL     1      -8.820   6.106  72.607  1.00  0.00    -0.125 OA 
HETATM   36  O   UNL     1      -9.186   8.581  73.169  1.00  0.00    -0.220 OA 
ENDBRANCH  31  32
ENDBRANCH  28  31
ENDBRANCH  25  28
ENDBRANCH  22  25
ENDBRANCH  21  22
ENDBRANCH   7  21
TORSDOF 6
ENDMDL
MODEL      141
REMARK 921   NORMALIZED FREE ENERGY PREDICTED BY IDOCK:   -4.80 KCAL/MOL
REMARK 922        TOTAL FREE ENERGY PREDICTED BY IDOCK:   -8.83 KCAL/MOL
REMARK 923 INTER-LIGAND FREE ENERGY PREDICTED BY IDOCK:   -6.80 KCAL/MOL
REMARK 924 INTRA-LIGAND FREE ENERGY PREDICTED BY IDOCK:   -2.02 KCAL/MOL
REMARK 927      BINDING AFFINITY PREDICTED BY RF-SCORE:    0.00 PKD
ROOT
HETATM    1  C   UNL     1     -13.049  15.303  70.216  1.00  0.00    -0.143 C  
HETATM    2  C   UNL     1     -12.478  13.917  70.116  1.00  0.00    -0.355 A  
HETATM    3  C   UNL     1     -11.468  13.638  69.198  1.00  0.00    -0.346 A  
HETATM    4  C   UNL     1     -10.855  12.378  69.177  1.00  0.00    -0.097 A  
HETATM    5  C   UNL     1     -11.337  11.324  69.991  1.00  0.00    -0.208 A  
HETATM    6  C   UNL     1     -12.491  11.559  70.720  1.00  0.00    -0.444 A  
HETATM    7  N   UNL     1     -10.610  10.114  70.116  1.00  0.00    -0.285 NA 
HETATM    8  H   UNL     1      -6.452   9.558  67.124  1.00  0.00     0.000 HD 
HETATM    9  C   UNL     1     -12.894  12.876  70.958  1.00  0.00    -0.268 A  
HETATM   10  C   UNL     1      -9.453   9.991  69.350  1.00  0.00    -0.223 A  
HETATM   11  C   UNL     1     -13.399  13.115  72.354  1.00  0.00    -0.591 C  
HETATM   12  C   UNL     1      -7.878  10.949  67.524  1.00  0.00    -0.114 C  
HETATM   13  N   UNL     1      -8.678   8.955  69.432  1.00  0.00    -0.139 N  
HETATM   14  H   UNL     1      -8.924   8.204  70.078  1.00  0.00     0.000 HD 
HETATM   15  N   UNL     1      -9.734  12.239  68.354  1.00  0.00    -0.211 NA 
HETATM   16  C   UNL     1      -7.546   8.836  68.683  1.00  0.00    -0.097 C  
HETATM   17  N   UNL     1      -7.241   9.769  67.736  1.00  0.00    -0.087 N  
HETATM   18  O   UNL     1      -7.508  11.791  66.723  1.00  0.00    -0.131 OA 
HETATM   19  C   UNL     1      -9.078  11.123  68.408  1.00  0.00    -0.168 A  
HETATM   20  O   UNL     1      -6.772   7.897  68.835  1.00  0.00    -0.047 OA 
ENDROOT
BRANCH   7  21
HETATM   21  C   UNL     1     -10.698   9.377  71.425  1.00  0.00    -0.337 C  
BRANCH  21  22
HETATM   22  C   UNL     1     -11.410   8.013  71.291  1.00  0.00    -0.264 C  
HETATM   23  O   UNL     1     -12.598   8.016  72.080  1.00  0.00    -0.365 OA 
HETATM   24  H   UNL     1     -13.036   7.176  71.998  1.00  0.00     0.000 HD 
BRANCH  22  25
HETATM   25  C   UNL     1     -10.538   6.782  71.635  1.00  0.00    -0.214 C  
HETATM   26  O   UNL     1      -9.145   7.155  71.550  1.00  0.00    -0.142 OA 
HETATM   27  H   UNL     1      -8.611   6.399  71.762  1.00  0.00     0.000 HD 
BRANCH  25  28
HETATM   28  C   UNL     1     -10.735   5.479  70.823  1.00  0.00    -0.224 C  
HETATM   29  O   UNL     1     -10.410   4.356  71.679  1.00  0.00    -0.151 OA 
HETATM   30  H   UNL     1     -10.531   3.556  71.181  1.00  0.00     0.000 HD 
BRANCH  28  31
HETATM   31  C   UNL     1      -9.910   5.346  69.536  1.00  0.00    -0.196 C  
BRANCH  31  32
HETATM   32  O   UNL     1     -10.177   6.509  68.741  1.00  0.00    -0.153 OA 
HETATM   33  P   UNL     1     -10.031   6.389  67.155  1.00  0.00    -0.193 P  
HETATM   34  O   UNL     1      -8.501   6.017  66.892  1.00  0.00    -0.109 OA 
HETATM   35  O   UNL     1     -10.138   7.881  66.600  1.00  0.00    -0.260 OA 
HETATM   36  O   UNL     1     -10.964   5.458  66.466  1.00  0.00    -0.239 OA 
ENDBRANCH  31  32
ENDBRANCH  28  31
ENDBRANCH  25  28
ENDBRANCH  22  25
ENDBRANCH  21  22
ENDBRANCH   7  21
TORSDOF 6
ENDMDL
MODEL      142
REMARK 921   NORMALIZED FREE ENERGY PREDICTED BY IDOCK:   -4.79 KCAL/MOL
REMARK 922        TOTAL FREE ENERGY PREDICTED BY IDOCK:   -8.81 KCAL/MOL
REMARK 923 INTER-LIGAND FREE ENERGY PREDICTED BY IDOCK:   -7.53 KCAL/MOL
REMARK 924 INTRA-LIGAND FREE ENERGY PREDICTED BY IDOCK:   -1.29 KCAL/MOL
REMARK 927      BINDING AFFINITY PREDICTED BY RF-SCORE:    0.00 PKD
ROOT
HETATM    1  C   UNL     1     -11.101  15.840  64.670  1.00  0.00    -0.376 C  
HETATM    2  C   UNL     1     -11.063  14.744  65.697  1.00  0.00    -0.342 A  
HETATM    3  C   UNL     1     -11.517  14.980  66.993  1.00  0.00    -0.288 A  
HETATM    4  C   UNL     1     -11.589  13.933  67.923  1.00  0.00    -0.342 A  
HETATM    5  C   UNL     1     -11.079  12.650  67.609  1.00  0.00    -0.263 A  
HETATM    6  C   UNL     1     -10.420  12.504  66.400  1.00  0.00    -0.269 A  
HETATM    7  N   UNL     1     -11.319  11.547  68.465  1.00  0.00    -0.250 NA 
HETATM    8  H   UNL     1     -13.672  12.521  72.944  1.00  0.00     0.000 HD 
HETATM    9  C   UNL     1     -10.625  13.448  65.390  1.00  0.00    -0.310 A  
HETATM   10  C   UNL     1     -12.008  11.803  69.648  1.00  0.00    -0.312 A  
HETATM   11  C   UNL     1     -10.762  12.849  64.017  1.00  0.00    -0.429 C  
HETATM   12  C   UNL     1     -13.076  13.517  71.276  1.00  0.00    -0.262 C  
HETATM   13  N   UNL     1     -12.337  10.859  70.474  1.00  0.00    -0.346 N  
HETATM   14  H   UNL     1     -12.082   9.897  70.251  1.00  0.00     0.000 HD 
HETATM   15  N   UNL     1     -12.222  14.215  69.136  1.00  0.00    -0.312 NA 
HETATM   16  C   UNL     1     -13.013  11.112  71.630  1.00  0.00    -0.443 C  
HETATM   17  N   UNL     1     -13.280  12.394  72.011  1.00  0.00    -0.469 N  
HETATM   18  O   UNL     1     -13.418  14.634  71.628  1.00  0.00    -0.329 OA 
HETATM   19  C   UNL     1     -12.409  13.235  69.963  1.00  0.00    -0.200 A  
HETATM   20  O   UNL     1     -13.400  10.204  72.358  1.00  0.00    -0.347 OA 
ENDROOT
BRANCH   7  21
HETATM   21  C   UNL     1     -11.436  10.185  67.835  1.00  0.00     0.149 C  
BRANCH  21  22
HETATM   22  C   UNL     1     -10.500   9.146  68.489  1.00  0.00    -0.204 C  
HETATM   23  O   UNL     1     -11.228   8.388  69.453  1.00  0.00    -0.444 OA 
HETATM   24  H   UNL     1     -10.652   7.748  69.856  1.00  0.00     0.000 HD 
BRANCH  22  25
HETATM   25  C   UNL     1      -9.215   9.729  69.123  1.00  0.00    -0.176 C  
HETATM   26  O   UNL     1      -8.501  10.488  68.123  1.00  0.00    -0.117 OA 
HETATM   27  H   UNL     1      -7.713  10.846  68.513  1.00  0.00     0.000 HD 
BRANCH  25  28
HETATM   28  C   UNL     1      -8.211   8.762  69.796  1.00  0.00    -0.117 C  
HETATM   29  O   UNL     1      -7.919   9.263  71.125  1.00  0.00    -0.292 OA 
HETATM   30  H   UNL     1      -7.304   8.669  71.539  1.00  0.00     0.000 HD 
BRANCH  28  31
HETATM   31  C   UNL     1      -6.877   8.548  69.069  1.00  0.00    -0.056 C  
BRANCH  31  32
HETATM   32  O   UNL     1      -7.186   8.036  67.766  1.00  0.00    -0.087 OA 
HETATM   33  P   UNL     1      -7.338   6.455  67.592  1.00  0.00    -0.091 P  
HETATM   34  O   UNL     1      -5.917   5.842  67.983  1.00  0.00    -0.015 OA 
HETATM   35  O   UNL     1      -7.418   6.201  66.020  1.00  0.00    -0.079 OA 
HETATM   36  O   UNL     1      -8.455   5.805  68.331  1.00  0.00    -0.109 OA 
ENDBRANCH  31  32
ENDBRANCH  28  31
ENDBRANCH  25  28
ENDBRANCH  22  25
ENDBRANCH  21  22
ENDBRANCH   7  21
TORSDOF 6
ENDMDL
MODEL      143
REMARK 921   NORMALIZED FREE ENERGY PREDICTED BY IDOCK:   -4.75 KCAL/MOL
REMARK 922        TOTAL FREE ENERGY PREDICTED BY IDOCK:   -8.76 KCAL/MOL
REMARK 923 INTER-LIGAND FREE ENERGY PREDICTED BY IDOCK:   -6.91 KCAL/MOL
REMARK 924 INTRA-LIGAND FREE ENERGY PREDICTED BY IDOCK:   -1.84 KCAL/MOL
REMARK 927      BINDING AFFINITY PREDICTED BY RF-SCORE:    0.00 PKD
ROOT
HETATM    1  C   UNL     1     -13.736  13.791  72.336  1.00  0.00    -0.692 C  
HETATM    2  C   UNL     1     -12.914  12.834  71.520  1.00  0.00    -0.388 A  
HETATM    3  C   UNL     1     -12.871  11.482  71.856  1.00  0.00    -0.372 A  
HETATM    4  C   UNL     1     -12.198  10.567  71.035  1.00  0.00    -0.400 A  
HETATM    5  C   UNL     1     -11.438  11.011  69.927  1.00  0.00    -0.320 A  
HETATM    6  C   UNL     1     -11.302  12.379  69.753  1.00  0.00    -0.125 A  
HETATM    7  N   UNL     1     -10.915  10.087  68.988  1.00  0.00    -0.225 NA 
HETATM    8  H   UNL     1     -11.492   5.080  70.063  1.00  0.00     0.000 HD 
HETATM    9  C   UNL     1     -12.207  13.241  70.380  1.00  0.00    -0.404 A  
HETATM   10  C   UNL     1     -11.125   8.735  69.251  1.00  0.00     0.117 A  
HETATM   11  C   UNL     1     -12.654  14.387  69.515  1.00  0.00    -0.034 C  
HETATM   12  C   UNL     1     -11.993   6.885  70.850  1.00  0.00    -0.381 C  
HETATM   13  N   UNL     1     -10.747   7.805  68.430  1.00  0.00    -0.402 N  
HETATM   14  H   UNL     1     -10.279   8.072  67.563  1.00  0.00     0.000 HD 
HETATM   15  N   UNL     1     -12.357   9.214  71.344  1.00  0.00    -0.320 NA 
HETATM   16  C   UNL     1     -10.953   6.483  68.688  1.00  0.00    -0.293 C  
HETATM   17  N   UNL     1     -11.481   6.084  69.880  1.00  0.00    -0.309 N  
HETATM   18  O   UNL     1     -12.538   6.472  71.860  1.00  0.00    -0.341 OA 
HETATM   19  C   UNL     1     -11.845   8.343  70.531  1.00  0.00    -0.001 A  
HETATM   20  O   UNL     1     -10.676   5.619  67.864  1.00  0.00    -0.223 OA 
ENDROOT
BRANCH   7  21
HETATM   21  C   UNL     1     -10.785  10.538  67.559  1.00  0.00    -0.276 C  
BRANCH  21  22
HETATM   22  C   UNL     1      -9.315  10.735  67.131  1.00  0.00    -0.155 C  
HETATM   23  O   UNL     1      -9.122  12.078  66.690  1.00  0.00    -0.198 OA 
HETATM   24  H   UNL     1      -8.217  12.200  66.426  1.00  0.00     0.000 HD 
BRANCH  22  25
HETATM   25  C   UNL     1      -8.804   9.740  66.063  1.00  0.00    -0.147 C  
HETATM   26  O   UNL     1      -9.807   8.724  65.850  1.00  0.00    -0.432 OA 
HETATM   27  H   UNL     1      -9.493   8.113  65.194  1.00  0.00     0.000 HD 
BRANCH  25  28
HETATM   28  C   UNL     1      -7.447   9.032  66.292  1.00  0.00    -0.092 C  
HETATM   29  O   UNL     1      -6.520   9.483  65.274  1.00  0.00    -0.072 OA 
HETATM   30  H   UNL     1      -5.687   9.049  65.415  1.00  0.00     0.000 HD 
BRANCH  28  31
HETATM   31  C   UNL     1      -7.465   7.497  66.268  1.00  0.00    -0.083 C  
BRANCH  31  32
HETATM   32  O   UNL     1      -7.747   7.058  67.603  1.00  0.00    -0.107 OA 
HETATM   33  P   UNL     1      -7.053   5.714  68.118  1.00  0.00    -0.073 P  
HETATM   34  O   UNL     1      -7.582   4.560  67.151  1.00  0.00    -0.084 OA 
HETATM   35  O   UNL     1      -7.759   5.372  69.507  1.00  0.00    -0.075 OA 
HETATM   36  O   UNL     1      -5.568   5.727  68.222  1.00  0.00    -0.007 OA 
ENDBRANCH  31  32
ENDBRANCH  28  31
ENDBRANCH  25  28
ENDBRANCH  22  25
ENDBRANCH  21  22
ENDBRANCH   7  21
TORSDOF 6
ENDMDL
MODEL      144
REMARK 921   NORMALIZED FREE ENERGY PREDICTED BY IDOCK:   -4.73 KCAL/MOL
REMARK 922        TOTAL FREE ENERGY PREDICTED BY IDOCK:   -8.73 KCAL/MOL
REMARK 923 INTER-LIGAND FREE ENERGY PREDICTED BY IDOCK:   -6.79 KCAL/MOL
REMARK 924 INTRA-LIGAND FREE ENERGY PREDICTED BY IDOCK:   -1.94 KCAL/MOL
REMARK 927      BINDING AFFINITY PREDICTED BY RF-SCORE:    0.00 PKD
ROOT
HETATM    1  C   UNL     1      -8.028   7.314  63.931  1.00  0.00    -0.078 C  
HETATM    2  C   UNL     1      -8.554   7.449  65.332  1.00  0.00    -0.058 A  
HETATM    3  C   UNL     1      -8.881   8.705  65.841  1.00  0.00    -0.221 A  
HETATM    4  C   UNL     1      -9.475   8.826  67.105  1.00  0.00    -0.162 A  
HETATM    5  C   UNL     1      -9.632   7.696  67.943  1.00  0.00    -0.144 A  
HETATM    6  C   UNL     1      -9.083   6.500  67.511  1.00  0.00    -0.115 A  
HETATM    7  N   UNL     1     -10.398   7.776  69.133  1.00  0.00    -0.213 NA 
HETATM    8  H   UNL     1     -12.144  12.431  70.486  1.00  0.00     0.000 HD 
HETATM    9  C   UNL     1      -8.779   6.338  66.156  1.00  0.00    -0.148 A  
HETATM   10  C   UNL     1     -10.919   9.024  69.465  1.00  0.00    -0.106 A  
HETATM   11  C   UNL     1      -9.140   4.983  65.610  1.00  0.00    -0.157 C  
HETATM   12  C   UNL     1     -11.090  11.567  68.979  1.00  0.00    -0.245 C  
HETATM   13  N   UNL     1     -11.686   9.201  70.495  1.00  0.00    -0.428 N  
HETATM   14  H   UNL     1     -11.915   8.399  71.083  1.00  0.00     0.000 HD 
HETATM   15  N   UNL     1      -9.936  10.096  67.462  1.00  0.00    -0.183 NA 
HETATM   16  C   UNL     1     -12.196  10.423  70.818  1.00  0.00    -0.359 C  
HETATM   17  N   UNL     1     -11.830  11.534  70.117  1.00  0.00    -0.348 N  
HETATM   18  O   UNL     1     -10.867  12.582  68.339  1.00  0.00    -0.224 OA 
HETATM   19  C   UNL     1     -10.597  10.211  68.571  1.00  0.00    -0.216 A  
HETATM   20  O   UNL     1     -12.994  10.561  71.738  1.00  0.00    -0.429 OA 
ENDROOT
BRANCH   7  21
HETATM   21  C   UNL     1     -11.132   6.540  69.578  1.00  0.00    -0.365 C  
BRANCH  21  22
HETATM   22  C   UNL     1     -10.359   5.746  70.652  1.00  0.00    -0.245 C  
HETATM   23  O   UNL     1     -10.149   4.409  70.199  1.00  0.00    -0.217 OA 
HETATM   24  H   UNL     1      -9.674   3.920  70.860  1.00  0.00     0.000 HD 
BRANCH  22  25
HETATM   25  C   UNL     1     -11.008   5.741  72.057  1.00  0.00    -0.260 C  
HETATM   26  O   UNL     1     -11.332   7.098  72.428  1.00  0.00    -0.257 OA 
HETATM   27  H   UNL     1     -11.730   7.095  73.291  1.00  0.00     0.000 HD 
BRANCH  25  28
HETATM   28  C   UNL     1     -10.235   5.094  73.232  1.00  0.00    -0.186 C  
HETATM   29  O   UNL     1     -10.899   5.459  74.468  1.00  0.00    -0.401 OA 
HETATM   30  H   UNL     1     -10.425   5.062  75.189  1.00  0.00     0.000 HD 
BRANCH  28  31
HETATM   31  C   UNL     1      -8.753   5.469  73.363  1.00  0.00    -0.114 C  
BRANCH  31  32
HETATM   32  O   UNL     1      -8.693   6.695  74.104  1.00  0.00    -0.134 OA 
HETATM   33  P   UNL     1      -8.058   7.977  73.393  1.00  0.00    -0.196 P  
HETATM   34  O   UNL     1      -6.546   7.581  73.067  1.00  0.00    -0.062 OA 
HETATM   35  O   UNL     1      -7.903   9.073  74.540  1.00  0.00    -0.322 OA 
HETATM   36  O   UNL     1      -8.773   8.501  72.198  1.00  0.00    -0.194 OA 
ENDBRANCH  31  32
ENDBRANCH  28  31
ENDBRANCH  25  28
ENDBRANCH  22  25
ENDBRANCH  21  22
ENDBRANCH   7  21
TORSDOF 6
ENDMDL
MODEL      145
REMARK 921   NORMALIZED FREE ENERGY PREDICTED BY IDOCK:   -4.72 KCAL/MOL
REMARK 922        TOTAL FREE ENERGY PREDICTED BY IDOCK:   -8.72 KCAL/MOL
REMARK 923 INTER-LIGAND FREE ENERGY PREDICTED BY IDOCK:   -7.14 KCAL/MOL
REMARK 924 INTRA-LIGAND FREE ENERGY PREDICTED BY IDOCK:   -1.58 KCAL/MOL
REMARK 927      BINDING AFFINITY PREDICTED BY RF-SCORE:    0.00 PKD
ROOT
HETATM    1  C   UNL     1     -12.210  16.577  72.258  1.00  0.00    -0.170 C  
HETATM    2  C   UNL     1     -12.211  15.578  71.137  1.00  0.00    -0.451 A  
HETATM    3  C   UNL     1     -11.702  15.925  69.887  1.00  0.00    -0.327 A  
HETATM    4  C   UNL     1     -11.598  14.965  68.870  1.00  0.00    -0.315 A  
HETATM    5  C   UNL     1     -12.128  13.664  69.046  1.00  0.00    -0.309 A  
HETATM    6  C   UNL     1     -12.840  13.417  70.208  1.00  0.00     0.044 A  
HETATM    7  N   UNL     1     -11.860  12.639  68.104  1.00  0.00    -0.336 NA 
HETATM    8  H   UNL     1      -9.313  13.987  63.833  1.00  0.00     0.000 HD 
HETATM    9  C   UNL     1     -12.671  14.264  71.307  1.00  0.00    -0.427 A  
HETATM   10  C   UNL     1     -11.120  12.993  66.979  1.00  0.00    -0.281 A  
HETATM   11  C   UNL     1     -12.596  13.543  72.625  1.00  0.00     0.109 C  
HETATM   12  C   UNL     1      -9.972  14.836  65.558  1.00  0.00    -0.356 C  
HETATM   13  N   UNL     1     -10.763  12.124  66.086  1.00  0.00    -0.263 N  
HETATM   14  H   UNL     1     -11.034  11.149  66.210  1.00  0.00     0.000 HD 
HETATM   15  N   UNL     1     -10.912  15.347  67.715  1.00  0.00    -0.303 NA 
HETATM   16  C   UNL     1     -10.037  12.473  64.986  1.00  0.00    -0.236 C  
HETATM   17  N   UNL     1      -9.746  13.780  64.734  1.00  0.00     0.096 N  
HETATM   18  O   UNL     1      -9.608  15.976  65.323  1.00  0.00    -0.368 OA 
HETATM   19  C   UNL     1     -10.696  14.443  66.812  1.00  0.00    -0.292 A  
HETATM   20  O   UNL     1      -9.626  11.629  64.196  1.00  0.00    -0.202 OA 
ENDROOT
BRANCH   7  21
HETATM   21  C   UNL     1     -11.779  11.225  68.613  1.00  0.00    -0.324 C  
BRANCH  21  22
HETATM   22  C   UNL     1     -10.548  10.990  69.514  1.00  0.00    -0.138 C  
HETATM   23  O   UNL     1      -9.362  11.346  68.805  1.00  0.00    -0.286 OA 
HETATM   24  H   UNL     1      -8.604  11.200  69.359  1.00  0.00     0.000 HD 
BRANCH  22  25
HETATM   25  C   UNL     1     -10.420   9.559  70.089  1.00  0.00    -0.255 C  
HETATM   26  O   UNL     1     -11.135   9.492  71.343  1.00  0.00    -0.351 OA 
HETATM   27  H   UNL     1     -11.057   8.614  71.695  1.00  0.00     0.000 HD 
BRANCH  25  28
HETATM   28  C   UNL     1      -9.007   8.969  70.313  1.00  0.00    -0.198 C  
HETATM   29  O   UNL     1      -8.091  10.063  70.565  1.00  0.00    -0.402 OA 
HETATM   30  H   UNL     1      -7.224   9.701  70.703  1.00  0.00     0.000 HD 
BRANCH  28  31
HETATM   31  C   UNL     1      -8.431   8.125  69.168  1.00  0.00    -0.135 C  
BRANCH  31  32
HETATM   32  O   UNL     1      -7.910   9.038  68.193  1.00  0.00    -0.099 OA 
HETATM   33  P   UNL     1      -8.414   8.899  66.683  1.00  0.00    -0.123 P  
HETATM   34  O   UNL     1      -7.960   7.442  66.213  1.00  0.00    -0.102 OA 
HETATM   35  O   UNL     1      -7.476   9.862  65.826  1.00  0.00    -0.101 OA 
HETATM   36  O   UNL     1      -9.860   9.146  66.436  1.00  0.00    -0.237 OA 
ENDBRANCH  31  32
ENDBRANCH  28  31
ENDBRANCH  25  28
ENDBRANCH  22  25
ENDBRANCH  21  22
ENDBRANCH   7  21
TORSDOF 6
ENDMDL
MODEL      146
REMARK 921   NORMALIZED FREE ENERGY PREDICTED BY IDOCK:   -4.69 KCAL/MOL
REMARK 922        TOTAL FREE ENERGY PREDICTED BY IDOCK:   -8.67 KCAL/MOL
REMARK 923 INTER-LIGAND FREE ENERGY PREDICTED BY IDOCK:   -7.73 KCAL/MOL
REMARK 924 INTRA-LIGAND FREE ENERGY PREDICTED BY IDOCK:   -0.95 KCAL/MOL
REMARK 927      BINDING AFFINITY PREDICTED BY RF-SCORE:    0.00 PKD
ROOT
HETATM    1  C   UNL     1     -12.363   9.508  72.003  1.00  0.00    -0.404 C  
HETATM    2  C   UNL     1     -11.852  10.124  70.732  1.00  0.00    -0.443 A  
HETATM    3  C   UNL     1     -12.145  11.451  70.426  1.00  0.00    -0.473 A  
HETATM    4  C   UNL     1     -11.579  12.063  69.299  1.00  0.00    -0.321 A  
HETATM    5  C   UNL     1     -10.810  11.313  68.378  1.00  0.00    -0.205 A  
HETATM    6  C   UNL     1     -10.730   9.945  68.579  1.00  0.00    -0.260 A  
HETATM    7  N   UNL     1     -10.082  11.958  67.347  1.00  0.00    -0.195 NA 
HETATM    8  H   UNL     1     -10.758  17.039  66.827  1.00  0.00     0.000 HD 
HETATM    9  C   UNL     1     -11.033   9.419  69.838  1.00  0.00    -0.251 A  
HETATM   10  C   UNL     1     -10.220  13.340  67.247  1.00  0.00    -0.240 A  
HETATM   11  C   UNL     1     -10.099   8.327  70.282  1.00  0.00    -0.195 C  
HETATM   12  C   UNL     1     -11.376  15.526  68.034  1.00  0.00    -0.330 C  
HETATM   13  N   UNL     1      -9.552  14.040  66.383  1.00  0.00    -0.310 N  
HETATM   14  H   UNL     1      -8.905  13.562  65.755  1.00  0.00     0.000 HD 
HETATM   15  N   UNL     1     -11.778  13.439  69.167  1.00  0.00    -0.306 NA 
HETATM   16  C   UNL     1      -9.689  15.392  66.287  1.00  0.00    -0.299 C  
HETATM   17  N   UNL     1     -10.618  16.051  67.036  1.00  0.00    -0.312 N  
HETATM   18  O   UNL     1     -12.127  16.180  68.737  1.00  0.00    -0.184 OA 
HETATM   19  C   UNL     1     -11.166  14.050  68.201  1.00  0.00    -0.275 A  
HETATM   20  O   UNL     1      -8.986  16.055  65.531  1.00  0.00    -0.270 OA 
ENDROOT
BRANCH   7  21
HETATM   21  C   UNL     1      -8.795  11.321  66.895  1.00  0.00    -0.165 C  
BRANCH  21  22
HETATM   22  C   UNL     1      -8.811  10.953  65.396  1.00  0.00    -0.180 C  
HETATM   23  O   UNL     1     -10.071  10.374  65.060  1.00  0.00    -0.309 OA 
HETATM   24  H   UNL     1     -10.080  10.147  64.137  1.00  0.00     0.000 HD 
BRANCH  22  25
HETATM   25  C   UNL     1      -7.656  10.032  64.934  1.00  0.00    -0.139 C  
HETATM   26  O   UNL     1      -7.091  10.564  63.716  1.00  0.00    -0.324 OA 
HETATM   27  H   UNL     1      -6.382   9.998  63.434  1.00  0.00     0.000 HD 
BRANCH  25  28
HETATM   28  C   UNL     1      -7.946   8.528  64.711  1.00  0.00    -0.143 C  
HETATM   29  O   UNL     1      -8.814   8.399  63.557  1.00  0.00    -0.396 OA 
HETATM   30  H   UNL     1      -8.991   7.476  63.420  1.00  0.00     0.000 HD 
BRANCH  28  31
HETATM   31  C   UNL     1      -8.599   7.778  65.879  1.00  0.00    -0.153 C  
BRANCH  31  32
HETATM   32  O   UNL     1      -7.904   6.531  66.020  1.00  0.00    -0.096 OA 
HETATM   33  P   UNL     1      -8.515   5.242  65.301  1.00  0.00    -0.150 P  
HETATM   34  O   UNL     1      -9.953   5.024  65.959  1.00  0.00    -0.181 OA 
HETATM   35  O   UNL     1      -7.675   4.004  65.853  1.00  0.00    -0.088 OA 
HETATM   36  O   UNL     1      -8.574   5.271  63.814  1.00  0.00    -0.127 OA 
ENDBRANCH  31  32
ENDBRANCH  28  31
ENDBRANCH  25  28
ENDBRANCH  22  25
ENDBRANCH  21  22
ENDBRANCH   7  21
TORSDOF 6
ENDMDL
MODEL      147
REMARK 921   NORMALIZED FREE ENERGY PREDICTED BY IDOCK:   -4.68 KCAL/MOL
REMARK 922        TOTAL FREE ENERGY PREDICTED BY IDOCK:   -8.67 KCAL/MOL
REMARK 923 INTER-LIGAND FREE ENERGY PREDICTED BY IDOCK:   -7.96 KCAL/MOL
REMARK 924 INTRA-LIGAND FREE ENERGY PREDICTED BY IDOCK:   -0.71 KCAL/MOL
REMARK 927      BINDING AFFINITY PREDICTED BY RF-SCORE:    0.00 PKD
ROOT
HETATM    1  C   UNL     1      -8.966   6.677  65.608  1.00  0.00     0.010 C  
HETATM    2  C   UNL     1      -9.267   7.678  66.687  1.00  0.00    -0.211 A  
HETATM    3  C   UNL     1      -9.631   8.981  66.353  1.00  0.00    -0.309 A  
HETATM    4  C   UNL     1     -10.020   9.887  67.349  1.00  0.00    -0.189 A  
HETATM    5  C   UNL     1      -9.924   9.543  68.719  1.00  0.00    -0.174 A  
HETATM    6  C   UNL     1      -9.337   8.328  69.032  1.00  0.00    -0.147 A  
HETATM    7  N   UNL     1     -10.490  10.375  69.717  1.00  0.00    -0.254 NA 
HETATM    8  H   UNL     1     -12.448  14.885  68.175  1.00  0.00     0.000 HD 
HETATM    9  C   UNL     1      -9.243   7.340  68.047  1.00  0.00    -0.131 A  
HETATM   10  C   UNL     1     -11.072  11.566  69.290  1.00  0.00    -0.246 A  
HETATM   11  C   UNL     1      -9.552   5.955  68.544  1.00  0.00    -0.142 C  
HETATM   12  C   UNL     1     -11.572  13.237  67.370  1.00  0.00    -0.353 C  
HETATM   13  N   UNL     1     -11.675  12.372  70.108  1.00  0.00    -0.534 N  
HETATM   14  H   UNL     1     -11.724  12.126  71.097  1.00  0.00     0.000 HD 
HETATM   15  N   UNL     1     -10.541  11.109  66.916  1.00  0.00    -0.246 NA 
HETATM   16  C   UNL     1     -12.244  13.537  69.688  1.00  0.00    -0.247 C  
HETATM   17  N   UNL     1     -12.110  13.948  68.395  1.00  0.00    -0.349 N  
HETATM   18  O   UNL     1     -11.559  13.615  66.210  1.00  0.00    -0.324 OA 
HETATM   19  C   UNL     1     -11.020  11.915  67.812  1.00  0.00    -0.228 A  
HETATM   20  O   UNL     1     -12.891  14.245  70.452  1.00  0.00    -0.336 OA 
ENDROOT
BRANCH   7  21
HETATM   21  C   UNL     1     -11.015   9.715  70.964  1.00  0.00    -0.361 C  
BRANCH  21  22
HETATM   22  C   UNL     1     -12.325   8.937  70.716  1.00  0.00     0.005 C  
HETATM   23  O   UNL     1     -13.394   9.858  70.503  1.00  0.00    -0.620 OA 
HETATM   24  H   UNL     1     -14.200   9.379  70.351  1.00  0.00     0.000 HD 
BRANCH  22  25
HETATM   25  C   UNL     1     -12.703   7.922  71.821  1.00  0.00    -0.329 C  
HETATM   26  O   UNL     1     -12.164   8.377  73.081  1.00  0.00    -0.526 OA 
HETATM   27  H   UNL     1     -12.397   7.754  73.759  1.00  0.00     0.000 HD 
BRANCH  25  28
HETATM   28  C   UNL     1     -12.304   6.438  71.637  1.00  0.00    -0.158 C  
HETATM   29  O   UNL     1     -12.727   5.704  72.813  1.00  0.00    -0.467 OA 
HETATM   30  H   UNL     1     -12.482   4.793  72.701  1.00  0.00     0.000 HD 
BRANCH  28  31
HETATM   31  C   UNL     1     -10.812   6.155  71.416  1.00  0.00    -0.265 C  
BRANCH  31  32
HETATM   32  O   UNL     1     -10.185   6.170  72.705  1.00  0.00    -0.178 OA 
HETATM   33  P   UNL     1      -8.949   7.157  72.932  1.00  0.00    -0.143 P  
HETATM   34  O   UNL     1      -7.827   6.685  71.900  1.00  0.00    -0.097 OA 
HETATM   35  O   UNL     1      -8.330   6.753  74.345  1.00  0.00    -0.129 OA 
HETATM   36  O   UNL     1      -9.231   8.615  72.831  1.00  0.00    -0.280 OA 
ENDBRANCH  31  32
ENDBRANCH  28  31
ENDBRANCH  25  28
ENDBRANCH  22  25
ENDBRANCH  21  22
ENDBRANCH   7  21
TORSDOF 6
ENDMDL
MODEL      148
REMARK 921   NORMALIZED FREE ENERGY PREDICTED BY IDOCK:   -4.68 KCAL/MOL
REMARK 922        TOTAL FREE ENERGY PREDICTED BY IDOCK:   -8.66 KCAL/MOL
REMARK 923 INTER-LIGAND FREE ENERGY PREDICTED BY IDOCK:   -7.63 KCAL/MOL
REMARK 924 INTRA-LIGAND FREE ENERGY PREDICTED BY IDOCK:   -1.03 KCAL/MOL
REMARK 927      BINDING AFFINITY PREDICTED BY RF-SCORE:    0.00 PKD
ROOT
HETATM    1  C   UNL     1     -12.135   7.893  72.385  1.00  0.00    -0.336 C  
HETATM    2  C   UNL     1     -11.991   8.984  71.362  1.00  0.00    -0.400 A  
HETATM    3  C   UNL     1     -12.503  10.255  71.614  1.00  0.00    -0.491 A  
HETATM    4  C   UNL     1     -12.275  11.305  70.713  1.00  0.00    -0.380 A  
HETATM    5  C   UNL     1     -11.640  11.067  69.470  1.00  0.00    -0.313 A  
HETATM    6  C   UNL     1     -11.354   9.753  69.142  1.00  0.00    -0.031 A  
HETATM    7  N   UNL     1     -11.238  12.146  68.644  1.00  0.00    -0.247 NA 
HETATM    8  H   UNL     1     -12.622  16.881  70.133  1.00  0.00     0.000 HD 
HETATM    9  C   UNL     1     -11.309   8.789  70.153  1.00  0.00    -0.099 A  
HETATM   10  C   UNL     1     -11.561  13.429  69.079  1.00  0.00    -0.312 A  
HETATM   11  C   UNL     1     -10.175   7.811  70.011  1.00  0.00    -0.210 C  
HETATM   12  C   UNL     1     -12.773  14.963  70.786  1.00  0.00    -0.363 C  
HETATM   13  N   UNL     1     -11.188  14.491  68.435  1.00  0.00    -0.259 N  
HETATM   14  H   UNL     1     -10.641  14.383  67.581  1.00  0.00     0.000 HD 
HETATM   15  N   UNL     1     -12.663  12.581  71.127  1.00  0.00    -0.317 NA 
HETATM   16  C   UNL     1     -11.505  15.745  68.863  1.00  0.00    -0.378 C  
HETATM   17  N   UNL     1     -12.320  15.925  69.941  1.00  0.00    -0.208 N  
HETATM   18  O   UNL     1     -13.426  15.188  71.791  1.00  0.00    -0.363 OA 
HETATM   19  C   UNL     1     -12.354  13.584  70.366  1.00  0.00    -0.327 A  
HETATM   20  O   UNL     1     -11.070  16.743  68.299  1.00  0.00    -0.361 OA 
ENDROOT
BRANCH   7  21
HETATM   21  C   UNL     1     -10.015  11.955  67.789  1.00  0.00    -0.186 C  
BRANCH  21  22
HETATM   22  C   UNL     1      -8.744  12.550  68.431  1.00  0.00    -0.122 C  
HETATM   23  O   UNL     1      -8.378  13.746  67.744  1.00  0.00    -0.153 OA 
HETATM   24  H   UNL     1      -7.595  14.113  68.139  1.00  0.00     0.000 HD 
BRANCH  22  25
HETATM   25  C   UNL     1      -7.537  11.586  68.512  1.00  0.00    -0.130 C  
HETATM   26  O   UNL     1      -6.705  11.968  69.629  1.00  0.00    -0.274 OA 
HETATM   27  H   UNL     1      -5.965  11.376  69.679  1.00  0.00     0.000 HD 
BRANCH  25  28
HETATM   28  C   UNL     1      -6.625  11.427  67.270  1.00  0.00    -0.104 C  
HETATM   29  O   UNL     1      -5.966  12.694  67.024  1.00  0.00    -0.427 OA 
HETATM   30  H   UNL     1      -5.407  12.596  66.263  1.00  0.00     0.000 HD 
BRANCH  28  31
HETATM   31  C   UNL     1      -7.314  10.992  65.970  1.00  0.00    -0.025 C  
BRANCH  31  32
HETATM   32  O   UNL     1      -7.327   9.558  65.959  1.00  0.00    -0.094 OA 
HETATM   33  P   UNL     1      -8.424   8.820  65.063  1.00  0.00    -0.131 P  
HETATM   34  O   UNL     1      -9.836   9.272  65.655  1.00  0.00    -0.289 OA 
HETATM   35  O   UNL     1      -8.342   7.279  65.465  1.00  0.00    -0.134 OA 
HETATM   36  O   UNL     1      -8.337   9.030  63.592  1.00  0.00    -0.171 OA 
ENDBRANCH  31  32
ENDBRANCH  28  31
ENDBRANCH  25  28
ENDBRANCH  22  25
ENDBRANCH  21  22
ENDBRANCH   7  21
TORSDOF 6
ENDMDL
MODEL      149
REMARK 921   NORMALIZED FREE ENERGY PREDICTED BY IDOCK:   -4.61 KCAL/MOL
REMARK 922        TOTAL FREE ENERGY PREDICTED BY IDOCK:   -8.57 KCAL/MOL
REMARK 923 INTER-LIGAND FREE ENERGY PREDICTED BY IDOCK:   -7.17 KCAL/MOL
REMARK 924 INTRA-LIGAND FREE ENERGY PREDICTED BY IDOCK:   -1.40 KCAL/MOL
REMARK 927      BINDING AFFINITY PREDICTED BY RF-SCORE:    0.00 PKD
ROOT
HETATM    1  C   UNL     1     -10.942   6.103  73.389  1.00  0.00    -0.181 C  
HETATM    2  C   UNL     1     -11.105   7.052  72.237  1.00  0.00    -0.287 A  
HETATM    3  C   UNL     1     -11.771   8.264  72.414  1.00  0.00    -0.463 A  
HETATM    4  C   UNL     1     -11.830   9.201  71.374  1.00  0.00    -0.345 A  
HETATM    5  C   UNL     1     -11.335   8.886  70.086  1.00  0.00    -0.106 A  
HETATM    6  C   UNL     1     -10.893   7.591  69.872  1.00  0.00    -0.250 A  
HETATM    7  N   UNL     1     -11.218   9.886  69.089  1.00  0.00    -0.159 NA 
HETATM    8  H   UNL     1     -13.114  14.544  70.210  1.00  0.00     0.000 HD 
HETATM    9  C   UNL     1     -10.566   6.790  70.970  1.00  0.00    -0.252 A  
HETATM   10  C   UNL     1     -11.677  11.160  69.416  1.00  0.00    -0.332 A  
HETATM   11  C   UNL     1      -9.322   5.967  70.773  1.00  0.00    -0.180 C  
HETATM   12  C   UNL     1     -12.877  12.731  71.096  1.00  0.00    -0.226 C  
HETATM   13  N   UNL     1     -11.562  12.165  68.605  1.00  0.00    -0.297 N  
HETATM   14  H   UNL     1     -11.121  12.018  67.697  1.00  0.00     0.000 HD 
HETATM   15  N   UNL     1     -12.354  10.457  71.691  1.00  0.00    -0.353 NA 
HETATM   16  C   UNL     1     -12.011  13.411  68.928  1.00  0.00    -0.324 C  
HETATM   17  N   UNL     1     -12.695  13.622  70.087  1.00  0.00    -0.137 N  
HETATM   18  O   UNL     1     -13.420  13.000  72.155  1.00  0.00    -0.509 OA 
HETATM   19  C   UNL     1     -12.308  11.379  70.781  1.00  0.00    -0.386 A  
HETATM   20  O   UNL     1     -11.814  14.373  68.193  1.00  0.00    -0.327 OA 
ENDROOT
BRANCH   7  21
HETATM   21  C   UNL     1     -10.102   9.750  68.088  1.00  0.00    -0.165 C  
BRANCH  21  22
HETATM   22  C   UNL     1      -8.711   9.981  68.715  1.00  0.00    -0.136 C  
HETATM   23  O   UNL     1      -8.736  11.167  69.508  1.00  0.00    -0.355 OA 
HETATM   24  H   UNL     1      -7.880  11.309  69.895  1.00  0.00     0.000 HD 
BRANCH  22  25
HETATM   25  C   UNL     1      -7.538  10.033  67.708  1.00  0.00    -0.090 C  
HETATM   26  O   UNL     1      -6.381   9.404  68.302  1.00  0.00    -0.053 OA 
HETATM   27  H   UNL     1      -5.662   9.436  67.683  1.00  0.00     0.000 HD 
BRANCH  25  28
HETATM   28  C   UNL     1      -7.099  11.407  67.145  1.00  0.00    -0.134 C  
HETATM   29  O   UNL     1      -6.389  12.120  68.188  1.00  0.00    -0.050 OA 
HETATM   30  H   UNL     1      -6.119  12.963  67.843  1.00  0.00     0.000 HD 
BRANCH  28  31
HETATM   31  C   UNL     1      -8.217  12.320  66.626  1.00  0.00     0.025 C  
BRANCH  31  32
HETATM   32  O   UNL     1      -8.516  13.257  67.670  1.00  0.00    -0.164 OA 
HETATM   33  P   UNL     1      -8.213  14.803  67.406  1.00  0.00    -0.210 P  
HETATM   34  O   UNL     1      -6.637  14.896  67.165  1.00  0.00    -0.269 OA 
HETATM   35  O   UNL     1      -8.404  15.525  68.815  1.00  0.00    -0.160 OA 
HETATM   36  O   UNL     1      -8.989  15.461  66.320  1.00  0.00    -0.297 OA 
ENDBRANCH  31  32
ENDBRANCH  28  31
ENDBRANCH  25  28
ENDBRANCH  22  25
ENDBRANCH  21  22
ENDBRANCH   7  21
TORSDOF 6
ENDMDL
MODEL      150
REMARK 921   NORMALIZED FREE ENERGY PREDICTED BY IDOCK:   -4.61 KCAL/MOL
REMARK 922        TOTAL FREE ENERGY PREDICTED BY IDOCK:   -8.57 KCAL/MOL
REMARK 923 INTER-LIGAND FREE ENERGY PREDICTED BY IDOCK:   -7.98 KCAL/MOL
REMARK 924 INTRA-LIGAND FREE ENERGY PREDICTED BY IDOCK:   -0.59 KCAL/MOL
REMARK 927      BINDING AFFINITY PREDICTED BY RF-SCORE:    0.00 PKD
ROOT
HETATM    1  C   UNL     1      -7.670   5.955  65.516  1.00  0.00    -0.091 C  
HETATM    2  C   UNL     1      -8.003   7.319  66.050  1.00  0.00    -0.115 A  
HETATM    3  C   UNL     1      -8.358   8.347  65.178  1.00  0.00    -0.177 A  
HETATM    4  C   UNL     1      -8.778   9.588  65.676  1.00  0.00    -0.149 A  
HETATM    5  C   UNL     1      -8.722   9.868  67.062  1.00  0.00    -0.131 A  
HETATM    6  C   UNL     1      -8.143   8.915  67.883  1.00  0.00    -0.106 A  
HETATM    7  N   UNL     1      -9.318  11.041  67.589  1.00  0.00    -0.155 NA 
HETATM    8  H   UNL     1     -11.234  14.420  64.203  1.00  0.00     0.000 HD 
HETATM    9  C   UNL     1      -8.019   7.601  67.423  1.00  0.00    -0.119 A  
HETATM   10  C   UNL     1      -9.889  11.924  66.675  1.00  0.00    -0.201 A  
HETATM   11  C   UNL     1      -8.341   6.561  68.460  1.00  0.00    -0.121 C  
HETATM   12  C   UNL     1     -10.334  12.598  64.209  1.00  0.00    -0.374 C  
HETATM   13  N   UNL     1     -10.516  12.996  67.050  1.00  0.00    -0.246 N  
HETATM   14  H   UNL     1     -10.594  13.199  68.046  1.00  0.00     0.000 HD 
HETATM   15  N   UNL     1      -9.287  10.497  64.745  1.00  0.00    -0.217 NA 
HETATM   16  C   UNL     1     -11.074  13.858  66.154  1.00  0.00    -0.299 C  
HETATM   17  N   UNL     1     -10.902  13.674  64.814  1.00  0.00    -0.372 N  
HETATM   18  O   UNL     1     -10.287  12.440  63.001  1.00  0.00    -0.203 OA 
HETATM   19  C   UNL     1      -9.793  11.603  65.193  1.00  0.00    -0.249 A  
HETATM   20  O   UNL     1     -11.744  14.818  66.521  1.00  0.00    -0.350 OA 
ENDROOT
BRANCH   7  21
HETATM   21  C   UNL     1      -9.879  10.976  68.984  1.00  0.00    -0.149 C  
BRANCH  21  22
HETATM   22  C   UNL     1     -11.242  10.254  69.042  1.00  0.00    -0.208 C  
HETATM   23  O   UNL     1     -11.836  10.251  67.744  1.00  0.00    -0.567 OA 
HETATM   24  H   UNL     1     -12.675   9.807  67.780  1.00  0.00     0.000 HD 
BRANCH  22  25
HETATM   25  C   UNL     1     -12.237  10.814  70.086  1.00  0.00    -0.346 C  
HETATM   26  O   UNL     1     -11.757  12.094  70.551  1.00  0.00    -0.513 OA 
HETATM   27  H   UNL     1     -12.368  12.438  71.192  1.00  0.00     0.000 HD 
BRANCH  25  28
HETATM   28  C   UNL     1     -12.580   9.953  71.326  1.00  0.00    -0.381 C  
HETATM   29  O   UNL     1     -13.271  10.791  72.285  1.00  0.00    -0.605 OA 
HETATM   30  H   UNL     1     -13.483  10.262  73.045  1.00  0.00     0.000 HD 
BRANCH  28  31
HETATM   31  C   UNL     1     -11.398   9.289  72.044  1.00  0.00    -0.165 C  
BRANCH  31  32
HETATM   32  O   UNL     1     -11.874   8.048  72.580  1.00  0.00    -0.377 OA 
HETATM   33  P   UNL     1     -11.225   6.693  72.037  1.00  0.00    -0.294 P  
HETATM   34  O   UNL     1     -11.553   6.655  70.476  1.00  0.00    -0.345 OA 
HETATM   35  O   UNL     1     -12.130   5.518  72.623  1.00  0.00    -0.199 OA 
HETATM   36  O   UNL     1      -9.777   6.487  72.314  1.00  0.00    -0.155 OA 
ENDBRANCH  31  32
ENDBRANCH  28  31
ENDBRANCH  25  28
ENDBRANCH  22  25
ENDBRANCH  21  22
ENDBRANCH   7  21
TORSDOF 6
ENDMDL
MODEL      151
REMARK 921   NORMALIZED FREE ENERGY PREDICTED BY IDOCK:   -4.61 KCAL/MOL
REMARK 922        TOTAL FREE ENERGY PREDICTED BY IDOCK:   -8.57 KCAL/MOL
REMARK 923 INTER-LIGAND FREE ENERGY PREDICTED BY IDOCK:   -7.41 KCAL/MOL
REMARK 924 INTRA-LIGAND FREE ENERGY PREDICTED BY IDOCK:   -1.16 KCAL/MOL
REMARK 927      BINDING AFFINITY PREDICTED BY RF-SCORE:    0.00 PKD
ROOT
HETATM    1  C   UNL     1     -12.497   7.341  71.871  1.00  0.00    -0.337 C  
HETATM    2  C   UNL     1     -11.542   8.177  71.068  1.00  0.00    -0.301 A  
HETATM    3  C   UNL     1     -10.424   7.593  70.475  1.00  0.00    -0.221 A  
HETATM    4  C   UNL     1      -9.591   8.344  69.634  1.00  0.00    -0.163 A  
HETATM    5  C   UNL     1      -9.788   9.737  69.476  1.00  0.00    -0.214 A  
HETATM    6  C   UNL     1     -10.759  10.337  70.260  1.00  0.00    -0.310 A  
HETATM    7  N   UNL     1      -9.076  10.462  68.489  1.00  0.00    -0.139 NA 
HETATM    8  H   UNL     1      -5.437   7.914  65.878  1.00  0.00     0.000 HD 
HETATM    9  C   UNL     1     -11.753   9.545  70.844  1.00  0.00    -0.391 A  
HETATM   10  C   UNL     1      -8.135   9.756  67.743  1.00  0.00    -0.113 A  
HETATM   11  C   UNL     1     -13.126  10.156  70.789  1.00  0.00    -0.351 C  
HETATM   12  C   UNL     1      -6.826   7.556  67.317  1.00  0.00    -0.071 C  
HETATM   13  N   UNL     1      -7.472  10.303  66.772  1.00  0.00    -0.104 N  
HETATM   14  H   UNL     1      -7.644  11.283  66.547  1.00  0.00     0.000 HD 
HETATM   15  N   UNL     1      -8.604   7.641  68.939  1.00  0.00    -0.129 NA 
HETATM   16  C   UNL     1      -6.552   9.610  66.043  1.00  0.00    -0.079 C  
HETATM   17  N   UNL     1      -6.221   8.331  66.381  1.00  0.00    -0.049 N  
HETATM   18  O   UNL     1      -6.551   6.385  67.516  1.00  0.00    -0.050 OA 
HETATM   19  C   UNL     1      -7.900   8.289  68.065  1.00  0.00    -0.118 A  
HETATM   20  O   UNL     1      -5.998  10.109  65.069  1.00  0.00    -0.101 OA 
ENDROOT
BRANCH   7  21
HETATM   21  C   UNL     1      -9.759  11.648  67.862  1.00  0.00    -0.179 C  
BRANCH  21  22
HETATM   22  C   UNL     1     -10.855  11.237  66.855  1.00  0.00    -0.282 C  
HETATM   23  O   UNL     1     -10.597   9.916  66.382  1.00  0.00    -0.161 OA 
HETATM   24  H   UNL     1     -11.272   9.663  65.763  1.00  0.00     0.000 HD 
BRANCH  22  25
HETATM   25  C   UNL     1     -11.048  12.206  65.665  1.00  0.00    -0.316 C  
HETATM   26  O   UNL     1      -9.836  12.968  65.479  1.00  0.00    -0.406 OA 
HETATM   27  H   UNL     1      -9.955  13.562  64.747  1.00  0.00     0.000 HD 
BRANCH  25  28
HETATM   28  C   UNL     1     -12.237  13.197  65.696  1.00  0.00    -0.466 C  
HETATM   29  O   UNL     1     -12.878  13.180  64.397  1.00  0.00    -0.672 OA 
HETATM   30  H   UNL     1     -13.607  13.788  64.416  1.00  0.00     0.000 HD 
BRANCH  28  31
HETATM   31  C   UNL     1     -11.901  14.655  66.038  1.00  0.00    -0.276 C  
BRANCH  31  32
HETATM   32  O   UNL     1     -11.506  14.685  67.416  1.00  0.00    -0.341 OA 
HETATM   33  P   UNL     1     -10.380  15.729  67.856  1.00  0.00    -0.274 P  
HETATM   34  O   UNL     1      -9.075  15.325  67.031  1.00  0.00    -0.201 OA 
HETATM   35  O   UNL     1      -9.993  15.338  69.354  1.00  0.00    -0.234 OA 
HETATM   36  O   UNL     1     -10.714  17.172  67.714  1.00  0.00    -0.361 OA 
ENDBRANCH  31  32
ENDBRANCH  28  31
ENDBRANCH  25  28
ENDBRANCH  22  25
ENDBRANCH  21  22
ENDBRANCH   7  21
TORSDOF 6
ENDMDL
MODEL      152
REMARK 921   NORMALIZED FREE ENERGY PREDICTED BY IDOCK:   -4.61 KCAL/MOL
REMARK 922        TOTAL FREE ENERGY PREDICTED BY IDOCK:   -8.56 KCAL/MOL
REMARK 923 INTER-LIGAND FREE ENERGY PREDICTED BY IDOCK:   -6.97 KCAL/MOL
REMARK 924 INTRA-LIGAND FREE ENERGY PREDICTED BY IDOCK:   -1.60 KCAL/MOL
REMARK 927      BINDING AFFINITY PREDICTED BY RF-SCORE:    0.00 PKD
ROOT
HETATM    1  C   UNL     1      -9.718   9.119  70.696  1.00  0.00    -0.314 C  
HETATM    2  C   UNL     1     -10.206   9.879  69.495  1.00  0.00    -0.243 A  
HETATM    3  C   UNL     1     -10.333  11.266  69.546  1.00  0.00     0.048 A  
HETATM    4  C   UNL     1     -10.681  11.990  68.397  1.00  0.00    -0.229 A  
HETATM    5  C   UNL     1     -11.039  11.323  67.201  1.00  0.00    -0.301 A  
HETATM    6  C   UNL     1     -11.134   9.942  67.245  1.00  0.00    -0.063 A  
HETATM    7  N   UNL     1     -11.205  12.043  65.992  1.00  0.00    -0.325 NA 
HETATM    8  H   UNL     1     -10.926  17.180  66.264  1.00  0.00     0.000 HD 
HETATM    9  C   UNL     1     -10.503   9.246  68.280  1.00  0.00    -0.260 A  
HETATM   10  C   UNL     1     -11.069  13.427  66.057  1.00  0.00    -0.283 A  
HETATM   11  C   UNL     1      -9.816   7.984  67.834  1.00  0.00    -0.204 C  
HETATM   12  C   UNL     1     -10.746  15.568  67.487  1.00  0.00    -0.300 C  
HETATM   13  N   UNL     1     -11.138  14.178  65.002  1.00  0.00    -0.350 N  
HETATM   14  H   UNL     1     -11.297  13.741  64.095  1.00  0.00     0.000 HD 
HETATM   15  N   UNL     1     -10.609  13.382  68.489  1.00  0.00    -0.250 NA 
HETATM   16  C   UNL     1     -11.005  15.533  65.069  1.00  0.00    -0.440 C  
HETATM   17  N   UNL     1     -10.894  16.161  66.274  1.00  0.00    -0.203 N  
HETATM   18  O   UNL     1     -10.559  16.178  68.527  1.00  0.00    -0.256 OA 
HETATM   19  C   UNL     1     -10.807  14.071  67.408  1.00  0.00    -0.282 A  
HETATM   20  O   UNL     1     -10.978  16.225  64.056  1.00  0.00    -0.533 OA 
ENDROOT
BRANCH   7  21
HETATM   21  C   UNL     1     -10.863  11.339  64.706  1.00  0.00    -0.244 C  
BRANCH  21  22
HETATM   22  C   UNL     1      -9.385  11.526  64.302  1.00  0.00    -0.001 C  
HETATM   23  O   UNL     1      -9.313  12.256  63.079  1.00  0.00    -0.516 OA 
HETATM   24  H   UNL     1      -8.403  12.371  62.830  1.00  0.00     0.000 HD 
BRANCH  22  25
HETATM   25  C   UNL     1      -8.564  10.219  64.197  1.00  0.00    -0.192 C  
HETATM   26  O   UNL     1      -9.394   9.109  64.602  1.00  0.00    -0.438 OA 
HETATM   27  H   UNL     1      -8.890   8.307  64.537  1.00  0.00     0.000 HD 
BRANCH  25  28
HETATM   28  C   UNL     1      -7.222  10.117  64.963  1.00  0.00    -0.139 C  
HETATM   29  O   UNL     1      -6.516   8.944  64.489  1.00  0.00    -0.070 OA 
HETATM   30  H   UNL     1      -5.692   8.882  64.958  1.00  0.00     0.000 HD 
BRANCH  28  31
HETATM   31  C   UNL     1      -7.314  10.028  66.492  1.00  0.00    -0.101 C  
BRANCH  31  32
HETATM   32  O   UNL     1      -7.627  11.342  66.972  1.00  0.00    -0.128 OA 
HETATM   33  P   UNL     1      -6.633  12.018  68.024  1.00  0.00    -0.089 P  
HETATM   34  O   UNL     1      -6.648  11.063  69.304  1.00  0.00    -0.070 OA 
HETATM   35  O   UNL     1      -7.381  13.327  68.544  1.00  0.00    -0.105 OA 
HETATM   36  O   UNL     1      -5.251  12.303  67.550  1.00  0.00    -0.084 OA 
ENDBRANCH  31  32
ENDBRANCH  28  31
ENDBRANCH  25  28
ENDBRANCH  22  25
ENDBRANCH  21  22
ENDBRANCH   7  21
TORSDOF 6
ENDMDL
MODEL      153
REMARK 921   NORMALIZED FREE ENERGY PREDICTED BY IDOCK:   -4.56 KCAL/MOL
REMARK 922        TOTAL FREE ENERGY PREDICTED BY IDOCK:   -8.51 KCAL/MOL
REMARK 923 INTER-LIGAND FREE ENERGY PREDICTED BY IDOCK:   -6.42 KCAL/MOL
REMARK 924 INTRA-LIGAND FREE ENERGY PREDICTED BY IDOCK:   -2.08 KCAL/MOL
REMARK 927      BINDING AFFINITY PREDICTED BY RF-SCORE:    0.00 PKD
ROOT
HETATM    1  C   UNL     1      -8.135  19.240  68.823  1.00  0.00    -0.391 C  
HETATM    2  C   UNL     1      -8.192  17.765  68.545  1.00  0.00    -0.296 A  
HETATM    3  C   UNL     1      -9.361  17.189  68.049  1.00  0.00    -0.254 A  
HETATM    4  C   UNL     1      -9.386  15.836  67.683  1.00  0.00    -0.216 A  
HETATM    5  C   UNL     1      -8.274  14.997  67.933  1.00  0.00    -0.141 A  
HETATM    6  C   UNL     1      -7.214  15.538  68.642  1.00  0.00    -0.123 A  
HETATM    7  N   UNL     1      -8.220  13.686  67.398  1.00  0.00    -0.177 NA 
HETATM    8  H   UNL     1     -12.421  11.979  64.952  1.00  0.00     0.000 HD 
HETATM    9  C   UNL     1      -7.083  16.927  68.723  1.00  0.00    -0.216 A  
HETATM   10  C   UNL     1      -9.334  13.249  66.685  1.00  0.00    -0.242 A  
HETATM   11  C   UNL     1      -5.667  17.413  68.573  1.00  0.00    -0.156 C  
HETATM   12  C   UNL     1     -11.764  13.664  65.877  1.00  0.00    -0.354 C  
HETATM   13  N   UNL     1      -9.369  12.093  66.099  1.00  0.00    -0.309 N  
HETATM   14  H   UNL     1      -8.554  11.482  66.163  1.00  0.00     0.000 HD 
HETATM   15  N   UNL     1     -10.535  15.386  67.028  1.00  0.00    -0.288 NA 
HETATM   16  C   UNL     1     -10.460  11.667  65.402  1.00  0.00    -0.275 C  
HETATM   17  N   UNL     1     -11.603  12.410  65.382  1.00  0.00    -0.366 N  
HETATM   18  O   UNL     1     -12.784  14.322  65.751  1.00  0.00    -0.464 OA 
HETATM   19  C   UNL     1     -10.536  14.172  66.572  1.00  0.00    -0.280 A  
HETATM   20  O   UNL     1     -10.448  10.613  64.775  1.00  0.00    -0.325 OA 
ENDROOT
BRANCH   7  21
HETATM   21  C   UNL     1      -6.867  13.128  67.046  1.00  0.00     0.434 C  
BRANCH  21  22
HETATM   22  C   UNL     1      -6.560  11.807  67.782  1.00  0.00    -0.075 C  
HETATM   23  O   UNL     1      -6.952  10.704  66.966  1.00  0.00    -0.086 OA 
HETATM   24  H   UNL     1      -6.763   9.890  67.419  1.00  0.00     0.000 HD 
BRANCH  22  25
HETATM   25  C   UNL     1      -7.186  11.681  69.191  1.00  0.00    -0.064 C  
HETATM   26  O   UNL     1      -6.730  12.781  70.008  1.00  0.00    -0.354 OA 
HETATM   27  H   UNL     1      -7.115  12.703  70.872  1.00  0.00     0.000 HD 
BRANCH  25  28
HETATM   28  C   UNL     1      -6.970  10.372  69.989  1.00  0.00    -0.157 C  
HETATM   29  O   UNL     1      -5.995   9.564  69.282  1.00  0.00    -0.035 OA 
HETATM   30  H   UNL     1      -5.862   8.761  69.772  1.00  0.00     0.000 HD 
BRANCH  28  31
HETATM   31  C   UNL     1      -8.214   9.506  70.230  1.00  0.00    -0.187 C  
BRANCH  31  32
HETATM   32  O   UNL     1      -8.731   9.143  68.943  1.00  0.00    -0.129 OA 
HETATM   33  P   UNL     1     -10.298   9.309  68.684  1.00  0.00    -0.188 P  
HETATM   34  O   UNL     1     -11.012   8.344  69.737  1.00  0.00    -0.221 OA 
HETATM   35  O   UNL     1     -10.582   8.592  67.289  1.00  0.00    -0.291 OA 
HETATM   36  O   UNL     1     -10.840  10.695  68.733  1.00  0.00    -0.199 OA 
ENDBRANCH  31  32
ENDBRANCH  28  31
ENDBRANCH  25  28
ENDBRANCH  22  25
ENDBRANCH  21  22
ENDBRANCH   7  21
TORSDOF 6
ENDMDL
MODEL      154
REMARK 921   NORMALIZED FREE ENERGY PREDICTED BY IDOCK:   -4.54 KCAL/MOL
REMARK 922        TOTAL FREE ENERGY PREDICTED BY IDOCK:   -8.48 KCAL/MOL
REMARK 923 INTER-LIGAND FREE ENERGY PREDICTED BY IDOCK:   -7.57 KCAL/MOL
REMARK 924 INTRA-LIGAND FREE ENERGY PREDICTED BY IDOCK:   -0.91 KCAL/MOL
REMARK 927      BINDING AFFINITY PREDICTED BY RF-SCORE:    0.00 PKD
ROOT
HETATM    1  C   UNL     1     -13.026   9.048  72.522  1.00  0.00    -0.429 C  
HETATM    2  C   UNL     1     -12.461   9.938  71.452  1.00  0.00    -0.495 A  
HETATM    3  C   UNL     1     -12.799  11.290  71.413  1.00  0.00    -0.515 A  
HETATM    4  C   UNL     1     -12.190  12.148  70.486  1.00  0.00    -0.304 A  
HETATM    5  C   UNL     1     -11.325  11.639  69.487  1.00  0.00    -0.260 A  
HETATM    6  C   UNL     1     -11.192  10.263  69.400  1.00  0.00    -0.292 A  
HETATM    7  N   UNL     1     -10.563  12.514  68.674  1.00  0.00    -0.230 NA 
HETATM    8  H   UNL     1     -11.451  17.563  69.191  1.00  0.00     0.000 HD 
HETATM    9  C   UNL     1     -11.552   9.470  70.493  1.00  0.00    -0.316 A  
HETATM   10  C   UNL     1     -10.761  13.880  68.858  1.00  0.00    -0.236 A  
HETATM   11  C   UNL     1     -10.597   8.340  70.765  1.00  0.00    -0.236 C  
HETATM   12  C   UNL     1     -12.072  15.806  70.001  1.00  0.00    -0.324 C  
HETATM   13  N   UNL     1     -10.073  14.771  68.214  1.00  0.00    -0.217 N  
HETATM   14  H   UNL     1      -9.364  14.461  67.550  1.00  0.00     0.000 HD 
HETATM   15  N   UNL     1     -12.447  13.513  70.634  1.00  0.00    -0.349 NA 
HETATM   16  C   UNL     1     -10.269  16.107  68.397  1.00  0.00    -0.240 C  
HETATM   17  N   UNL     1     -11.277  16.558  69.197  1.00  0.00    -0.267 N  
HETATM   18  O   UNL     1     -12.900  16.269  70.768  1.00  0.00     0.023 OA 
HETATM   19  C   UNL     1     -11.802  14.337  69.868  1.00  0.00    -0.322 A  
HETATM   20  O   UNL     1      -9.551  16.940  67.853  1.00  0.00    -0.237 OA 
ENDROOT
BRANCH   7  21
HETATM   21  C   UNL     1      -9.220  12.032  68.195  1.00  0.00    -0.195 C  
BRANCH  21  22
HETATM   22  C   UNL     1      -9.027  12.229  66.676  1.00  0.00    -0.189 C  
HETATM   23  O   UNL     1     -10.300  12.367  66.047  1.00  0.00    -0.241 OA 
HETATM   24  H   UNL     1     -10.182  12.487  65.112  1.00  0.00     0.000 HD 
BRANCH  22  25
HETATM   25  C   UNL     1      -8.197  11.128  65.973  1.00  0.00    -0.094 C  
HETATM   26  O   UNL     1      -8.510  11.134  64.563  1.00  0.00    -0.371 OA 
HETATM   27  H   UNL     1      -8.000  10.458  64.132  1.00  0.00     0.000 HD 
BRANCH  25  28
HETATM   28  C   UNL     1      -8.309   9.671  66.482  1.00  0.00    -0.120 C  
HETATM   29  O   UNL     1      -7.067   8.987  66.181  1.00  0.00    -0.084 OA 
HETATM   30  H   UNL     1      -7.135   8.093  66.494  1.00  0.00     0.000 HD 
BRANCH  28  31
HETATM   31  C   UNL     1      -9.460   8.834  65.909  1.00  0.00    -0.208 C  
BRANCH  31  32
HETATM   32  O   UNL     1     -10.081   8.160  67.012  1.00  0.00    -0.223 OA 
HETATM   33  P   UNL     1      -9.541   6.711  67.413  1.00  0.00    -0.138 P  
HETATM   34  O   UNL     1      -9.794   5.790  66.133  1.00  0.00    -0.135 OA 
HETATM   35  O   UNL     1     -10.585   6.142  68.476  1.00  0.00    -0.212 OA 
HETATM   36  O   UNL     1      -8.136   6.631  67.896  1.00  0.00    -0.111 OA 
ENDBRANCH  31  32
ENDBRANCH  28  31
ENDBRANCH  25  28
ENDBRANCH  22  25
ENDBRANCH  21  22
ENDBRANCH   7  21
TORSDOF 6
ENDMDL
MODEL      155
REMARK 921   NORMALIZED FREE ENERGY PREDICTED BY IDOCK:   -4.51 KCAL/MOL
REMARK 922        TOTAL FREE ENERGY PREDICTED BY IDOCK:   -8.44 KCAL/MOL
REMARK 923 INTER-LIGAND FREE ENERGY PREDICTED BY IDOCK:   -7.22 KCAL/MOL
REMARK 924 INTRA-LIGAND FREE ENERGY PREDICTED BY IDOCK:   -1.22 KCAL/MOL
REMARK 927      BINDING AFFINITY PREDICTED BY RF-SCORE:    0.00 PKD
ROOT
HETATM    1  C   UNL     1     -11.755  15.916  64.231  1.00  0.00    -0.132 C  
HETATM    2  C   UNL     1     -10.882  15.024  65.068  1.00  0.00    -0.439 A  
HETATM    3  C   UNL     1      -9.739  15.535  65.680  1.00  0.00    -0.355 A  
HETATM    4  C   UNL     1      -8.983  14.737  66.550  1.00  0.00    -0.233 A  
HETATM    5  C   UNL     1      -9.284  13.364  66.720  1.00  0.00    -0.236 A  
HETATM    6  C   UNL     1     -10.278  12.825  65.920  1.00  0.00    -0.300 A  
HETATM    7  N   UNL     1      -8.650  12.603  67.734  1.00  0.00    -0.167 NA 
HETATM    8  H   UNL     1      -4.898  14.918  70.401  1.00  0.00     0.000 HD 
HETATM    9  C   UNL     1     -11.197  13.679  65.303  1.00  0.00    -0.307 A  
HETATM   10  C   UNL     1      -7.678  13.250  68.494  1.00  0.00    -0.120 A  
HETATM   11  C   UNL     1     -12.613  13.170  65.332  1.00  0.00    -0.512 C  
HETATM   12  C   UNL     1      -6.224  15.355  68.924  1.00  0.00    -0.098 C  
HETATM   13  N   UNL     1      -7.079  12.670  69.487  1.00  0.00    -0.324 N  
HETATM   14  H   UNL     1      -7.328  11.708  69.719  1.00  0.00     0.000 HD 
HETATM   15  N   UNL     1      -7.964  15.377  67.260  1.00  0.00    -0.184 NA 
HETATM   16  C   UNL     1      -6.129  13.304  70.229  1.00  0.00    -0.086 C  
HETATM   17  N   UNL     1      -5.698  14.551  69.884  1.00  0.00    -0.106 N  
HETATM   18  O   UNL     1      -5.859  16.500  68.717  1.00  0.00    -0.126 OA 
HETATM   19  C   UNL     1      -7.330  14.691  68.159  1.00  0.00    -0.125 A  
HETATM   20  O   UNL     1      -5.636  12.780  71.222  1.00  0.00    -0.340 OA 
ENDROOT
BRANCH   7  21
HETATM   21  C   UNL     1      -9.432  11.479  68.358  1.00  0.00    -0.195 C  
BRANCH  21  22
HETATM   22  C   UNL     1      -8.899  10.089  67.953  1.00  0.00    -0.125 C  
HETATM   23  O   UNL     1      -8.009  10.223  66.845  1.00  0.00    -0.110 OA 
HETATM   24  H   UNL     1      -7.681   9.367  66.596  1.00  0.00     0.000 HD 
BRANCH  22  25
HETATM   25  C   UNL     1      -9.987   9.033  67.643  1.00  0.00    -0.201 C  
HETATM   26  O   UNL     1     -11.256   9.509  68.141  1.00  0.00    -0.510 OA 
HETATM   27  H   UNL     1     -11.924   8.861  67.950  1.00  0.00     0.000 HD 
BRANCH  25  28
HETATM   28  C   UNL     1      -9.786   7.585  68.151  1.00  0.00    -0.154 C  
HETATM   29  O   UNL     1      -9.773   6.699  67.004  1.00  0.00    -0.143 OA 
HETATM   30  H   UNL     1      -9.649   5.810  67.315  1.00  0.00     0.000 HD 
BRANCH  28  31
HETATM   31  C   UNL     1     -10.831   7.058  69.143  1.00  0.00    -0.195 C  
BRANCH  31  32
HETATM   32  O   UNL     1     -10.328   7.313  70.461  1.00  0.00    -0.203 OA 
HETATM   33  P   UNL     1     -11.322   7.946  71.540  1.00  0.00    -0.279 P  
HETATM   34  O   UNL     1     -11.752   9.364  70.947  1.00  0.00    -0.281 OA 
HETATM   35  O   UNL     1     -10.410   8.338  72.787  1.00  0.00    -0.318 OA 
HETATM   36  O   UNL     1     -12.496   7.119  71.931  1.00  0.00    -0.321 OA 
ENDBRANCH  31  32
ENDBRANCH  28  31
ENDBRANCH  25  28
ENDBRANCH  22  25
ENDBRANCH  21  22
ENDBRANCH   7  21
TORSDOF 6
ENDMDL
MODEL      156
REMARK 921   NORMALIZED FREE ENERGY PREDICTED BY IDOCK:   -4.50 KCAL/MOL
REMARK 922        TOTAL FREE ENERGY PREDICTED BY IDOCK:   -8.43 KCAL/MOL
REMARK 923 INTER-LIGAND FREE ENERGY PREDICTED BY IDOCK:   -7.23 KCAL/MOL
REMARK 924 INTRA-LIGAND FREE ENERGY PREDICTED BY IDOCK:   -1.19 KCAL/MOL
REMARK 927      BINDING AFFINITY PREDICTED BY RF-SCORE:    0.00 PKD
ROOT
HETATM    1  C   UNL     1     -10.410  10.513  63.200  1.00  0.00     0.222 C  
HETATM    2  C   UNL     1     -10.265  11.322  64.458  1.00  0.00    -0.370 A  
HETATM    3  C   UNL     1      -9.121  11.198  65.244  1.00  0.00    -0.183 A  
HETATM    4  C   UNL     1      -8.931  12.029  66.356  1.00  0.00    -0.161 A  
HETATM    5  C   UNL     1      -9.951  12.914  66.783  1.00  0.00    -0.243 A  
HETATM    6  C   UNL     1     -11.168  12.847  66.126  1.00  0.00    -0.326 A  
HETATM    7  N   UNL     1      -9.696  13.886  67.782  1.00  0.00    -0.220 NA 
HETATM    8  H   UNL     1      -5.096  13.716  70.098  1.00  0.00     0.000 HD 
HETATM    9  C   UNL     1     -11.233  12.252  64.863  1.00  0.00    -0.365 A  
HETATM   10  C   UNL     1      -8.431  13.876  68.365  1.00  0.00    -0.159 A  
HETATM   11  C   UNL     1     -12.108  12.989  63.887  1.00  0.00    -0.541 C  
HETATM   12  C   UNL     1      -6.107  12.750  68.624  1.00  0.00    -0.068 C  
HETATM   13  N   UNL     1      -8.068  14.758  69.243  1.00  0.00    -0.324 N  
HETATM   14  H   UNL     1      -8.731  15.483  69.517  1.00  0.00     0.000 HD 
HETATM   15  N   UNL     1      -7.682  11.966  66.979  1.00  0.00    -0.160 NA 
HETATM   16  C   UNL     1      -6.829  14.747  69.811  1.00  0.00    -0.173 C  
HETATM   17  N   UNL     1      -5.954  13.735  69.546  1.00  0.00    -0.100 N  
HETATM   18  O   UNL     1      -5.252  11.921  68.362  1.00  0.00    -0.046 OA 
HETATM   19  C   UNL     1      -7.438  12.809  67.933  1.00  0.00    -0.127 A  
HETATM   20  O   UNL     1      -6.464  15.639  70.570  1.00  0.00     0.073 OA 
ENDROOT
BRANCH   7  21
HETATM   21  C   UNL     1     -10.450  15.186  67.703  1.00  0.00    -0.253 C  
BRANCH  21  22
HETATM   22  C   UNL     1     -10.212  15.928  66.370  1.00  0.00    -0.301 C  
HETATM   23  O   UNL     1      -8.816  15.945  66.075  1.00  0.00    -0.333 OA 
HETATM   24  H   UNL     1      -8.670  16.402  65.255  1.00  0.00     0.000 HD 
BRANCH  22  25
HETATM   25  C   UNL     1     -10.792  17.361  66.306  1.00  0.00     0.057 C  
HETATM   26  O   UNL     1     -10.937  17.747  64.922  1.00  0.00    -0.866 OA 
HETATM   27  H   UNL     1     -11.293  18.626  64.883  1.00  0.00     0.000 HD 
BRANCH  25  28
HETATM   28  C   UNL     1     -10.047  18.500  67.044  1.00  0.00    -0.360 C  
HETATM   29  O   UNL     1     -11.032  19.335  67.703  1.00  0.00    -0.431 OA 
HETATM   30  H   UNL     1     -10.576  20.034  68.156  1.00  0.00     0.000 HD 
BRANCH  28  31
HETATM   31  C   UNL     1      -9.160  19.407  66.181  1.00  0.00    -0.284 C  
BRANCH  31  32
HETATM   32  O   UNL     1      -8.104  18.590  65.660  1.00  0.00    -0.445 OA 
HETATM   33  P   UNL     1      -6.808  18.362  66.566  1.00  0.00    -0.239 P  
HETATM   34  O   UNL     1      -6.178  19.812  66.787  1.00  0.00    -0.182 OA 
HETATM   35  O   UNL     1      -5.742  17.648  65.620  1.00  0.00    -0.143 OA 
HETATM   36  O   UNL     1      -7.009  17.634  67.848  1.00  0.00    -0.181 OA 
ENDBRANCH  31  32
ENDBRANCH  28  31
ENDBRANCH  25  28
ENDBRANCH  22  25
ENDBRANCH  21  22
ENDBRANCH   7  21
TORSDOF 6
ENDMDL
MODEL      157
REMARK 921   NORMALIZED FREE ENERGY PREDICTED BY IDOCK:   -4.48 KCAL/MOL
REMARK 922        TOTAL FREE ENERGY PREDICTED BY IDOCK:   -8.40 KCAL/MOL
REMARK 923 INTER-LIGAND FREE ENERGY PREDICTED BY IDOCK:   -6.97 KCAL/MOL
REMARK 924 INTRA-LIGAND FREE ENERGY PREDICTED BY IDOCK:   -1.42 KCAL/MOL
REMARK 927      BINDING AFFINITY PREDICTED BY RF-SCORE:    0.00 PKD
ROOT
HETATM    1  C   UNL     1     -13.343  15.739  72.448  1.00  0.00    -0.545 C  
HETATM    2  C   UNL     1     -12.547  14.967  71.435  1.00  0.00    -0.406 A  
HETATM    3  C   UNL     1     -11.502  15.582  70.747  1.00  0.00    -0.396 A  
HETATM    4  C   UNL     1     -10.686  14.838  69.884  1.00  0.00    -0.113 A  
HETATM    5  C   UNL     1     -10.985  13.486  69.589  1.00  0.00     0.108 A  
HETATM    6  C   UNL     1     -12.163  12.968  70.100  1.00  0.00    -0.342 A  
HETATM    7  N   UNL     1     -10.065  12.679  68.874  1.00  0.00    -0.022 NA 
HETATM    8  H   UNL     1      -5.866  15.008  67.004  1.00  0.00     0.000 HD 
HETATM    9  C   UNL     1     -12.783  13.610  71.176  1.00  0.00    -0.432 A  
HETATM   10  C   UNL     1      -8.902  13.298  68.421  1.00  0.00    -0.124 A  
HETATM   11  C   UNL     1     -13.325  12.668  72.216  1.00  0.00    -0.527 C  
HETATM   12  C   UNL     1      -7.507  15.464  68.113  1.00  0.00    -0.115 C  
HETATM   13  N   UNL     1      -7.964  12.643  67.812  1.00  0.00    -0.144 N  
HETATM   14  H   UNL     1      -8.081  11.641  67.658  1.00  0.00     0.000 HD 
HETATM   15  N   UNL     1      -9.556  15.485  69.378  1.00  0.00    -0.266 NA 
HETATM   16  C   UNL     1      -6.826  13.250  67.371  1.00  0.00    -0.085 C  
HETATM   17  N   UNL     1      -6.680  14.602  67.466  1.00  0.00    -0.171 N  
HETATM   18  O   UNL     1      -7.282  16.655  68.247  1.00  0.00    -0.159 OA 
HETATM   19  C   UNL     1      -8.721  14.785  68.676  1.00  0.00    -0.178 A  
HETATM   20  O   UNL     1      -5.906  12.605  66.880  1.00  0.00    -0.288 OA 
ENDROOT
BRANCH   7  21
HETATM   21  C   UNL     1     -10.030  11.209  69.191  1.00  0.00    -0.082 C  
BRANCH  21  22
HETATM   22  C   UNL     1     -10.603  10.342  68.048  1.00  0.00    -0.221 C  
HETATM   23  O   UNL     1     -12.018  10.235  68.194  1.00  0.00    -0.692 OA 
HETATM   24  H   UNL     1     -12.371   9.702  67.491  1.00  0.00     0.000 HD 
BRANCH  22  25
HETATM   25  C   UNL     1      -9.969   8.938  67.910  1.00  0.00    -0.179 C  
HETATM   26  O   UNL     1      -9.691   8.417  69.227  1.00  0.00    -0.172 OA 
HETATM   27  H   UNL     1      -9.302   7.554  69.142  1.00  0.00     0.000 HD 
BRANCH  25  28
HETATM   28  C   UNL     1      -8.690   8.779  67.052  1.00  0.00    -0.123 C  
HETATM   29  O   UNL     1      -7.799   9.882  67.356  1.00  0.00    -0.098 OA 
HETATM   30  H   UNL     1      -7.014   9.784  66.830  1.00  0.00     0.000 HD 
BRANCH  28  31
HETATM   31  C   UNL     1      -8.888   8.736  65.532  1.00  0.00    -0.188 C  
BRANCH  31  32
HETATM   32  O   UNL     1     -10.122   9.410  65.249  1.00  0.00    -0.076 OA 
HETATM   33  P   UNL     1     -10.071  10.738  64.363  1.00  0.00    -0.317 P  
HETATM   34  O   UNL     1      -9.182  11.773  65.193  1.00  0.00    -0.088 OA 
HETATM   35  O   UNL     1     -11.533  11.369  64.451  1.00  0.00    -0.225 OA 
HETATM   36  O   UNL     1      -9.599  10.589  62.960  1.00  0.00    -0.307 OA 
ENDBRANCH  31  32
ENDBRANCH  28  31
ENDBRANCH  25  28
ENDBRANCH  22  25
ENDBRANCH  21  22
ENDBRANCH   7  21
TORSDOF 6
ENDMDL
MODEL      158
REMARK 921   NORMALIZED FREE ENERGY PREDICTED BY IDOCK:   -4.48 KCAL/MOL
REMARK 922        TOTAL FREE ENERGY PREDICTED BY IDOCK:   -8.39 KCAL/MOL
REMARK 923 INTER-LIGAND FREE ENERGY PREDICTED BY IDOCK:   -8.05 KCAL/MOL
REMARK 924 INTRA-LIGAND FREE ENERGY PREDICTED BY IDOCK:   -0.34 KCAL/MOL
REMARK 927      BINDING AFFINITY PREDICTED BY RF-SCORE:    0.00 PKD
ROOT
HETATM    1  C   UNL     1      -8.940   9.450  63.068  1.00  0.00    -0.175 C  
HETATM    2  C   UNL     1      -9.037  10.150  64.394  1.00  0.00    -0.284 A  
HETATM    3  C   UNL     1      -9.383  11.498  64.452  1.00  0.00    -0.023 A  
HETATM    4  C   UNL     1      -9.584  12.128  65.688  1.00  0.00    -0.165 A  
HETATM    5  C   UNL     1      -9.311  11.448  66.900  1.00  0.00    -0.181 A  
HETATM    6  C   UNL     1      -8.743  10.188  66.810  1.00  0.00    -0.133 A  
HETATM    7  N   UNL     1      -9.690  12.007  68.146  1.00  0.00    -0.194 NA 
HETATM    8  H   UNL     1     -11.634  16.778  68.080  1.00  0.00     0.000 HD 
HETATM    9  C   UNL     1      -8.836   9.480  65.609  1.00  0.00    -0.194 A  
HETATM   10  C   UNL     1     -10.271  13.272  68.120  1.00  0.00    -0.243 A  
HETATM   11  C   UNL     1      -9.135   8.017  65.787  1.00  0.00    -0.109 C  
HETATM   12  C   UNL     1     -10.960  15.379  66.770  1.00  0.00    -0.282 C  
HETATM   13  N   UNL     1     -10.713  13.852  69.192  1.00  0.00    -0.384 N  
HETATM   14  H   UNL     1     -10.632  13.366  70.085  1.00  0.00     0.000 HD 
HETATM   15  N   UNL     1     -10.104  13.424  65.654  1.00  0.00    -0.290 NA 
HETATM   16  C   UNL     1     -11.281  15.090  69.164  1.00  0.00    -0.281 C  
HETATM   17  N   UNL     1     -11.313  15.813  68.008  1.00  0.00    -0.338 N  
HETATM   18  O   UNL     1     -11.094  16.037  65.752  1.00  0.00    -0.185 OA 
HETATM   19  C   UNL     1     -10.412  13.982  66.783  1.00  0.00    -0.277 A  
HETATM   20  O   UNL     1     -11.779  15.589  70.167  1.00  0.00    -0.293 OA 
ENDROOT
BRANCH   7  21
HETATM   21  C   UNL     1     -10.062  11.059  69.254  1.00  0.00    -0.095 C  
BRANCH  21  22
HETATM   22  C   UNL     1     -11.424  10.372  69.014  1.00  0.00    -0.193 C  
HETATM   23  O   UNL     1     -11.911  10.718  67.718  1.00  0.00    -0.697 OA 
HETATM   24  H   UNL     1     -12.749  10.295  67.571  1.00  0.00     0.000 HD 
BRANCH  22  25
HETATM   25  C   UNL     1     -12.500  10.658  70.087  1.00  0.00    -0.270 C  
HETATM   26  O   UNL     1     -12.130  11.846  70.819  1.00  0.00    -0.397 OA 
HETATM   27  H   UNL     1     -12.792  12.022  71.477  1.00  0.00     0.000 HD 
BRANCH  25  28
HETATM   28  C   UNL     1     -12.842   9.551  71.114  1.00  0.00    -0.284 C  
HETATM   29  O   UNL     1     -13.315  10.187  72.328  1.00  0.00    -0.570 OA 
HETATM   30  H   UNL     1     -13.525   9.508  72.958  1.00  0.00     0.000 HD 
BRANCH  28  31
HETATM   31  C   UNL     1     -11.701   8.598  71.495  1.00  0.00    -0.305 C  
BRANCH  31  32
HETATM   32  O   UNL     1     -11.647   7.581  70.486  1.00  0.00    -0.271 OA 
HETATM   33  P   UNL     1     -10.663   6.343  70.713  1.00  0.00    -0.283 P  
HETATM   34  O   UNL     1      -9.197   6.969  70.788  1.00  0.00    -0.157 OA 
HETATM   35  O   UNL     1     -10.644   5.549  69.330  1.00  0.00    -0.271 OA 
HETATM   36  O   UNL     1     -10.959   5.458  71.872  1.00  0.00    -0.223 OA 
ENDBRANCH  31  32
ENDBRANCH  28  31
ENDBRANCH  25  28
ENDBRANCH  22  25
ENDBRANCH  21  22
ENDBRANCH   7  21
TORSDOF 6
ENDMDL
MODEL      159
REMARK 921   NORMALIZED FREE ENERGY PREDICTED BY IDOCK:   -4.45 KCAL/MOL
REMARK 922        TOTAL FREE ENERGY PREDICTED BY IDOCK:   -8.35 KCAL/MOL
REMARK 923 INTER-LIGAND FREE ENERGY PREDICTED BY IDOCK:   -7.64 KCAL/MOL
REMARK 924 INTRA-LIGAND FREE ENERGY PREDICTED BY IDOCK:   -0.72 KCAL/MOL
REMARK 927      BINDING AFFINITY PREDICTED BY RF-SCORE:    0.00 PKD
ROOT
HETATM    1  C   UNL     1     -11.395   5.285  72.878  1.00  0.00    -0.368 C  
HETATM    2  C   UNL     1     -10.862   6.021  71.682  1.00  0.00    -0.314 A  
HETATM    3  C   UNL     1     -10.024   5.375  70.775  1.00  0.00    -0.269 A  
HETATM    4  C   UNL     1      -9.614   6.021  69.601  1.00  0.00    -0.148 A  
HETATM    5  C   UNL     1      -9.929   7.382  69.376  1.00  0.00    -0.176 A  
HETATM    6  C   UNL     1     -10.560   8.069  70.400  1.00  0.00    -0.224 A  
HETATM    7  N   UNL     1      -9.685   7.984  68.116  1.00  0.00    -0.156 NA 
HETATM    8  H   UNL     1      -7.180   5.155  64.614  1.00  0.00     0.000 HD 
HETATM    9  C   UNL     1     -11.214   7.349  71.404  1.00  0.00    -0.272 A  
HETATM   10  C   UNL     1      -9.061   7.197  67.151  1.00  0.00    -0.129 A  
HETATM   11  C   UNL     1     -12.536   7.940  71.812  1.00  0.00    -0.353 C  
HETATM   12  C   UNL     1      -7.898   4.970  66.505  1.00  0.00    -0.100 C  
HETATM   13  N   UNL     1      -8.846   7.624  65.946  1.00  0.00    -0.256 N  
HETATM   14  H   UNL     1      -9.143   8.567  65.696  1.00  0.00     0.000 HD 
HETATM   15  N   UNL     1      -8.928   5.243  68.665  1.00  0.00    -0.106 NA 
HETATM   16  C   UNL     1      -8.236   6.852  65.003  1.00  0.00    -0.096 C  
HETATM   17  N   UNL     1      -7.735   5.626  65.328  1.00  0.00    -0.084 N  
HETATM   18  O   UNL     1      -7.505   3.834  66.714  1.00  0.00    -0.077 OA 
HETATM   19  C   UNL     1      -8.645   5.783  67.521  1.00  0.00    -0.105 A  
HETATM   20  O   UNL     1      -8.122   7.230  63.842  1.00  0.00    -0.107 OA 
ENDROOT
BRANCH   7  21
HETATM   21  C   UNL     1     -10.617   9.079  67.671  1.00  0.00    -0.231 C  
BRANCH  21  22
HETATM   22  C   UNL     1      -9.895  10.429  67.475  1.00  0.00    -0.172 C  
HETATM   23  O   UNL     1      -8.483  10.229  67.540  1.00  0.00    -0.118 OA 
HETATM   24  H   UNL     1      -8.039  11.060  67.419  1.00  0.00     0.000 HD 
BRANCH  22  25
HETATM   25  C   UNL     1     -10.324  11.550  68.451  1.00  0.00    -0.202 C  
HETATM   26  O   UNL     1     -10.124  11.094  69.806  1.00  0.00    -0.398 OA 
HETATM   27  H   UNL     1     -10.387  11.783  70.405  1.00  0.00     0.000 HD 
BRANCH  25  28
HETATM   28  C   UNL     1     -11.759  12.121  68.345  1.00  0.00    -0.332 C  
HETATM   29  O   UNL     1     -12.238  11.900  66.995  1.00  0.00    -0.492 OA 
HETATM   30  H   UNL     1     -13.119  12.249  66.930  1.00  0.00     0.000 HD 
BRANCH  28  31
HETATM   31  C   UNL     1     -11.927  13.611  68.668  1.00  0.00    -0.360 C  
BRANCH  31  32
HETATM   32  O   UNL     1     -11.699  13.766  70.075  1.00  0.00    -0.281 OA 
HETATM   33  P   UNL     1     -12.020  15.182  70.741  1.00  0.00    -0.406 P  
HETATM   34  O   UNL     1     -11.052  16.225  70.018  1.00  0.00    -0.341 OA 
HETATM   35  O   UNL     1     -11.428  15.106  72.219  1.00  0.00    -0.425 OA 
HETATM   36  O   UNL     1     -13.441  15.623  70.719  1.00  0.00    -0.536 OA 
ENDBRANCH  31  32
ENDBRANCH  28  31
ENDBRANCH  25  28
ENDBRANCH  22  25
ENDBRANCH  21  22
ENDBRANCH   7  21
TORSDOF 6
ENDMDL
MODEL      160
REMARK 921   NORMALIZED FREE ENERGY PREDICTED BY IDOCK:   -4.44 KCAL/MOL
REMARK 922        TOTAL FREE ENERGY PREDICTED BY IDOCK:   -8.35 KCAL/MOL
REMARK 923 INTER-LIGAND FREE ENERGY PREDICTED BY IDOCK:   -7.28 KCAL/MOL
REMARK 924 INTRA-LIGAND FREE ENERGY PREDICTED BY IDOCK:   -1.07 KCAL/MOL
REMARK 927      BINDING AFFINITY PREDICTED BY RF-SCORE:    0.00 PKD
ROOT
HETATM    1  C   UNL     1     -12.241  12.337  62.845  1.00  0.00     0.164 C  
HETATM    2  C   UNL     1     -11.888  12.150  64.293  1.00  0.00    -0.460 A  
HETATM    3  C   UNL     1     -11.192  11.016  64.706  1.00  0.00     0.083 A  
HETATM    4  C   UNL     1     -10.762  10.889  66.034  1.00  0.00    -0.140 A  
HETATM    5  C   UNL     1     -11.141  11.841  67.011  1.00  0.00    -0.304 A  
HETATM    6  C   UNL     1     -12.029  12.832  66.626  1.00  0.00    -0.411 A  
HETATM    7  N   UNL     1     -10.558  11.824  68.303  1.00  0.00    -0.203 NA 
HETATM    8  H   UNL     1      -7.416   7.893  69.406  1.00  0.00     0.000 HD 
HETATM    9  C   UNL     1     -12.194  13.111  65.267  1.00  0.00    -0.502 A  
HETATM   10  C   UNL     1      -9.663  10.794  68.579  1.00  0.00    -0.182 A  
HETATM   11  C   UNL     1     -12.288  14.580  64.955  1.00  0.00    -0.353 C  
HETATM   12  C   UNL     1      -8.510   8.589  67.842  1.00  0.00    -0.130 C  
HETATM   13  N   UNL     1      -9.024  10.716  69.704  1.00  0.00    -0.396 N  
HETATM   14  H   UNL     1      -9.183  11.433  70.412  1.00  0.00     0.000 HD 
HETATM   15  N   UNL     1      -9.918   9.814  66.320  1.00  0.00    -0.251 NA 
HETATM   16  C   UNL     1      -8.148   9.707  69.971  1.00  0.00    -0.178 C  
HETATM   17  N   UNL     1      -7.988   8.677  69.092  1.00  0.00    -0.108 N  
HETATM   18  O   UNL     1      -8.261   7.686  67.060  1.00  0.00    -0.114 OA 
HETATM   19  C   UNL     1      -9.410   9.742  67.510  1.00  0.00    -0.133 A  
HETATM   20  O   UNL     1      -7.480   9.694  71.000  1.00  0.00    -0.327 OA 
ENDROOT
BRANCH   7  21
HETATM   21  C   UNL     1     -10.392  13.141  69.013  1.00  0.00     0.050 C  
BRANCH  21  22
HETATM   22  C   UNL     1      -9.355  14.057  68.330  1.00  0.00    -0.208 C  
HETATM   23  O   UNL     1      -8.246  14.257  69.204  1.00  0.00    -0.332 OA 
HETATM   24  H   UNL     1      -7.607  14.822  68.783  1.00  0.00     0.000 HD 
BRANCH  22  25
HETATM   25  C   UNL     1      -9.905  15.417  67.839  1.00  0.00    -0.219 C  
HETATM   26  O   UNL     1      -9.129  15.854  66.702  1.00  0.00    -0.215 OA 
HETATM   27  H   UNL     1      -9.467  16.689  66.401  1.00  0.00     0.000 HD 
BRANCH  25  28
HETATM   28  C   UNL     1      -9.988  16.594  68.842  1.00  0.00    -0.271 C  
HETATM   29  O   UNL     1     -11.121  16.366  69.717  1.00  0.00    -0.338 OA 
HETATM   30  H   UNL     1     -11.172  17.088  70.333  1.00  0.00     0.000 HD 
BRANCH  28  31
HETATM   31  C   UNL     1     -10.131  17.997  68.239  1.00  0.00    -0.385 C  
BRANCH  31  32
HETATM   32  O   UNL     1      -9.044  18.785  68.743  1.00  0.00    -0.337 OA 
HETATM   33  P   UNL     1      -7.913  19.256  67.718  1.00  0.00    -0.292 P  
HETATM   34  O   UNL     1      -7.261  17.913  67.153  1.00  0.00    -0.179 OA 
HETATM   35  O   UNL     1      -6.748  19.871  68.616  1.00  0.00    -0.291 OA 
HETATM   36  O   UNL     1      -8.339  20.177  66.630  1.00  0.00    -0.312 OA 
ENDBRANCH  31  32
ENDBRANCH  28  31
ENDBRANCH  25  28
ENDBRANCH  22  25
ENDBRANCH  21  22
ENDBRANCH   7  21
TORSDOF 6
ENDMDL
MODEL      161
REMARK 921   NORMALIZED FREE ENERGY PREDICTED BY IDOCK:   -4.43 KCAL/MOL
REMARK 922        TOTAL FREE ENERGY PREDICTED BY IDOCK:   -8.33 KCAL/MOL
REMARK 923 INTER-LIGAND FREE ENERGY PREDICTED BY IDOCK:   -7.11 KCAL/MOL
REMARK 924 INTRA-LIGAND FREE ENERGY PREDICTED BY IDOCK:   -1.22 KCAL/MOL
REMARK 927      BINDING AFFINITY PREDICTED BY RF-SCORE:    0.00 PKD
ROOT
HETATM    1  C   UNL     1     -10.926   4.833  72.594  1.00  0.00    -0.219 C  
HETATM    2  C   UNL     1     -10.261   5.800  71.656  1.00  0.00    -0.253 A  
HETATM    3  C   UNL     1      -9.783   5.364  70.421  1.00  0.00    -0.254 A  
HETATM    4  C   UNL     1      -9.264   6.281  69.497  1.00  0.00    -0.139 A  
HETATM    5  C   UNL     1      -9.088   7.642  69.847  1.00  0.00    -0.147 A  
HETATM    6  C   UNL     1      -9.349   8.002  71.158  1.00  0.00    -0.176 A  
HETATM    7  N   UNL     1      -8.745   8.604  68.865  1.00  0.00    -0.130 NA 
HETATM    8  H   UNL     1      -7.702   6.854  64.132  1.00  0.00     0.000 HD 
HETATM    9  C   UNL     1     -10.136   7.164  71.954  1.00  0.00    -0.197 A  
HETATM   10  C   UNL     1      -8.522   8.136  67.572  1.00  0.00    -0.126 A  
HETATM   11  C   UNL     1     -11.123   7.898  72.819  1.00  0.00    -0.462 C  
HETATM   12  C   UNL     1      -8.287   6.133  65.939  1.00  0.00    -0.140 C  
HETATM   13  N   UNL     1      -8.265   8.933  66.583  1.00  0.00    -0.110 N  
HETATM   14  H   UNL     1      -8.223   9.938  66.757  1.00  0.00     0.000 HD 
HETATM   15  N   UNL     1      -8.977   5.790  68.220  1.00  0.00    -0.115 NA 
HETATM   16  C   UNL     1      -8.047   8.472  65.319  1.00  0.00    -0.138 C  
HETATM   17  N   UNL     1      -7.993   7.133  65.069  1.00  0.00    -0.125 N  
HETATM   18  O   UNL     1      -8.311   4.951  65.638  1.00  0.00    -0.115 OA 
HETATM   19  C   UNL     1      -8.611   6.640  67.313  1.00  0.00    -0.119 A  
HETATM   20  O   UNL     1      -7.897   9.240  64.374  1.00  0.00    -0.113 OA 
ENDROOT
BRANCH   7  21
HETATM   21  C   UNL     1      -9.256  10.007  69.051  1.00  0.00    -0.178 C  
BRANCH  21  22
HETATM   22  C   UNL     1     -10.732  10.162  68.626  1.00  0.00    -0.222 C  
HETATM   23  O   UNL     1     -11.133   9.021  67.871  1.00  0.00    -0.506 OA 
HETATM   24  H   UNL     1     -12.042   9.116  67.609  1.00  0.00     0.000 HD 
BRANCH  22  25
HETATM   25  C   UNL     1     -11.058  11.461  67.852  1.00  0.00    -0.261 C  
HETATM   26  O   UNL     1     -12.371  11.922  68.240  1.00  0.00    -0.334 OA 
HETATM   27  H   UNL     1     -12.570  12.719  67.765  1.00  0.00     0.000 HD 
BRANCH  25  28
HETATM   28  C   UNL     1     -10.996  11.442  66.305  1.00  0.00    -0.247 C  
HETATM   29  O   UNL     1      -9.606  11.522  65.904  1.00  0.00    -0.218 OA 
HETATM   30  H   UNL     1      -9.568  11.510  64.955  1.00  0.00     0.000 HD 
BRANCH  28  31
HETATM   31  C   UNL     1     -11.763  12.555  65.577  1.00  0.00    -0.409 C  
BRANCH  31  32
HETATM   32  O   UNL     1     -11.723  13.714  66.420  1.00  0.00    -0.338 OA 
HETATM   33  P   UNL     1     -10.838  14.958  65.951  1.00  0.00    -0.359 P  
HETATM   34  O   UNL     1      -9.339  14.414  65.876  1.00  0.00    -0.208 OA 
HETATM   35  O   UNL     1     -10.798  15.951  67.199  1.00  0.00    -0.319 OA 
HETATM   36  O   UNL     1     -11.254  15.639  64.695  1.00  0.00    -0.435 OA 
ENDBRANCH  31  32
ENDBRANCH  28  31
ENDBRANCH  25  28
ENDBRANCH  22  25
ENDBRANCH  21  22
ENDBRANCH   7  21
TORSDOF 6
ENDMDL
MODEL      162
REMARK 921   NORMALIZED FREE ENERGY PREDICTED BY IDOCK:   -4.43 KCAL/MOL
REMARK 922        TOTAL FREE ENERGY PREDICTED BY IDOCK:   -8.32 KCAL/MOL
REMARK 923 INTER-LIGAND FREE ENERGY PREDICTED BY IDOCK:   -8.11 KCAL/MOL
REMARK 924 INTRA-LIGAND FREE ENERGY PREDICTED BY IDOCK:   -0.21 KCAL/MOL
REMARK 927      BINDING AFFINITY PREDICTED BY RF-SCORE:    0.00 PKD
ROOT
HETATM    1  C   UNL     1      -8.050  19.266  66.140  1.00  0.00    -0.294 C  
HETATM    2  C   UNL     1      -8.548  17.918  66.580  1.00  0.00    -0.283 A  
HETATM    3  C   UNL     1      -7.734  16.794  66.455  1.00  0.00    -0.334 A  
HETATM    4  C   UNL     1      -8.150  15.556  66.965  1.00  0.00    -0.237 A  
HETATM    5  C   UNL     1      -9.452  15.391  67.495  1.00  0.00    -0.205 A  
HETATM    6  C   UNL     1     -10.323  16.463  67.391  1.00  0.00    -0.295 A  
HETATM    7  N   UNL     1      -9.811  14.204  68.181  1.00  0.00    -0.222 NA 
HETATM    8  H   UNL     1      -6.352  10.385  68.220  1.00  0.00     0.000 HD 
HETATM    9  C   UNL     1      -9.809  17.743  67.168  1.00  0.00    -0.311 A  
HETATM   10  C   UNL     1      -8.852  13.196  68.242  1.00  0.00    -0.175 A  
HETATM   11  C   UNL     1     -10.484  18.819  67.974  1.00  0.00    -0.410 C  
HETATM   12  C   UNL     1      -6.526  12.289  67.533  1.00  0.00    -0.137 C  
HETATM   13  N   UNL     1      -9.048  12.094  68.896  1.00  0.00    -0.378 N  
HETATM   14  H   UNL     1      -9.935  11.961  69.383  1.00  0.00     0.000 HD 
HETATM   15  N   UNL     1      -7.204  14.528  66.962  1.00  0.00     0.003 NA 
HETATM   16  C   UNL     1      -8.108  11.109  68.955  1.00  0.00    -0.115 C  
HETATM   17  N   UNL     1      -6.955  11.208  68.234  1.00  0.00    -0.068 N  
HETATM   18  O   UNL     1      -5.441  12.358  66.980  1.00  0.00    -0.301 OA 
HETATM   19  C   UNL     1      -7.522  13.411  67.537  1.00  0.00    -0.162 A  
HETATM   20  O   UNL     1      -8.267  10.113  69.652  1.00  0.00    -0.162 OA 
ENDROOT
BRANCH   7  21
HETATM   21  C   UNL     1     -10.820  14.315  69.291  1.00  0.00    -0.215 C  
BRANCH  21  22
HETATM   22  C   UNL     1     -11.895  13.209  69.228  1.00  0.00    -0.323 C  
HETATM   23  O   UNL     1     -11.556  12.162  70.136  1.00  0.00    -0.504 OA 
HETATM   24  H   UNL     1     -12.218  11.481  70.096  1.00  0.00     0.000 HD 
BRANCH  22  25
HETATM   25  C   UNL     1     -12.161  12.633  67.817  1.00  0.00    -0.096 C  
HETATM   26  O   UNL     1     -11.560  11.323  67.725  1.00  0.00    -0.463 OA 
HETATM   27  H   UNL     1     -11.723  10.969  66.859  1.00  0.00     0.000 HD 
BRANCH  25  28
HETATM   28  C   UNL     1     -11.715  13.451  66.581  1.00  0.00    -0.385 C  
HETATM   29  O   UNL     1     -12.724  14.457  66.314  1.00  0.00    -0.469 OA 
HETATM   30  H   UNL     1     -12.450  14.960  65.556  1.00  0.00     0.000 HD 
BRANCH  28  31
HETATM   31  C   UNL     1     -11.481  12.661  65.287  1.00  0.00    -0.331 C  
BRANCH  31  32
HETATM   32  O   UNL     1     -10.089  12.320  65.248  1.00  0.00    -0.273 OA 
HETATM   33  P   UNL     1      -9.681  10.875  64.700  1.00  0.00    -0.331 P  
HETATM   34  O   UNL     1     -10.365   9.830  65.694  1.00  0.00    -0.199 OA 
HETATM   35  O   UNL     1      -8.128  10.716  65.024  1.00  0.00    -0.132 OA 
HETATM   36  O   UNL     1      -9.997  10.588  63.274  1.00  0.00    -0.302 OA 
ENDBRANCH  31  32
ENDBRANCH  28  31
ENDBRANCH  25  28
ENDBRANCH  22  25
ENDBRANCH  21  22
ENDBRANCH   7  21
TORSDOF 6
ENDMDL
MODEL      163
REMARK 921   NORMALIZED FREE ENERGY PREDICTED BY IDOCK:   -4.37 KCAL/MOL
REMARK 922        TOTAL FREE ENERGY PREDICTED BY IDOCK:   -8.24 KCAL/MOL
REMARK 923 INTER-LIGAND FREE ENERGY PREDICTED BY IDOCK:   -7.78 KCAL/MOL
REMARK 924 INTRA-LIGAND FREE ENERGY PREDICTED BY IDOCK:   -0.46 KCAL/MOL
REMARK 927      BINDING AFFINITY PREDICTED BY RF-SCORE:    0.00 PKD
ROOT
HETATM    1  C   UNL     1      -8.009   7.042  65.398  1.00  0.00    -0.129 C  
HETATM    2  C   UNL     1      -8.920   8.101  65.950  1.00  0.00    -0.195 A  
HETATM    3  C   UNL     1      -9.536   7.922  67.187  1.00  0.00    -0.222 A  
HETATM    4  C   UNL     1     -10.297   8.952  67.757  1.00  0.00    -0.242 A  
HETATM    5  C   UNL     1     -10.567  10.139  67.034  1.00  0.00    -0.225 A  
HETATM    6  C   UNL     1     -10.142  10.194  65.717  1.00  0.00    -0.324 A  
HETATM    7  N   UNL     1     -11.169  11.253  67.669  1.00  0.00    -0.278 NA 
HETATM    8  H   UNL     1     -12.751  10.608  72.531  1.00  0.00     0.000 HD 
HETATM    9  C   UNL     1      -9.149   9.312  65.282  1.00  0.00    -0.271 A  
HETATM   10  C   UNL     1     -11.541  11.095  69.002  1.00  0.00    -0.324 A  
HETATM   11  C   UNL     1      -8.126   9.946  64.380  1.00  0.00    -0.157 C  
HETATM   12  C   UNL     1     -11.807   9.554  71.073  1.00  0.00    -0.330 C  
HETATM   13  N   UNL     1     -12.042  12.067  69.699  1.00  0.00    -0.264 N  
HETATM   14  H   UNL     1     -12.168  12.978  69.257  1.00  0.00     0.000 HD 
HETATM   15  N   UNL     1     -10.726   8.759  69.073  1.00  0.00    -0.166 NA 
HETATM   16  C   UNL     1     -12.404  11.911  71.004  1.00  0.00    -0.259 C  
HETATM   17  N   UNL     1     -12.347  10.684  71.597  1.00  0.00    -0.305 N  
HETATM   18  O   UNL     1     -11.698   8.503  71.682  1.00  0.00    -0.272 OA 
HETATM   19  C   UNL     1     -11.327   9.744  69.664  1.00  0.00    -0.122 A  
HETATM   20  O   UNL     1     -12.789  12.859  71.680  1.00  0.00    -0.336 OA 
ENDROOT
BRANCH   7  21
HETATM   21  C   UNL     1     -10.796  12.626  67.176  1.00  0.00    -0.253 C  
BRANCH  21  22
HETATM   22  C   UNL     1      -9.340  13.004  67.520  1.00  0.00    -0.200 C  
HETATM   23  O   UNL     1      -8.538  11.825  67.560  1.00  0.00    -0.146 OA 
HETATM   24  H   UNL     1      -7.641  12.057  67.772  1.00  0.00     0.000 HD 
BRANCH  22  25
HETATM   25  C   UNL     1      -9.164  13.818  68.823  1.00  0.00     0.018 C  
HETATM   26  O   UNL     1     -10.440  14.376  69.204  1.00  0.00    -0.274 OA 
HETATM   27  H   UNL     1     -10.332  14.876  70.004  1.00  0.00     0.000 HD 
BRANCH  25  28
HETATM   28  C   UNL     1      -8.115  14.956  68.855  1.00  0.00    -0.165 C  
HETATM   29  O   UNL     1      -7.325  14.813  70.062  1.00  0.00    -0.365 OA 
HETATM   30  H   UNL     1      -6.681  15.511  70.082  1.00  0.00     0.000 HD 
BRANCH  28  31
HETATM   31  C   UNL     1      -8.662  16.390  68.816  1.00  0.00    -0.246 C  
BRANCH  31  32
HETATM   32  O   UNL     1      -8.833  16.738  67.436  1.00  0.00    -0.197 OA 
HETATM   33  P   UNL     1     -10.267  17.257  66.961  1.00  0.00    -0.302 P  
HETATM   34  O   UNL     1     -11.275  16.051  67.242  1.00  0.00    -0.196 OA 
HETATM   35  O   UNL     1     -10.200  17.306  65.368  1.00  0.00    -0.604 OA 
HETATM   36  O   UNL     1     -10.743  18.538  67.550  1.00  0.00    -0.427 OA 
ENDBRANCH  31  32
ENDBRANCH  28  31
ENDBRANCH  25  28
ENDBRANCH  22  25
ENDBRANCH  21  22
ENDBRANCH   7  21
TORSDOF 6
ENDMDL
MODEL      164
REMARK 921   NORMALIZED FREE ENERGY PREDICTED BY IDOCK:   -4.35 KCAL/MOL
REMARK 922        TOTAL FREE ENERGY PREDICTED BY IDOCK:   -8.22 KCAL/MOL
REMARK 923 INTER-LIGAND FREE ENERGY PREDICTED BY IDOCK:   -6.43 KCAL/MOL
REMARK 924 INTRA-LIGAND FREE ENERGY PREDICTED BY IDOCK:   -1.78 KCAL/MOL
REMARK 927      BINDING AFFINITY PREDICTED BY RF-SCORE:    0.00 PKD
ROOT
HETATM    1  C   UNL     1      -8.160   8.307  64.187  1.00  0.00    -0.136 C  
HETATM    2  C   UNL     1      -8.715   8.364  65.582  1.00  0.00    -0.204 A  
HETATM    3  C   UNL     1      -9.077   9.586  66.144  1.00  0.00    -0.207 A  
HETATM    4  C   UNL     1      -9.698   9.635  67.400  1.00  0.00    -0.156 A  
HETATM    5  C   UNL     1      -9.848   8.463  68.179  1.00  0.00    -0.169 A  
HETATM    6  C   UNL     1      -9.268   7.300  67.700  1.00  0.00    -0.130 A  
HETATM    7  N   UNL     1     -10.639   8.471  69.355  1.00  0.00    -0.217 NA 
HETATM    8  H   UNL     1     -12.503  13.021  70.895  1.00  0.00     0.000 HD 
HETATM    9  C   UNL     1      -8.934   7.209  66.346  1.00  0.00    -0.178 A  
HETATM   10  C   UNL     1     -11.191   9.691  69.736  1.00  0.00    -0.174 A  
HETATM   11  C   UNL     1      -9.258   5.877  65.728  1.00  0.00    -0.059 C  
HETATM   12  C   UNL     1     -11.403  12.251  69.370  1.00  0.00    -0.228 C  
HETATM   13  N   UNL     1     -11.982   9.803  70.758  1.00  0.00    -0.302 N  
HETATM   14  H   UNL     1     -12.206   8.969  71.301  1.00  0.00     0.000 HD 
HETATM   15  N   UNL     1     -10.191  10.877  67.807  1.00  0.00    -0.176 NA 
HETATM   16  C   UNL     1     -12.522  10.998  71.128  1.00  0.00    -0.397 C  
HETATM   17  N   UNL     1     -12.164  12.148  70.490  1.00  0.00    -0.349 N  
HETATM   18  O   UNL     1     -11.188  13.300  68.784  1.00  0.00    -0.248 OA 
HETATM   19  C   UNL     1     -10.875  10.925  68.907  1.00  0.00    -0.219 A  
HETATM   20  O   UNL     1     -13.340  11.076  72.038  1.00  0.00    -0.455 OA 
ENDROOT
BRANCH   7  21
HETATM   21  C   UNL     1     -11.357   7.201  69.725  1.00  0.00    -0.123 C  
BRANCH  21  22
HETATM   22  C   UNL     1     -10.653   6.431  70.862  1.00  0.00    -0.236 C  
HETATM   23  O   UNL     1     -10.189   5.174  70.372  1.00  0.00    -0.240 OA 
HETATM   24  H   UNL     1      -9.755   4.700  71.073  1.00  0.00     0.000 HD 
BRANCH  22  25
HETATM   25  C   UNL     1     -11.501   6.229  72.140  1.00  0.00    -0.307 C  
HETATM   26  O   UNL     1     -12.788   6.857  71.953  1.00  0.00    -0.459 OA 
HETATM   27  H   UNL     1     -13.309   6.733  72.738  1.00  0.00     0.000 HD 
BRANCH  25  28
HETATM   28  C   UNL     1     -10.929   6.706  73.498  1.00  0.00    -0.086 C  
HETATM   29  O   UNL     1      -9.877   7.668  73.236  1.00  0.00    -0.252 OA 
HETATM   30  H   UNL     1      -9.527   7.961  74.068  1.00  0.00     0.000 HD 
BRANCH  28  31
HETATM   31  C   UNL     1     -10.357   5.618  74.417  1.00  0.00    -0.258 C  
BRANCH  31  32
HETATM   32  O   UNL     1      -9.999   4.508  73.583  1.00  0.00    -0.139 OA 
HETATM   33  P   UNL     1      -8.447   4.215  73.342  1.00  0.00    -0.088 P  
HETATM   34  O   UNL     1      -7.873   5.516  72.617  1.00  0.00    -0.100 OA 
HETATM   35  O   UNL     1      -8.392   3.110  72.193  1.00  0.00    -0.071 OA 
HETATM   36  O   UNL     1      -7.645   3.835  74.536  1.00  0.00    -0.067 OA 
ENDBRANCH  31  32
ENDBRANCH  28  31
ENDBRANCH  25  28
ENDBRANCH  22  25
ENDBRANCH  21  22
ENDBRANCH   7  21
TORSDOF 6
ENDMDL
MODEL      165
REMARK 921   NORMALIZED FREE ENERGY PREDICTED BY IDOCK:   -4.33 KCAL/MOL
REMARK 922        TOTAL FREE ENERGY PREDICTED BY IDOCK:   -8.19 KCAL/MOL
REMARK 923 INTER-LIGAND FREE ENERGY PREDICTED BY IDOCK:   -7.48 KCAL/MOL
REMARK 924 INTRA-LIGAND FREE ENERGY PREDICTED BY IDOCK:   -0.70 KCAL/MOL
REMARK 927      BINDING AFFINITY PREDICTED BY RF-SCORE:    0.00 PKD
ROOT
HETATM    1  C   UNL     1      -7.979  19.255  68.669  1.00  0.00    -0.405 C  
HETATM    2  C   UNL     1      -8.420  18.104  67.809  1.00  0.00    -0.251 A  
HETATM    3  C   UNL     1      -7.764  16.877  67.889  1.00  0.00    -0.179 A  
HETATM    4  C   UNL     1      -8.239  15.770  67.173  1.00  0.00    -0.206 A  
HETATM    5  C   UNL     1      -9.308  15.906  66.254  1.00  0.00    -0.322 A  
HETATM    6  C   UNL     1      -9.787  17.184  66.018  1.00  0.00    -0.239 A  
HETATM    7  N   UNL     1      -9.914  14.764  65.673  1.00  0.00    -0.345 NA 
HETATM    8  H   UNL     1      -7.749  10.197  66.675  1.00  0.00     0.000 HD 
HETATM    9  C   UNL     1      -9.517  18.197  66.942  1.00  0.00    -0.286 A  
HETATM   10  C   UNL     1      -9.363  13.525  65.994  1.00  0.00     0.003 A  
HETATM   11  C   UNL     1     -10.686  19.105  67.207  1.00  0.00    -0.585 C  
HETATM   12  C   UNL     1      -7.498  12.153  67.164  1.00  0.00    -0.129 C  
HETATM   13  N   UNL     1      -9.876  12.412  65.571  1.00  0.00    -0.355 N  
HETATM   14  H   UNL     1     -10.709  12.444  64.983  1.00  0.00     0.000 HD 
HETATM   15  N   UNL     1      -7.637  14.540  67.449  1.00  0.00    -0.193 NA 
HETATM   16  C   UNL     1      -9.336  11.201  65.886  1.00  0.00    -0.212 C  
HETATM   17  N   UNL     1      -8.166  11.123  66.582  1.00  0.00    -0.153 N  
HETATM   18  O   UNL     1      -6.502  12.017  67.855  1.00  0.00    -0.060 OA 
HETATM   19  C   UNL     1      -8.137  13.482  66.891  1.00  0.00     0.130 A  
HETATM   20  O   UNL     1      -9.880  10.152  65.559  1.00  0.00    -0.258 OA 
ENDROOT
BRANCH   7  21
HETATM   21  C   UNL     1     -11.379  14.844  65.337  1.00  0.00    -0.346 C  
BRANCH  21  22
HETATM   22  C   UNL     1     -12.229  13.846  66.153  1.00  0.00    -0.464 C  
HETATM   23  O   UNL     1     -13.484  13.648  65.504  1.00  0.00    -0.507 OA 
HETATM   24  H   UNL     1     -14.008  13.034  66.006  1.00  0.00     0.000 HD 
BRANCH  22  25
HETATM   25  C   UNL     1     -12.446  14.229  67.636  1.00  0.00     0.189 C  
HETATM   26  O   UNL     1     -11.781  15.484  67.898  1.00  0.00    -0.293 OA 
HETATM   27  H   UNL     1     -11.915  15.719  68.809  1.00  0.00     0.000 HD 
BRANCH  25  28
HETATM   28  C   UNL     1     -12.022  13.225  68.735  1.00  0.00    -0.300 C  
HETATM   29  O   UNL     1     -10.836  13.740  69.389  1.00  0.00    -0.408 OA 
HETATM   30  H   UNL     1     -10.576  13.124  70.064  1.00  0.00     0.000 HD 
BRANCH  28  31
HETATM   31  C   UNL     1     -11.722  11.793  68.272  1.00  0.00    -0.310 C  
BRANCH  31  32
HETATM   32  O   UNL     1     -10.746  11.255  69.174  1.00  0.00    -0.215 OA 
HETATM   33  P   UNL     1     -10.998   9.796  69.775  1.00  0.00    -0.235 P  
HETATM   34  O   UNL     1     -12.357   9.902  70.605  1.00  0.00    -0.273 OA 
HETATM   35  O   UNL     1      -9.896   9.603  70.912  1.00  0.00    -0.245 OA 
HETATM   36  O   UNL     1     -11.016   8.667  68.804  1.00  0.00    -0.032 OA 
ENDBRANCH  31  32
ENDBRANCH  28  31
ENDBRANCH  25  28
ENDBRANCH  22  25
ENDBRANCH  21  22
ENDBRANCH   7  21
TORSDOF 6
ENDMDL
MODEL      166
REMARK 921   NORMALIZED FREE ENERGY PREDICTED BY IDOCK:   -4.32 KCAL/MOL
REMARK 922        TOTAL FREE ENERGY PREDICTED BY IDOCK:   -8.19 KCAL/MOL
REMARK 923 INTER-LIGAND FREE ENERGY PREDICTED BY IDOCK:   -6.97 KCAL/MOL
REMARK 924 INTRA-LIGAND FREE ENERGY PREDICTED BY IDOCK:   -1.21 KCAL/MOL
REMARK 927      BINDING AFFINITY PREDICTED BY RF-SCORE:    0.00 PKD
ROOT
HETATM    1  C   UNL     1      -9.750   5.651  72.009  1.00  0.00    -0.182 C  
HETATM    2  C   UNL     1      -9.713   6.948  71.253  1.00  0.00    -0.175 A  
HETATM    3  C   UNL     1      -8.664   7.845  71.448  1.00  0.00    -0.148 A  
HETATM    4  C   UNL     1      -8.566   9.004  70.666  1.00  0.00    -0.210 A  
HETATM    5  C   UNL     1      -9.594   9.355  69.759  1.00  0.00    -0.201 A  
HETATM    6  C   UNL     1     -10.737   8.572  69.755  1.00  0.00    -0.213 A  
HETATM    7  N   UNL     1      -9.415  10.414  68.834  1.00  0.00    -0.177 NA 
HETATM    8  H   UNL     1      -5.096  13.193  69.262  1.00  0.00     0.000 HD 
HETATM    9  C   UNL     1     -10.686   7.287  70.302  1.00  0.00    -0.252 A  
HETATM   10  C   UNL     1      -8.220  11.126  68.913  1.00  0.00    -0.104 A  
HETATM   11  C   UNL     1     -11.427   6.254  69.497  1.00  0.00    -0.387 C  
HETATM   12  C   UNL     1      -5.977  11.582  70.135  1.00  0.00    -0.159 C  
HETATM   13  N   UNL     1      -7.923  12.072  68.078  1.00  0.00    -0.139 N  
HETATM   14  H   UNL     1      -8.586  12.304  67.339  1.00  0.00     0.000 HD 
HETATM   15  N   UNL     1      -7.393   9.751  70.799  1.00  0.00    -0.318 NA 
HETATM   16  C   UNL     1      -6.753  12.766  68.157  1.00  0.00    -0.092 C  
HETATM   17  N   UNL     1      -5.889  12.555  69.191  1.00  0.00    -0.074 N  
HETATM   18  O   UNL     1      -5.127  11.379  70.986  1.00  0.00    -0.107 OA 
HETATM   19  C   UNL     1      -7.223  10.759  70.000  1.00  0.00     0.047 A  
HETATM   20  O   UNL     1      -6.441  13.594  67.307  1.00  0.00    -0.279 OA 
ENDROOT
BRANCH   7  21
HETATM   21  C   UNL     1     -10.111  10.308  67.504  1.00  0.00    -0.198 C  
BRANCH  21  22
HETATM   22  C   UNL     1      -9.409   9.323  66.545  1.00  0.00    -0.178 C  
HETATM   23  O   UNL     1      -7.998   9.377  66.754  1.00  0.00    -0.107 OA 
HETATM   24  H   UNL     1      -7.566   8.771  66.163  1.00  0.00     0.000 HD 
BRANCH  22  25
HETATM   25  C   UNL     1      -9.737   9.522  65.046  1.00  0.00    -0.068 C  
HETATM   26  O   UNL     1      -8.892   8.653  64.261  1.00  0.00    -0.417 OA 
HETATM   27  H   UNL     1      -9.094   8.775  63.341  1.00  0.00     0.000 HD 
BRANCH  25  28
HETATM   28  C   UNL     1      -9.647  10.946  64.446  1.00  0.00    -0.265 C  
HETATM   29  O   UNL     1      -8.634  11.684  65.173  1.00  0.00    -0.336 OA 
HETATM   30  H   UNL     1      -8.578  12.557  64.805  1.00  0.00     0.000 HD 
BRANCH  28  31
HETATM   31  C   UNL     1     -10.938  11.776  64.462  1.00  0.00    -0.324 C  
BRANCH  31  32
HETATM   32  O   UNL     1     -10.559  13.148  64.288  1.00  0.00    -0.403 OA 
HETATM   33  P   UNL     1     -10.756  14.147  65.519  1.00  0.00    -0.367 P  
HETATM   34  O   UNL     1     -12.323  14.156  65.818  1.00  0.00    -0.438 OA 
HETATM   35  O   UNL     1     -10.493  15.607  64.933  1.00  0.00    -0.444 OA 
HETATM   36  O   UNL     1      -9.950  13.871  66.739  1.00  0.00    -0.256 OA 
ENDBRANCH  31  32
ENDBRANCH  28  31
ENDBRANCH  25  28
ENDBRANCH  22  25
ENDBRANCH  21  22
ENDBRANCH   7  21
TORSDOF 6
ENDMDL
MODEL      167
REMARK 921   NORMALIZED FREE ENERGY PREDICTED BY IDOCK:   -4.31 KCAL/MOL
REMARK 922        TOTAL FREE ENERGY PREDICTED BY IDOCK:   -8.17 KCAL/MOL
REMARK 923 INTER-LIGAND FREE ENERGY PREDICTED BY IDOCK:   -7.32 KCAL/MOL
REMARK 924 INTRA-LIGAND FREE ENERGY PREDICTED BY IDOCK:   -0.85 KCAL/MOL
REMARK 927      BINDING AFFINITY PREDICTED BY RF-SCORE:    0.00 PKD
ROOT
HETATM    1  C   UNL     1      -5.572  14.023  70.149  1.00  0.00    -0.118 C  
HETATM    2  C   UNL     1      -6.284  13.078  69.223  1.00  0.00    -0.103 A  
HETATM    3  C   UNL     1      -6.449  11.740  69.576  1.00  0.00    -0.120 A  
HETATM    4  C   UNL     1      -7.207  10.881  68.769  1.00  0.00    -0.091 A  
HETATM    5  C   UNL     1      -7.706  11.315  67.517  1.00  0.00    -0.122 A  
HETATM    6  C   UNL     1      -7.328  12.575  67.082  1.00  0.00    -0.066 A  
HETATM    7  N   UNL     1      -8.627  10.521  66.789  1.00  0.00    -0.125 NA 
HETATM    8  H   UNL     1      -9.667   5.833  68.655  1.00  0.00     0.000 HD 
HETATM    9  C   UNL     1      -6.844  13.502  68.010  1.00  0.00    -0.136 A  
HETATM   10  C   UNL     1      -8.953   9.278  67.327  1.00  0.00    -0.123 A  
HETATM   11  C   UNL     1      -7.359  14.899  67.798  1.00  0.00    -0.183 C  
HETATM   12  C   UNL     1      -8.563   7.467  69.143  1.00  0.00    -0.136 C  
HETATM   13  N   UNL     1      -9.830   8.497  66.779  1.00  0.00    -0.232 N  
HETATM   14  H   UNL     1     -10.297   8.802  65.925  1.00  0.00     0.000 HD 
HETATM   15  N   UNL     1      -7.474   9.610  69.284  1.00  0.00    -0.080 NA 
HETATM   16  C   UNL     1     -10.148   7.282  67.307  1.00  0.00    -0.225 C  
HETATM   17  N   UNL     1      -9.471   6.797  68.387  1.00  0.00    -0.127 N  
HETATM   18  O   UNL     1      -8.053   7.017  70.156  1.00  0.00    -0.125 OA 
HETATM   19  C   UNL     1      -8.273   8.840  68.614  1.00  0.00    -0.117 A  
HETATM   20  O   UNL     1     -11.044   6.592  66.834  1.00  0.00    -0.399 OA 
ENDROOT
BRANCH   7  21
HETATM   21  C   UNL     1      -9.642  11.232  65.934  1.00  0.00    -0.221 C  
BRANCH  21  22
HETATM   22  C   UNL     1     -10.646  12.056  66.768  1.00  0.00    -0.227 C  
HETATM   23  O   UNL     1     -11.207  11.232  67.790  1.00  0.00    -0.250 OA 
HETATM   24  H   UNL     1     -11.825  11.740  68.303  1.00  0.00     0.000 HD 
BRANCH  22  25
HETATM   25  C   UNL     1     -11.769  12.740  65.953  1.00  0.00    -0.414 C  
HETATM   26  O   UNL     1     -12.365  11.768  65.067  1.00  0.00    -0.214 OA 
HETATM   27  H   UNL     1     -13.055  12.188  64.568  1.00  0.00     0.000 HD 
BRANCH  25  28
HETATM   28  C   UNL     1     -11.425  13.998  65.120  1.00  0.00    -0.328 C  
HETATM   29  O   UNL     1     -11.369  13.617  63.722  1.00  0.00    -0.586 OA 
HETATM   30  H   UNL     1     -11.158  14.389  63.211  1.00  0.00     0.000 HD 
BRANCH  28  31
HETATM   31  C   UNL     1     -10.110  14.709  65.468  1.00  0.00    -0.377 C  
BRANCH  31  32
HETATM   32  O   UNL     1     -10.425  15.736  66.418  1.00  0.00    -0.290 OA 
HETATM   33  P   UNL     1     -10.210  17.258  65.983  1.00  0.00    -0.154 P  
HETATM   34  O   UNL     1      -8.649  17.400  65.679  1.00  0.00    -0.456 OA 
HETATM   35  O   UNL     1     -10.396  18.115  67.315  1.00  0.00    -0.354 OA 
HETATM   36  O   UNL     1     -11.051  17.758  64.862  1.00  0.00    -0.821 OA 
ENDBRANCH  31  32
ENDBRANCH  28  31
ENDBRANCH  25  28
ENDBRANCH  22  25
ENDBRANCH  21  22
ENDBRANCH   7  21
TORSDOF 6
ENDMDL
MODEL      168
REMARK 921   NORMALIZED FREE ENERGY PREDICTED BY IDOCK:   -4.29 KCAL/MOL
REMARK 922        TOTAL FREE ENERGY PREDICTED BY IDOCK:   -8.14 KCAL/MOL
REMARK 923 INTER-LIGAND FREE ENERGY PREDICTED BY IDOCK:   -7.19 KCAL/MOL
REMARK 924 INTRA-LIGAND FREE ENERGY PREDICTED BY IDOCK:   -0.94 KCAL/MOL
REMARK 927      BINDING AFFINITY PREDICTED BY RF-SCORE:    0.00 PKD
ROOT
HETATM    1  C   UNL     1     -12.825  15.497  70.178  1.00  0.00    -0.141 C  
HETATM    2  C   UNL     1     -12.542  14.022  70.236  1.00  0.00    -0.354 A  
HETATM    3  C   UNL     1     -11.694  13.432  69.301  1.00  0.00    -0.383 A  
HETATM    4  C   UNL     1     -11.338  12.082  69.416  1.00  0.00    -0.251 A  
HETATM    5  C   UNL     1     -11.934  11.258  70.401  1.00  0.00    -0.380 A  
HETATM    6  C   UNL     1     -12.948  11.810  71.166  1.00  0.00    -0.282 A  
HETATM    7  N   UNL     1     -11.444   9.951  70.646  1.00  0.00    -0.308 NA 
HETATM    8  H   UNL     1      -7.768   8.197  67.490  1.00  0.00     0.000 HD 
HETATM    9  C   UNL     1     -13.068  13.200  71.242  1.00  0.00    -0.275 A  
HETATM   10  C   UNL     1     -10.409   9.501  69.830  1.00  0.00    -0.230 A  
HETATM   11  C   UNL     1     -13.385  13.708  72.622  1.00  0.00    -0.587 C  
HETATM   12  C   UNL     1      -8.858   9.886  67.786  1.00  0.00    -0.129 C  
HETATM   13  N   UNL     1      -9.842   8.349  70.005  1.00  0.00    -0.180 N  
HETATM   14  H   UNL     1     -10.165   7.750  70.765  1.00  0.00     0.000 HD 
HETATM   15  N   UNL     1     -10.347  11.618  68.548  1.00  0.00    -0.207 NA 
HETATM   16  C   UNL     1      -8.829   7.911  69.205  1.00  0.00    -0.142 C  
HETATM   17  N   UNL     1      -8.441   8.637  68.118  1.00  0.00    -0.130 N  
HETATM   18  O   UNL     1      -8.410  10.529  66.851  1.00  0.00    -0.123 OA 
HETATM   19  C   UNL     1      -9.913  10.408  68.715  1.00  0.00    -0.188 A  
HETATM   20  O   UNL     1      -8.238   6.862  69.436  1.00  0.00    -0.127 OA 
ENDROOT
BRANCH   7  21
HETATM   21  C   UNL     1     -11.548   9.415  72.049  1.00  0.00    -0.144 C  
BRANCH  21  22
HETATM   22  C   UNL     1     -12.021   7.947  72.090  1.00  0.00    -0.332 C  
HETATM   23  O   UNL     1     -13.405   7.901  72.433  1.00  0.00    -0.518 OA 
HETATM   24  H   UNL     1     -13.697   6.996  72.458  1.00  0.00     0.000 HD 
BRANCH  22  25
HETATM   25  C   UNL     1     -11.205   7.021  73.023  1.00  0.00    -0.206 C  
HETATM   26  O   UNL     1      -9.907   7.610  73.251  1.00  0.00    -0.252 OA 
HETATM   27  H   UNL     1      -9.407   7.042  73.824  1.00  0.00     0.000 HD 
BRANCH  25  28
HETATM   28  C   UNL     1     -10.994   5.544  72.609  1.00  0.00    -0.270 C  
HETATM   29  O   UNL     1     -11.430   4.699  73.703  1.00  0.00    -0.303 OA 
HETATM   30  H   UNL     1     -11.301   3.792  73.449  1.00  0.00     0.000 HD 
BRANCH  28  31
HETATM   31  C   UNL     1      -9.562   5.137  72.238  1.00  0.00    -0.150 C  
BRANCH  31  32
HETATM   32  O   UNL     1      -9.651   4.284  71.089  1.00  0.00    -0.154 OA 
HETATM   33  P   UNL     1      -9.482   2.710  71.303  1.00  0.00    -0.139 P  
HETATM   34  O   UNL     1      -8.011   2.511  71.890  1.00  0.00    -0.051 OA 
HETATM   35  O   UNL     1      -9.373   2.086  69.840  1.00  0.00    -0.110 OA 
HETATM   36  O   UNL     1     -10.516   2.034  72.134  1.00  0.00    -0.146 OA 
ENDBRANCH  31  32
ENDBRANCH  28  31
ENDBRANCH  25  28
ENDBRANCH  22  25
ENDBRANCH  21  22
ENDBRANCH   7  21
TORSDOF 6
ENDMDL
MODEL      169
REMARK 921   NORMALIZED FREE ENERGY PREDICTED BY IDOCK:   -4.29 KCAL/MOL
REMARK 922        TOTAL FREE ENERGY PREDICTED BY IDOCK:   -8.13 KCAL/MOL
REMARK 923 INTER-LIGAND FREE ENERGY PREDICTED BY IDOCK:   -6.66 KCAL/MOL
REMARK 924 INTRA-LIGAND FREE ENERGY PREDICTED BY IDOCK:   -1.48 KCAL/MOL
REMARK 927      BINDING AFFINITY PREDICTED BY RF-SCORE:    0.00 PKD
ROOT
HETATM    1  C   UNL     1     -11.838  14.136  67.718  1.00  0.00    -0.414 C  
HETATM    2  C   UNL     1     -11.364  12.868  68.369  1.00  0.00    -0.329 A  
HETATM    3  C   UNL     1     -12.114  12.276  69.383  1.00  0.00    -0.234 A  
HETATM    4  C   UNL     1     -11.735  11.036  69.916  1.00  0.00    -0.346 A  
HETATM    5  C   UNL     1     -10.517  10.426  69.534  1.00  0.00    -0.247 A  
HETATM    6  C   UNL     1      -9.675  11.146  68.703  1.00  0.00    -0.202 A  
HETATM    7  N   UNL     1     -10.221   9.095  69.921  1.00  0.00    -0.195 NA 
HETATM    8  H   UNL     1     -13.522   6.800  73.144  1.00  0.00     0.000 HD 
HETATM    9  C   UNL     1     -10.195  12.211  67.961  1.00  0.00    -0.203 A  
HETATM   10  C   UNL     1     -11.145   8.456  70.744  1.00  0.00    -0.258 A  
HETATM   11  C   UNL     1      -9.677  12.278  66.550  1.00  0.00    -0.242 C  
HETATM   12  C   UNL     1     -13.315   8.567  72.162  1.00  0.00    -0.351 C  
HETATM   13  N   UNL     1     -11.007   7.219  71.107  1.00  0.00    -0.243 N  
HETATM   14  H   UNL     1     -10.195   6.696  70.779  1.00  0.00     0.000 HD 
HETATM   15  N   UNL     1     -12.637  10.430  70.795  1.00  0.00    -0.350 NA 
HETATM   16  C   UNL     1     -11.914   6.595  71.912  1.00  0.00    -0.341 C  
HETATM   17  N   UNL     1     -12.955   7.290  72.451  1.00  0.00     0.133 N  
HETATM   18  O   UNL     1     -14.312   9.113  72.605  1.00  0.00    -0.561 OA 
HETATM   19  C   UNL     1     -12.367   9.231  71.208  1.00  0.00    -0.328 A  
HETATM   20  O   UNL     1     -11.823   5.400  72.173  1.00  0.00    -0.025 OA 
ENDROOT
BRANCH   7  21
HETATM   21  C   UNL     1      -9.383   8.264  68.986  1.00  0.00    -0.147 C  
BRANCH  21  22
HETATM   22  C   UNL     1     -10.194   7.719  67.790  1.00  0.00    -0.212 C  
HETATM   23  O   UNL     1     -10.907   6.550  68.190  1.00  0.00    -0.255 OA 
HETATM   24  H   UNL     1     -11.406   6.215  67.454  1.00  0.00     0.000 HD 
BRANCH  22  25
HETATM   25  C   UNL     1      -9.367   7.434  66.514  1.00  0.00    -0.173 C  
HETATM   26  O   UNL     1     -10.021   6.394  65.754  1.00  0.00    -0.296 OA 
HETATM   27  H   UNL     1      -9.514   6.219  64.971  1.00  0.00     0.000 HD 
BRANCH  25  28
HETATM   28  C   UNL     1      -7.875   7.051  66.663  1.00  0.00    -0.106 C  
HETATM   29  O   UNL     1      -7.410   6.530  65.392  1.00  0.00    -0.071 OA 
HETATM   30  H   UNL     1      -6.494   6.295  65.483  1.00  0.00     0.000 HD 
BRANCH  28  31
HETATM   31  C   UNL     1      -7.539   6.018  67.747  1.00  0.00    -0.096 C  
BRANCH  31  32
HETATM   32  O   UNL     1      -8.483   4.947  67.615  1.00  0.00    -0.105 OA 
HETATM   33  P   UNL     1      -8.760   4.024  68.889  1.00  0.00    -0.109 P  
HETATM   34  O   UNL     1      -7.360   3.340  69.237  1.00  0.00    -0.048 OA 
HETATM   35  O   UNL     1      -9.633   2.802  68.352  1.00  0.00    -0.181 OA 
HETATM   36  O   UNL     1      -9.374   4.685  70.072  1.00  0.00    -0.118 OA 
ENDBRANCH  31  32
ENDBRANCH  28  31
ENDBRANCH  25  28
ENDBRANCH  22  25
ENDBRANCH  21  22
ENDBRANCH   7  21
TORSDOF 6
ENDMDL
MODEL      170
REMARK 921   NORMALIZED FREE ENERGY PREDICTED BY IDOCK:   -4.22 KCAL/MOL
REMARK 922        TOTAL FREE ENERGY PREDICTED BY IDOCK:   -8.04 KCAL/MOL
REMARK 923 INTER-LIGAND FREE ENERGY PREDICTED BY IDOCK:   -6.73 KCAL/MOL
REMARK 924 INTRA-LIGAND FREE ENERGY PREDICTED BY IDOCK:   -1.31 KCAL/MOL
REMARK 927      BINDING AFFINITY PREDICTED BY RF-SCORE:    0.00 PKD
ROOT
HETATM    1  C   UNL     1      -9.777   3.897  67.643  1.00  0.00    -0.156 C  
HETATM    2  C   UNL     1      -9.153   5.199  68.057  1.00  0.00    -0.123 A  
HETATM    3  C   UNL     1      -8.338   5.901  67.171  1.00  0.00    -0.105 A  
HETATM    4  C   UNL     1      -7.844   7.168  67.510  1.00  0.00    -0.112 A  
HETATM    5  C   UNL     1      -8.050   7.702  68.805  1.00  0.00    -0.127 A  
HETATM    6  C   UNL     1      -8.660   6.885  69.742  1.00  0.00    -0.141 A  
HETATM    7  N   UNL     1      -7.723   9.051  69.093  1.00  0.00    -0.090 NA 
HETATM    8  H   UNL     1      -5.327  11.722  65.394  1.00  0.00     0.000 HD 
HETATM    9  C   UNL     1      -9.397   5.779  69.309  1.00  0.00    -0.148 A  
HETATM   10  C   UNL     1      -7.129   9.788  68.071  1.00  0.00    -0.079 A  
HETATM   11  C   UNL     1     -10.683   5.574  70.062  1.00  0.00    -0.356 C  
HETATM   12  C   UNL     1      -6.116   9.871  65.684  1.00  0.00    -0.075 C  
HETATM   13  N   UNL     1      -6.846  11.047  68.202  1.00  0.00    -0.066 N  
HETATM   14  H   UNL     1      -7.063  11.512  69.084  1.00  0.00     0.000 HD 
HETATM   15  N   UNL     1      -7.190   7.876  66.500  1.00  0.00    -0.081 NA 
HETATM   16  C   UNL     1      -6.266  11.766  67.201  1.00  0.00    -0.147 C  
HETATM   17  N   UNL     1      -5.867  11.156  66.049  1.00  0.00    -0.127 N  
HETATM   18  O   UNL     1      -5.816   9.400  64.599  1.00  0.00    -0.066 OA 
HETATM   19  C   UNL     1      -6.831   9.097  66.751  1.00  0.00    -0.080 A  
HETATM   20  O   UNL     1      -6.087  12.976  67.302  1.00  0.00    -0.303 OA 
ENDROOT
BRANCH   7  21
HETATM   21  C   UNL     1      -8.556   9.770  70.119  1.00  0.00    -0.181 C  
BRANCH  21  22
HETATM   22  C   UNL     1      -9.908  10.252  69.552  1.00  0.00    -0.220 C  
HETATM   23  O   UNL     1      -9.793  11.613  69.137  1.00  0.00    -0.412 OA 
HETATM   24  H   UNL     1     -10.626  11.910  68.788  1.00  0.00     0.000 HD 
BRANCH  22  25
HETATM   25  C   UNL     1     -11.116  10.082  70.504  1.00  0.00    -0.331 C  
HETATM   26  O   UNL     1     -11.511   8.693  70.516  1.00  0.00    -0.334 OA 
HETATM   27  H   UNL     1     -12.253   8.589  71.100  1.00  0.00     0.000 HD 
BRANCH  25  28
HETATM   28  C   UNL     1     -12.383  10.938  70.261  1.00  0.00    -0.330 C  
HETATM   29  O   UNL     1     -12.404  11.334  68.867  1.00  0.00    -0.485 OA 
HETATM   30  H   UNL     1     -13.181  11.859  68.718  1.00  0.00     0.000 HD 
BRANCH  28  31
HETATM   31  C   UNL     1     -12.524  12.205  71.115  1.00  0.00    -0.234 C  
BRANCH  31  32
HETATM   32  O   UNL     1     -12.009  13.296  70.338  1.00  0.00    -0.332 OA 
HETATM   33  P   UNL     1     -12.136  14.772  70.934  1.00  0.00    -0.377 P  
HETATM   34  O   UNL     1     -13.701  15.040  71.090  1.00  0.00    -0.423 OA 
HETATM   35  O   UNL     1     -11.720  15.752  69.746  1.00  0.00    -0.326 OA 
HETATM   36  O   UNL     1     -11.388  15.052  72.190  1.00  0.00    -0.364 OA 
ENDBRANCH  31  32
ENDBRANCH  28  31
ENDBRANCH  25  28
ENDBRANCH  22  25
ENDBRANCH  21  22
ENDBRANCH   7  21
TORSDOF 6
ENDMDL
MODEL      171
REMARK 921   NORMALIZED FREE ENERGY PREDICTED BY IDOCK:   -4.20 KCAL/MOL
REMARK 922        TOTAL FREE ENERGY PREDICTED BY IDOCK:   -8.02 KCAL/MOL
REMARK 923 INTER-LIGAND FREE ENERGY PREDICTED BY IDOCK:   -7.94 KCAL/MOL
REMARK 924 INTRA-LIGAND FREE ENERGY PREDICTED BY IDOCK:   -0.07 KCAL/MOL
REMARK 927      BINDING AFFINITY PREDICTED BY RF-SCORE:    0.00 PKD
ROOT
HETATM    1  C   UNL     1     -12.464  15.382  74.162  1.00  0.00    -0.785 C  
HETATM    2  C   UNL     1     -12.436  15.330  72.661  1.00  0.00    -0.473 A  
HETATM    3  C   UNL     1     -11.710  16.275  71.939  1.00  0.00    -0.518 A  
HETATM    4  C   UNL     1     -11.589  16.166  70.547  1.00  0.00    -0.301 A  
HETATM    5  C   UNL     1     -12.309  15.179  69.833  1.00  0.00    -0.276 A  
HETATM    6  C   UNL     1     -13.208  14.403  70.547  1.00  0.00    -0.094 A  
HETATM    7  N   UNL     1     -12.048  14.942  68.460  1.00  0.00    -0.218 NA 
HETATM    8  H   UNL     1      -8.752  18.135  66.117  1.00  0.00     0.000 HD 
HETATM    9  C   UNL     1     -13.087  14.322  71.937  1.00  0.00    -0.445 A  
HETATM   10  C   UNL     1     -11.112  15.769  67.844  1.00  0.00    -0.326 A  
HETATM   11  C   UNL     1     -13.302  12.938  72.486  1.00  0.00    -0.402 C  
HETATM   12  C   UNL     1      -9.534  17.825  67.966  1.00  0.00    -0.281 C  
HETATM   13  N   UNL     1     -10.749  15.602  66.610  1.00  0.00    -0.308 N  
HETATM   14  H   UNL     1     -11.163  14.840  66.073  1.00  0.00     0.000 HD 
HETATM   15  N   UNL     1     -10.699  17.045  69.924  1.00  0.00    -0.076 NA 
HETATM   16  C   UNL     1      -9.832  16.412  66.010  1.00  0.00    -0.335 C  
HETATM   17  N   UNL     1      -9.334  17.500  66.663  1.00  0.00    -0.255 N  
HETATM   18  O   UNL     1      -8.991  18.762  68.528  1.00  0.00    -0.326 OA 
HETATM   19  C   UNL     1     -10.478  16.885  68.657  1.00  0.00    -0.352 A  
HETATM   20  O   UNL     1      -9.427  16.189  64.874  1.00  0.00     0.251 OA 
ENDROOT
BRANCH   7  21
HETATM   21  C   UNL     1     -12.231  13.540  67.944  1.00  0.00    -0.133 C  
BRANCH  21  22
HETATM   22  C   UNL     1     -11.114  12.584  68.416  1.00  0.00    -0.258 C  
HETATM   23  O   UNL     1     -11.126  12.502  69.840  1.00  0.00    -0.467 OA 
HETATM   24  H   UNL     1     -10.438  11.914  70.131  1.00  0.00     0.000 HD 
BRANCH  22  25
HETATM   25  C   UNL     1      -9.694  12.935  67.910  1.00  0.00    -0.218 C  
HETATM   26  O   UNL     1      -9.642  12.730  66.481  1.00  0.00    -0.247 OA 
HETATM   27  H   UNL     1      -8.771  12.946  66.171  1.00  0.00     0.000 HD 
BRANCH  25  28
HETATM   28  C   UNL     1      -8.479  12.214  68.541  1.00  0.00    -0.083 C  
HETATM   29  O   UNL     1      -7.489  13.213  68.891  1.00  0.00    -0.233 OA 
HETATM   30  H   UNL     1      -6.743  12.771  69.279  1.00  0.00     0.000 HD 
BRANCH  28  31
HETATM   31  C   UNL     1      -7.791  11.150  67.675  1.00  0.00    -0.115 C  
BRANCH  31  32
HETATM   32  O   UNL     1      -8.803  10.221  67.265  1.00  0.00    -0.132 OA 
HETATM   33  P   UNL     1      -8.573   8.670  67.572  1.00  0.00    -0.136 P  
HETATM   34  O   UNL     1      -7.252   8.266  66.773  1.00  0.00    -0.079 OA 
HETATM   35  O   UNL     1      -9.723   7.901  66.778  1.00  0.00    -0.198 OA 
HETATM   36  O   UNL     1      -8.509   8.275  69.005  1.00  0.00    -0.128 OA 
ENDBRANCH  31  32
ENDBRANCH  28  31
ENDBRANCH  25  28
ENDBRANCH  22  25
ENDBRANCH  21  22
ENDBRANCH   7  21
TORSDOF 6
ENDMDL
MODEL      172
REMARK 921   NORMALIZED FREE ENERGY PREDICTED BY IDOCK:   -4.20 KCAL/MOL
REMARK 922        TOTAL FREE ENERGY PREDICTED BY IDOCK:   -8.01 KCAL/MOL
REMARK 923 INTER-LIGAND FREE ENERGY PREDICTED BY IDOCK:   -6.50 KCAL/MOL
REMARK 924 INTRA-LIGAND FREE ENERGY PREDICTED BY IDOCK:   -1.52 KCAL/MOL
REMARK 927      BINDING AFFINITY PREDICTED BY RF-SCORE:    0.00 PKD
ROOT
HETATM    1  C   UNL     1     -13.649  12.677  72.236  1.00  0.00    -0.508 C  
HETATM    2  C   UNL     1     -12.847  11.875  71.251  1.00  0.00    -0.391 A  
HETATM    3  C   UNL     1     -11.973  12.512  70.372  1.00  0.00    -0.335 A  
HETATM    4  C   UNL     1     -11.142  11.763  69.528  1.00  0.00    -0.133 A  
HETATM    5  C   UNL     1     -11.265  10.354  69.454  1.00  0.00    -0.259 A  
HETATM    6  C   UNL     1     -12.301   9.767  70.161  1.00  0.00     0.107 A  
HETATM    7  N   UNL     1     -10.308   9.578  68.754  1.00  0.00    -0.202 NA 
HETATM    8  H   UNL     1      -6.693  12.136  66.119  1.00  0.00     0.000 HD 
HETATM    9  C   UNL     1     -12.904  10.475  71.205  1.00  0.00    -0.513 A  
HETATM   10  C   UNL     1      -9.297  10.270  68.092  1.00  0.00    -0.139 A  
HETATM   11  C   UNL     1     -13.201   9.635  72.417  1.00  0.00    -0.413 C  
HETATM   12  C   UNL     1      -8.271  12.531  67.337  1.00  0.00    -0.183 C  
HETATM   13  N   UNL     1      -8.334   9.661  67.473  1.00  0.00    -0.117 N  
HETATM   14  H   UNL     1      -8.317   8.642  67.470  1.00  0.00     0.000 HD 
HETATM   15  N   UNL     1     -10.172  12.471  68.814  1.00  0.00    -0.145 NA 
HETATM   16  C   UNL     1      -7.345  10.341  66.826  1.00  0.00    -0.106 C  
HETATM   17  N   UNL     1      -7.391  11.699  66.722  1.00  0.00    -0.119 N  
HETATM   18  O   UNL     1      -8.212  13.748  67.283  1.00  0.00    -0.180 OA 
HETATM   19  C   UNL     1      -9.313  11.790  68.122  1.00  0.00    -0.190 A  
HETATM   20  O   UNL     1      -6.390   9.758  66.324  1.00  0.00    -0.067 OA 
ENDROOT
BRANCH   7  21
HETATM   21  C   UNL     1     -10.028   8.189  69.259  1.00  0.00    -0.188 C  
BRANCH  21  22
HETATM   22  C   UNL     1     -10.644   7.095  68.360  1.00  0.00    -0.186 C  
HETATM   23  O   UNL     1     -11.617   6.361  69.101  1.00  0.00    -0.608 OA 
HETATM   24  H   UNL     1     -11.996   5.688  68.548  1.00  0.00     0.000 HD 
BRANCH  22  25
HETATM   25  C   UNL     1      -9.624   6.131  67.709  1.00  0.00    -0.114 C  
HETATM   26  O   UNL     1      -8.331   6.772  67.670  1.00  0.00    -0.121 OA 
HETATM   27  H   UNL     1      -7.705   6.179  67.271  1.00  0.00     0.000 HD 
BRANCH  25  28
HETATM   28  C   UNL     1      -9.924   5.571  66.297  1.00  0.00    -0.140 C  
HETATM   29  O   UNL     1     -11.362   5.504  66.131  1.00  0.00    -0.751 OA 
HETATM   30  H   UNL     1     -11.546   5.161  65.264  1.00  0.00     0.000 HD 
BRANCH  28  31
HETATM   31  C   UNL     1      -9.346   4.187  65.975  1.00  0.00    -0.164 C  
BRANCH  31  32
HETATM   32  O   UNL     1      -8.133   4.052  66.727  1.00  0.00    -0.096 OA 
HETATM   33  P   UNL     1      -7.640   2.580  67.105  1.00  0.00    -0.066 P  
HETATM   34  O   UNL     1      -8.796   1.961  68.015  1.00  0.00    -0.088 OA 
HETATM   35  O   UNL     1      -6.439   2.781  68.136  1.00  0.00    -0.031 OA 
HETATM   36  O   UNL     1      -7.273   1.686  65.973  1.00  0.00    -0.049 OA 
ENDBRANCH  31  32
ENDBRANCH  28  31
ENDBRANCH  25  28
ENDBRANCH  22  25
ENDBRANCH  21  22
ENDBRANCH   7  21
TORSDOF 6
ENDMDL
MODEL      173
REMARK 921   NORMALIZED FREE ENERGY PREDICTED BY IDOCK:   -4.18 KCAL/MOL
REMARK 922        TOTAL FREE ENERGY PREDICTED BY IDOCK:   -7.99 KCAL/MOL
REMARK 923 INTER-LIGAND FREE ENERGY PREDICTED BY IDOCK:   -7.14 KCAL/MOL
REMARK 924 INTRA-LIGAND FREE ENERGY PREDICTED BY IDOCK:   -0.85 KCAL/MOL
REMARK 927      BINDING AFFINITY PREDICTED BY RF-SCORE:    0.00 PKD
ROOT
HETATM    1  C   UNL     1     -11.726   8.181  72.676  1.00  0.00    -0.419 C  
HETATM    2  C   UNL     1     -10.759   7.765  71.604  1.00  0.00    -0.257 A  
HETATM    3  C   UNL     1     -10.547   6.414  71.335  1.00  0.00    -0.274 A  
HETATM    4  C   UNL     1      -9.732   6.022  70.264  1.00  0.00    -0.165 A  
HETATM    5  C   UNL     1      -9.003   6.980  69.520  1.00  0.00    -0.143 A  
HETATM    6  C   UNL     1      -9.046   8.294  69.957  1.00  0.00    -0.150 A  
HETATM    7  N   UNL     1      -8.333   6.614  68.326  1.00  0.00    -0.117 NA 
HETATM    8  H   UNL     1      -8.272   1.607  67.114  1.00  0.00     0.000 HD 
HETATM    9  C   UNL     1     -10.077   8.698  70.810  1.00  0.00    -0.244 A  
HETATM   10  C   UNL     1      -8.369   5.269  67.969  1.00  0.00    -0.098 A  
HETATM   11  C   UNL     1     -10.644  10.051  70.480  1.00  0.00    -0.313 C  
HETATM   12  C   UNL     1      -9.033   2.828  68.548  1.00  0.00    -0.142 C  
HETATM   13  N   UNL     1      -7.845   4.832  66.866  1.00  0.00    -0.098 N  
HETATM   14  H   UNL     1      -7.390   5.496  66.240  1.00  0.00     0.000 HD 
HETATM   15  N   UNL     1      -9.719   4.660  69.953  1.00  0.00    -0.191 NA 
HETATM   16  C   UNL     1      -7.882   3.515  66.519  1.00  0.00    -0.084 C  
HETATM   17  N   UNL     1      -8.389   2.585  67.378  1.00  0.00    -0.082 N  
HETATM   18  O   UNL     1      -9.550   1.963  69.235  1.00  0.00    -0.091 OA 
HETATM   19  C   UNL     1      -9.071   4.287  68.894  1.00  0.00    -0.128 A  
HETATM   20  O   UNL     1      -7.466   3.127  65.432  1.00  0.00    -0.073 OA 
ENDROOT
BRANCH   7  21
HETATM   21  C   UNL     1      -8.219   7.651  67.241  1.00  0.00    -0.119 C  
BRANCH  21  22
HETATM   22  C   UNL     1      -9.594   8.161  66.761  1.00  0.00    -0.217 C  
HETATM   23  O   UNL     1     -10.294   7.102  66.109  1.00  0.00    -0.398 OA 
HETATM   24  H   UNL     1     -11.141   7.416  65.813  1.00  0.00     0.000 HD 
BRANCH  22  25
HETATM   25  C   UNL     1      -9.549   9.413  65.853  1.00  0.00    -0.270 C  
HETATM   26  O   UNL     1      -8.310   9.410  65.111  1.00  0.00    -0.130 OA 
HETATM   27  H   UNL     1      -8.283  10.179  64.554  1.00  0.00     0.000 HD 
BRANCH  25  28
HETATM   28  C   UNL     1      -9.715  10.810  66.501  1.00  0.00    -0.196 C  
HETATM   29  O   UNL     1     -10.969  10.828  67.227  1.00  0.00    -0.290 OA 
HETATM   30  H   UNL     1     -11.071  11.685  67.625  1.00  0.00     0.000 HD 
BRANCH  28  31
HETATM   31  C   UNL     1      -9.704  12.011  65.546  1.00  0.00    -0.202 C  
BRANCH  31  32
HETATM   32  O   UNL     1     -10.612  11.708  64.479  1.00  0.00    -0.282 OA 
HETATM   33  P   UNL     1     -11.940  12.587  64.345  1.00  0.00    -0.448 P  
HETATM   34  O   UNL     1     -12.751  12.347  65.699  1.00  0.00    -0.462 OA 
HETATM   35  O   UNL     1     -12.836  11.849  63.253  1.00  0.00    -0.702 OA 
HETATM   36  O   UNL     1     -11.756  14.034  64.047  1.00  0.00    -0.350 OA 
ENDBRANCH  31  32
ENDBRANCH  28  31
ENDBRANCH  25  28
ENDBRANCH  22  25
ENDBRANCH  21  22
ENDBRANCH   7  21
TORSDOF 6
ENDMDL
MODEL      174
REMARK 921   NORMALIZED FREE ENERGY PREDICTED BY IDOCK:   -4.17 KCAL/MOL
REMARK 922        TOTAL FREE ENERGY PREDICTED BY IDOCK:   -7.98 KCAL/MOL
REMARK 923 INTER-LIGAND FREE ENERGY PREDICTED BY IDOCK:   -6.94 KCAL/MOL
REMARK 924 INTRA-LIGAND FREE ENERGY PREDICTED BY IDOCK:   -1.04 KCAL/MOL
REMARK 927      BINDING AFFINITY PREDICTED BY RF-SCORE:    0.00 PKD
ROOT
HETATM    1  C   UNL     1     -11.799   8.874  72.190  1.00  0.00    -0.417 C  
HETATM    2  C   UNL     1     -11.578   9.552  70.868  1.00  0.00    -0.398 A  
HETATM    3  C   UNL     1     -11.899  10.898  70.707  1.00  0.00    -0.424 A  
HETATM    4  C   UNL     1     -11.593  11.564  69.512  1.00  0.00    -0.333 A  
HETATM    5  C   UNL     1     -11.076  10.856  68.401  1.00  0.00    -0.262 A  
HETATM    6  C   UNL     1     -10.988   9.478  68.507  1.00  0.00    -0.109 A  
HETATM    7  N   UNL     1     -10.589  11.547  67.264  1.00  0.00    -0.218 NA 
HETATM    8  H   UNL     1     -11.234  16.659  67.175  1.00  0.00     0.000 HD 
HETATM    9  C   UNL     1     -11.007   8.887  69.774  1.00  0.00    -0.164 A  
HETATM   10  C   UNL     1     -10.710  12.935  67.269  1.00  0.00    -0.245 A  
HETATM   11  C   UNL     1     -10.024   7.760  69.933  1.00  0.00    -0.191 C  
HETATM   12  C   UNL     1     -11.595  15.089  68.413  1.00  0.00    -0.331 C  
HETATM   13  N   UNL     1     -10.242  13.673  66.311  1.00  0.00    -0.289 N  
HETATM   14  H   UNL     1      -9.770  13.222  65.527  1.00  0.00     0.000 HD 
HETATM   15  N   UNL     1     -11.781  12.948  69.501  1.00  0.00    -0.319 NA 
HETATM   16  C   UNL     1     -10.361  15.030  66.318  1.00  0.00    -0.296 C  
HETATM   17  N   UNL     1     -11.075  15.658  67.296  1.00  0.00    -0.282 N  
HETATM   18  O   UNL     1     -12.147  15.713  69.304  1.00  0.00    -0.347 OA 
HETATM   19  C   UNL     1     -11.391  13.603  68.452  1.00  0.00    -0.295 A  
HETATM   20  O   UNL     1      -9.835  15.724  65.455  1.00  0.00    -0.355 OA 
ENDROOT
BRANCH   7  21
HETATM   21  C   UNL     1      -9.459  10.919  66.493  1.00  0.00    -0.185 C  
BRANCH  21  22
HETATM   22  C   UNL     1      -8.076  11.249  67.095  1.00  0.00    -0.150 C  
HETATM   23  O   UNL     1      -7.122  11.398  66.044  1.00  0.00    -0.369 OA 
HETATM   24  H   UNL     1      -6.271  11.601  66.415  1.00  0.00     0.000 HD 
BRANCH  22  25
HETATM   25  C   UNL     1      -7.562  10.238  68.148  1.00  0.00    -0.087 C  
HETATM   26  O   UNL     1      -7.185  10.957  69.342  1.00  0.00    -0.114 OA 
HETATM   27  H   UNL     1      -6.870  10.337  69.988  1.00  0.00     0.000 HD 
BRANCH  25  28
HETATM   28  C   UNL     1      -6.394   9.296  67.768  1.00  0.00    -0.059 C  
HETATM   29  O   UNL     1      -5.243  10.110  67.433  1.00  0.00    -0.040 OA 
HETATM   30  H   UNL     1      -4.526   9.532  67.201  1.00  0.00     0.000 HD 
BRANCH  28  31
HETATM   31  C   UNL     1      -6.646   8.332  66.601  1.00  0.00    -0.056 C  
BRANCH  31  32
HETATM   32  O   UNL     1      -7.158   7.116  67.162  1.00  0.00    -0.081 OA 
HETATM   33  P   UNL     1      -8.333   6.362  66.386  1.00  0.00    -0.129 P  
HETATM   34  O   UNL     1      -9.557   7.386  66.360  1.00  0.00    -0.176 OA 
HETATM   35  O   UNL     1      -8.840   5.220  67.378  1.00  0.00    -0.108 OA 
HETATM   36  O   UNL     1      -8.009   5.836  65.032  1.00  0.00    -0.107 OA 
ENDBRANCH  31  32
ENDBRANCH  28  31
ENDBRANCH  25  28
ENDBRANCH  22  25
ENDBRANCH  21  22
ENDBRANCH   7  21
TORSDOF 6
ENDMDL
MODEL      175
REMARK 921   NORMALIZED FREE ENERGY PREDICTED BY IDOCK:   -4.17 KCAL/MOL
REMARK 922        TOTAL FREE ENERGY PREDICTED BY IDOCK:   -7.97 KCAL/MOL
REMARK 923 INTER-LIGAND FREE ENERGY PREDICTED BY IDOCK:   -7.18 KCAL/MOL
REMARK 924 INTRA-LIGAND FREE ENERGY PREDICTED BY IDOCK:   -0.79 KCAL/MOL
REMARK 927      BINDING AFFINITY PREDICTED BY RF-SCORE:    0.00 PKD
ROOT
HETATM    1  C   UNL     1      -5.134  12.184  71.104  1.00  0.00    -0.139 C  
HETATM    2  C   UNL     1      -5.849  11.407  70.036  1.00  0.00    -0.126 A  
HETATM    3  C   UNL     1      -6.399  10.159  70.325  1.00  0.00    -0.117 A  
HETATM    4  C   UNL     1      -7.163   9.480  69.366  1.00  0.00    -0.064 A  
HETATM    5  C   UNL     1      -7.279   9.980  68.046  1.00  0.00    -0.082 A  
HETATM    6  C   UNL     1      -6.530  11.098  67.719  1.00  0.00    -0.063 A  
HETATM    7  N   UNL     1      -8.197   9.406  67.132  1.00  0.00    -0.113 NA 
HETATM    8  H   UNL     1     -10.691   5.166  68.667  1.00  0.00     0.000 HD 
HETATM    9  C   UNL     1      -6.034  11.912  68.741  1.00  0.00    -0.052 A  
HETATM   10  C   UNL     1      -8.914   8.295  67.571  1.00  0.00    -0.134 A  
HETATM   11  C   UNL     1      -6.143  13.384  68.453  1.00  0.00    -0.092 C  
HETATM   12  C   UNL     1      -9.348   6.504  69.397  1.00  0.00    -0.143 C  
HETATM   13  N   UNL     1      -9.825   7.729  66.842  1.00  0.00    -0.214 N  
HETATM   14  H   UNL     1     -10.022   8.108  65.916  1.00  0.00     0.000 HD 
HETATM   15  N   UNL     1      -7.827   8.328  69.794  1.00  0.00    -0.098 NA 
HETATM   16  C   UNL     1     -10.526   6.643  67.274  1.00  0.00    -0.275 C  
HETATM   17  N   UNL     1     -10.219   6.046  68.461  1.00  0.00    -0.167 N  
HETATM   18  O   UNL     1      -9.177   5.979  70.485  1.00  0.00    -0.153 OA 
HETATM   19  C   UNL     1      -8.635   7.750  68.962  1.00  0.00    -0.135 A  
HETATM   20  O   UNL     1     -11.448   6.172  66.616  1.00  0.00     0.004 OA 
ENDROOT
BRANCH   7  21
HETATM   21  C   UNL     1      -8.817  10.310  66.101  1.00  0.00    -0.151 C  
BRANCH  21  22
HETATM   22  C   UNL     1      -8.263  10.058  64.682  1.00  0.00    -0.163 C  
HETATM   23  O   UNL     1      -7.000  10.707  64.541  1.00  0.00    -0.347 OA 
HETATM   24  H   UNL     1      -6.659  10.552  63.667  1.00  0.00     0.000 HD 
BRANCH  22  25
HETATM   25  C   UNL     1      -9.209  10.466  63.527  1.00  0.00    -0.282 C  
HETATM   26  O   UNL     1      -8.439  11.138  62.506  1.00  0.00    -0.398 OA 
HETATM   27  H   UNL     1      -9.020  11.388  61.798  1.00  0.00     0.000 HD 
BRANCH  25  28
HETATM   28  C   UNL     1     -10.444  11.341  63.849  1.00  0.00    -0.391 C  
HETATM   29  O   UNL     1     -11.435  11.129  62.812  1.00  0.00    -0.665 OA 
HETATM   30  H   UNL     1     -12.193  11.665  63.010  1.00  0.00     0.000 HD 
BRANCH  28  31
HETATM   31  C   UNL     1     -10.199  12.851  63.967  1.00  0.00    -0.231 C  
BRANCH  31  32
HETATM   32  O   UNL     1     -10.884  13.298  65.144  1.00  0.00    -0.291 OA 
HETATM   33  P   UNL     1     -12.457  13.563  65.049  1.00  0.00    -0.367 P  
HETATM   34  O   UNL     1     -12.632  14.724  63.967  1.00  0.00    -0.822 OA 
HETATM   35  O   UNL     1     -12.855  14.282  66.415  1.00  0.00    -0.191 OA 
HETATM   36  O   UNL     1     -13.316  12.384  64.754  1.00  0.00    -0.718 OA 
ENDBRANCH  31  32
ENDBRANCH  28  31
ENDBRANCH  25  28
ENDBRANCH  22  25
ENDBRANCH  21  22
ENDBRANCH   7  21
TORSDOF 6
ENDMDL
MODEL      176
REMARK 921   NORMALIZED FREE ENERGY PREDICTED BY IDOCK:   -4.15 KCAL/MOL
REMARK 922        TOTAL FREE ENERGY PREDICTED BY IDOCK:   -7.95 KCAL/MOL
REMARK 923 INTER-LIGAND FREE ENERGY PREDICTED BY IDOCK:   -6.50 KCAL/MOL
REMARK 924 INTRA-LIGAND FREE ENERGY PREDICTED BY IDOCK:   -1.44 KCAL/MOL
REMARK 927      BINDING AFFINITY PREDICTED BY RF-SCORE:    0.00 PKD
ROOT
HETATM    1  C   UNL     1     -10.909   5.024  72.507  1.00  0.00    -0.257 C  
HETATM    2  C   UNL     1     -10.234   5.930  71.517  1.00  0.00    -0.254 A  
HETATM    3  C   UNL     1      -9.764   5.423  70.307  1.00  0.00    -0.254 A  
HETATM    4  C   UNL     1      -9.234   6.281  69.334  1.00  0.00    -0.138 A  
HETATM    5  C   UNL     1      -9.041   7.656  69.609  1.00  0.00    -0.147 A  
HETATM    6  C   UNL     1      -9.296   8.090  70.900  1.00  0.00    -0.169 A  
HETATM    7  N   UNL     1      -8.688   8.560  68.576  1.00  0.00    -0.138 NA 
HETATM    8  H   UNL     1      -7.675   6.543  63.944  1.00  0.00     0.000 HD 
HETATM    9  C   UNL     1     -10.091   7.307  71.741  1.00  0.00    -0.193 A  
HETATM   10  C   UNL     1      -8.473   8.019  67.311  1.00  0.00    -0.125 A  
HETATM   11  C   UNL     1     -11.067   8.100  72.566  1.00  0.00    -0.446 C  
HETATM   12  C   UNL     1      -8.266   5.928  65.789  1.00  0.00    -0.130 C  
HETATM   13  N   UNL     1      -8.208   8.759  66.280  1.00  0.00    -0.113 N  
HETATM   14  H   UNL     1      -8.153   9.770  66.399  1.00  0.00     0.000 HD 
HETATM   15  N   UNL     1      -8.957   5.718  68.086  1.00  0.00    -0.115 NA 
HETATM   16  C   UNL     1      -7.999   8.227  65.042  1.00  0.00    -0.141 C  
HETATM   17  N   UNL     1      -7.961   6.876  64.865  1.00  0.00    -0.122 N  
HETATM   18  O   UNL     1      -8.306   4.732  65.552  1.00  0.00    -0.114 OA 
HETATM   19  C   UNL     1      -8.581   6.513  67.133  1.00  0.00    -0.111 A  
HETATM   20  O   UNL     1      -7.840   8.941  64.057  1.00  0.00    -0.122 OA 
ENDROOT
BRANCH   7  21
HETATM   21  C   UNL     1      -9.181   9.978  68.687  1.00  0.00    -0.152 C  
BRANCH  21  22
HETATM   22  C   UNL     1      -8.040  11.012  68.586  1.00  0.00    -0.149 C  
HETATM   23  O   UNL     1      -7.665  11.438  69.896  1.00  0.00    -0.175 OA 
HETATM   24  H   UNL     1      -6.962  12.074  69.834  1.00  0.00     0.000 HD 
BRANCH  22  25
HETATM   25  C   UNL     1      -8.341  12.236  67.689  1.00  0.00    -0.166 C  
HETATM   26  O   UNL     1      -7.667  12.067  66.423  1.00  0.00    -0.381 OA 
HETATM   27  H   UNL     1      -7.853  12.818  65.873  1.00  0.00     0.000 HD 
BRANCH  25  28
HETATM   28  C   UNL     1      -8.010  13.651  68.223  1.00  0.00    -0.150 C  
HETATM   29  O   UNL     1      -9.006  14.008  69.213  1.00  0.00    -0.357 OA 
HETATM   30  H   UNL     1      -8.803  14.876  69.541  1.00  0.00     0.000 HD 
BRANCH  28  31
HETATM   31  C   UNL     1      -7.953  14.777  67.182  1.00  0.00    -0.174 C  
BRANCH  31  32
HETATM   32  O   UNL     1      -8.967  14.501  66.207  1.00  0.00    -0.194 OA 
HETATM   33  P   UNL     1     -10.222  15.486  66.125  1.00  0.00    -0.354 P  
HETATM   34  O   UNL     1     -10.938  15.388  67.548  1.00  0.00    -0.304 OA 
HETATM   35  O   UNL     1     -11.264  14.774  65.149  1.00  0.00    -0.346 OA 
HETATM   36  O   UNL     1      -9.943  16.893  65.729  1.00  0.00    -0.510 OA 
ENDBRANCH  31  32
ENDBRANCH  28  31
ENDBRANCH  25  28
ENDBRANCH  22  25
ENDBRANCH  21  22
ENDBRANCH   7  21
TORSDOF 6
ENDMDL
MODEL      177
REMARK 921   NORMALIZED FREE ENERGY PREDICTED BY IDOCK:   -4.14 KCAL/MOL
REMARK 922        TOTAL FREE ENERGY PREDICTED BY IDOCK:   -7.93 KCAL/MOL
REMARK 923 INTER-LIGAND FREE ENERGY PREDICTED BY IDOCK:   -6.96 KCAL/MOL
REMARK 924 INTRA-LIGAND FREE ENERGY PREDICTED BY IDOCK:   -0.97 KCAL/MOL
REMARK 927      BINDING AFFINITY PREDICTED BY RF-SCORE:    0.00 PKD
ROOT
HETATM    1  C   UNL     1      -5.142  13.119  69.341  1.00  0.00    -0.075 C  
HETATM    2  C   UNL     1      -5.807  11.786  69.149  1.00  0.00    -0.062 A  
HETATM    3  C   UNL     1      -6.378  11.123  70.233  1.00  0.00    -0.097 A  
HETATM    4  C   UNL     1      -7.096   9.935  70.042  1.00  0.00    -0.127 A  
HETATM    5  C   UNL     1      -7.144   9.314  68.770  1.00  0.00    -0.073 A  
HETATM    6  C   UNL     1      -6.373   9.867  67.762  1.00  0.00    -0.055 A  
HETATM    7  N   UNL     1      -8.018   8.225  68.527  1.00  0.00    -0.120 NA 
HETATM    8  H   UNL     1     -10.608   6.353  72.569  1.00  0.00     0.000 HD 
HETATM    9  C   UNL     1      -5.924  11.185  67.888  1.00  0.00    -0.046 A  
HETATM   10  C   UNL     1      -8.762   7.760  69.609  1.00  0.00    -0.135 A  
HETATM   11  C   UNL     1      -6.011  11.981  66.614  1.00  0.00     0.160 C  
HETATM   12  C   UNL     1      -9.296   7.845  72.147  1.00  0.00    -0.169 C  
HETATM   13  N   UNL     1      -9.638   6.812  69.487  1.00  0.00    -0.148 N  
HETATM   14  H   UNL     1      -9.787   6.392  68.570  1.00  0.00     0.000 HD 
HETATM   15  N   UNL     1      -7.787   9.434  71.149  1.00  0.00    -0.329 NA 
HETATM   16  C   UNL     1     -10.366   6.358  70.547  1.00  0.00    -0.202 C  
HETATM   17  N   UNL     1     -10.121   6.822  71.806  1.00  0.00    -0.183 N  
HETATM   18  O   UNL     1      -9.183   8.283  73.280  1.00  0.00    -0.255 OA 
HETATM   19  C   UNL     1      -8.555   8.406  70.969  1.00  0.00    -0.155 A  
HETATM   20  O   UNL     1     -11.256   5.527  70.404  1.00  0.00    -0.150 OA 
ENDROOT
BRANCH   7  21
HETATM   21  C   UNL     1      -8.581   8.075  67.140  1.00  0.00    -0.124 C  
BRANCH  21  22
HETATM   22  C   UNL     1      -9.708   9.087  66.844  1.00  0.00    -0.200 C  
HETATM   23  O   UNL     1     -10.932   8.616  67.407  1.00  0.00    -0.464 OA 
HETATM   24  H   UNL     1     -11.626   9.239  67.225  1.00  0.00     0.000 HD 
BRANCH  22  25
HETATM   25  C   UNL     1      -9.903   9.433  65.349  1.00  0.00    -0.089 C  
HETATM   26  O   UNL     1      -8.949   8.684  64.566  1.00  0.00    -0.420 OA 
HETATM   27  H   UNL     1      -9.069   8.896  63.648  1.00  0.00     0.000 HD 
BRANCH  25  28
HETATM   28  C   UNL     1      -9.822  10.916  64.910  1.00  0.00    -0.284 C  
HETATM   29  O   UNL     1      -8.458  11.199  64.513  1.00  0.00    -0.371 OA 
HETATM   30  H   UNL     1      -8.408  12.108  64.243  1.00  0.00     0.000 HD 
BRANCH  28  31
HETATM   31  C   UNL     1     -10.237  11.960  65.955  1.00  0.00    -0.229 C  
BRANCH  31  32
HETATM   32  O   UNL     1     -10.619  13.143  65.240  1.00  0.00    -0.296 OA 
HETATM   33  P   UNL     1     -12.119  13.670  65.401  1.00  0.00    -0.463 P  
HETATM   34  O   UNL     1     -13.048  12.497  64.847  1.00  0.00    -0.833 OA 
HETATM   35  O   UNL     1     -12.292  14.815  64.305  1.00  0.00    -0.571 OA 
HETATM   36  O   UNL     1     -12.527  14.118  66.761  1.00  0.00    -0.396 OA 
ENDBRANCH  31  32
ENDBRANCH  28  31
ENDBRANCH  25  28
ENDBRANCH  22  25
ENDBRANCH  21  22
ENDBRANCH   7  21
TORSDOF 6
ENDMDL
MODEL      178
REMARK 921   NORMALIZED FREE ENERGY PREDICTED BY IDOCK:   -4.12 KCAL/MOL
REMARK 922        TOTAL FREE ENERGY PREDICTED BY IDOCK:   -7.91 KCAL/MOL
REMARK 923 INTER-LIGAND FREE ENERGY PREDICTED BY IDOCK:   -7.19 KCAL/MOL
REMARK 924 INTRA-LIGAND FREE ENERGY PREDICTED BY IDOCK:   -0.71 KCAL/MOL
REMARK 927      BINDING AFFINITY PREDICTED BY RF-SCORE:    0.00 PKD
ROOT
HETATM    1  C   UNL     1     -11.366  15.962  64.719  1.00  0.00    -0.314 C  
HETATM    2  C   UNL     1     -11.242  14.538  65.182  1.00  0.00    -0.367 A  
HETATM    3  C   UNL     1     -10.685  13.574  64.344  1.00  0.00    -0.402 A  
HETATM    4  C   UNL     1     -10.465  12.270  64.810  1.00  0.00    -0.296 A  
HETATM    5  C   UNL     1     -10.924  11.870  66.088  1.00  0.00    -0.308 A  
HETATM    6  C   UNL     1     -11.684  12.779  66.806  1.00  0.00    -0.459 A  
HETATM    7  N   UNL     1     -10.541  10.621  66.638  1.00  0.00    -0.236 NA 
HETATM    8  H   UNL     1      -7.843   7.452  63.601  1.00  0.00     0.000 HD 
HETATM    9  C   UNL     1     -11.629  14.134  66.467  1.00  0.00    -0.389 A  
HETATM   10  C   UNL     1      -9.761   9.791  65.837  1.00  0.00    -0.266 A  
HETATM   11  C   UNL     1     -11.586  15.056  67.654  1.00  0.00    -0.327 C  
HETATM   12  C   UNL     1      -8.650   9.316  63.541  1.00  0.00    -0.191 C  
HETATM   13  N   UNL     1      -9.301   8.656  66.260  1.00  0.00    -0.203 N  
HETATM   14  H   UNL     1      -9.519   8.359  67.212  1.00  0.00     0.000 HD 
HETATM   15  N   UNL     1      -9.739  11.419  63.972  1.00  0.00    -0.246 NA 
HETATM   16  C   UNL     1      -8.537   7.845  65.475  1.00  0.00    -0.116 C  
HETATM   17  N   UNL     1      -8.313   8.159  64.167  1.00  0.00    -0.080 N  
HETATM   18  O   UNL     1      -8.343   9.584  62.391  1.00  0.00    -0.132 OA 
HETATM   19  C   UNL     1      -9.418  10.249  64.429  1.00  0.00    -0.302 A  
HETATM   20  O   UNL     1      -8.031   6.818  65.915  1.00  0.00    -0.101 OA 
ENDROOT
BRANCH   7  21
HETATM   21  C   UNL     1     -10.402  10.528  68.134  1.00  0.00    -0.172 C  
BRANCH  21  22
HETATM   22  C   UNL     1      -9.048  11.071  68.638  1.00  0.00    -0.174 C  
HETATM   23  O   UNL     1      -8.075  10.967  67.599  1.00  0.00    -0.113 OA 
HETATM   24  H   UNL     1      -7.242  11.300  67.910  1.00  0.00     0.000 HD 
BRANCH  22  25
HETATM   25  C   UNL     1      -8.521  10.413  69.935  1.00  0.00     0.128 C  
HETATM   26  O   UNL     1      -7.223  10.965  70.247  1.00  0.00    -0.461 OA 
HETATM   27  H   UNL     1      -6.900  10.561  71.044  1.00  0.00     0.000 HD 
BRANCH  25  28
HETATM   28  C   UNL     1      -8.412   8.870  69.999  1.00  0.00    -0.139 C  
HETATM   29  O   UNL     1      -7.702   8.416  68.820  1.00  0.00    -0.098 OA 
HETATM   30  H   UNL     1      -7.635   7.469  68.859  1.00  0.00     0.000 HD 
BRANCH  28  31
HETATM   31  C   UNL     1      -9.735   8.096  70.081  1.00  0.00    -0.175 C  
BRANCH  31  32
HETATM   32  O   UNL     1      -9.590   7.126  71.127  1.00  0.00    -0.165 OA 
HETATM   33  P   UNL     1     -10.817   6.903  72.125  1.00  0.00    -0.243 P  
HETATM   34  O   UNL     1     -11.040   8.307  72.852  1.00  0.00    -0.332 OA 
HETATM   35  O   UNL     1     -10.256   5.977  73.296  1.00  0.00    -0.183 OA 
HETATM   36  O   UNL     1     -12.074   6.371  71.531  1.00  0.00    -0.328 OA 
ENDBRANCH  31  32
ENDBRANCH  28  31
ENDBRANCH  25  28
ENDBRANCH  22  25
ENDBRANCH  21  22
ENDBRANCH   7  21
TORSDOF 6
ENDMDL
MODEL      179
REMARK 921   NORMALIZED FREE ENERGY PREDICTED BY IDOCK:   -4.11 KCAL/MOL
REMARK 922        TOTAL FREE ENERGY PREDICTED BY IDOCK:   -7.89 KCAL/MOL
REMARK 923 INTER-LIGAND FREE ENERGY PREDICTED BY IDOCK:   -7.62 KCAL/MOL
REMARK 924 INTRA-LIGAND FREE ENERGY PREDICTED BY IDOCK:   -0.27 KCAL/MOL
REMARK 927      BINDING AFFINITY PREDICTED BY RF-SCORE:    0.00 PKD
ROOT
HETATM    1  C   UNL     1      -8.026  18.911  66.245  1.00  0.00    -0.291 C  
HETATM    2  C   UNL     1      -8.495  17.525  66.586  1.00  0.00    -0.288 A  
HETATM    3  C   UNL     1      -7.602  16.455  66.555  1.00  0.00    -0.258 A  
HETATM    4  C   UNL     1      -8.005  15.181  66.979  1.00  0.00    -0.188 A  
HETATM    5  C   UNL     1      -9.355  14.924  67.318  1.00  0.00    -0.204 A  
HETATM    6  C   UNL     1     -10.270  15.944  67.113  1.00  0.00    -0.278 A  
HETATM    7  N   UNL     1      -9.730  13.699  67.924  1.00  0.00    -0.226 NA 
HETATM    8  H   UNL     1      -6.077  10.094  68.375  1.00  0.00     0.000 HD 
HETATM    9  C   UNL     1      -9.811  17.259  66.988  1.00  0.00    -0.281 A  
HETATM   10  C   UNL     1      -8.727  12.749  68.100  1.00  0.00    -0.193 A  
HETATM   11  C   UNL     1     -10.658  18.269  67.712  1.00  0.00    -0.415 C  
HETATM   12  C   UNL     1      -6.273  12.002  67.707  1.00  0.00    -0.081 C  
HETATM   13  N   UNL     1      -8.942  11.620  68.700  1.00  0.00    -0.322 N  
HETATM   14  H   UNL     1      -9.878  11.420  69.055  1.00  0.00     0.000 HD 
HETATM   15  N   UNL     1      -7.005  14.211  67.088  1.00  0.00    -0.065 NA 
HETATM   16  C   UNL     1      -7.959  10.692  68.871  1.00  0.00    -0.132 C  
HETATM   17  N   UNL     1      -6.726  10.879  68.320  1.00  0.00    -0.062 N  
HETATM   18  O   UNL     1      -5.129  12.151  67.312  1.00  0.00    -0.095 OA 
HETATM   19  C   UNL     1      -7.329  13.062  67.592  1.00  0.00    -0.147 A  
HETATM   20  O   UNL     1      -8.150   9.669  69.520  1.00  0.00    -0.103 OA 
ENDROOT
BRANCH   7  21
HETATM   21  C   UNL     1     -10.888  13.719  68.885  1.00  0.00    -0.242 C  
BRANCH  21  22
HETATM   22  C   UNL     1     -11.508  12.321  69.096  1.00  0.00    -0.296 C  
HETATM   23  O   UNL     1     -12.119  11.882  67.884  1.00  0.00    -0.558 OA 
HETATM   24  H   UNL     1     -12.500  11.021  68.014  1.00  0.00     0.000 HD 
BRANCH  22  25
HETATM   25  C   UNL     1     -12.510  12.218  70.270  1.00  0.00    -0.084 C  
HETATM   26  O   UNL     1     -12.086  13.106  71.327  1.00  0.00    -0.336 OA 
HETATM   27  H   UNL     1     -12.702  13.043  72.048  1.00  0.00     0.000 HD 
BRANCH  25  28
HETATM   28  C   UNL     1     -12.786  10.829  70.895  1.00  0.00    -0.351 C  
HETATM   29  O   UNL     1     -13.291  11.027  72.239  1.00  0.00    -0.633 OA 
HETATM   30  H   UNL     1     -13.461  10.175  72.622  1.00  0.00     0.000 HD 
BRANCH  28  31
HETATM   31  C   UNL     1     -11.594   9.867  70.974  1.00  0.00    -0.389 C  
BRANCH  31  32
HETATM   32  O   UNL     1     -11.816   9.014  72.106  1.00  0.00    -0.358 OA 
HETATM   33  P   UNL     1     -10.613   8.084  72.597  1.00  0.00    -0.315 P  
HETATM   34  O   UNL     1     -10.291   7.116  71.370  1.00  0.00    -0.198 OA 
HETATM   35  O   UNL     1     -11.248   7.097  73.677  1.00  0.00    -0.086 OA 
HETATM   36  O   UNL     1      -9.397   8.776  73.104  1.00  0.00    -0.148 OA 
ENDBRANCH  31  32
ENDBRANCH  28  31
ENDBRANCH  25  28
ENDBRANCH  22  25
ENDBRANCH  21  22
ENDBRANCH   7  21
TORSDOF 6
ENDMDL
MODEL      180
REMARK 921   NORMALIZED FREE ENERGY PREDICTED BY IDOCK:   -4.09 KCAL/MOL
REMARK 922        TOTAL FREE ENERGY PREDICTED BY IDOCK:   -7.87 KCAL/MOL
REMARK 923 INTER-LIGAND FREE ENERGY PREDICTED BY IDOCK:   -6.58 KCAL/MOL
REMARK 924 INTRA-LIGAND FREE ENERGY PREDICTED BY IDOCK:   -1.29 KCAL/MOL
REMARK 927      BINDING AFFINITY PREDICTED BY RF-SCORE:    0.00 PKD
ROOT
HETATM    1  C   UNL     1     -11.987  15.423  67.560  1.00  0.00     0.201 C  
HETATM    2  C   UNL     1     -11.687  13.965  67.352  1.00  0.00    -0.422 A  
HETATM    3  C   UNL     1     -11.235  13.511  66.115  1.00  0.00    -0.306 A  
HETATM    4  C   UNL     1     -10.849  12.174  65.947  1.00  0.00    -0.278 A  
HETATM    5  C   UNL     1     -11.035  11.230  66.986  1.00  0.00    -0.294 A  
HETATM    6  C   UNL     1     -11.704  11.656  68.122  1.00  0.00    -0.365 A  
HETATM    7  N   UNL     1     -10.476   9.931  66.894  1.00  0.00    -0.233 NA 
HETATM    8  H   UNL     1      -8.194   8.672  62.449  1.00  0.00     0.000 HD 
HETATM    9  C   UNL     1     -11.801  13.025  68.385  1.00  0.00    -0.370 A  
HETATM   10  C   UNL     1      -9.807   9.614  65.714  1.00  0.00    -0.302 A  
HETATM   11  C   UNL     1     -11.596  13.381  69.832  1.00  0.00    -0.270 C  
HETATM   12  C   UNL     1      -9.116  10.270  63.300  1.00  0.00    -0.265 C  
HETATM   13  N   UNL     1      -9.204   8.478  65.546  1.00  0.00    -0.413 N  
HETATM   14  H   UNL     1      -9.221   7.794  66.302  1.00  0.00     0.000 HD 
HETATM   15  N   UNL     1     -10.239  11.845  64.734  1.00  0.00    -0.268 NA 
HETATM   16  C   UNL     1      -8.550   8.170  64.390  1.00  0.00     0.135 C  
HETATM   17  N   UNL     1      -8.594   9.016  63.322  1.00  0.00    -0.180 N  
HETATM   18  O   UNL     1      -9.048  11.021  62.342  1.00  0.00    -0.313 OA 
HETATM   19  C   UNL     1      -9.763  10.647  64.600  1.00  0.00    -0.302 A  
HETATM   20  O   UNL     1      -7.906   7.133  64.277  1.00  0.00    -0.112 OA 
ENDROOT
BRANCH   7  21
HETATM   21  C   UNL     1     -10.054   9.258  68.172  1.00  0.00    -0.187 C  
BRANCH  21  22
HETATM   22  C   UNL     1      -8.520   9.176  68.321  1.00  0.00    -0.125 C  
HETATM   23  O   UNL     1      -8.179   8.058  69.138  1.00  0.00    -0.126 OA 
HETATM   24  H   UNL     1      -7.234   8.007  69.230  1.00  0.00     0.000 HD 
BRANCH  22  25
HETATM   25  C   UNL     1      -7.844  10.460  68.858  1.00  0.00    -0.115 C  
HETATM   26  O   UNL     1      -8.840  11.276  69.513  1.00  0.00    -0.300 OA 
HETATM   27  H   UNL     1      -8.425  12.064  69.842  1.00  0.00     0.000 HD 
BRANCH  25  28
HETATM   28  C   UNL     1      -7.063  11.360  67.870  1.00  0.00    -0.075 C  
HETATM   29  O   UNL     1      -5.928  11.927  68.572  1.00  0.00    -0.049 OA 
HETATM   30  H   UNL     1      -5.448  12.479  67.966  1.00  0.00     0.000 HD 
BRANCH  28  31
HETATM   31  C   UNL     1      -7.847  12.513  67.230  1.00  0.00    -0.160 C  
BRANCH  31  32
HETATM   32  O   UNL     1      -7.911  13.568  68.199  1.00  0.00    -0.122 OA 
HETATM   33  P   UNL     1      -7.413  15.023  67.764  1.00  0.00    -0.192 P  
HETATM   34  O   UNL     1      -5.870  14.855  67.393  1.00  0.00    -0.341 OA 
HETATM   35  O   UNL     1      -7.369  15.881  69.107  1.00  0.00    -0.172 OA 
HETATM   36  O   UNL     1      -8.183  15.697  66.683  1.00  0.00    -0.257 OA 
ENDBRANCH  31  32
ENDBRANCH  28  31
ENDBRANCH  25  28
ENDBRANCH  22  25
ENDBRANCH  21  22
ENDBRANCH   7  21
TORSDOF 6
ENDMDL
MODEL      181
REMARK 921   NORMALIZED FREE ENERGY PREDICTED BY IDOCK:   -4.06 KCAL/MOL
REMARK 922        TOTAL FREE ENERGY PREDICTED BY IDOCK:   -7.82 KCAL/MOL
REMARK 923 INTER-LIGAND FREE ENERGY PREDICTED BY IDOCK:   -6.93 KCAL/MOL
REMARK 924 INTRA-LIGAND FREE ENERGY PREDICTED BY IDOCK:   -0.90 KCAL/MOL
REMARK 927      BINDING AFFINITY PREDICTED BY RF-SCORE:    0.00 PKD
ROOT
HETATM    1  C   UNL     1      -5.671   4.455  67.620  1.00  0.00    -0.022 C  
HETATM    2  C   UNL     1      -6.990   5.131  67.867  1.00  0.00    -0.062 A  
HETATM    3  C   UNL     1      -7.441   5.336  69.169  1.00  0.00    -0.069 A  
HETATM    4  C   UNL     1      -8.614   6.064  69.409  1.00  0.00    -0.122 A  
HETATM    5  C   UNL     1      -9.435   6.489  68.336  1.00  0.00    -0.120 A  
HETATM    6  C   UNL     1      -9.088   6.068  67.063  1.00  0.00    -0.117 A  
HETATM    7  N   UNL     1     -10.512   7.382  68.557  1.00  0.00    -0.197 NA 
HETATM    8  H   UNL     1     -11.583   8.596  73.449  1.00  0.00     0.000 HD 
HETATM    9  C   UNL     1      -7.787   5.619  66.822  1.00  0.00    -0.101 A  
HETATM   10  C   UNL     1     -10.762   7.756  69.876  1.00  0.00    -0.245 A  
HETATM   11  C   UNL     1      -7.210   6.099  65.518  1.00  0.00    -0.074 C  
HETATM   12  C   UNL     1     -10.236   7.493  72.403  1.00  0.00    -0.212 C  
HETATM   13  N   UNL     1     -11.681   8.615  70.187  1.00  0.00    -0.454 N  
HETATM   14  H   UNL     1     -12.241   9.031  69.443  1.00  0.00     0.000 HD 
HETATM   15  N   UNL     1      -8.896   6.379  70.740  1.00  0.00    -0.143 NA 
HETATM   16  C   UNL     1     -11.923   8.980  71.478  1.00  0.00    -0.344 C  
HETATM   17  N   UNL     1     -11.267   8.370  72.506  1.00  0.00    -0.368 N  
HETATM   18  O   UNL     1      -9.622   7.045  73.357  1.00  0.00    -0.159 OA 
HETATM   19  C   UNL     1      -9.908   7.153  70.979  1.00  0.00    -0.180 A  
HETATM   20  O   UNL     1     -12.730   9.861  71.754  1.00  0.00    -0.377 OA 
ENDROOT
BRANCH   7  21
HETATM   21  C   UNL     1     -10.868   8.338  67.451  1.00  0.00    -0.035 C  
BRANCH  21  22
HETATM   22  C   UNL     1      -9.912   9.549  67.383  1.00  0.00    -0.189 C  
HETATM   23  O   UNL     1      -8.954   9.459  68.437  1.00  0.00    -0.128 OA 
HETATM   24  H   UNL     1      -8.366  10.205  68.395  1.00  0.00     0.000 HD 
BRANCH  22  25
HETATM   25  C   UNL     1     -10.605  10.932  67.403  1.00  0.00    -0.243 C  
HETATM   26  O   UNL     1     -11.937  10.782  67.940  1.00  0.00    -0.753 OA 
HETATM   27  H   UNL     1     -12.362  11.632  67.952  1.00  0.00     0.000 HD 
BRANCH  25  28
HETATM   28  C   UNL     1     -10.708  11.733  66.082  1.00  0.00    -0.277 C  
HETATM   29  O   UNL     1      -9.527  11.456  65.289  1.00  0.00    -0.225 OA 
HETATM   30  H   UNL     1      -9.591  11.946  64.478  1.00  0.00     0.000 HD 
BRANCH  28  31
HETATM   31  C   UNL     1     -10.841  13.256  66.216  1.00  0.00    -0.284 C  
BRANCH  31  32
HETATM   32  O   UNL     1     -11.576  13.510  67.420  1.00  0.00    -0.317 OA 
HETATM   33  P   UNL     1     -11.103  14.718  68.352  1.00  0.00    -0.292 P  
HETATM   34  O   UNL     1      -9.619  14.351  68.809  1.00  0.00    -0.214 OA 
HETATM   35  O   UNL     1     -11.941  14.574  69.701  1.00  0.00    -0.293 OA 
HETATM   36  O   UNL     1     -11.192  16.086  67.771  1.00  0.00    -0.315 OA 
ENDBRANCH  31  32
ENDBRANCH  28  31
ENDBRANCH  25  28
ENDBRANCH  22  25
ENDBRANCH  21  22
ENDBRANCH   7  21
TORSDOF 6
ENDMDL
MODEL      182
REMARK 921   NORMALIZED FREE ENERGY PREDICTED BY IDOCK:   -4.05 KCAL/MOL
REMARK 922        TOTAL FREE ENERGY PREDICTED BY IDOCK:   -7.82 KCAL/MOL
REMARK 923 INTER-LIGAND FREE ENERGY PREDICTED BY IDOCK:   -6.32 KCAL/MOL
REMARK 924 INTRA-LIGAND FREE ENERGY PREDICTED BY IDOCK:   -1.50 KCAL/MOL
REMARK 927      BINDING AFFINITY PREDICTED BY RF-SCORE:    0.00 PKD
ROOT
HETATM    1  C   UNL     1     -11.635  16.119  64.082  1.00  0.00     0.076 C  
HETATM    2  C   UNL     1     -10.710  15.376  65.003  1.00  0.00    -0.460 A  
HETATM    3  C   UNL     1      -9.701  16.056  65.683  1.00  0.00    -0.273 A  
HETATM    4  C   UNL     1      -8.907  15.390  66.626  1.00  0.00    -0.295 A  
HETATM    5  C   UNL     1      -9.021  13.991  66.811  1.00  0.00    -0.197 A  
HETATM    6  C   UNL     1      -9.864  13.301  65.956  1.00  0.00    -0.271 A  
HETATM    7  N   UNL     1      -8.363  13.346  67.888  1.00  0.00    -0.153 NA 
HETATM    8  H   UNL     1      -5.192  16.221  70.756  1.00  0.00     0.000 HD 
HETATM    9  C   UNL     1     -10.846  14.003  65.251  1.00  0.00    -0.352 A  
HETATM   10  C   UNL     1      -7.553  14.138  68.699  1.00  0.00    -0.126 A  
HETATM   11  C   UNL     1     -12.173  13.296  65.191  1.00  0.00    -0.487 C  
HETATM   12  C   UNL     1      -6.450  16.438  69.176  1.00  0.00    -0.187 C  
HETATM   13  N   UNL     1      -6.955  13.667  69.748  1.00  0.00    -0.340 N  
HETATM   14  H   UNL     1      -7.080  12.684  69.988  1.00  0.00     0.000 HD 
HETATM   15  N   UNL     1      -8.045  16.181  67.391  1.00  0.00    -0.150 NA 
HETATM   16  C   UNL     1      -6.163  14.445  70.540  1.00  0.00    -0.164 C  
HETATM   17  N   UNL     1      -5.889  15.735  70.194  1.00  0.00    -0.161 N  
HETATM   18  O   UNL     1      -6.238  17.621  68.966  1.00  0.00    -0.193 OA 
HETATM   19  C   UNL     1      -7.390  15.609  68.352  1.00  0.00    -0.116 A  
HETATM   20  O   UNL     1      -5.677  14.013  71.580  1.00  0.00    -0.224 OA 
ENDROOT
BRANCH   7  21
HETATM   21  C   UNL     1      -9.022  12.132  68.485  1.00  0.00    -0.082 C  
BRANCH  21  22
HETATM   22  C   UNL     1      -8.187  10.848  68.289  1.00  0.00    -0.127 C  
HETATM   23  O   UNL     1      -8.799  10.028  67.295  1.00  0.00    -0.134 OA 
HETATM   24  H   UNL     1      -8.285   9.238  67.174  1.00  0.00     0.000 HD 
BRANCH  22  25
HETATM   25  C   UNL     1      -7.930  10.030  69.577  1.00  0.00    -0.158 C  
HETATM   26  O   UNL     1      -6.994  10.748  70.410  1.00  0.00    -0.456 OA 
HETATM   27  H   UNL     1      -6.837  10.245  71.200  1.00  0.00     0.000 HD 
BRANCH  25  28
HETATM   28  C   UNL     1      -7.433   8.570  69.446  1.00  0.00    -0.088 C  
HETATM   29  O   UNL     1      -6.909   8.387  68.107  1.00  0.00    -0.066 OA 
HETATM   30  H   UNL     1      -6.603   7.491  68.026  1.00  0.00     0.000 HD 
BRANCH  28  31
HETATM   31  C   UNL     1      -8.471   7.469  69.702  1.00  0.00    -0.135 C  
BRANCH  31  32
HETATM   32  O   UNL     1      -8.662   6.775  68.462  1.00  0.00    -0.125 OA 
HETATM   33  P   UNL     1     -10.146   6.664  67.881  1.00  0.00    -0.184 P  
HETATM   34  O   UNL     1     -10.977   5.853  68.976  1.00  0.00    -0.324 OA 
HETATM   35  O   UNL     1     -10.056   5.637  66.664  1.00  0.00    -0.164 OA 
HETATM   36  O   UNL     1     -10.811   7.940  67.499  1.00  0.00    -0.205 OA 
ENDBRANCH  31  32
ENDBRANCH  28  31
ENDBRANCH  25  28
ENDBRANCH  22  25
ENDBRANCH  21  22
ENDBRANCH   7  21
TORSDOF 6
ENDMDL
MODEL      183
REMARK 921   NORMALIZED FREE ENERGY PREDICTED BY IDOCK:   -4.04 KCAL/MOL
REMARK 922        TOTAL FREE ENERGY PREDICTED BY IDOCK:   -7.80 KCAL/MOL
REMARK 923 INTER-LIGAND FREE ENERGY PREDICTED BY IDOCK:   -5.91 KCAL/MOL
REMARK 924 INTRA-LIGAND FREE ENERGY PREDICTED BY IDOCK:   -1.89 KCAL/MOL
REMARK 927      BINDING AFFINITY PREDICTED BY RF-SCORE:    0.00 PKD
ROOT
HETATM    1  C   UNL     1     -13.638  14.446  71.960  1.00  0.00    -0.514 C  
HETATM    2  C   UNL     1     -12.870  13.494  71.088  1.00  0.00    -0.387 A  
HETATM    3  C   UNL     1     -11.847  13.963  70.266  1.00  0.00    -0.360 A  
HETATM    4  C   UNL     1     -11.054  13.068  69.536  1.00  0.00     0.013 A  
HETATM    5  C   UNL     1     -11.358  11.685  69.512  1.00  0.00    -0.260 A  
HETATM    6  C   UNL     1     -12.519  11.276  70.146  1.00  0.00    -0.297 A  
HETATM    7  N   UNL     1     -10.457  10.755  68.936  1.00  0.00    -0.194 NA 
HETATM    8  H   UNL     1      -6.320  12.675  66.538  1.00  0.00     0.000 HD 
HETATM    9  C   UNL     1     -13.110  12.113  71.098  1.00  0.00    -0.113 A  
HETATM   10  C   UNL     1      -9.309  11.273  68.341  1.00  0.00    -0.181 A  
HETATM   11  C   UNL     1     -13.618  11.386  72.313  1.00  0.00     0.052 C  
HETATM   12  C   UNL     1      -7.929  13.337  67.587  1.00  0.00    -0.176 C  
HETATM   13  N   UNL     1      -8.387  10.512  67.840  1.00  0.00    -0.114 N  
HETATM   14  H   UNL     1      -8.506   9.499  67.882  1.00  0.00     0.000 HD 
HETATM   15  N   UNL     1      -9.941  13.604  68.884  1.00  0.00    -0.080 NA 
HETATM   16  C   UNL     1      -7.264  11.021  67.259  1.00  0.00    -0.102 C  
HETATM   17  N   UNL     1      -7.119  12.366  67.092  1.00  0.00    -0.120 N  
HETATM   18  O   UNL     1      -7.704  14.532  67.486  1.00  0.00    -0.161 OA 
HETATM   19  C   UNL     1      -9.124  12.781  68.304  1.00  0.00    -0.180 A  
HETATM   20  O   UNL     1      -6.357  10.292  66.872  1.00  0.00    -0.065 OA 
ENDROOT
BRANCH   7  21
HETATM   21  C   UNL     1     -10.409   9.371  69.525  1.00  0.00    -0.214 C  
BRANCH  21  22
HETATM   22  C   UNL     1      -9.629   9.319  70.856  1.00  0.00    -0.269 C  
HETATM   23  O   UNL     1      -8.377   8.667  70.650  1.00  0.00    -0.118 OA 
HETATM   24  H   UNL     1      -7.897   8.635  71.470  1.00  0.00     0.000 HD 
BRANCH  22  25
HETATM   25  C   UNL     1     -10.388   8.665  72.035  1.00  0.00    -0.346 C  
HETATM   26  O   UNL     1      -9.451   8.387  73.099  1.00  0.00    -0.230 OA 
HETATM   27  H   UNL     1      -9.917   7.986  73.823  1.00  0.00     0.000 HD 
BRANCH  25  28
HETATM   28  C   UNL     1     -11.209   7.380  71.772  1.00  0.00    -0.246 C  
HETATM   29  O   UNL     1     -12.392   7.418  72.609  1.00  0.00    -0.521 OA 
HETATM   30  H   UNL     1     -12.897   6.629  72.447  1.00  0.00     0.000 HD 
BRANCH  28  31
HETATM   31  C   UNL     1     -10.492   6.048  72.027  1.00  0.00    -0.209 C  
BRANCH  31  32
HETATM   32  O   UNL     1      -9.520   5.887  70.987  1.00  0.00    -0.162 OA 
HETATM   33  P   UNL     1      -8.050   5.410  71.394  1.00  0.00    -0.119 P  
HETATM   34  O   UNL     1      -7.482   6.548  72.359  1.00  0.00    -0.092 OA 
HETATM   35  O   UNL     1      -7.164   5.578  70.079  1.00  0.00    -0.064 OA 
HETATM   36  O   UNL     1      -7.930   4.052  71.991  1.00  0.00    -0.080 OA 
ENDBRANCH  31  32
ENDBRANCH  28  31
ENDBRANCH  25  28
ENDBRANCH  22  25
ENDBRANCH  21  22
ENDBRANCH   7  21
TORSDOF 6
ENDMDL
MODEL      184
REMARK 921   NORMALIZED FREE ENERGY PREDICTED BY IDOCK:   -4.03 KCAL/MOL
REMARK 922        TOTAL FREE ENERGY PREDICTED BY IDOCK:   -7.79 KCAL/MOL
REMARK 923 INTER-LIGAND FREE ENERGY PREDICTED BY IDOCK:   -6.69 KCAL/MOL
REMARK 924 INTRA-LIGAND FREE ENERGY PREDICTED BY IDOCK:   -1.10 KCAL/MOL
REMARK 927      BINDING AFFINITY PREDICTED BY RF-SCORE:    0.00 PKD
ROOT
HETATM    1  C   UNL     1     -11.769  14.621  66.690  1.00  0.00    -0.345 C  
HETATM    2  C   UNL     1     -11.540  13.178  67.043  1.00  0.00    -0.408 A  
HETATM    3  C   UNL     1     -10.937  12.319  66.127  1.00  0.00    -0.328 A  
HETATM    4  C   UNL     1     -10.620  11.002  66.490  1.00  0.00    -0.254 A  
HETATM    5  C   UNL     1     -11.025  10.479  67.741  1.00  0.00    -0.313 A  
HETATM    6  C   UNL     1     -11.829  11.278  68.537  1.00  0.00    -0.355 A  
HETATM    7  N   UNL     1     -10.548   9.222  68.190  1.00  0.00    -0.218 NA 
HETATM    8  H   UNL     1      -7.705   6.478  64.882  1.00  0.00     0.000 HD 
HETATM    9  C   UNL     1     -11.873  12.655  68.300  1.00  0.00    -0.354 A  
HETATM   10  C   UNL     1      -9.730   8.509  67.316  1.00  0.00    -0.183 A  
HETATM   11  C   UNL     1     -11.867  13.488  69.552  1.00  0.00    -0.392 C  
HETATM   12  C   UNL     1      -8.637   8.282  64.974  1.00  0.00    -0.075 C  
HETATM   13  N   UNL     1      -9.187   7.379  67.646  1.00  0.00    -0.127 N  
HETATM   14  H   UNL     1      -9.364   6.999  68.576  1.00  0.00     0.000 HD 
HETATM   15  N   UNL     1      -9.856  10.268  65.579  1.00  0.00    -0.262 NA 
HETATM   16  C   UNL     1      -8.386   6.683  66.790  1.00  0.00    -0.115 C  
HETATM   17  N   UNL     1      -8.210   7.107  65.507  1.00  0.00    -0.135 N  
HETATM   18  O   UNL     1      -8.373   8.655  63.843  1.00  0.00    -0.167 OA 
HETATM   19  C   UNL     1      -9.448   9.092  65.941  1.00  0.00    -0.259 A  
HETATM   20  O   UNL     1      -7.803   5.664  67.144  1.00  0.00    -0.100 OA 
ENDROOT
BRANCH   7  21
HETATM   21  C   UNL     1     -10.372   9.029  69.672  1.00  0.00    -0.212 C  
BRANCH  21  22
HETATM   22  C   UNL     1      -9.057   9.643  70.198  1.00  0.00    -0.240 C  
HETATM   23  O   UNL     1      -8.368  10.285  69.126  1.00  0.00    -0.132 OA 
HETATM   24  H   UNL     1      -7.559  10.663  69.450  1.00  0.00     0.000 HD 
BRANCH  22  25
HETATM   25  C   UNL     1      -8.116   8.653  70.925  1.00  0.00    -0.136 C  
HETATM   26  O   UNL     1      -8.114   7.397  70.212  1.00  0.00    -0.112 OA 
HETATM   27  H   UNL     1      -7.536   6.790  70.658  1.00  0.00     0.000 HD 
BRANCH  25  28
HETATM   28  C   UNL     1      -8.365   8.352  72.423  1.00  0.00    -0.155 C  
HETATM   29  O   UNL     1      -7.283   7.517  72.905  1.00  0.00    -0.068 OA 
HETATM   30  H   UNL     1      -7.435   7.333  73.824  1.00  0.00     0.000 HD 
BRANCH  28  31
HETATM   31  C   UNL     1      -9.688   7.656  72.769  1.00  0.00    -0.205 C  
BRANCH  31  32
HETATM   32  O   UNL     1      -9.465   6.245  72.651  1.00  0.00    -0.150 OA 
HETATM   33  P   UNL     1     -10.490   5.390  71.773  1.00  0.00    -0.193 P  
HETATM   34  O   UNL     1     -11.908   5.555  72.486  1.00  0.00    -0.252 OA 
HETATM   35  O   UNL     1     -10.124   3.862  72.051  1.00  0.00    -0.179 OA 
HETATM   36  O   UNL     1     -10.550   5.705  70.319  1.00  0.00    -0.266 OA 
ENDBRANCH  31  32
ENDBRANCH  28  31
ENDBRANCH  25  28
ENDBRANCH  22  25
ENDBRANCH  21  22
ENDBRANCH   7  21
TORSDOF 6
ENDMDL
MODEL      185
REMARK 921   NORMALIZED FREE ENERGY PREDICTED BY IDOCK:   -4.02 KCAL/MOL
REMARK 922        TOTAL FREE ENERGY PREDICTED BY IDOCK:   -7.78 KCAL/MOL
REMARK 923 INTER-LIGAND FREE ENERGY PREDICTED BY IDOCK:   -7.98 KCAL/MOL
REMARK 924 INTRA-LIGAND FREE ENERGY PREDICTED BY IDOCK:    0.20 KCAL/MOL
REMARK 927      BINDING AFFINITY PREDICTED BY RF-SCORE:    0.00 PKD
ROOT
HETATM    1  C   UNL     1     -10.615  16.949  69.488  1.00  0.00    -0.239 C  
HETATM    2  C   UNL     1     -11.019  15.512  69.322  1.00  0.00    -0.268 A  
HETATM    3  C   UNL     1     -10.634  14.801  68.186  1.00  0.00    -0.241 A  
HETATM    4  C   UNL     1     -10.912  13.432  68.077  1.00  0.00    -0.244 A  
HETATM    5  C   UNL     1     -11.703  12.774  69.049  1.00  0.00    -0.323 A  
HETATM    6  C   UNL     1     -12.271  13.553  70.044  1.00  0.00    -0.381 A  
HETATM    7  N   UNL     1     -11.827  11.362  69.048  1.00  0.00    -0.331 NA 
HETATM    8  H   UNL     1      -9.701   8.827  65.098  1.00  0.00     0.000 HD 
HETATM    9  C   UNL     1     -11.744  14.822  70.302  1.00  0.00    -0.351 A  
HETATM   10  C   UNL     1     -11.201  10.674  68.011  1.00  0.00    -0.307 A  
HETATM   11  C   UNL     1     -11.646  15.152  71.767  1.00  0.00    -0.478 C  
HETATM   12  C   UNL     1      -9.876  10.732  65.781  1.00  0.00    -0.240 C  
HETATM   13  N   UNL     1     -11.196   9.379  67.945  1.00  0.00    -0.467 N  
HETATM   14  H   UNL     1     -11.668   8.846  68.676  1.00  0.00     0.000 HD 
HETATM   15  N   UNL     1     -10.336  12.760  66.996  1.00  0.00    -0.233 NA 
HETATM   16  C   UNL     1     -10.581   8.708  66.930  1.00  0.00    -0.200 C  
HETATM   17  N   UNL     1     -10.031   9.387  65.884  1.00  0.00    -0.301 N  
HETATM   18  O   UNL     1      -9.293  11.284  64.862  1.00  0.00    -0.214 OA 
HETATM   19  C   UNL     1     -10.477  11.472  66.939  1.00  0.00    -0.235 A  
HETATM   20  O   UNL     1     -10.503   7.484  66.927  1.00  0.00    -0.309 OA 
ENDROOT
BRANCH   7  21
HETATM   21  C   UNL     1     -12.006  10.673  70.374  1.00  0.00    -0.346 C  
BRANCH  21  22
HETATM   22  C   UNL     1     -11.366   9.268  70.403  1.00  0.00    -0.242 C  
HETATM   23  O   UNL     1     -12.294   8.333  70.950  1.00  0.00    -0.479 OA 
HETATM   24  H   UNL     1     -11.900   7.468  70.969  1.00  0.00     0.000 HD 
BRANCH  22  25
HETATM   25  C   UNL     1     -10.013   9.180  71.147  1.00  0.00    -0.307 C  
HETATM   26  O   UNL     1      -9.036   9.975  70.439  1.00  0.00    -0.353 OA 
HETATM   27  H   UNL     1      -8.205   9.921  70.897  1.00  0.00     0.000 HD 
BRANCH  25  28
HETATM   28  C   UNL     1      -9.395   7.785  71.409  1.00  0.00    -0.141 C  
HETATM   29  O   UNL     1     -10.448   6.902  71.872  1.00  0.00    -0.201 OA 
HETATM   30  H   UNL     1     -10.069   6.046  72.032  1.00  0.00     0.000 HD 
BRANCH  28  31
HETATM   31  C   UNL     1      -8.248   7.726  72.426  1.00  0.00    -0.121 C  
BRANCH  31  32
HETATM   32  O   UNL     1      -7.500   6.535  72.149  1.00  0.00    -0.090 OA 
HETATM   33  P   UNL     1      -7.729   5.264  73.090  1.00  0.00    -0.097 P  
HETATM   34  O   UNL     1      -7.293   5.730  74.553  1.00  0.00    -0.087 OA 
HETATM   35  O   UNL     1      -6.589   4.223  72.690  1.00  0.00    -0.037 OA 
HETATM   36  O   UNL     1      -9.087   4.656  73.073  1.00  0.00    -0.120 OA 
ENDBRANCH  31  32
ENDBRANCH  28  31
ENDBRANCH  25  28
ENDBRANCH  22  25
ENDBRANCH  21  22
ENDBRANCH   7  21
TORSDOF 6
ENDMDL
MODEL      186
REMARK 921   NORMALIZED FREE ENERGY PREDICTED BY IDOCK:   -4.02 KCAL/MOL
REMARK 922        TOTAL FREE ENERGY PREDICTED BY IDOCK:   -7.77 KCAL/MOL
REMARK 923 INTER-LIGAND FREE ENERGY PREDICTED BY IDOCK:   -7.32 KCAL/MOL
REMARK 924 INTRA-LIGAND FREE ENERGY PREDICTED BY IDOCK:   -0.45 KCAL/MOL
REMARK 927      BINDING AFFINITY PREDICTED BY RF-SCORE:    0.00 PKD
ROOT
HETATM    1  C   UNL     1     -12.402  14.898  64.359  1.00  0.00    -0.342 C  
HETATM    2  C   UNL     1     -11.404  13.811  64.638  1.00  0.00    -0.382 A  
HETATM    3  C   UNL     1     -10.437  13.982  65.627  1.00  0.00    -0.328 A  
HETATM    4  C   UNL     1      -9.575  12.931  65.968  1.00  0.00    -0.165 A  
HETATM    5  C   UNL     1      -9.577  11.724  65.228  1.00  0.00    -0.168 A  
HETATM    6  C   UNL     1     -10.382  11.667  64.102  1.00  0.00    -0.386 A  
HETATM    7  N   UNL     1      -8.850  10.595  65.681  1.00  0.00    -0.181 NA 
HETATM    8  H   UNL     1      -5.854  11.244  69.822  1.00  0.00     0.000 HD 
HETATM    9  C   UNL     1     -11.429  12.583  63.963  1.00  0.00    -0.476 A  
HETATM   10  C   UNL     1      -8.088  10.756  66.835  1.00  0.00    -0.132 A  
HETATM   11  C   UNL     1     -12.698  11.977  63.428  1.00  0.00    -0.527 C  
HETATM   12  C   UNL     1      -7.157  12.315  68.689  1.00  0.00    -0.103 C  
HETATM   13  N   UNL     1      -7.434   9.775  67.374  1.00  0.00    -0.091 N  
HETATM   14  H   UNL     1      -7.479   8.854  66.938  1.00  0.00     0.000 HD 
HETATM   15  N   UNL     1      -8.762  13.125  67.087  1.00  0.00    -0.213 NA 
HETATM   16  C   UNL     1      -6.689   9.935  68.504  1.00  0.00    -0.055 C  
HETATM   17  N   UNL     1      -6.523  11.171  69.055  1.00  0.00    -0.059 N  
HETATM   18  O   UNL     1      -7.041  13.378  69.276  1.00  0.00    -0.056 OA 
HETATM   19  C   UNL     1      -8.046  12.124  67.496  1.00  0.00    -0.163 A  
HETATM   20  O   UNL     1      -6.151   8.982  69.057  1.00  0.00    -0.042 OA 
ENDROOT
BRANCH   7  21
HETATM   21  C   UNL     1      -9.401   9.232  65.359  1.00  0.00    -0.226 C  
BRANCH  21  22
HETATM   22  C   UNL     1      -9.125   8.201  66.474  1.00  0.00    -0.176 C  
HETATM   23  O   UNL     1      -8.649   6.987  65.895  1.00  0.00    -0.143 OA 
HETATM   24  H   UNL     1      -8.478   6.353  66.581  1.00  0.00     0.000 HD 
BRANCH  22  25
HETATM   25  C   UNL     1     -10.320   7.915  67.414  1.00  0.00    -0.279 C  
HETATM   26  O   UNL     1     -11.103   9.121  67.557  1.00  0.00    -0.455 OA 
HETATM   27  H   UNL     1     -11.836   8.945  68.134  1.00  0.00     0.000 HD 
BRANCH  25  28
HETATM   28  C   UNL     1     -10.038   7.357  68.830  1.00  0.00    -0.179 C  
HETATM   29  O   UNL     1      -9.365   6.081  68.690  1.00  0.00    -0.118 OA 
HETATM   30  H   UNL     1      -9.191   5.739  69.558  1.00  0.00     0.000 HD 
BRANCH  28  31
HETATM   31  C   UNL     1     -11.258   7.150  69.737  1.00  0.00    -0.173 C  
BRANCH  31  32
HETATM   32  O   UNL     1     -11.517   8.403  70.386  1.00  0.00    -0.234 OA 
HETATM   33  P   UNL     1     -12.236   8.379  71.812  1.00  0.00    -0.373 P  
HETATM   34  O   UNL     1     -13.662   7.706  71.563  1.00  0.00    -0.373 OA 
HETATM   35  O   UNL     1     -12.606   9.897  72.132  1.00  0.00    -0.345 OA 
HETATM   36  O   UNL     1     -11.493   7.728  72.925  1.00  0.00    -0.378 OA 
ENDBRANCH  31  32
ENDBRANCH  28  31
ENDBRANCH  25  28
ENDBRANCH  22  25
ENDBRANCH  21  22
ENDBRANCH   7  21
TORSDOF 6
ENDMDL
MODEL      187
REMARK 921   NORMALIZED FREE ENERGY PREDICTED BY IDOCK:   -4.01 KCAL/MOL
REMARK 922        TOTAL FREE ENERGY PREDICTED BY IDOCK:   -7.76 KCAL/MOL
REMARK 923 INTER-LIGAND FREE ENERGY PREDICTED BY IDOCK:   -7.27 KCAL/MOL
REMARK 924 INTRA-LIGAND FREE ENERGY PREDICTED BY IDOCK:   -0.49 KCAL/MOL
REMARK 927      BINDING AFFINITY PREDICTED BY RF-SCORE:    0.00 PKD
ROOT
HETATM    1  C   UNL     1     -11.319  16.076  65.101  1.00  0.00    -0.074 C  
HETATM    2  C   UNL     1     -10.662  14.826  65.614  1.00  0.00    -0.345 A  
HETATM    3  C   UNL     1      -9.519  14.909  66.408  1.00  0.00    -0.327 A  
HETATM    4  C   UNL     1      -8.967  13.755  66.980  1.00  0.00    -0.238 A  
HETATM    5  C   UNL     1      -9.474  12.473  66.658  1.00  0.00    -0.242 A  
HETATM    6  C   UNL     1     -10.456  12.401  65.684  1.00  0.00    -0.290 A  
HETATM    7  N   UNL     1      -9.050  11.325  67.373  1.00  0.00    -0.150 NA 
HETATM    8  H   UNL     1      -5.269  11.971  70.813  1.00  0.00     0.000 HD 
HETATM    9  C   UNL     1     -11.185  13.550  65.362  1.00  0.00    -0.301 A  
HETATM   10  C   UNL     1      -8.070  11.513  68.344  1.00  0.00    -0.149 A  
HETATM   11  C   UNL     1     -12.654  13.301  65.160  1.00  0.00    -0.512 C  
HETATM   12  C   UNL     1      -6.378  13.086  69.526  1.00  0.00    -0.103 C  
HETATM   13  N   UNL     1      -7.653  10.546  69.101  1.00  0.00    -0.112 N  
HETATM   14  H   UNL     1      -8.055   9.616  68.980  1.00  0.00     0.000 HD 
HETATM   15  N   UNL     1      -7.937  13.945  67.905  1.00  0.00    -0.144 NA 
HETATM   16  C   UNL     1      -6.695  10.732  70.052  1.00  0.00    -0.149 C  
HETATM   17  N   UNL     1      -6.062  11.934  70.172  1.00  0.00    -0.156 N  
HETATM   18  O   UNL     1      -5.837  14.158  69.738  1.00  0.00    -0.100 OA 
HETATM   19  C   UNL     1      -7.492  12.905  68.538  1.00  0.00    -0.123 A  
HETATM   20  O   UNL     1      -6.375   9.834  70.823  1.00  0.00    -0.087 OA 
ENDROOT
BRANCH   7  21
HETATM   21  C   UNL     1     -10.037  10.202  67.543  1.00  0.00    -0.201 C  
BRANCH  21  22
HETATM   22  C   UNL     1     -10.782  10.268  68.894  1.00  0.00    -0.227 C  
HETATM   23  O   UNL     1     -10.538  11.530  69.512  1.00  0.00    -0.439 OA 
HETATM   24  H   UNL     1     -10.997  11.571  70.344  1.00  0.00     0.000 HD 
BRANCH  22  25
HETATM   25  C   UNL     1     -10.461   9.117  69.877  1.00  0.00    -0.223 C  
HETATM   26  O   UNL     1     -11.320   7.995  69.582  1.00  0.00    -0.453 OA 
HETATM   27  H   UNL     1     -11.122   7.288  70.185  1.00  0.00     0.000 HD 
BRANCH  25  28
HETATM   28  C   UNL     1     -10.539   9.393  71.398  1.00  0.00    -0.311 C  
HETATM   29  O   UNL     1      -9.232   9.146  71.973  1.00  0.00    -0.339 OA 
HETATM   30  H   UNL     1      -9.279   9.316  72.906  1.00  0.00     0.000 HD 
BRANCH  28  31
HETATM   31  C   UNL     1     -11.565   8.570  72.189  1.00  0.00    -0.377 C  
BRANCH  31  32
HETATM   32  O   UNL     1     -10.832   7.610  72.960  1.00  0.00    -0.353 OA 
HETATM   33  P   UNL     1     -10.802   6.096  72.450  1.00  0.00    -0.273 P  
HETATM   34  O   UNL     1     -12.322   5.609  72.466  1.00  0.00    -0.118 OA 
HETATM   35  O   UNL     1     -10.143   5.257  73.635  1.00  0.00    -0.167 OA 
HETATM   36  O   UNL     1     -10.143   5.845  71.139  1.00  0.00    -0.187 OA 
ENDBRANCH  31  32
ENDBRANCH  28  31
ENDBRANCH  25  28
ENDBRANCH  22  25
ENDBRANCH  21  22
ENDBRANCH   7  21
TORSDOF 6
ENDMDL
MODEL      188
REMARK 921   NORMALIZED FREE ENERGY PREDICTED BY IDOCK:   -3.99 KCAL/MOL
REMARK 922        TOTAL FREE ENERGY PREDICTED BY IDOCK:   -7.73 KCAL/MOL
REMARK 923 INTER-LIGAND FREE ENERGY PREDICTED BY IDOCK:   -6.65 KCAL/MOL
REMARK 924 INTRA-LIGAND FREE ENERGY PREDICTED BY IDOCK:   -1.09 KCAL/MOL
REMARK 927      BINDING AFFINITY PREDICTED BY RF-SCORE:    0.00 PKD
ROOT
HETATM    1  C   UNL     1     -12.185  15.703  70.014  1.00  0.00    -0.351 C  
HETATM    2  C   UNL     1     -12.134  14.228  69.735  1.00  0.00    -0.401 A  
HETATM    3  C   UNL     1     -11.632  13.760  68.522  1.00  0.00    -0.373 A  
HETATM    4  C   UNL     1     -11.478  12.385  68.300  1.00  0.00    -0.310 A  
HETATM    5  C   UNL     1     -11.950  11.441  69.243  1.00  0.00    -0.332 A  
HETATM    6  C   UNL     1     -12.657  11.926  70.331  1.00  0.00    -0.153 A  
HETATM    7  N   UNL     1     -11.630  10.067  69.117  1.00  0.00    -0.036 NA 
HETATM    8  H   UNL     1      -9.118   8.629  64.854  1.00  0.00     0.000 HD 
HETATM    9  C   UNL     1     -12.534  13.274  70.681  1.00  0.00    -0.373 A  
HETATM   10  C   UNL     1     -10.899   9.690  67.993  1.00  0.00    -0.196 A  
HETATM   11  C   UNL     1     -12.436  13.511  72.163  1.00  0.00     0.014 C  
HETATM   12  C   UNL     1      -9.827  10.327  65.717  1.00  0.00    -0.257 C  
HETATM   13  N   UNL     1     -10.497   8.471  67.807  1.00  0.00    -0.337 N  
HETATM   14  H   UNL     1     -10.724   7.765  68.506  1.00  0.00     0.000 HD 
HETATM   15  N   UNL     1     -10.803  12.010  67.135  1.00  0.00    -0.242 NA 
HETATM   16  C   UNL     1      -9.780   8.105  66.707  1.00  0.00    -0.235 C  
HETATM   17  N   UNL     1      -9.547   8.998  65.703  1.00  0.00    -0.223 N  
HETATM   18  O   UNL     1      -9.513  11.100  64.827  1.00  0.00    -0.220 OA 
HETATM   19  C   UNL     1     -10.540  10.752  66.966  1.00  0.00    -0.260 A  
HETATM   20  O   UNL     1      -9.326   6.973  66.586  1.00  0.00    -0.154 OA 
ENDROOT
BRANCH   7  21
HETATM   21  C   UNL     1     -11.487   9.262  70.380  1.00  0.00    -0.213 C  
BRANCH  21  22
HETATM   22  C   UNL     1     -10.084   9.390  71.010  1.00  0.00    -0.283 C  
HETATM   23  O   UNL     1      -9.310  10.328  70.263  1.00  0.00    -0.345 OA 
HETATM   24  H   UNL     1      -8.446  10.407  70.650  1.00  0.00     0.000 HD 
BRANCH  22  25
HETATM   25  C   UNL     1      -9.311   8.059  71.167  1.00  0.00    -0.149 C  
HETATM   26  O   UNL     1      -9.867   7.084  70.258  1.00  0.00    -0.176 OA 
HETATM   27  H   UNL     1      -9.392   6.267  70.355  1.00  0.00     0.000 HD 
BRANCH  25  28
HETATM   28  C   UNL     1      -9.222   7.410  72.569  1.00  0.00    -0.142 C  
HETATM   29  O   UNL     1      -8.683   8.391  73.491  1.00  0.00    -0.277 OA 
HETATM   30  H   UNL     1      -8.629   7.993  74.352  1.00  0.00     0.000 HD 
BRANCH  28  31
HETATM   31  C   UNL     1      -8.369   6.140  72.680  1.00  0.00    -0.121 C  
BRANCH  31  32
HETATM   32  O   UNL     1      -9.193   5.041  72.268  1.00  0.00    -0.133 OA 
HETATM   33  P   UNL     1      -8.560   3.946  71.293  1.00  0.00    -0.088 P  
HETATM   34  O   UNL     1      -8.171   4.732  69.959  1.00  0.00    -0.068 OA 
HETATM   35  O   UNL     1      -9.779   3.029  70.828  1.00  0.00    -0.162 OA 
HETATM   36  O   UNL     1      -7.422   3.151  71.830  1.00  0.00    -0.049 OA 
ENDBRANCH  31  32
ENDBRANCH  28  31
ENDBRANCH  25  28
ENDBRANCH  22  25
ENDBRANCH  21  22
ENDBRANCH   7  21
TORSDOF 6
ENDMDL
MODEL      189
REMARK 921   NORMALIZED FREE ENERGY PREDICTED BY IDOCK:   -3.93 KCAL/MOL
REMARK 922        TOTAL FREE ENERGY PREDICTED BY IDOCK:   -7.65 KCAL/MOL
REMARK 923 INTER-LIGAND FREE ENERGY PREDICTED BY IDOCK:   -6.83 KCAL/MOL
REMARK 924 INTRA-LIGAND FREE ENERGY PREDICTED BY IDOCK:   -0.82 KCAL/MOL
REMARK 927      BINDING AFFINITY PREDICTED BY RF-SCORE:    0.00 PKD
ROOT
HETATM    1  C   UNL     1     -11.879  16.213  72.074  1.00  0.00    -0.615 C  
HETATM    2  C   UNL     1     -11.686  15.174  71.006  1.00  0.00    -0.385 A  
HETATM    3  C   UNL     1     -10.542  15.187  70.211  1.00  0.00    -0.195 A  
HETATM    4  C   UNL     1     -10.304  14.158  69.290  1.00  0.00    -0.008 A  
HETATM    5  C   UNL     1     -11.279  13.160  69.052  1.00  0.00    -0.258 A  
HETATM    6  C   UNL     1     -12.505  13.303  69.681  1.00  0.00    -0.019 A  
HETATM    7  N   UNL     1     -10.973  12.018  68.270  1.00  0.00    -0.219 NA 
HETATM    8  H   UNL     1      -6.363  11.925  65.969  1.00  0.00     0.000 HD 
HETATM    9  C   UNL     1     -12.607  14.138  70.797  1.00  0.00    -0.432 A  
HETATM   10  C   UNL     1      -9.704  11.968  67.698  1.00  0.00    -0.187 A  
HETATM   11  C   UNL     1     -13.458  13.574  71.902  1.00  0.00    -0.528 C  
HETATM   12  C   UNL     1      -7.430  13.122  67.217  1.00  0.00    -0.064 C  
HETATM   13  N   UNL     1      -9.294  10.944  67.017  1.00  0.00    -0.163 N  
HETATM   14  H   UNL     1      -9.921  10.149  66.895  1.00  0.00     0.000 HD 
HETATM   15  N   UNL     1      -9.053  14.150  68.668  1.00  0.00    -0.174 NA 
HETATM   16  C   UNL     1      -8.051  10.896  66.459  1.00  0.00    -0.154 C  
HETATM   17  N   UNL     1      -7.225  11.979  66.513  1.00  0.00     0.153 N  
HETATM   18  O   UNL     1      -6.615  14.025  67.305  1.00  0.00    -0.266 OA 
HETATM   19  C   UNL     1      -8.763  13.144  67.905  1.00  0.00    -0.192 A  
HETATM   20  O   UNL     1      -7.640   9.887  65.896  1.00  0.00    -0.100 OA 
ENDROOT
BRANCH   7  21
HETATM   21  C   UNL     1     -11.668  10.728  68.611  1.00  0.00    -0.219 C  
BRANCH  21  22
HETATM   22  C   UNL     1     -10.857   9.860  69.596  1.00  0.00    -0.253 C  
HETATM   23  O   UNL     1      -9.698  10.576  70.021  1.00  0.00    -0.400 OA 
HETATM   24  H   UNL     1      -9.198  10.041  70.627  1.00  0.00     0.000 HD 
BRANCH  22  25
HETATM   25  C   UNL     1     -10.460   8.462  69.065  1.00  0.00    -0.201 C  
HETATM   26  O   UNL     1     -10.676   8.425  67.637  1.00  0.00    -0.429 OA 
HETATM   27  H   UNL     1     -10.432   7.567  67.311  1.00  0.00     0.000 HD 
BRANCH  25  28
HETATM   28  C   UNL     1     -11.130   7.211  69.683  1.00  0.00    -0.179 C  
HETATM   29  O   UNL     1     -11.541   7.537  71.034  1.00  0.00    -0.274 OA 
HETATM   30  H   UNL     1     -11.953   6.770  71.414  1.00  0.00     0.000 HD 
BRANCH  28  31
HETATM   31  C   UNL     1     -10.276   5.938  69.743  1.00  0.00    -0.218 C  
BRANCH  31  32
HETATM   32  O   UNL     1      -9.298   6.038  68.699  1.00  0.00    -0.118 OA 
HETATM   33  P   UNL     1      -9.516   5.172  67.375  1.00  0.00    -0.148 P  
HETATM   34  O   UNL     1      -9.501   3.649  67.851  1.00  0.00    -0.183 OA 
HETATM   35  O   UNL     1      -8.159   5.303  66.547  1.00  0.00    -0.107 OA 
HETATM   36  O   UNL     1     -10.715   5.495  66.555  1.00  0.00    -0.296 OA 
ENDBRANCH  31  32
ENDBRANCH  28  31
ENDBRANCH  25  28
ENDBRANCH  22  25
ENDBRANCH  21  22
ENDBRANCH   7  21
TORSDOF 6
ENDMDL
MODEL      190
REMARK 921   NORMALIZED FREE ENERGY PREDICTED BY IDOCK:   -3.90 KCAL/MOL
REMARK 922        TOTAL FREE ENERGY PREDICTED BY IDOCK:   -7.61 KCAL/MOL
REMARK 923 INTER-LIGAND FREE ENERGY PREDICTED BY IDOCK:   -6.64 KCAL/MOL
REMARK 924 INTRA-LIGAND FREE ENERGY PREDICTED BY IDOCK:   -0.97 KCAL/MOL
REMARK 927      BINDING AFFINITY PREDICTED BY RF-SCORE:    0.00 PKD
ROOT
HETATM    1  C   UNL     1     -11.927  16.457  72.190  1.00  0.00    -0.479 C  
HETATM    2  C   UNL     1     -12.069  15.432  71.101  1.00  0.00    -0.418 A  
HETATM    3  C   UNL     1     -11.719  15.747  69.789  1.00  0.00    -0.355 A  
HETATM    4  C   UNL     1     -11.743  14.763  68.791  1.00  0.00    -0.323 A  
HETATM    5  C   UNL     1     -12.249  13.469  69.062  1.00  0.00    -0.186 A  
HETATM    6  C   UNL     1     -12.810  13.252  70.309  1.00  0.00     0.087 A  
HETATM    7  N   UNL     1     -12.102  12.421  68.119  1.00  0.00    -0.346 NA 
HETATM    8  H   UNL     1     -10.104  13.659  63.534  1.00  0.00     0.000 HD 
HETATM    9  C   UNL     1     -12.505  14.124  71.358  1.00  0.00    -0.438 A  
HETATM   10  C   UNL     1     -11.506  12.746  66.903  1.00  0.00    -0.340 A  
HETATM   11  C   UNL     1     -12.267  13.434  72.673  1.00  0.00     0.992 C  
HETATM   12  C   UNL     1     -10.543  14.550  65.306  1.00  0.00    -0.383 C  
HETATM   13  N   UNL     1     -11.264  11.855  65.993  1.00  0.00    -0.329 N  
HETATM   14  H   UNL     1     -11.519  10.883  66.173  1.00  0.00     0.000 HD 
HETATM   15  N   UNL     1     -11.206  15.116  67.551  1.00  0.00    -0.327 NA 
HETATM   16  C   UNL     1     -10.681  12.175  64.803  1.00  0.00    -0.301 C  
HETATM   17  N   UNL     1     -10.422  13.475  64.485  1.00  0.00    -0.432 N  
HETATM   18  O   UNL     1     -10.210  15.683  65.000  1.00  0.00    -0.413 OA 
HETATM   19  C   UNL     1     -11.105  14.190  66.649  1.00  0.00    -0.312 A  
HETATM   20  O   UNL     1     -10.372  11.311  63.989  1.00  0.00    -0.309 OA 
ENDROOT
BRANCH   7  21
HETATM   21  C   UNL     1     -11.958  11.019  68.648  1.00  0.00    -0.177 C  
BRANCH  21  22
HETATM   22  C   UNL     1     -10.540  10.730  69.184  1.00  0.00    -0.222 C  
HETATM   23  O   UNL     1      -9.825  11.956  69.328  1.00  0.00    -0.397 OA 
HETATM   24  H   UNL     1      -8.952  11.778  69.658  1.00  0.00     0.000 HD 
BRANCH  22  25
HETATM   25  C   UNL     1      -9.716   9.722  68.347  1.00  0.00    -0.149 C  
HETATM   26  O   UNL     1      -8.849  10.453  67.454  1.00  0.00    -0.132 OA 
HETATM   27  H   UNL     1      -8.343   9.835  66.941  1.00  0.00     0.000 HD 
BRANCH  25  28
HETATM   28  C   UNL     1     -10.467   8.653  67.517  1.00  0.00    -0.266 C  
HETATM   29  O   UNL     1     -10.423   7.400  68.244  1.00  0.00    -0.197 OA 
HETATM   30  H   UNL     1     -10.884   6.744  67.735  1.00  0.00     0.000 HD 
BRANCH  28  31
HETATM   31  C   UNL     1      -9.939   8.395  66.099  1.00  0.00    -0.042 C  
BRANCH  31  32
HETATM   32  O   UNL     1      -8.622   7.845  66.234  1.00  0.00    -0.133 OA 
HETATM   33  P   UNL     1      -7.606   8.014  65.013  1.00  0.00    -0.119 P  
HETATM   34  O   UNL     1      -8.281   7.252  63.783  1.00  0.00    -0.055 OA 
HETATM   35  O   UNL     1      -6.354   7.091  65.365  1.00  0.00    -0.038 OA 
HETATM   36  O   UNL     1      -7.206   9.405  64.664  1.00  0.00    -0.098 OA 
ENDBRANCH  31  32
ENDBRANCH  28  31
ENDBRANCH  25  28
ENDBRANCH  22  25
ENDBRANCH  21  22
ENDBRANCH   7  21
TORSDOF 6
ENDMDL
MODEL      191
REMARK 921   NORMALIZED FREE ENERGY PREDICTED BY IDOCK:   -3.90 KCAL/MOL
REMARK 922        TOTAL FREE ENERGY PREDICTED BY IDOCK:   -7.61 KCAL/MOL
REMARK 923 INTER-LIGAND FREE ENERGY PREDICTED BY IDOCK:   -6.17 KCAL/MOL
REMARK 924 INTRA-LIGAND FREE ENERGY PREDICTED BY IDOCK:   -1.44 KCAL/MOL
REMARK 927      BINDING AFFINITY PREDICTED BY RF-SCORE:    0.00 PKD
ROOT
HETATM    1  C   UNL     1     -10.893   7.472  73.068  1.00  0.00    -0.445 C  
HETATM    2  C   UNL     1     -10.926   7.533  71.568  1.00  0.00    -0.256 A  
HETATM    3  C   UNL     1     -10.900   8.763  70.914  1.00  0.00    -0.293 A  
HETATM    4  C   UNL     1     -10.818   8.823  69.516  1.00  0.00    -0.142 A  
HETATM    5  C   UNL     1     -10.895   7.645  68.734  1.00  0.00     0.009 A  
HETATM    6  C   UNL     1     -11.159   6.457  69.396  1.00  0.00    -0.450 A  
HETATM    7  N   UNL     1     -10.623   7.678  67.344  1.00  0.00    -0.289 NA 
HETATM    8  H   UNL     1      -9.837  12.307  65.220  1.00  0.00     0.000 HD 
HETATM    9  C   UNL     1     -10.936   6.378  70.774  1.00  0.00    -0.346 A  
HETATM   10  C   UNL     1     -10.352   8.924  66.783  1.00  0.00    -0.247 A  
HETATM   11  C   UNL     1     -10.302   5.086  71.213  1.00  0.00    -0.255 C  
HETATM   12  C   UNL     1     -10.203  11.501  67.049  1.00  0.00    -0.214 C  
HETATM   13  N   UNL     1     -10.028   9.065  65.536  1.00  0.00    -0.364 N  
HETATM   14  H   UNL     1      -9.971   8.235  64.944  1.00  0.00     0.000 HD 
HETATM   15  N   UNL     1     -10.613  10.086  68.954  1.00  0.00    -0.209 NA 
HETATM   16  C   UNL     1      -9.762  10.285  64.990  1.00  0.00    -0.305 C  
HETATM   17  N   UNL     1      -9.928  11.423  65.721  1.00  0.00    -0.220 N  
HETATM   18  O   UNL     1     -10.251  12.546  67.676  1.00  0.00    -0.213 OA 
HETATM   19  C   UNL     1     -10.412  10.154  67.675  1.00  0.00    -0.245 A  
HETATM   20  O   UNL     1      -9.367  10.397  63.834  1.00  0.00    -0.232 OA 
ENDROOT
BRANCH   7  21
HETATM   21  C   UNL     1     -10.013   6.452  66.720  1.00  0.00    -0.171 C  
BRANCH  21  22
HETATM   22  C   UNL     1      -8.507   6.622  66.429  1.00  0.00    -0.125 C  
HETATM   23  O   UNL     1      -8.226   6.188  65.099  1.00  0.00    -0.134 OA 
HETATM   24  H   UNL     1      -7.298   6.293  64.920  1.00  0.00     0.000 HD 
BRANCH  22  25
HETATM   25  C   UNL     1      -7.562   5.920  67.434  1.00  0.00    -0.096 C  
HETATM   26  O   UNL     1      -8.252   4.794  68.018  1.00  0.00    -0.095 OA 
HETATM   27  H   UNL     1      -7.671   4.363  68.634  1.00  0.00     0.000 HD 
BRANCH  25  28
HETATM   28  C   UNL     1      -6.945   6.753  68.584  1.00  0.00    -0.080 C  
HETATM   29  O   UNL     1      -5.509   6.794  68.396  1.00  0.00    -0.015 OA 
HETATM   30  H   UNL     1      -5.130   7.305  69.101  1.00  0.00     0.000 HD 
BRANCH  28  31
HETATM   31  C   UNL     1      -7.222   6.258  70.009  1.00  0.00    -0.077 C  
BRANCH  31  32
HETATM   32  O   UNL     1      -7.618   7.398  70.782  1.00  0.00    -0.081 OA 
HETATM   33  P   UNL     1      -6.994   7.575  72.242  1.00  0.00    -0.070 P  
HETATM   34  O   UNL     1      -7.467   6.294  73.069  1.00  0.00    -0.094 OA 
HETATM   35  O   UNL     1      -7.815   8.763  72.919  1.00  0.00    -0.381 OA 
HETATM   36  O   UNL     1      -5.523   7.784  72.319  1.00  0.00    -0.036 OA 
ENDBRANCH  31  32
ENDBRANCH  28  31
ENDBRANCH  25  28
ENDBRANCH  22  25
ENDBRANCH  21  22
ENDBRANCH   7  21
TORSDOF 6
ENDMDL
MODEL      192
REMARK 921   NORMALIZED FREE ENERGY PREDICTED BY IDOCK:   -3.86 KCAL/MOL
REMARK 922        TOTAL FREE ENERGY PREDICTED BY IDOCK:   -7.56 KCAL/MOL
REMARK 923 INTER-LIGAND FREE ENERGY PREDICTED BY IDOCK:   -6.89 KCAL/MOL
REMARK 924 INTRA-LIGAND FREE ENERGY PREDICTED BY IDOCK:   -0.67 KCAL/MOL
REMARK 927      BINDING AFFINITY PREDICTED BY RF-SCORE:    0.00 PKD
ROOT
HETATM    1  C   UNL     1     -12.981   9.056  72.269  1.00  0.00    -0.490 C  
HETATM    2  C   UNL     1     -12.180   9.802  71.240  1.00  0.00    -0.465 A  
HETATM    3  C   UNL     1     -12.494  11.124  70.929  1.00  0.00    -0.509 A  
HETATM    4  C   UNL     1     -11.683  11.860  70.054  1.00  0.00    -0.286 A  
HETATM    5  C   UNL     1     -10.612  11.241  69.366  1.00  0.00    -0.099 A  
HETATM    6  C   UNL     1     -10.467   9.871  69.512  1.00  0.00    -0.261 A  
HETATM    7  N   UNL     1      -9.678  12.015  68.633  1.00  0.00    -0.148 NA 
HETATM    8  H   UNL     1     -10.643  17.057  68.195  1.00  0.00     0.000 HD 
HETATM    9  C   UNL     1     -11.074   9.231  70.595  1.00  0.00    -0.335 A  
HETATM   10  C   UNL     1      -9.909  13.387  68.567  1.00  0.00    -0.178 A  
HETATM   11  C   UNL     1     -10.213   8.180  71.241  1.00  0.00    -0.240 C  
HETATM   12  C   UNL     1     -11.442  15.415  69.085  1.00  0.00    -0.333 C  
HETATM   13  N   UNL     1      -9.087  14.198  67.977  1.00  0.00    -0.183 N  
HETATM   14  H   UNL     1      -8.243  13.819  67.547  1.00  0.00     0.000 HD 
HETATM   15  N   UNL     1     -11.962  13.224  69.939  1.00  0.00    -0.334 NA 
HETATM   16  C   UNL     1      -9.314  15.540  67.914  1.00  0.00    -0.192 C  
HETATM   17  N   UNL     1     -10.479  16.069  68.386  1.00  0.00    -0.252 N  
HETATM   18  O   UNL     1     -12.424  15.956  69.565  1.00  0.00    -0.150 OA 
HETATM   19  C   UNL     1     -11.154  13.950  69.232  1.00  0.00    -0.218 A  
HETATM   20  O   UNL     1      -8.486  16.308  67.436  1.00  0.00    -0.165 OA 
ENDROOT
BRANCH   7  21
HETATM   21  C   UNL     1      -8.262  11.511  68.552  1.00  0.00    -0.148 C  
BRANCH  21  22
HETATM   22  C   UNL     1      -7.592  11.841  67.201  1.00  0.00    -0.155 C  
HETATM   23  O   UNL     1      -8.527  11.638  66.142  1.00  0.00    -0.334 OA 
HETATM   24  H   UNL     1      -8.114  11.841  65.311  1.00  0.00     0.000 HD 
BRANCH  22  25
HETATM   25  C   UNL     1      -6.281  11.072  66.914  1.00  0.00    -0.093 C  
HETATM   26  O   UNL     1      -5.818  11.411  65.589  1.00  0.00    -0.483 OA 
HETATM   27  H   UNL     1      -5.013  10.939  65.414  1.00  0.00     0.000 HD 
BRANCH  25  28
HETATM   28  C   UNL     1      -6.278   9.529  67.042  1.00  0.00    -0.065 C  
HETATM   29  O   UNL     1      -5.205   9.148  67.938  1.00  0.00    -0.034 OA 
HETATM   30  H   UNL     1      -5.204   8.201  68.017  1.00  0.00     0.000 HD 
BRANCH  28  31
HETATM   31  C   UNL     1      -6.109   8.737  65.739  1.00  0.00    -0.052 C  
BRANCH  31  32
HETATM   32  O   UNL     1      -6.852   9.428  64.726  1.00  0.00    -0.088 OA 
HETATM   33  P   UNL     1      -8.270   8.833  64.292  1.00  0.00    -0.115 P  
HETATM   34  O   UNL     1      -7.965   7.381  63.704  1.00  0.00    -0.128 OA 
HETATM   35  O   UNL     1      -8.705   9.660  63.000  1.00  0.00    -0.194 OA 
HETATM   36  O   UNL     1      -9.331   8.808  65.335  1.00  0.00    -0.159 OA 
ENDBRANCH  31  32
ENDBRANCH  28  31
ENDBRANCH  25  28
ENDBRANCH  22  25
ENDBRANCH  21  22
ENDBRANCH   7  21
TORSDOF 6
ENDMDL
MODEL      193
REMARK 921   NORMALIZED FREE ENERGY PREDICTED BY IDOCK:   -3.86 KCAL/MOL
REMARK 922        TOTAL FREE ENERGY PREDICTED BY IDOCK:   -7.56 KCAL/MOL
REMARK 923 INTER-LIGAND FREE ENERGY PREDICTED BY IDOCK:   -5.74 KCAL/MOL
REMARK 924 INTRA-LIGAND FREE ENERGY PREDICTED BY IDOCK:   -1.81 KCAL/MOL
REMARK 927      BINDING AFFINITY PREDICTED BY RF-SCORE:    0.00 PKD
ROOT
HETATM    1  C   UNL     1      -6.427   9.390  63.195  1.00  0.00    -0.092 C  
HETATM    2  C   UNL     1      -7.130   8.900  64.429  1.00  0.00    -0.089 A  
HETATM    3  C   UNL     1      -7.648   7.607  64.475  1.00  0.00    -0.112 A  
HETATM    4  C   UNL     1      -8.206   7.108  65.660  1.00  0.00    -0.138 A  
HETATM    5  C   UNL     1      -8.377   7.944  66.789  1.00  0.00    -0.120 A  
HETATM    6  C   UNL     1      -8.071   9.287  66.641  1.00  0.00    -0.108 A  
HETATM    7  N   UNL     1      -8.760   7.402  68.042  1.00  0.00    -0.125 NA 
HETATM    8  H   UNL     1      -9.961   2.393  68.159  1.00  0.00     0.000 HD 
HETATM    9  C   UNL     1      -7.252   9.688  65.582  1.00  0.00    -0.097 A  
HETATM   10  C   UNL     1      -9.026   6.036  68.083  1.00  0.00    -0.112 A  
HETATM   11  C   UNL     1      -6.239  10.734  65.960  1.00  0.00    -0.134 C  
HETATM   12  C   UNL     1      -9.308   3.783  66.828  1.00  0.00    -0.190 C  
HETATM   13  N   UNL     1      -9.323   5.423  69.187  1.00  0.00    -0.116 N  
HETATM   14  H   UNL     1      -9.364   5.960  70.053  1.00  0.00     0.000 HD 
HETATM   15  N   UNL     1      -8.535   5.750  65.674  1.00  0.00    -0.144 NA 
HETATM   16  C   UNL     1      -9.582   4.086  69.225  1.00  0.00    -0.177 C  
HETATM   17  N   UNL     1      -9.638   3.357  68.074  1.00  0.00    -0.152 N  
HETATM   18  O   UNL     1      -9.287   3.062  65.843  1.00  0.00    -0.147 OA 
HETATM   19  C   UNL     1      -8.938   5.236  66.794  1.00  0.00    -0.111 A  
HETATM   20  O   UNL     1      -9.770   3.500  70.286  1.00  0.00    -0.183 OA 
ENDROOT
BRANCH   7  21
HETATM   21  C   UNL     1      -8.251   8.082  69.284  1.00  0.00    -0.127 C  
BRANCH  21  22
HETATM   22  C   UNL     1      -9.321   8.968  69.956  1.00  0.00    -0.183 C  
HETATM   23  O   UNL     1      -9.157   8.922  71.373  1.00  0.00    -0.227 OA 
HETATM   24  H   UNL     1      -9.817   9.467  71.787  1.00  0.00     0.000 HD 
BRANCH  22  25
HETATM   25  C   UNL     1     -10.782   8.635  69.573  1.00  0.00    -0.182 C  
HETATM   26  O   UNL     1     -11.146   9.399  68.402  1.00  0.00    -0.463 OA 
HETATM   27  H   UNL     1     -12.043   9.194  68.167  1.00  0.00     0.000 HD 
BRANCH  25  28
HETATM   28  C   UNL     1     -11.893   8.828  70.634  1.00  0.00    -0.112 C  
HETATM   29  O   UNL     1     -11.433   9.804  71.602  1.00  0.00    -0.364 OA 
HETATM   30  H   UNL     1     -12.115   9.923  72.253  1.00  0.00     0.000 HD 
BRANCH  28  31
HETATM   31  C   UNL     1     -12.332   7.573  71.399  1.00  0.00    -0.345 C  
BRANCH  31  32
HETATM   32  O   UNL     1     -11.632   7.577  72.651  1.00  0.00    -0.317 OA 
HETATM   33  P   UNL     1     -10.691   6.332  72.994  1.00  0.00    -0.252 P  
HETATM   34  O   UNL     1     -11.658   5.062  73.031  1.00  0.00    -0.312 OA 
HETATM   35  O   UNL     1     -10.278   6.514  74.523  1.00  0.00    -0.358 OA 
HETATM   36  O   UNL     1      -9.515   6.119  72.108  1.00  0.00    -0.152 OA 
ENDBRANCH  31  32
ENDBRANCH  28  31
ENDBRANCH  25  28
ENDBRANCH  22  25
ENDBRANCH  21  22
ENDBRANCH   7  21
TORSDOF 6
ENDMDL
MODEL      194
REMARK 921   NORMALIZED FREE ENERGY PREDICTED BY IDOCK:   -3.85 KCAL/MOL
REMARK 922        TOTAL FREE ENERGY PREDICTED BY IDOCK:   -7.55 KCAL/MOL
REMARK 923 INTER-LIGAND FREE ENERGY PREDICTED BY IDOCK:   -7.12 KCAL/MOL
REMARK 924 INTRA-LIGAND FREE ENERGY PREDICTED BY IDOCK:   -0.43 KCAL/MOL
REMARK 927      BINDING AFFINITY PREDICTED BY RF-SCORE:    0.00 PKD
ROOT
HETATM    1  C   UNL     1     -11.933  16.198  72.201  1.00  0.00    -0.623 C  
HETATM    2  C   UNL     1     -11.715  15.183  71.116  1.00  0.00    -0.400 A  
HETATM    3  C   UNL     1     -10.547  15.206  70.357  1.00  0.00    -0.166 A  
HETATM    4  C   UNL     1     -10.288  14.197  69.419  1.00  0.00     0.081 A  
HETATM    5  C   UNL     1     -11.262  13.212  69.128  1.00  0.00    -0.247 A  
HETATM    6  C   UNL     1     -12.505  13.349  69.723  1.00  0.00    -0.112 A  
HETATM    7  N   UNL     1     -10.939  12.087  68.329  1.00  0.00    -0.219 NA 
HETATM    8  H   UNL     1      -6.263  12.012  66.167  1.00  0.00     0.000 HD 
HETATM    9  C   UNL     1     -12.636  14.159  70.855  1.00  0.00    -0.433 A  
HETATM   10  C   UNL     1      -9.654  12.040  67.795  1.00  0.00    -0.193 A  
HETATM   11  C   UNL     1     -13.524  13.576  71.920  1.00  0.00    -0.528 C  
HETATM   12  C   UNL     1      -7.359  13.188  67.410  1.00  0.00    -0.111 C  
HETATM   13  N   UNL     1      -9.230  11.029  67.103  1.00  0.00    -0.152 N  
HETATM   14  H   UNL     1      -9.859  10.242  66.943  1.00  0.00     0.000 HD 
HETATM   15  N   UNL     1      -9.019  14.194  68.835  1.00  0.00    -0.054 NA 
HETATM   16  C   UNL     1      -7.972  10.985  66.581  1.00  0.00    -0.156 C  
HETATM   17  N   UNL     1      -7.140  12.060  66.686  1.00  0.00     0.053 N  
HETATM   18  O   UNL     1      -6.541  14.082  67.545  1.00  0.00    -0.219 OA 
HETATM   19  C   UNL     1      -8.712  13.203  68.058  1.00  0.00    -0.190 A  
HETATM   20  O   UNL     1      -7.551   9.986  66.008  1.00  0.00    -0.102 OA 
ENDROOT
BRANCH   7  21
HETATM   21  C   UNL     1     -11.654  10.794  68.619  1.00  0.00    -0.272 C  
BRANCH  21  22
HETATM   22  C   UNL     1     -10.953   9.961  69.713  1.00  0.00    -0.268 C  
HETATM   23  O   UNL     1      -9.813  10.671  70.196  1.00  0.00    -0.333 OA 
HETATM   24  H   UNL     1      -9.381  10.158  70.870  1.00  0.00     0.000 HD 
BRANCH  22  25
HETATM   25  C   UNL     1     -10.553   8.528  69.291  1.00  0.00    -0.181 C  
HETATM   26  O   UNL     1     -10.867   8.346  67.893  1.00  0.00    -0.463 OA 
HETATM   27  H   UNL     1     -10.621   7.466  67.634  1.00  0.00     0.000 HD 
BRANCH  25  28
HETATM   28  C   UNL     1     -11.142   7.329  70.073  1.00  0.00    -0.240 C  
HETATM   29  O   UNL     1     -12.379   7.756  70.697  1.00  0.00    -0.510 OA 
HETATM   30  H   UNL     1     -12.740   7.020  71.177  1.00  0.00     0.000 HD 
BRANCH  28  31
HETATM   31  C   UNL     1     -10.249   6.720  71.163  1.00  0.00    -0.193 C  
BRANCH  31  32
HETATM   32  O   UNL     1     -10.237   5.302  70.953  1.00  0.00    -0.211 OA 
HETATM   33  P   UNL     1     -10.053   4.352  72.225  1.00  0.00    -0.166 P  
HETATM   34  O   UNL     1      -8.625   4.722  72.833  1.00  0.00    -0.110 OA 
HETATM   35  O   UNL     1      -9.825   2.887  71.637  1.00  0.00    -0.156 OA 
HETATM   36  O   UNL     1     -11.131   4.393  73.250  1.00  0.00    -0.251 OA 
ENDBRANCH  31  32
ENDBRANCH  28  31
ENDBRANCH  25  28
ENDBRANCH  22  25
ENDBRANCH  21  22
ENDBRANCH   7  21
TORSDOF 6
ENDMDL
MODEL      195
REMARK 921   NORMALIZED FREE ENERGY PREDICTED BY IDOCK:   -3.85 KCAL/MOL
REMARK 922        TOTAL FREE ENERGY PREDICTED BY IDOCK:   -7.54 KCAL/MOL
REMARK 923 INTER-LIGAND FREE ENERGY PREDICTED BY IDOCK:   -7.10 KCAL/MOL
REMARK 924 INTRA-LIGAND FREE ENERGY PREDICTED BY IDOCK:   -0.44 KCAL/MOL
REMARK 927      BINDING AFFINITY PREDICTED BY RF-SCORE:    0.00 PKD
ROOT
HETATM    1  C   UNL     1     -11.589   5.720  72.688  1.00  0.00    -0.304 C  
HETATM    2  C   UNL     1     -10.758   6.101  71.496  1.00  0.00    -0.303 A  
HETATM    3  C   UNL     1     -10.458   5.154  70.518  1.00  0.00    -0.278 A  
HETATM    4  C   UNL     1      -9.778   5.530  69.351  1.00  0.00    -0.160 A  
HETATM    5  C   UNL     1      -9.266   6.841  69.201  1.00  0.00    -0.137 A  
HETATM    6  C   UNL     1      -9.371   7.695  70.287  1.00  0.00    -0.157 A  
HETATM    7  N   UNL     1      -8.750   7.280  67.956  1.00  0.00    -0.127 NA 
HETATM    8  H   UNL     1      -8.382   3.768  64.204  1.00  0.00     0.000 HD 
HETATM    9  C   UNL     1     -10.296   7.409  71.294  1.00  0.00    -0.203 A  
HETATM   10  C   UNL     1      -8.707   6.344  66.926  1.00  0.00    -0.115 A  
HETATM   11  C   UNL     1     -11.036   8.617  71.800  1.00  0.00    -0.396 C  
HETATM   12  C   UNL     1      -9.035   3.898  66.123  1.00  0.00    -0.130 C  
HETATM   13  N   UNL     1      -8.314   6.652  65.729  1.00  0.00    -0.138 N  
HETATM   14  H   UNL     1      -8.025   7.611  65.536  1.00  0.00     0.000 HD 
HETATM   15  N   UNL     1      -9.679   4.564  68.346  1.00  0.00    -0.144 NA 
HETATM   16  C   UNL     1      -8.273   5.734  64.722  1.00  0.00    -0.135 C  
HETATM   17  N   UNL     1      -8.553   4.423  64.967  1.00  0.00    -0.123 N  
HETATM   18  O   UNL     1      -9.356   2.729  66.261  1.00  0.00    -0.111 OA 
HETATM   19  C   UNL     1      -9.163   4.922  67.212  1.00  0.00    -0.124 A  
HETATM   20  O   UNL     1      -7.989   6.056  63.573  1.00  0.00    -0.111 OA 
ENDROOT
BRANCH   7  21
HETATM   21  C   UNL     1      -8.901   8.736  67.610  1.00  0.00    -0.135 C  
BRANCH  21  22
HETATM   22  C   UNL     1     -10.325   9.087  67.128  1.00  0.00    -0.272 C  
HETATM   23  O   UNL     1     -11.145   7.920  67.176  1.00  0.00    -0.475 OA 
HETATM   24  H   UNL     1     -12.022   8.136  66.880  1.00  0.00     0.000 HD 
BRANCH  22  25
HETATM   25  C   UNL     1     -10.401   9.740  65.728  1.00  0.00    -0.031 C  
HETATM   26  O   UNL     1      -9.419   9.123  64.868  1.00  0.00    -0.453 OA 
HETATM   27  H   UNL     1      -9.466   9.524  64.009  1.00  0.00     0.000 HD 
BRANCH  25  28
HETATM   28  C   UNL     1     -10.242  11.275  65.612  1.00  0.00    -0.253 C  
HETATM   29  O   UNL     1      -9.088  11.673  66.393  1.00  0.00    -0.198 OA 
HETATM   30  H   UNL     1      -8.989  12.615  66.322  1.00  0.00     0.000 HD 
BRANCH  28  31
HETATM   31  C   UNL     1     -11.437  12.122  66.070  1.00  0.00    -0.370 C  
BRANCH  31  32
HETATM   32  O   UNL     1     -11.828  11.635  67.361  1.00  0.00    -0.603 OA 
HETATM   33  P   UNL     1     -11.603  12.585  68.626  1.00  0.00    -0.333 P  
HETATM   34  O   UNL     1     -10.028  12.830  68.704  1.00  0.00    -0.190 OA 
HETATM   35  O   UNL     1     -11.890  11.674  69.903  1.00  0.00    -0.312 OA 
HETATM   36  O   UNL     1     -12.374  13.858  68.651  1.00  0.00    -0.278 OA 
ENDBRANCH  31  32
ENDBRANCH  28  31
ENDBRANCH  25  28
ENDBRANCH  22  25
ENDBRANCH  21  22
ENDBRANCH   7  21
TORSDOF 6
ENDMDL
MODEL      196
REMARK 921   NORMALIZED FREE ENERGY PREDICTED BY IDOCK:   -3.85 KCAL/MOL
REMARK 922        TOTAL FREE ENERGY PREDICTED BY IDOCK:   -7.54 KCAL/MOL
REMARK 923 INTER-LIGAND FREE ENERGY PREDICTED BY IDOCK:   -7.05 KCAL/MOL
REMARK 924 INTRA-LIGAND FREE ENERGY PREDICTED BY IDOCK:   -0.49 KCAL/MOL
REMARK 927      BINDING AFFINITY PREDICTED BY RF-SCORE:    0.00 PKD
ROOT
HETATM    1  C   UNL     1     -11.366   5.558  72.879  1.00  0.00    -0.348 C  
HETATM    2  C   UNL     1     -11.034   6.866  72.220  1.00  0.00    -0.275 A  
HETATM    3  C   UNL     1      -9.709   7.286  72.119  1.00  0.00    -0.177 A  
HETATM    4  C   UNL     1      -9.384   8.449  71.409  1.00  0.00    -0.190 A  
HETATM    5  C   UNL     1     -10.399   9.292  70.895  1.00  0.00    -0.296 A  
HETATM    6  C   UNL     1     -11.710   8.977  71.212  1.00  0.00    -0.382 A  
HETATM    7  N   UNL     1     -10.081  10.359  70.018  1.00  0.00    -0.126 NA 
HETATM    8  H   UNL     1      -5.084  11.311  69.202  1.00  0.00     0.000 HD 
HETATM    9  C   UNL     1     -12.017   7.684  71.646  1.00  0.00    -0.329 A  
HETATM   10  C   UNL     1      -8.732  10.576  69.752  1.00  0.00     0.166 A  
HETATM   11  C   UNL     1     -13.291   7.134  71.063  1.00  0.00    -0.130 C  
HETATM   12  C   UNL     1      -6.247   9.994  70.222  1.00  0.00    -0.094 C  
HETATM   13  N   UNL     1      -8.330  11.483  68.917  1.00  0.00    -0.351 N  
HETATM   14  H   UNL     1      -9.025  12.057  68.439  1.00  0.00     0.000 HD 
HETATM   15  N   UNL     1      -8.025   8.699  71.202  1.00  0.00    -0.125 NA 
HETATM   16  C   UNL     1      -7.008  11.693  68.657  1.00  0.00    -0.088 C  
HETATM   17  N   UNL     1      -6.049  11.017  69.352  1.00  0.00    -0.053 N  
HETATM   18  O   UNL     1      -5.347   9.361  70.748  1.00  0.00    -0.027 OA 
HETATM   19  C   UNL     1      -7.701   9.701  70.446  1.00  0.00    -0.160 A  
HETATM   20  O   UNL     1      -6.643  12.488  67.798  1.00  0.00    -0.091 OA 
ENDROOT
BRANCH   7  21
HETATM   21  C   UNL     1     -11.098  10.734  68.974  1.00  0.00    -0.253 C  
BRANCH  21  22
HETATM   22  C   UNL     1     -10.874   9.996  67.637  1.00  0.00    -0.278 C  
HETATM   23  O   UNL     1      -9.742   9.135  67.750  1.00  0.00    -0.146 OA 
HETATM   24  H   UNL     1      -9.604   8.681  66.927  1.00  0.00     0.000 HD 
BRANCH  22  25
HETATM   25  C   UNL     1     -10.731  10.912  66.398  1.00  0.00    -0.194 C  
HETATM   26  O   UNL     1      -9.328  11.091  66.108  1.00  0.00    -0.179 OA 
HETATM   27  H   UNL     1      -9.240  11.653  65.347  1.00  0.00     0.000 HD 
BRANCH  25  28
HETATM   28  C   UNL     1     -11.397  12.309  66.424  1.00  0.00    -0.354 C  
HETATM   29  O   UNL     1     -12.660  12.224  65.719  1.00  0.00    -0.455 OA 
HETATM   30  H   UNL     1     -13.069  13.081  65.735  1.00  0.00     0.000 HD 
BRANCH  28  31
HETATM   31  C   UNL     1     -10.590  13.461  65.809  1.00  0.00    -0.282 C  
BRANCH  31  32
HETATM   32  O   UNL     1     -10.693  14.574  66.707  1.00  0.00    -0.284 OA 
HETATM   33  P   UNL     1     -10.020  15.957  66.275  1.00  0.00    -0.348 P  
HETATM   34  O   UNL     1      -8.461  15.649  66.129  1.00  0.00    -0.256 OA 
HETATM   35  O   UNL     1     -10.083  16.887  67.569  1.00  0.00    -0.266 OA 
HETATM   36  O   UNL     1     -10.579  16.623  65.068  1.00  0.00    -0.683 OA 
ENDBRANCH  31  32
ENDBRANCH  28  31
ENDBRANCH  25  28
ENDBRANCH  22  25
ENDBRANCH  21  22
ENDBRANCH   7  21
TORSDOF 6
ENDMDL
MODEL      197
REMARK 921   NORMALIZED FREE ENERGY PREDICTED BY IDOCK:   -3.81 KCAL/MOL
REMARK 922        TOTAL FREE ENERGY PREDICTED BY IDOCK:   -7.48 KCAL/MOL
REMARK 923 INTER-LIGAND FREE ENERGY PREDICTED BY IDOCK:   -6.31 KCAL/MOL
REMARK 924 INTRA-LIGAND FREE ENERGY PREDICTED BY IDOCK:   -1.17 KCAL/MOL
REMARK 927      BINDING AFFINITY PREDICTED BY RF-SCORE:    0.00 PKD
ROOT
HETATM    1  C   UNL     1     -13.795   9.029  72.561  1.00  0.00    -0.491 C  
HETATM    2  C   UNL     1     -12.669   9.412  71.643  1.00  0.00    -0.459 A  
HETATM    3  C   UNL     1     -12.704  10.624  70.957  1.00  0.00    -0.512 A  
HETATM    4  C   UNL     1     -11.607  11.037  70.188  1.00  0.00    -0.334 A  
HETATM    5  C   UNL     1     -10.502  10.176  69.982  1.00  0.00    -0.274 A  
HETATM    6  C   UNL     1     -10.596   8.887  70.479  1.00  0.00    -0.262 A  
HETATM    7  N   UNL     1      -9.316  10.653  69.369  1.00  0.00    -0.121 NA 
HETATM    8  H   UNL     1      -9.406  15.458  67.513  1.00  0.00     0.000 HD 
HETATM    9  C   UNL     1     -11.535   8.606  71.476  1.00  0.00    -0.363 A  
HETATM   10  C   UNL     1      -9.323  11.972  68.922  1.00  0.00     0.174 A  
HETATM   11  C   UNL     1     -11.017   7.700  72.560  1.00  0.00    -0.377 C  
HETATM   12  C   UNL     1     -10.626  14.178  68.513  1.00  0.00    -0.252 C  
HETATM   13  N   UNL     1      -8.274  12.531  68.405  1.00  0.00    -0.228 N  
HETATM   14  H   UNL     1      -7.415  11.987  68.321  1.00  0.00     0.000 HD 
HETATM   15  N   UNL     1     -11.649  12.339  69.684  1.00  0.00    -0.295 NA 
HETATM   16  C   UNL     1      -8.283  13.822  67.968  1.00  0.00    -0.164 C  
HETATM   17  N   UNL     1      -9.438  14.546  67.968  1.00  0.00    -0.204 N  
HETATM   18  O   UNL     1     -11.606  14.902  68.567  1.00  0.00    -0.297 OA 
HETATM   19  C   UNL     1     -10.597  12.786  69.072  1.00  0.00    -0.045 A  
HETATM   20  O   UNL     1      -7.261  14.369  67.566  1.00  0.00    -0.175 OA 
ENDROOT
BRANCH   7  21
HETATM   21  C   UNL     1      -8.011  10.037  69.796  1.00  0.00    -0.180 C  
BRANCH  21  22
HETATM   22  C   UNL     1      -7.295   9.305  68.641  1.00  0.00    -0.076 C  
HETATM   23  O   UNL     1      -7.504  10.018  67.423  1.00  0.00    -0.090 OA 
HETATM   24  H   UNL     1      -7.063   9.567  66.712  1.00  0.00     0.000 HD 
BRANCH  22  25
HETATM   25  C   UNL     1      -7.683   7.818  68.467  1.00  0.00    -0.118 C  
HETATM   26  O   UNL     1      -7.584   7.154  69.746  1.00  0.00    -0.098 OA 
HETATM   27  H   UNL     1      -7.823   6.241  69.638  1.00  0.00     0.000 HD 
BRANCH  25  28
HETATM   28  C   UNL     1      -6.918   6.965  67.425  1.00  0.00    -0.079 C  
HETATM   29  O   UNL     1      -5.956   7.819  66.757  1.00  0.00    -0.044 OA 
HETATM   30  H   UNL     1      -5.487   7.296  66.118  1.00  0.00     0.000 HD 
BRANCH  28  31
HETATM   31  C   UNL     1      -7.769   6.278  66.349  1.00  0.00    -0.099 C  
BRANCH  31  32
HETATM   32  O   UNL     1      -9.109   6.766  66.496  1.00  0.00    -0.142 OA 
HETATM   33  P   UNL     1     -10.215   5.770  67.076  1.00  0.00    -0.271 P  
HETATM   34  O   UNL     1     -10.295   4.564  66.035  1.00  0.00    -0.267 OA 
HETATM   35  O   UNL     1     -11.611   6.514  66.874  1.00  0.00    -0.019 OA 
HETATM   36  O   UNL     1     -10.021   5.297  68.474  1.00  0.00    -0.149 OA 
ENDBRANCH  31  32
ENDBRANCH  28  31
ENDBRANCH  25  28
ENDBRANCH  22  25
ENDBRANCH  21  22
ENDBRANCH   7  21
TORSDOF 6
ENDMDL
MODEL      198
REMARK 921   NORMALIZED FREE ENERGY PREDICTED BY IDOCK:   -3.80 KCAL/MOL
REMARK 922        TOTAL FREE ENERGY PREDICTED BY IDOCK:   -7.48 KCAL/MOL
REMARK 923 INTER-LIGAND FREE ENERGY PREDICTED BY IDOCK:   -6.28 KCAL/MOL
REMARK 924 INTRA-LIGAND FREE ENERGY PREDICTED BY IDOCK:   -1.20 KCAL/MOL
REMARK 927      BINDING AFFINITY PREDICTED BY RF-SCORE:    0.00 PKD
ROOT
HETATM    1  C   UNL     1     -10.887  15.245  65.815  1.00  0.00    -0.363 C  
HETATM    2  C   UNL     1     -10.826  13.750  65.950  1.00  0.00    -0.283 A  
HETATM    3  C   UNL     1     -10.218  12.980  64.961  1.00  0.00    -0.287 A  
HETATM    4  C   UNL     1     -10.059  11.598  65.134  1.00  0.00    -0.262 A  
HETATM    5  C   UNL     1     -10.630  10.937  66.248  1.00  0.00    -0.214 A  
HETATM    6  C   UNL     1     -11.431  11.687  67.093  1.00  0.00    -0.344 A  
HETATM    7  N   UNL     1     -10.315   9.584  66.528  1.00  0.00    -0.224 NA 
HETATM    8  H   UNL     1      -7.429   7.086  63.068  1.00  0.00     0.000 HD 
HETATM    9  C   UNL     1     -11.326  13.081  67.076  1.00  0.00    -0.343 A  
HETATM   10  C   UNL     1      -9.485   8.928  65.622  1.00  0.00    -0.159 A  
HETATM   11  C   UNL     1     -11.365  13.710  68.442  1.00  0.00    -0.329 C  
HETATM   12  C   UNL     1      -8.196   8.943  63.370  1.00  0.00    -0.181 C  
HETATM   13  N   UNL     1      -9.082   7.711  65.810  1.00  0.00    -0.381 N  
HETATM   14  H   UNL     1      -9.383   7.216  66.650  1.00  0.00     0.000 HD 
HETATM   15  N   UNL     1      -9.281  10.932  64.183  1.00  0.00    -0.206 NA 
HETATM   16  C   UNL     1      -8.269   7.071  64.922  1.00  0.00    -0.074 C  
HETATM   17  N   UNL     1      -7.932   7.663  63.741  1.00  0.00    -0.121 N  
HETATM   18  O   UNL     1      -7.790   9.452  62.339  1.00  0.00    -0.113 OA 
HETATM   19  C   UNL     1      -9.019   9.679  64.385  1.00  0.00    -0.234 A  
HETATM   20  O   UNL     1      -7.819   5.955  65.155  1.00  0.00    -0.094 OA 
ENDROOT
BRANCH   7  21
HETATM   21  C   UNL     1     -10.302   9.151  67.970  1.00  0.00    -0.222 C  
BRANCH  21  22
HETATM   22  C   UNL     1      -9.130   9.767  68.763  1.00  0.00    -0.136 C  
HETATM   23  O   UNL     1      -7.923   9.076  68.442  1.00  0.00    -0.102 OA 
HETATM   24  H   UNL     1      -7.201   9.455  68.930  1.00  0.00     0.000 HD 
BRANCH  22  25
HETATM   25  C   UNL     1      -9.329   9.816  70.296  1.00  0.00    -0.182 C  
HETATM   26  O   UNL     1      -8.044   9.993  70.931  1.00  0.00    -0.331 OA 
HETATM   27  H   UNL     1      -8.168  10.024  71.872  1.00  0.00     0.000 HD 
BRANCH  25  28
HETATM   28  C   UNL     1     -10.048   8.635  70.992  1.00  0.00    -0.215 C  
HETATM   29  O   UNL     1     -10.558   9.101  72.267  1.00  0.00    -0.185 OA 
HETATM   30  H   UNL     1     -11.000   8.376  72.694  1.00  0.00     0.000 HD 
BRANCH  28  31
HETATM   31  C   UNL     1      -9.205   7.380  71.251  1.00  0.00    -0.150 C  
BRANCH  31  32
HETATM   32  O   UNL     1      -8.703   6.940  69.982  1.00  0.00    -0.140 OA 
HETATM   33  P   UNL     1      -8.396   5.384  69.790  1.00  0.00    -0.101 P  
HETATM   34  O   UNL     1      -7.263   5.035  70.859  1.00  0.00    -0.056 OA 
HETATM   35  O   UNL     1      -7.626   5.266  68.399  1.00  0.00    -0.078 OA 
HETATM   36  O   UNL     1      -9.558   4.458  69.877  1.00  0.00    -0.168 OA 
ENDBRANCH  31  32
ENDBRANCH  28  31
ENDBRANCH  25  28
ENDBRANCH  22  25
ENDBRANCH  21  22
ENDBRANCH   7  21
TORSDOF 6
ENDMDL
MODEL      199
REMARK 921   NORMALIZED FREE ENERGY PREDICTED BY IDOCK:   -3.77 KCAL/MOL
REMARK 922        TOTAL FREE ENERGY PREDICTED BY IDOCK:   -7.43 KCAL/MOL
REMARK 923 INTER-LIGAND FREE ENERGY PREDICTED BY IDOCK:   -6.22 KCAL/MOL
REMARK 924 INTRA-LIGAND FREE ENERGY PREDICTED BY IDOCK:   -1.22 KCAL/MOL
REMARK 927      BINDING AFFINITY PREDICTED BY RF-SCORE:    0.00 PKD
ROOT
HETATM    1  C   UNL     1     -10.535   4.570  66.020  1.00  0.00    -0.236 C  
HETATM    2  C   UNL     1      -9.734   5.699  66.602  1.00  0.00    -0.176 A  
HETATM    3  C   UNL     1      -8.705   6.283  65.866  1.00  0.00    -0.154 A  
HETATM    4  C   UNL     1      -8.028   7.407  66.358  1.00  0.00    -0.108 A  
HETATM    5  C   UNL     1      -8.281   7.891  67.664  1.00  0.00    -0.124 A  
HETATM    6  C   UNL     1      -9.136   7.151  68.463  1.00  0.00    -0.132 A  
HETATM    7  N   UNL     1      -7.745   9.130  68.095  1.00  0.00    -0.091 NA 
HETATM    8  H   UNL     1      -4.482  11.511  64.896  1.00  0.00     0.000 HD 
HETATM    9  C   UNL     1     -10.010   6.237  67.867  1.00  0.00    -0.147 A  
HETATM   10  C   UNL     1      -6.910   9.801  67.204  1.00  0.00    -0.083 A  
HETATM   11  C   UNL     1     -11.391   6.238  68.464  1.00  0.00    -0.149 C  
HETATM   12  C   UNL     1      -5.627   9.834  64.949  1.00  0.00    -0.072 C  
HETATM   13  N   UNL     1      -6.416  10.970  67.468  1.00  0.00    -0.060 N  
HETATM   14  H   UNL     1      -6.644  11.413  68.358  1.00  0.00     0.000 HD 
HETATM   15  N   UNL     1      -7.140   8.037  65.482  1.00  0.00    -0.059 NA 
HETATM   16  C   UNL     1      -5.600  11.624  66.594  1.00  0.00    -0.111 C  
HETATM   17  N   UNL     1      -5.190  11.020  65.443  1.00  0.00    -0.122 N  
HETATM   18  O   UNL     1      -5.296   9.381  63.866  1.00  0.00    -0.060 OA 
HETATM   19  C   UNL     1      -6.593   9.147  65.869  1.00  0.00    -0.071 A  
HETATM   20  O   UNL     1      -5.213  12.768  66.813  1.00  0.00    -0.263 OA 
ENDROOT
BRANCH   7  21
HETATM   21  C   UNL     1      -8.544   9.932  69.086  1.00  0.00    -0.157 C  
BRANCH  21  22
HETATM   22  C   UNL     1      -9.845  10.499  68.479  1.00  0.00    -0.168 C  
HETATM   23  O   UNL     1      -9.636  10.799  67.100  1.00  0.00    -0.159 OA 
HETATM   24  H   UNL     1     -10.437  11.148  66.726  1.00  0.00     0.000 HD 
BRANCH  22  25
HETATM   25  C   UNL     1     -10.430  11.728  69.214  1.00  0.00     0.060 C  
HETATM   26  O   UNL     1     -11.742  11.393  69.717  1.00  0.00    -0.287 OA 
HETATM   27  H   UNL     1     -12.101  12.147  70.168  1.00  0.00     0.000 HD 
BRANCH  25  28
HETATM   28  C   UNL     1     -10.539  13.070  68.451  1.00  0.00    -0.251 C  
HETATM   29  O   UNL     1     -10.104  14.133  69.335  1.00  0.00    -0.426 OA 
HETATM   30  H   UNL     1     -10.170  14.957  68.867  1.00  0.00     0.000 HD 
BRANCH  28  31
HETATM   31  C   UNL     1     -11.929  13.441  67.916  1.00  0.00    -0.323 C  
BRANCH  31  32
HETATM   32  O   UNL     1     -12.258  12.485  66.899  1.00  0.00    -0.511 OA 
HETATM   33  P   UNL     1     -12.159  12.943  65.372  1.00  0.00    -0.470 P  
HETATM   34  O   UNL     1     -13.208  14.136  65.214  1.00  0.00    -0.760 OA 
HETATM   35  O   UNL     1     -12.824  11.765  64.526  1.00  0.00    -0.234 OA 
HETATM   36  O   UNL     1     -10.807  13.310  64.870  1.00  0.00    -0.311 OA 
ENDBRANCH  31  32
ENDBRANCH  28  31
ENDBRANCH  25  28
ENDBRANCH  22  25
ENDBRANCH  21  22
ENDBRANCH   7  21
TORSDOF 6
ENDMDL
MODEL      200
REMARK 921   NORMALIZED FREE ENERGY PREDICTED BY IDOCK:   -3.73 KCAL/MOL
REMARK 922        TOTAL FREE ENERGY PREDICTED BY IDOCK:   -7.39 KCAL/MOL
REMARK 923 INTER-LIGAND FREE ENERGY PREDICTED BY IDOCK:   -6.75 KCAL/MOL
REMARK 924 INTRA-LIGAND FREE ENERGY PREDICTED BY IDOCK:   -0.64 KCAL/MOL
REMARK 927      BINDING AFFINITY PREDICTED BY RF-SCORE:    0.00 PKD
ROOT
HETATM    1  C   UNL     1      -6.688   3.840  65.951  1.00  0.00    -0.045 C  
HETATM    2  C   UNL     1      -7.267   5.017  66.682  1.00  0.00    -0.081 A  
HETATM    3  C   UNL     1      -7.696   6.140  65.977  1.00  0.00    -0.092 A  
HETATM    4  C   UNL     1      -8.338   7.194  66.642  1.00  0.00    -0.114 A  
HETATM    5  C   UNL     1      -8.444   7.202  68.054  1.00  0.00    -0.122 A  
HETATM    6  C   UNL     1      -7.801   6.191  68.748  1.00  0.00    -0.101 A  
HETATM    7  N   UNL     1      -9.252   8.161  68.714  1.00  0.00    -0.144 NA 
HETATM    8  H   UNL     1     -11.356  11.856  65.805  1.00  0.00     0.000 HD 
HETATM    9  C   UNL     1      -7.442   5.020  68.073  1.00  0.00    -0.075 A  
HETATM   10  C   UNL     1      -9.868   9.123  67.918  1.00  0.00    -0.169 A  
HETATM   11  C   UNL     1      -7.692   3.764  68.862  1.00  0.00    -0.053 C  
HETATM   12  C   UNL     1     -10.196  10.203  65.581  1.00  0.00    -0.218 C  
HETATM   13  N   UNL     1     -10.679  10.009  68.408  1.00  0.00    -0.223 N  
HETATM   14  H   UNL     1     -10.871  10.002  69.409  1.00  0.00     0.000 HD 
HETATM   15  N   UNL     1      -8.896   8.193  65.840  1.00  0.00    -0.162 NA 
HETATM   16  C   UNL     1     -11.281  10.949  67.626  1.00  0.00    -0.309 C  
HETATM   17  N   UNL     1     -10.969  11.055  66.303  1.00  0.00    -0.178 N  
HETATM   18  O   UNL     1     -10.023  10.292  64.377  1.00  0.00    -0.335 OA 
HETATM   19  C   UNL     1      -9.599   9.114  66.422  1.00  0.00    -0.245 A  
HETATM   20  O   UNL     1     -12.116  11.722  68.083  1.00  0.00    -0.556 OA 
ENDROOT
BRANCH   7  21
HETATM   21  C   UNL     1      -9.914   7.751  70.002  1.00  0.00    -0.187 C  
BRANCH  21  22
HETATM   22  C   UNL     1     -11.024   6.700  69.789  1.00  0.00    -0.313 C  
HETATM   23  O   UNL     1     -11.559   6.830  68.473  1.00  0.00    -0.534 OA 
HETATM   24  H   UNL     1     -12.243   6.184  68.342  1.00  0.00     0.000 HD 
BRANCH  22  25
HETATM   25  C   UNL     1     -12.162   6.727  70.837  1.00  0.00    -0.331 C  
HETATM   26  O   UNL     1     -12.748   8.048  70.859  1.00  0.00    -0.512 OA 
HETATM   27  H   UNL     1     -13.446   8.064  71.502  1.00  0.00     0.000 HD 
BRANCH  25  28
HETATM   28  C   UNL     1     -11.843   6.321  72.296  1.00  0.00    -0.278 C  
HETATM   29  O   UNL     1     -11.686   7.530  73.081  1.00  0.00    -0.604 OA 
HETATM   30  H   UNL     1     -11.490   7.281  73.976  1.00  0.00     0.000 HD 
BRANCH  28  31
HETATM   31  C   UNL     1     -10.592   5.457  72.506  1.00  0.00    -0.227 C  
BRANCH  31  32
HETATM   32  O   UNL     1      -9.611   6.284  73.146  1.00  0.00    -0.149 OA 
HETATM   33  P   UNL     1      -8.169   5.660  73.431  1.00  0.00    -0.112 P  
HETATM   34  O   UNL     1      -8.420   4.428  74.415  1.00  0.00    -0.093 OA 
HETATM   35  O   UNL     1      -7.420   6.716  74.362  1.00  0.00    -0.098 OA 
HETATM   36  O   UNL     1      -7.360   5.275  72.243  1.00  0.00    -0.088 OA 
ENDBRANCH  31  32
ENDBRANCH  28  31
ENDBRANCH  25  28
ENDBRANCH  22  25
ENDBRANCH  21  22
ENDBRANCH   7  21
TORSDOF 6
ENDMDL
MODEL      201
REMARK 921   NORMALIZED FREE ENERGY PREDICTED BY IDOCK:   -3.73 KCAL/MOL
REMARK 922        TOTAL FREE ENERGY PREDICTED BY IDOCK:   -7.39 KCAL/MOL
REMARK 923 INTER-LIGAND FREE ENERGY PREDICTED BY IDOCK:   -6.26 KCAL/MOL
REMARK 924 INTRA-LIGAND FREE ENERGY PREDICTED BY IDOCK:   -1.12 KCAL/MOL
REMARK 927      BINDING AFFINITY PREDICTED BY RF-SCORE:    0.00 PKD
ROOT
HETATM    1  C   UNL     1     -11.661  15.741  64.352  1.00  0.00    -0.240 C  
HETATM    2  C   UNL     1     -10.837  14.711  65.073  1.00  0.00    -0.431 A  
HETATM    3  C   UNL     1      -9.706  15.094  65.791  1.00  0.00    -0.379 A  
HETATM    4  C   UNL     1      -8.999  14.156  66.556  1.00  0.00    -0.112 A  
HETATM    5  C   UNL     1      -9.335  12.782  66.509  1.00  0.00    -0.221 A  
HETATM    6  C   UNL     1     -10.311  12.395  65.606  1.00  0.00    -0.284 A  
HETATM    7  N   UNL     1      -8.754  11.862  67.417  1.00  0.00    -0.159 NA 
HETATM    8  H   UNL     1      -5.049  13.654  70.518  1.00  0.00     0.000 HD 
HETATM    9  C   UNL     1     -11.190  13.355  65.095  1.00  0.00    -0.321 A  
HETATM   10  C   UNL     1      -7.795  12.362  68.296  1.00  0.00    -0.150 A  
HETATM   11  C   UNL     1     -12.616  12.886  65.002  1.00  0.00    -0.538 C  
HETATM   12  C   UNL     1      -6.312  14.340  69.082  1.00  0.00    -0.104 C  
HETATM   13  N   UNL     1      -7.245  11.626  69.209  1.00  0.00    -0.292 N  
HETATM   14  H   UNL     1      -7.522  10.647  69.288  1.00  0.00     0.000 HD 
HETATM   15  N   UNL     1      -7.992  14.656  67.385  1.00  0.00    -0.190 NA 
HETATM   16  C   UNL     1      -6.308  12.117  70.068  1.00  0.00    -0.035 C  
HETATM   17  N   UNL     1      -5.838  13.389  69.927  1.00  0.00    -0.118 N  
HETATM   18  O   UNL     1      -5.915  15.494  69.060  1.00  0.00    -0.102 OA 
HETATM   19  C   UNL     1      -7.405  13.827  68.192  1.00  0.00    -0.124 A  
HETATM   20  O   UNL     1      -5.862  11.438  70.987  1.00  0.00    -0.356 OA 
ENDROOT
BRANCH   7  21
HETATM   21  C   UNL     1      -9.582  10.679  67.842  1.00  0.00    -0.162 C  
BRANCH  21  22
HETATM   22  C   UNL     1      -9.430   9.476  66.887  1.00  0.00    -0.158 C  
HETATM   23  O   UNL     1     -10.571   8.628  67.002  1.00  0.00    -0.294 OA 
HETATM   24  H   UNL     1     -10.478   7.887  66.414  1.00  0.00     0.000 HD 
BRANCH  22  25
HETATM   25  C   UNL     1      -8.131   8.656  67.067  1.00  0.00    -0.100 C  
HETATM   26  O   UNL     1      -6.996   9.540  66.939  1.00  0.00    -0.080 OA 
HETATM   27  H   UNL     1      -6.199   9.036  67.050  1.00  0.00     0.000 HD 
BRANCH  25  28
HETATM   28  C   UNL     1      -7.889   7.431  66.152  1.00  0.00    -0.107 C  
HETATM   29  O   UNL     1      -8.902   7.431  65.116  1.00  0.00    -0.364 OA 
HETATM   30  H   UNL     1      -8.754   6.679  64.554  1.00  0.00     0.000 HD 
BRANCH  28  31
HETATM   31  C   UNL     1      -7.909   6.056  66.832  1.00  0.00    -0.101 C  
BRANCH  31  32
HETATM   32  O   UNL     1      -8.145   5.082  65.807  1.00  0.00    -0.109 OA 
HETATM   33  P   UNL     1      -9.302   4.006  66.041  1.00  0.00    -0.189 P  
HETATM   34  O   UNL     1      -8.869   3.185  67.340  1.00  0.00    -0.112 OA 
HETATM   35  O   UNL     1      -9.138   2.937  64.869  1.00  0.00    -0.131 OA 
HETATM   36  O   UNL     1     -10.692   4.529  66.143  1.00  0.00    -0.200 OA 
ENDBRANCH  31  32
ENDBRANCH  28  31
ENDBRANCH  25  28
ENDBRANCH  22  25
ENDBRANCH  21  22
ENDBRANCH   7  21
TORSDOF 6
ENDMDL
MODEL      202
REMARK 921   NORMALIZED FREE ENERGY PREDICTED BY IDOCK:   -3.71 KCAL/MOL
REMARK 922        TOTAL FREE ENERGY PREDICTED BY IDOCK:   -7.36 KCAL/MOL
REMARK 923 INTER-LIGAND FREE ENERGY PREDICTED BY IDOCK:   -6.29 KCAL/MOL
REMARK 924 INTRA-LIGAND FREE ENERGY PREDICTED BY IDOCK:   -1.07 KCAL/MOL
REMARK 927      BINDING AFFINITY PREDICTED BY RF-SCORE:    0.00 PKD
ROOT
HETATM    1  C   UNL     1      -5.276   9.374  69.474  1.00  0.00    -0.035 C  
HETATM    2  C   UNL     1      -6.498   8.807  68.810  1.00  0.00    -0.053 A  
HETATM    3  C   UNL     1      -6.384   8.100  67.614  1.00  0.00    -0.053 A  
HETATM    4  C   UNL     1      -7.503   7.474  67.049  1.00  0.00    -0.098 A  
HETATM    5  C   UNL     1      -8.792   7.657  67.604  1.00  0.00    -0.125 A  
HETATM    6  C   UNL     1      -8.914   8.555  68.652  1.00  0.00    -0.139 A  
HETATM    7  N   UNL     1      -9.891   6.881  67.157  1.00  0.00    -0.154 NA 
HETATM    8  H   UNL     1      -9.075   3.764  63.136  1.00  0.00     0.000 HD 
HETATM    9  C   UNL     1      -7.775   8.919  69.376  1.00  0.00    -0.093 A  
HETATM   10  C   UNL     1      -9.653   5.995  66.109  1.00  0.00    -0.055 A  
HETATM   11  C   UNL     1      -8.000   9.002  70.861  1.00  0.00    -0.194 C  
HETATM   12  C   UNL     1      -8.037   5.061  64.307  1.00  0.00    -0.118 C  
HETATM   13  N   UNL     1     -10.567   5.192  65.662  1.00  0.00    -0.491 N  
HETATM   14  H   UNL     1     -11.492   5.210  66.092  1.00  0.00     0.000 HD 
HETATM   15  N   UNL     1      -7.268   6.639  65.955  1.00  0.00    -0.066 NA 
HETATM   16  C   UNL     1     -10.332   4.326  64.637  1.00  0.00    -0.115 C  
HETATM   17  N   UNL     1      -9.142   4.346  63.972  1.00  0.00    -0.147 N  
HETATM   18  O   UNL     1      -6.966   4.972  63.730  1.00  0.00    -0.046 OA 
HETATM   19  C   UNL     1      -8.265   5.954  65.490  1.00  0.00    -0.137 A  
HETATM   20  O   UNL     1     -11.174   3.507  64.284  1.00  0.00    -0.207 OA 
ENDROOT
BRANCH   7  21
HETATM   21  C   UNL     1     -10.970   6.555  68.154  1.00  0.00    -0.281 C  
BRANCH  21  22
HETATM   22  C   UNL     1     -10.403   6.020  69.487  1.00  0.00    -0.233 C  
HETATM   23  O   UNL     1     -10.108   4.631  69.357  1.00  0.00    -0.211 OA 
HETATM   24  H   UNL     1      -9.759   4.302  70.178  1.00  0.00     0.000 HD 
BRANCH  22  25
HETATM   25  C   UNL     1     -11.297   6.266  70.725  1.00  0.00    -0.332 C  
HETATM   26  O   UNL     1     -12.536   6.873  70.296  1.00  0.00    -0.613 OA 
HETATM   27  H   UNL     1     -13.085   7.023  71.057  1.00  0.00     0.000 HD 
BRANCH  25  28
HETATM   28  C   UNL     1     -10.734   7.107  71.897  1.00  0.00    -0.216 C  
HETATM   29  O   UNL     1     -10.569   6.235  73.043  1.00  0.00    -0.215 OA 
HETATM   30  H   UNL     1     -10.222   6.751  73.762  1.00  0.00     0.000 HD 
BRANCH  28  31
HETATM   31  C   UNL     1     -11.573   8.313  72.337  1.00  0.00    -0.396 C  
BRANCH  31  32
HETATM   32  O   UNL     1     -11.519   9.275  71.275  1.00  0.00    -0.290 OA 
HETATM   33  P   UNL     1     -12.765  10.255  71.080  1.00  0.00    -0.419 P  
HETATM   34  O   UNL     1     -14.009   9.308  70.756  1.00  0.00    -0.008 OA 
HETATM   35  O   UNL     1     -12.511  11.001  69.693  1.00  0.00    -0.291 OA 
HETATM   36  O   UNL     1     -13.052  11.202  72.191  1.00  0.00    -0.463 OA 
ENDBRANCH  31  32
ENDBRANCH  28  31
ENDBRANCH  25  28
ENDBRANCH  22  25
ENDBRANCH  21  22
ENDBRANCH   7  21
TORSDOF 6
ENDMDL
MODEL      203
REMARK 921   NORMALIZED FREE ENERGY PREDICTED BY IDOCK:   -3.71 KCAL/MOL
REMARK 922        TOTAL FREE ENERGY PREDICTED BY IDOCK:   -7.36 KCAL/MOL
REMARK 923 INTER-LIGAND FREE ENERGY PREDICTED BY IDOCK:   -5.97 KCAL/MOL
REMARK 924 INTRA-LIGAND FREE ENERGY PREDICTED BY IDOCK:   -1.39 KCAL/MOL
REMARK 927      BINDING AFFINITY PREDICTED BY RF-SCORE:    0.00 PKD
ROOT
HETATM    1  C   UNL     1     -11.644  15.816  68.942  1.00  0.00    -0.400 C  
HETATM    2  C   UNL     1     -11.178  14.389  68.868  1.00  0.00    -0.284 A  
HETATM    3  C   UNL     1     -10.053  14.057  68.116  1.00  0.00    -0.244 A  
HETATM    4  C   UNL     1      -9.548  12.749  68.133  1.00  0.00    -0.223 A  
HETATM    5  C   UNL     1     -10.243  11.713  68.803  1.00  0.00    -0.177 A  
HETATM    6  C   UNL     1     -11.481  12.021  69.343  1.00  0.00    -0.361 A  
HETATM    7  N   UNL     1      -9.647  10.440  68.985  1.00  0.00    -0.195 NA 
HETATM    8  H   UNL     1      -5.102   9.632  66.696  1.00  0.00     0.000 HD 
HETATM    9  C   UNL     1     -11.811  13.359  69.576  1.00  0.00    -0.391 A  
HETATM   10  C   UNL     1      -8.391  10.244  68.415  1.00  0.00    -0.119 A  
HETATM   11  C   UNL     1     -12.524  13.590  70.881  1.00  0.00    -0.448 C  
HETATM   12  C   UNL     1      -6.459  11.127  66.925  1.00  0.00    -0.117 C  
HETATM   13  N   UNL     1      -7.727   9.142  68.572  1.00  0.00    -0.092 N  
HETATM   14  H   UNL     1      -8.137   8.393  69.130  1.00  0.00     0.000 HD 
HETATM   15  N   UNL     1      -8.319  12.543  67.501  1.00  0.00    -0.164 NA 
HETATM   16  C   UNL     1      -6.497   8.952  68.014  1.00  0.00    -0.057 C  
HETATM   17  N   UNL     1      -5.963   9.888  67.179  1.00  0.00    -0.051 N  
HETATM   18  O   UNL     1      -5.893  11.962  66.240  1.00  0.00    -0.160 OA 
HETATM   19  C   UNL     1      -7.773  11.372  67.607  1.00  0.00    -0.121 A  
HETATM   20  O   UNL     1      -5.838   7.944  68.245  1.00  0.00    -0.034 OA 
ENDROOT
BRANCH   7  21
HETATM   21  C   UNL     1     -10.013   9.666  70.222  1.00  0.00    -0.270 C  
BRANCH  21  22
HETATM   22  C   UNL     1     -10.656   8.301  69.899  1.00  0.00    -0.232 C  
HETATM   23  O   UNL     1     -12.015   8.298  70.333  1.00  0.00    -0.480 OA 
HETATM   24  H   UNL     1     -12.411   7.457  70.134  1.00  0.00     0.000 HD 
BRANCH  22  25
HETATM   25  C   UNL     1      -9.908   7.072  70.469  1.00  0.00    -0.179 C  
HETATM   26  O   UNL     1      -8.528   7.430  70.703  1.00  0.00    -0.132 OA 
HETATM   27  H   UNL     1      -8.070   6.676  71.053  1.00  0.00     0.000 HD 
BRANCH  25  28
HETATM   28  C   UNL     1      -9.930   5.748  69.668  1.00  0.00    -0.189 C  
HETATM   29  O   UNL     1     -11.060   5.784  68.761  1.00  0.00    -0.243 OA 
HETATM   30  H   UNL     1     -11.073   4.972  68.269  1.00  0.00     0.000 HD 
BRANCH  28  31
HETATM   31  C   UNL     1     -10.024   4.455  70.489  1.00  0.00    -0.185 C  
BRANCH  31  32
HETATM   32  O   UNL     1      -9.317   4.682  71.716  1.00  0.00    -0.133 OA 
HETATM   33  P   UNL     1      -8.471   3.476  72.334  1.00  0.00    -0.086 P  
HETATM   34  O   UNL     1      -9.530   2.322  72.640  1.00  0.00    -0.078 OA 
HETATM   35  O   UNL     1      -8.034   3.960  73.789  1.00  0.00    -0.084 OA 
HETATM   36  O   UNL     1      -7.320   2.986  71.528  1.00  0.00    -0.038 OA 
ENDBRANCH  31  32
ENDBRANCH  28  31
ENDBRANCH  25  28
ENDBRANCH  22  25
ENDBRANCH  21  22
ENDBRANCH   7  21
TORSDOF 6
ENDMDL
MODEL      204
REMARK 921   NORMALIZED FREE ENERGY PREDICTED BY IDOCK:   -3.69 KCAL/MOL
REMARK 922        TOTAL FREE ENERGY PREDICTED BY IDOCK:   -7.33 KCAL/MOL
REMARK 923 INTER-LIGAND FREE ENERGY PREDICTED BY IDOCK:   -7.31 KCAL/MOL
REMARK 924 INTRA-LIGAND FREE ENERGY PREDICTED BY IDOCK:   -0.03 KCAL/MOL
REMARK 927      BINDING AFFINITY PREDICTED BY RF-SCORE:    0.00 PKD
ROOT
HETATM    1  C   UNL     1     -13.032  12.147  63.775  1.00  0.00    -0.343 C  
HETATM    2  C   UNL     1     -11.874  12.839  64.436  1.00  0.00    -0.446 A  
HETATM    3  C   UNL     1     -11.804  14.231  64.453  1.00  0.00    -0.444 A  
HETATM    4  C   UNL     1     -10.787  14.883  65.163  1.00  0.00    -0.414 A  
HETATM    5  C   UNL     1      -9.737  14.147  65.763  1.00  0.00    -0.217 A  
HETATM    6  C   UNL     1      -9.700  12.783  65.531  1.00  0.00    -0.089 A  
HETATM    7  N   UNL     1      -8.817  14.779  66.637  1.00  0.00    -0.252 NA 
HETATM    8  H   UNL     1      -9.182  19.895  67.125  1.00  0.00     0.000 HD 
HETATM    9  C   UNL     1     -10.858  12.132  65.094  1.00  0.00    -0.343 A  
HETATM   10  C   UNL     1      -8.956  16.154  66.814  1.00  0.00    -0.241 A  
HETATM   11  C   UNL     1     -11.091  10.799  65.751  1.00  0.00     0.138 C  
HETATM   12  C   UNL     1     -10.126  18.376  66.161  1.00  0.00    -0.360 C  
HETATM   13  N   UNL     1      -8.211  16.823  67.638  1.00  0.00    -0.179 N  
HETATM   14  H   UNL     1      -7.499  16.327  68.174  1.00  0.00     0.000 HD 
HETATM   15  N   UNL     1     -10.895  16.271  65.280  1.00  0.00    -0.439 NA 
HETATM   16  C   UNL     1      -8.349  18.168  67.809  1.00  0.00    -0.250 C  
HETATM   17  N   UNL     1      -9.218  18.880  67.036  1.00  0.00    -0.296 N  
HETATM   18  O   UNL     1     -10.945  19.052  65.561  1.00  0.00    -0.396 OA 
HETATM   19  C   UNL     1     -10.036  16.884  66.032  1.00  0.00    -0.293 A  
HETATM   20  O   UNL     1      -7.704  18.775  68.657  1.00  0.00    -0.311 OA 
ENDROOT
BRANCH   7  21
HETATM   21  C   UNL     1      -8.238  13.957  67.757  1.00  0.00    -0.173 C  
BRANCH  21  22
HETATM   22  C   UNL     1      -9.180  12.820  68.207  1.00  0.00    -0.186 C  
HETATM   23  O   UNL     1     -10.064  13.303  69.218  1.00  0.00    -0.399 OA 
HETATM   24  H   UNL     1     -10.644  12.603  69.494  1.00  0.00     0.000 HD 
BRANCH  22  25
HETATM   25  C   UNL     1      -8.471  11.531  68.685  1.00  0.00    -0.115 C  
HETATM   26  O   UNL     1      -7.415  11.204  67.755  1.00  0.00    -0.090 OA 
HETATM   27  H   UNL     1      -6.979  10.413  68.049  1.00  0.00     0.000 HD 
BRANCH  25  28
HETATM   28  C   UNL     1      -9.317  10.255  68.915  1.00  0.00    -0.178 C  
HETATM   29  O   UNL     1      -9.403  10.018  70.342  1.00  0.00    -0.369 OA 
HETATM   30  H   UNL     1      -9.923   9.235  70.483  1.00  0.00     0.000 HD 
BRANCH  28  31
HETATM   31  C   UNL     1      -8.808   8.969  68.251  1.00  0.00    -0.134 C  
BRANCH  31  32
HETATM   32  O   UNL     1      -8.241   8.156  69.288  1.00  0.00    -0.116 OA 
HETATM   33  P   UNL     1      -7.770   6.676  68.914  1.00  0.00    -0.112 P  
HETATM   34  O   UNL     1      -9.087   5.917  68.427  1.00  0.00    -0.116 OA 
HETATM   35  O   UNL     1      -7.440   5.967  70.304  1.00  0.00    -0.084 OA 
HETATM   36  O   UNL     1      -6.656   6.557  67.936  1.00  0.00    -0.059 OA 
ENDBRANCH  31  32
ENDBRANCH  28  31
ENDBRANCH  25  28
ENDBRANCH  22  25
ENDBRANCH  21  22
ENDBRANCH   7  21
TORSDOF 6
ENDMDL
MODEL      205
REMARK 921   NORMALIZED FREE ENERGY PREDICTED BY IDOCK:   -3.67 KCAL/MOL
REMARK 922        TOTAL FREE ENERGY PREDICTED BY IDOCK:   -7.31 KCAL/MOL
REMARK 923 INTER-LIGAND FREE ENERGY PREDICTED BY IDOCK:   -6.28 KCAL/MOL
REMARK 924 INTRA-LIGAND FREE ENERGY PREDICTED BY IDOCK:   -1.03 KCAL/MOL
REMARK 927      BINDING AFFINITY PREDICTED BY RF-SCORE:    0.00 PKD
ROOT
HETATM    1  C   UNL     1      -9.781  19.763  67.077  1.00  0.00    -0.503 C  
HETATM    2  C   UNL     1     -10.088  18.346  67.471  1.00  0.00    -0.373 A  
HETATM    3  C   UNL     1     -10.166  17.992  68.816  1.00  0.00    -0.362 A  
HETATM    4  C   UNL     1     -10.561  16.700  69.190  1.00  0.00    -0.340 A  
HETATM    5  C   UNL     1     -10.756  15.693  68.214  1.00  0.00    -0.283 A  
HETATM    6  C   UNL     1     -10.442  16.005  66.902  1.00  0.00    -0.306 A  
HETATM    7  N   UNL     1     -11.335  14.447  68.565  1.00  0.00    -0.267 NA 
HETATM    8  H   UNL     1     -12.221  13.600  73.570  1.00  0.00     0.000 HD 
HETATM    9  C   UNL     1     -10.350  17.347  66.523  1.00  0.00    -0.312 A  
HETATM   10  C   UNL     1     -11.629  14.244  69.911  1.00  0.00    -0.276 A  
HETATM   11  C   UNL     1     -10.966  17.643  65.182  1.00  0.00     0.412 C  
HETATM   12  C   UNL     1     -11.511  15.076  72.366  1.00  0.00    -0.188 C  
HETATM   13  N   UNL     1     -12.217  13.169  70.335  1.00  0.00    -0.353 N  
HETATM   14  H   UNL     1     -12.472  12.448  69.661  1.00  0.00     0.000 HD 
HETATM   15  N   UNL     1     -10.789  16.483  70.551  1.00  0.00    -0.117 NA 
HETATM   16  C   UNL     1     -12.504  12.973  71.653  1.00  0.00     0.009 C  
HETATM   17  N   UNL     1     -12.087  13.867  72.594  1.00  0.00     0.438 N  
HETATM   18  O   UNL     1     -11.239  15.879  73.243  1.00  0.00     0.355 OA 
HETATM   19  C   UNL     1     -11.270  15.334  70.908  1.00  0.00    -0.327 A  
HETATM   20  O   UNL     1     -13.143  11.997  72.031  1.00  0.00    -0.456 OA 
ENDROOT
BRANCH   7  21
HETATM   21  C   UNL     1     -12.166  13.744  67.525  1.00  0.00    -0.227 C  
BRANCH  21  22
HETATM   22  C   UNL     1     -11.307  13.112  66.409  1.00  0.00    -0.315 C  
HETATM   23  O   UNL     1     -12.094  12.965  65.228  1.00  0.00    -0.397 OA 
HETATM   24  H   UNL     1     -11.566  12.576  64.540  1.00  0.00     0.000 HD 
BRANCH  22  25
HETATM   25  C   UNL     1     -10.637  11.768  66.778  1.00  0.00    -0.238 C  
HETATM   26  O   UNL     1     -11.626  10.898  67.370  1.00  0.00    -0.509 OA 
HETATM   27  H   UNL     1     -11.214  10.072  67.597  1.00  0.00     0.000 HD 
BRANCH  25  28
HETATM   28  C   UNL     1      -9.397  11.784  67.705  1.00  0.00    -0.181 C  
HETATM   29  O   UNL     1      -9.854  11.689  69.078  1.00  0.00    -0.399 OA 
HETATM   30  H   UNL     1      -9.093  11.698  69.646  1.00  0.00     0.000 HD 
BRANCH  28  31
HETATM   31  C   UNL     1      -8.478  13.008  67.596  1.00  0.00    -0.187 C  
BRANCH  31  32
HETATM   32  O   UNL     1      -7.536  12.925  68.673  1.00  0.00    -0.126 OA 
HETATM   33  P   UNL     1      -6.005  13.259  68.364  1.00  0.00    -0.114 P  
HETATM   34  O   UNL     1      -5.539  12.179  67.285  1.00  0.00    -0.118 OA 
HETATM   35  O   UNL     1      -5.199  12.830  69.672  1.00  0.00    -0.072 OA 
HETATM   36  O   UNL     1      -5.697  14.651  67.937  1.00  0.00    -0.143 OA 
ENDBRANCH  31  32
ENDBRANCH  28  31
ENDBRANCH  25  28
ENDBRANCH  22  25
ENDBRANCH  21  22
ENDBRANCH   7  21
TORSDOF 6
ENDMDL
MODEL      206
REMARK 921   NORMALIZED FREE ENERGY PREDICTED BY IDOCK:   -3.67 KCAL/MOL
REMARK 922        TOTAL FREE ENERGY PREDICTED BY IDOCK:   -7.30 KCAL/MOL
REMARK 923 INTER-LIGAND FREE ENERGY PREDICTED BY IDOCK:   -6.66 KCAL/MOL
REMARK 924 INTRA-LIGAND FREE ENERGY PREDICTED BY IDOCK:   -0.64 KCAL/MOL
REMARK 927      BINDING AFFINITY PREDICTED BY RF-SCORE:    0.00 PKD
ROOT
HETATM    1  C   UNL     1      -8.194   5.795  64.716  1.00  0.00    -0.135 C  
HETATM    2  C   UNL     1      -8.365   5.771  66.208  1.00  0.00    -0.115 A  
HETATM    3  C   UNL     1      -7.458   6.439  67.029  1.00  0.00    -0.084 A  
HETATM    4  C   UNL     1      -7.673   6.514  68.412  1.00  0.00    -0.105 A  
HETATM    5  C   UNL     1      -8.737   5.804  69.019  1.00  0.00    -0.112 A  
HETATM    6  C   UNL     1      -9.481   4.959  68.213  1.00  0.00    -0.182 A  
HETATM    7  N   UNL     1      -9.074   6.025  70.378  1.00  0.00    -0.148 NA 
HETATM    8  H   UNL     1      -5.975   9.124  73.087  1.00  0.00     0.000 HD 
HETATM    9  C   UNL     1      -9.448   5.131  66.826  1.00  0.00    -0.143 A  
HETATM   10  C   UNL     1      -8.270   6.910  71.092  1.00  0.00    -0.118 A  
HETATM   11  C   UNL     1     -10.790   4.984  66.163  1.00  0.00    -0.160 C  
HETATM   12  C   UNL     1      -6.161   8.419  71.191  1.00  0.00    -0.038 C  
HETATM   13  N   UNL     1      -8.523   7.235  72.321  1.00  0.00    -0.115 N  
HETATM   14  H   UNL     1      -9.337   6.829  72.782  1.00  0.00     0.000 HD 
HETATM   15  N   UNL     1      -6.820   7.352  69.135  1.00  0.00    -0.059 NA 
HETATM   16  C   UNL     1      -7.735   8.102  73.018  1.00  0.00    -0.148 C  
HETATM   17  N   UNL     1      -6.583   8.584  72.471  1.00  0.00    -0.093 N  
HETATM   18  O   UNL     1      -5.166   8.949  70.726  1.00  0.00    -0.027 OA 
HETATM   19  C   UNL     1      -7.072   7.533  70.393  1.00  0.00    -0.059 A  
HETATM   20  O   UNL     1      -8.034   8.473  74.148  1.00  0.00    -0.362 OA 
ENDROOT
BRANCH   7  21
HETATM   21  C   UNL     1     -10.518   5.873  70.775  1.00  0.00    -0.248 C  
BRANCH  21  22
HETATM   22  C   UNL     1     -10.953   6.905  71.838  1.00  0.00    -0.235 C  
HETATM   23  O   UNL     1     -11.429   6.223  72.997  1.00  0.00    -0.459 OA 
HETATM   24  H   UNL     1     -11.697   6.858  73.652  1.00  0.00     0.000 HD 
BRANCH  22  25
HETATM   25  C   UNL     1     -11.996   7.941  71.358  1.00  0.00    -0.303 C  
HETATM   26  O   UNL     1     -13.009   7.263  70.584  1.00  0.00    -0.601 OA 
HETATM   27  H   UNL     1     -13.649   7.900  70.290  1.00  0.00     0.000 HD 
BRANCH  25  28
HETATM   28  C   UNL     1     -11.510   9.165  70.543  1.00  0.00    -0.229 C  
HETATM   29  O   UNL     1     -10.267   9.633  71.122  1.00  0.00    -0.272 OA 
HETATM   30  H   UNL     1      -9.968  10.383  70.622  1.00  0.00     0.000 HD 
BRANCH  28  31
HETATM   31  C   UNL     1     -12.472  10.357  70.463  1.00  0.00    -0.317 C  
BRANCH  31  32
HETATM   32  O   UNL     1     -12.516  10.772  69.091  1.00  0.00    -0.377 OA 
HETATM   33  P   UNL     1     -11.463  11.868  68.600  1.00  0.00    -0.346 P  
HETATM   34  O   UNL     1     -11.766  13.173  69.467  1.00  0.00    -0.296 OA 
HETATM   35  O   UNL     1     -11.933  12.291  67.136  1.00  0.00    -0.564 OA 
HETATM   36  O   UNL     1     -10.026  11.482  68.646  1.00  0.00    -0.210 OA 
ENDBRANCH  31  32
ENDBRANCH  28  31
ENDBRANCH  25  28
ENDBRANCH  22  25
ENDBRANCH  21  22
ENDBRANCH   7  21
TORSDOF 6
ENDMDL
MODEL      207
REMARK 921   NORMALIZED FREE ENERGY PREDICTED BY IDOCK:   -3.66 KCAL/MOL
REMARK 922        TOTAL FREE ENERGY PREDICTED BY IDOCK:   -7.29 KCAL/MOL
REMARK 923 INTER-LIGAND FREE ENERGY PREDICTED BY IDOCK:   -5.88 KCAL/MOL
REMARK 924 INTRA-LIGAND FREE ENERGY PREDICTED BY IDOCK:   -1.41 KCAL/MOL
REMARK 927      BINDING AFFINITY PREDICTED BY RF-SCORE:    0.00 PKD
ROOT
HETATM    1  C   UNL     1      -8.554  10.558  65.011  1.00  0.00    -0.184 C  
HETATM    2  C   UNL     1      -9.102   9.322  65.666  1.00  0.00    -0.268 A  
HETATM    3  C   UNL     1      -8.561   8.072  65.372  1.00  0.00    -0.138 A  
HETATM    4  C   UNL     1      -8.992   6.931  66.061  1.00  0.00    -0.105 A  
HETATM    5  C   UNL     1     -10.075   7.000  66.971  1.00  0.00    -0.229 A  
HETATM    6  C   UNL     1     -10.749   8.206  67.070  1.00  0.00    -0.247 A  
HETATM    7  N   UNL     1     -10.390   5.901  67.808  1.00  0.00    -0.187 NA 
HETATM    8  H   UNL     1      -7.757   1.539  67.037  1.00  0.00     0.000 HD 
HETATM    9  C   UNL     1     -10.129   9.375  66.619  1.00  0.00    -0.332 A  
HETATM   10  C   UNL     1      -9.636   4.742  67.638  1.00  0.00    -0.155 A  
HETATM   11  C   UNL     1     -10.337  10.560  67.523  1.00  0.00    -0.265 C  
HETATM   12  C   UNL     1      -7.824   3.437  66.316  1.00  0.00    -0.084 C  
HETATM   13  N   UNL     1      -9.795   3.698  68.391  1.00  0.00     0.012 N  
HETATM   14  H   UNL     1     -10.496   3.726  69.131  1.00  0.00     0.000 HD 
HETATM   15  N   UNL     1      -8.274   5.754  65.836  1.00  0.00    -0.116 NA 
HETATM   16  C   UNL     1      -9.056   2.565  68.223  1.00  0.00    -0.179 C  
HETATM   17  N   UNL     1      -8.184   2.454  67.181  1.00  0.00    -0.079 N  
HETATM   18  O   UNL     1      -6.969   3.311  65.456  1.00  0.00    -0.054 OA 
HETATM   19  C   UNL     1      -8.575   4.715  66.551  1.00  0.00    -0.112 A  
HETATM   20  O   UNL     1      -9.150   1.619  68.997  1.00  0.00    -0.086 OA 
ENDROOT
BRANCH   7  21
HETATM   21  C   UNL     1     -10.972   6.197  69.164  1.00  0.00    -0.381 C  
BRANCH  21  22
HETATM   22  C   UNL     1     -10.002   6.989  70.066  1.00  0.00    -0.181 C  
HETATM   23  O   UNL     1      -8.929   6.142  70.472  1.00  0.00    -0.144 OA 
HETATM   24  H   UNL     1      -8.332   6.630  71.027  1.00  0.00     0.000 HD 
BRANCH  22  25
HETATM   25  C   UNL     1     -10.654   7.660  71.299  1.00  0.00    -0.219 C  
HETATM   26  O   UNL     1      -9.618   8.251  72.113  1.00  0.00    -0.213 OA 
HETATM   27  H   UNL     1     -10.018   8.663  72.869  1.00  0.00     0.000 HD 
BRANCH  25  28
HETATM   28  C   UNL     1     -11.558   6.806  72.221  1.00  0.00    -0.273 C  
HETATM   29  O   UNL     1     -12.644   7.641  72.693  1.00  0.00    -0.527 OA 
HETATM   30  H   UNL     1     -13.199   7.118  73.258  1.00  0.00     0.000 HD 
BRANCH  28  31
HETATM   31  C   UNL     1     -10.882   6.174  73.445  1.00  0.00    -0.221 C  
BRANCH  31  32
HETATM   32  O   UNL     1     -11.376   4.833  73.554  1.00  0.00    -0.332 OA 
HETATM   33  P   UNL     1     -10.389   3.632  73.187  1.00  0.00    -0.179 P  
HETATM   34  O   UNL     1     -10.012   3.841  71.650  1.00  0.00    -0.182 OA 
HETATM   35  O   UNL     1     -11.298   2.322  73.159  1.00  0.00    -0.134 OA 
HETATM   36  O   UNL     1      -9.185   3.471  74.046  1.00  0.00    -0.089 OA 
ENDBRANCH  31  32
ENDBRANCH  28  31
ENDBRANCH  25  28
ENDBRANCH  22  25
ENDBRANCH  21  22
ENDBRANCH   7  21
TORSDOF 6
ENDMDL
MODEL      208
REMARK 921   NORMALIZED FREE ENERGY PREDICTED BY IDOCK:   -3.66 KCAL/MOL
REMARK 922        TOTAL FREE ENERGY PREDICTED BY IDOCK:   -7.29 KCAL/MOL
REMARK 923 INTER-LIGAND FREE ENERGY PREDICTED BY IDOCK:   -6.17 KCAL/MOL
REMARK 924 INTRA-LIGAND FREE ENERGY PREDICTED BY IDOCK:   -1.12 KCAL/MOL
REMARK 927      BINDING AFFINITY PREDICTED BY RF-SCORE:    0.00 PKD
ROOT
HETATM    1  C   UNL     1     -11.332  15.995  65.119  1.00  0.00    -0.074 C  
HETATM    2  C   UNL     1     -10.630  14.740  65.552  1.00  0.00    -0.374 A  
HETATM    3  C   UNL     1      -9.497  14.812  66.361  1.00  0.00    -0.328 A  
HETATM    4  C   UNL     1      -8.904  13.644  66.859  1.00  0.00    -0.187 A  
HETATM    5  C   UNL     1      -9.357  12.368  66.444  1.00  0.00    -0.219 A  
HETATM    6  C   UNL     1     -10.328  12.326  65.458  1.00  0.00    -0.296 A  
HETATM    7  N   UNL     1      -8.893  11.191  67.084  1.00  0.00    -0.141 NA 
HETATM    8  H   UNL     1      -5.167  11.747  70.598  1.00  0.00     0.000 HD 
HETATM    9  C   UNL     1     -11.100  13.465  65.208  1.00  0.00    -0.305 A  
HETATM   10  C   UNL     1      -7.929  11.350  68.076  1.00  0.00    -0.127 A  
HETATM   11  C   UNL     1     -12.557  13.173  64.975  1.00  0.00    -0.499 C  
HETATM   12  C   UNL     1      -6.309  12.903  69.379  1.00  0.00    -0.109 C  
HETATM   13  N   UNL     1      -7.480  10.351  68.769  1.00  0.00    -0.086 N  
HETATM   14  H   UNL     1      -7.844   9.417  68.581  1.00  0.00     0.000 HD 
HETATM   15  N   UNL     1      -7.890  13.810  67.804  1.00  0.00    -0.155 NA 
HETATM   16  C   UNL     1      -6.536  10.509  69.740  1.00  0.00    -0.112 C  
HETATM   17  N   UNL     1      -5.952  11.723  69.948  1.00  0.00    -0.131 N  
HETATM   18  O   UNL     1      -5.813  13.979  69.669  1.00  0.00    -0.097 OA 
HETATM   19  C   UNL     1      -7.408  12.748  68.370  1.00  0.00    -0.118 A  
HETATM   20  O   UNL     1      -6.187   9.573  70.451  1.00  0.00    -0.049 OA 
ENDROOT
BRANCH   7  21
HETATM   21  C   UNL     1      -9.837  10.022  67.167  1.00  0.00    -0.185 C  
BRANCH  21  22
HETATM   22  C   UNL     1     -10.390   9.807  68.592  1.00  0.00    -0.201 C  
HETATM   23  O   UNL     1     -11.017   8.528  68.673  1.00  0.00    -0.439 OA 
HETATM   24  H   UNL     1     -11.358   8.397  69.550  1.00  0.00     0.000 HD 
BRANCH  22  25
HETATM   25  C   UNL     1     -11.352  10.910  69.095  1.00  0.00    -0.283 C  
HETATM   26  O   UNL     1     -10.574  12.022  69.589  1.00  0.00    -0.415 OA 
HETATM   27  H   UNL     1     -11.165  12.699  69.897  1.00  0.00     0.000 HD 
BRANCH  25  28
HETATM   28  C   UNL     1     -12.405  10.547  70.170  1.00  0.00    -0.265 C  
HETATM   29  O   UNL     1     -13.722  10.803  69.621  1.00  0.00     0.459 OA 
HETATM   30  H   UNL     1     -14.368  10.580  70.281  1.00  0.00     0.000 HD 
BRANCH  28  31
HETATM   31  C   UNL     1     -12.298  11.291  71.508  1.00  0.00    -0.117 C  
BRANCH  31  32
HETATM   32  O   UNL     1     -13.371  12.241  71.549  1.00  0.00    -0.268 OA 
HETATM   33  P   UNL     1     -13.015  13.789  71.373  1.00  0.00    -0.304 P  
HETATM   34  O   UNL     1     -12.056  14.151  72.597  1.00  0.00     0.062 OA 
HETATM   35  O   UNL     1     -14.355  14.580  71.720  1.00  0.00    -0.467 OA 
HETATM   36  O   UNL     1     -12.436  14.197  70.064  1.00  0.00    -0.340 OA 
ENDBRANCH  31  32
ENDBRANCH  28  31
ENDBRANCH  25  28
ENDBRANCH  22  25
ENDBRANCH  21  22
ENDBRANCH   7  21
TORSDOF 6
ENDMDL
MODEL      209
REMARK 921   NORMALIZED FREE ENERGY PREDICTED BY IDOCK:   -3.66 KCAL/MOL
REMARK 922        TOTAL FREE ENERGY PREDICTED BY IDOCK:   -7.29 KCAL/MOL
REMARK 923 INTER-LIGAND FREE ENERGY PREDICTED BY IDOCK:   -6.39 KCAL/MOL
REMARK 924 INTRA-LIGAND FREE ENERGY PREDICTED BY IDOCK:   -0.89 KCAL/MOL
REMARK 927      BINDING AFFINITY PREDICTED BY RF-SCORE:    0.00 PKD
ROOT
HETATM    1  C   UNL     1      -5.828   4.846  67.383  1.00  0.00    -0.022 C  
HETATM    2  C   UNL     1      -7.083   5.650  67.574  1.00  0.00    -0.074 A  
HETATM    3  C   UNL     1      -7.585   5.873  68.855  1.00  0.00    -0.090 A  
HETATM    4  C   UNL     1      -8.690   6.713  69.048  1.00  0.00    -0.129 A  
HETATM    5  C   UNL     1      -9.400   7.242  67.943  1.00  0.00    -0.129 A  
HETATM    6  C   UNL     1      -9.026   6.814  66.681  1.00  0.00    -0.154 A  
HETATM    7  N   UNL     1     -10.393   8.236  68.128  1.00  0.00    -0.210 NA 
HETATM    8  H   UNL     1     -11.614   9.454  72.984  1.00  0.00     0.000 HD 
HETATM    9  C   UNL     1      -7.765   6.238  66.500  1.00  0.00    -0.099 A  
HETATM   10  C   UNL     1     -10.678   8.607  69.440  1.00  0.00    -0.158 A  
HETATM   11  C   UNL     1      -7.068   6.682  65.243  1.00  0.00    -0.064 C  
HETATM   12  C   UNL     1     -10.327   8.240  71.985  1.00  0.00    -0.279 C  
HETATM   13  N   UNL     1     -11.522   9.550  69.723  1.00  0.00    -0.440 N  
HETATM   14  H   UNL     1     -11.993  10.037  68.960  1.00  0.00     0.000 HD 
HETATM   15  N   UNL     1      -9.014   7.028  70.370  1.00  0.00    -0.155 NA 
HETATM   16  C   UNL     1     -11.799   9.911  71.008  1.00  0.00    -0.376 C  
HETATM   17  N   UNL     1     -11.268   9.216  72.054  1.00  0.00    -0.329 N  
HETATM   18  O   UNL     1      -9.818   7.712  72.959  1.00  0.00    -0.210 OA 
HETATM   19  C   UNL     1      -9.955   7.897  70.573  1.00  0.00    -0.191 A  
HETATM   20  O   UNL     1     -12.527  10.865  71.262  1.00  0.00    -0.370 OA 
ENDROOT
BRANCH   7  21
HETATM   21  C   UNL     1     -10.585   9.246  67.029  1.00  0.00    -0.193 C  
BRANCH  21  22
HETATM   22  C   UNL     1      -9.732  10.517  67.235  1.00  0.00    -0.169 C  
HETATM   23  O   UNL     1      -8.912  10.358  68.392  1.00  0.00    -0.128 OA 
HETATM   24  H   UNL     1      -8.387  11.140  68.519  1.00  0.00     0.000 HD 
BRANCH  22  25
HETATM   25  C   UNL     1     -10.534  11.837  67.322  1.00  0.00    -0.214 C  
HETATM   26  O   UNL     1     -11.939  11.545  67.161  1.00  0.00    -0.581 OA 
HETATM   27  H   UNL     1     -12.430  12.356  67.215  1.00  0.00     0.000 HD 
BRANCH  25  28
HETATM   28  C   UNL     1     -10.172  12.993  66.358  1.00  0.00    -0.280 C  
HETATM   29  O   UNL     1      -9.581  12.422  65.164  1.00  0.00    -0.449 OA 
HETATM   30  H   UNL     1      -9.360  13.131  64.572  1.00  0.00     0.000 HD 
BRANCH  28  31
HETATM   31  C   UNL     1      -9.208  14.057  66.899  1.00  0.00    -0.260 C  
BRANCH  31  32
HETATM   32  O   UNL     1      -8.554  13.490  68.042  1.00  0.00    -0.158 OA 
HETATM   33  P   UNL     1      -6.966  13.632  68.149  1.00  0.00    -0.163 P  
HETATM   34  O   UNL     1      -6.380  12.865  66.878  1.00  0.00    -0.109 OA 
HETATM   35  O   UNL     1      -6.533  12.695  69.365  1.00  0.00    -0.111 OA 
HETATM   36  O   UNL     1      -6.425  15.013  68.274  1.00  0.00    -0.098 OA 
ENDBRANCH  31  32
ENDBRANCH  28  31
ENDBRANCH  25  28
ENDBRANCH  22  25
ENDBRANCH  21  22
ENDBRANCH   7  21
TORSDOF 6
ENDMDL
MODEL      210
REMARK 921   NORMALIZED FREE ENERGY PREDICTED BY IDOCK:   -3.65 KCAL/MOL
REMARK 922        TOTAL FREE ENERGY PREDICTED BY IDOCK:   -7.27 KCAL/MOL
REMARK 923 INTER-LIGAND FREE ENERGY PREDICTED BY IDOCK:   -6.04 KCAL/MOL
REMARK 924 INTRA-LIGAND FREE ENERGY PREDICTED BY IDOCK:   -1.23 KCAL/MOL
REMARK 927      BINDING AFFINITY PREDICTED BY RF-SCORE:    0.00 PKD
ROOT
HETATM    1  C   UNL     1     -12.701  15.668  63.948  1.00  0.00     0.910 C  
HETATM    2  C   UNL     1     -11.553  15.048  64.693  1.00  0.00    -0.386 A  
HETATM    3  C   UNL     1     -10.726  15.836  65.491  1.00  0.00    -0.397 A  
HETATM    4  C   UNL     1      -9.725  15.248  66.275  1.00  0.00    -0.299 A  
HETATM    5  C   UNL     1      -9.444  13.864  66.173  1.00  0.00    -0.171 A  
HETATM    6  C   UNL     1     -10.121  13.146  65.201  1.00  0.00    -0.239 A  
HETATM    7  N   UNL     1      -8.571  13.231  67.093  1.00  0.00    -0.205 NA 
HETATM    8  H   UNL     1      -6.125  16.262  70.466  1.00  0.00     0.000 HD 
HETATM    9  C   UNL     1     -11.298  13.670  64.659  1.00  0.00    -0.380 A  
HETATM   10  C   UNL     1      -7.957  14.045  68.042  1.00  0.00    -0.152 A  
HETATM   11  C   UNL     1     -12.385  12.648  64.464  1.00  0.00    -0.537 C  
HETATM   12  C   UNL     1      -7.491  16.422  68.970  1.00  0.00    -0.227 C  
HETATM   13  N   UNL     1      -7.190  13.565  68.970  1.00  0.00    -0.235 N  
HETATM   14  H   UNL     1      -7.029  12.558  69.007  1.00  0.00     0.000 HD 
HETATM   15  N   UNL     1      -9.064  16.083  67.179  1.00  0.00    -0.203 NA 
HETATM   16  C   UNL     1      -6.590  14.363  69.899  1.00  0.00    -0.133 C  
HETATM   17  N   UNL     1      -6.698  15.719  69.820  1.00  0.00    -0.173 N  
HETATM   18  O   UNL     1      -7.620  17.635  69.003  1.00  0.00    -0.245 OA 
HETATM   19  C   UNL     1      -8.220  15.541  68.000  1.00  0.00    -0.144 A  
HETATM   20  O   UNL     1      -5.943  13.890  70.827  1.00  0.00    -0.189 OA 
ENDROOT
BRANCH   7  21
HETATM   21  C   UNL     1      -8.838  11.790  67.434  1.00  0.00    -0.164 C  
BRANCH  21  22
HETATM   22  C   UNL     1      -9.487  11.620  68.824  1.00  0.00    -0.058 C  
HETATM   23  O   UNL     1      -8.697  10.733  69.614  1.00  0.00    -0.391 OA 
HETATM   24  H   UNL     1      -9.096  10.628  70.470  1.00  0.00     0.000 HD 
BRANCH  22  25
HETATM   25  C   UNL     1     -10.962  11.155  68.807  1.00  0.00    -0.219 C  
HETATM   26  O   UNL     1     -11.813  12.280  69.118  1.00  0.00    -0.300 OA 
HETATM   27  H   UNL     1     -12.718  11.993  69.107  1.00  0.00     0.000 HD 
BRANCH  25  28
HETATM   28  C   UNL     1     -11.382   9.972  69.714  1.00  0.00    -0.228 C  
HETATM   29  O   UNL     1     -11.019  10.296  71.080  1.00  0.00    -0.326 OA 
HETATM   30  H   UNL     1     -11.277   9.571  71.637  1.00  0.00     0.000 HD 
BRANCH  28  31
HETATM   31  C   UNL     1     -10.775   8.604  69.376  1.00  0.00    -0.158 C  
BRANCH  31  32
HETATM   32  O   UNL     1     -10.518   8.594  67.966  1.00  0.00    -0.223 OA 
HETATM   33  P   UNL     1      -9.307   7.703  67.425  1.00  0.00    -0.152 P  
HETATM   34  O   UNL     1      -7.995   8.301  68.110  1.00  0.00    -0.119 OA 
HETATM   35  O   UNL     1      -9.129   8.105  65.892  1.00  0.00    -0.177 OA 
HETATM   36  O   UNL     1      -9.423   6.232  67.617  1.00  0.00    -0.117 OA 
ENDBRANCH  31  32
ENDBRANCH  28  31
ENDBRANCH  25  28
ENDBRANCH  22  25
ENDBRANCH  21  22
ENDBRANCH   7  21
TORSDOF 6
ENDMDL
MODEL      211
REMARK 921   NORMALIZED FREE ENERGY PREDICTED BY IDOCK:   -3.65 KCAL/MOL
REMARK 922        TOTAL FREE ENERGY PREDICTED BY IDOCK:   -7.27 KCAL/MOL
REMARK 923 INTER-LIGAND FREE ENERGY PREDICTED BY IDOCK:   -5.51 KCAL/MOL
REMARK 924 INTRA-LIGAND FREE ENERGY PREDICTED BY IDOCK:   -1.76 KCAL/MOL
REMARK 927      BINDING AFFINITY PREDICTED BY RF-SCORE:    0.00 PKD
ROOT
HETATM    1  C   UNL     1      -9.619   7.291  73.805  1.00  0.00    -0.330 C  
HETATM    2  C   UNL     1      -9.412   7.423  72.323  1.00  0.00    -0.180 A  
HETATM    3  C   UNL     1     -10.227   8.270  71.573  1.00  0.00    -0.277 A  
HETATM    4  C   UNL     1      -9.969   8.482  70.212  1.00  0.00    -0.183 A  
HETATM    5  C   UNL     1      -8.965   7.743  69.541  1.00  0.00    -0.142 A  
HETATM    6  C   UNL     1      -8.330   6.739  70.252  1.00  0.00    -0.134 A  
HETATM    7  N   UNL     1      -8.572   8.084  68.223  1.00  0.00    -0.130 NA 
HETATM    8  H   UNL     1     -11.276  11.775  65.853  1.00  0.00     0.000 HD 
HETATM    9  C   UNL     1      -8.383   6.751  71.649  1.00  0.00    -0.111 A  
HETATM   10  C   UNL     1      -9.265   9.123  67.607  1.00  0.00    -0.128 A  
HETATM   11  C   UNL     1      -7.080   6.393  72.310  1.00  0.00    -0.082 C  
HETATM   12  C   UNL     1     -11.211  10.840  67.656  1.00  0.00    -0.299 C  
HETATM   13  N   UNL     1      -8.949   9.561  66.428  1.00  0.00    -0.149 N  
HETATM   14  H   UNL     1      -8.167   9.130  65.935  1.00  0.00     0.000 HD 
HETATM   15  N   UNL     1     -10.715   9.480  69.581  1.00  0.00    -0.231 NA 
HETATM   16  C   UNL     1      -9.629  10.578  65.827  1.00  0.00    -0.210 C  
HETATM   17  N   UNL     1     -10.742  11.108  66.410  1.00  0.00    -0.262 N  
HETATM   18  O   UNL     1     -12.160  11.411  68.166  1.00  0.00    -0.623 OA 
HETATM   19  C   UNL     1     -10.413   9.780  68.356  1.00  0.00    -0.218 A  
HETATM   20  O   UNL     1      -9.265  11.046  64.753  1.00  0.00    -0.205 OA 
ENDROOT
BRANCH   7  21
HETATM   21  C   UNL     1      -7.140   7.833  67.832  1.00  0.00    -0.086 C  
BRANCH  21  22
HETATM   22  C   UNL     1      -6.999   6.692  66.802  1.00  0.00    -0.067 C  
HETATM   23  O   UNL     1      -6.179   5.658  67.345  1.00  0.00    -0.028 OA 
HETATM   24  H   UNL     1      -6.092   4.956  66.711  1.00  0.00     0.000 HD 
BRANCH  22  25
HETATM   25  C   UNL     1      -6.469   7.124  65.414  1.00  0.00    -0.047 C  
HETATM   26  O   UNL     1      -6.205   8.544  65.433  1.00  0.00    -0.048 OA 
HETATM   27  H   UNL     1      -5.880   8.808  64.581  1.00  0.00     0.000 HD 
BRANCH  25  28
HETATM   28  C   UNL     1      -7.322   6.813  64.161  1.00  0.00    -0.085 C  
HETATM   29  O   UNL     1      -8.597   7.489  64.299  1.00  0.00    -0.362 OA 
HETATM   30  H   UNL     1      -9.120   7.298  63.530  1.00  0.00     0.000 HD 
BRANCH  28  31
HETATM   31  C   UNL     1      -7.601   5.331  63.875  1.00  0.00    -0.071 C  
BRANCH  31  32
HETATM   32  O   UNL     1      -9.024   5.157  63.909  1.00  0.00    -0.051 OA 
HETATM   33  P   UNL     1      -9.616   3.959  64.786  1.00  0.00    -0.192 P  
HETATM   34  O   UNL     1      -9.022   2.624  64.146  1.00  0.00    -0.101 OA 
HETATM   35  O   UNL     1     -11.165   3.879  64.412  1.00  0.00    -0.328 OA 
HETATM   36  O   UNL     1      -9.389   4.031  66.255  1.00  0.00    -0.151 OA 
ENDBRANCH  31  32
ENDBRANCH  28  31
ENDBRANCH  25  28
ENDBRANCH  22  25
ENDBRANCH  21  22
ENDBRANCH   7  21
TORSDOF 6
ENDMDL
MODEL      212
REMARK 921   NORMALIZED FREE ENERGY PREDICTED BY IDOCK:   -3.62 KCAL/MOL
REMARK 922        TOTAL FREE ENERGY PREDICTED BY IDOCK:   -7.23 KCAL/MOL
REMARK 923 INTER-LIGAND FREE ENERGY PREDICTED BY IDOCK:   -5.74 KCAL/MOL
REMARK 924 INTRA-LIGAND FREE ENERGY PREDICTED BY IDOCK:   -1.49 KCAL/MOL
REMARK 927      BINDING AFFINITY PREDICTED BY RF-SCORE:    0.00 PKD
ROOT
HETATM    1  C   UNL     1     -10.077   7.544  73.387  1.00  0.00    -0.393 C  
HETATM    2  C   UNL     1     -10.308   7.649  71.906  1.00  0.00    -0.240 A  
HETATM    3  C   UNL     1     -10.146   8.870  71.255  1.00  0.00    -0.365 A  
HETATM    4  C   UNL     1     -10.251   8.950  69.859  1.00  0.00    -0.200 A  
HETATM    5  C   UNL     1     -10.655   7.827  69.097  1.00  0.00    -0.183 A  
HETATM    6  C   UNL     1     -11.039   6.691  69.790  1.00  0.00    -0.398 A  
HETATM    7  N   UNL     1     -10.579   7.847  67.682  1.00  0.00    -0.231 NA 
HETATM    8  H   UNL     1      -9.253  12.305  65.466  1.00  0.00     0.000 HD 
HETATM    9  C   UNL     1     -10.643   6.536  71.122  1.00  0.00    -0.271 A  
HETATM   10  C   UNL     1     -10.163   9.035  67.088  1.00  0.00    -0.265 A  
HETATM   11  C   UNL     1     -10.205   5.139  71.467  1.00  0.00    -0.274 C  
HETATM   12  C   UNL     1      -9.502  11.533  67.329  1.00  0.00    -0.169 C  
HETATM   13  N   UNL     1      -9.997   9.146  65.807  1.00  0.00    -0.434 N  
HETATM   14  H   UNL     1     -10.179   8.337  65.214  1.00  0.00     0.000 HD 
HETATM   15  N   UNL     1      -9.896  10.168  69.273  1.00  0.00    -0.209 NA 
HETATM   16  C   UNL     1      -9.589  10.311  65.228  1.00  0.00    -0.264 C  
HETATM   17  N   UNL     1      -9.436  11.441  65.976  1.00  0.00    -0.217 N  
HETATM   18  O   UNL     1      -9.266  12.553  67.956  1.00  0.00    -0.191 OA 
HETATM   19  C   UNL     1      -9.868  10.231  67.979  1.00  0.00    -0.150 A  
HETATM   20  O   UNL     1      -9.346  10.378  64.028  1.00  0.00    -0.229 OA 
ENDROOT
BRANCH   7  21
HETATM   21  C   UNL     1     -10.301   6.546  66.978  1.00  0.00    -0.253 C  
BRANCH  21  22
HETATM   22  C   UNL     1      -8.818   6.128  67.068  1.00  0.00    -0.110 C  
HETATM   23  O   UNL     1      -8.102   6.669  65.958  1.00  0.00    -0.110 OA 
HETATM   24  H   UNL     1      -7.189   6.412  66.013  1.00  0.00     0.000 HD 
BRANCH  22  25
HETATM   25  C   UNL     1      -8.571   4.605  67.176  1.00  0.00    -0.104 C  
HETATM   26  O   UNL     1      -9.553   4.032  68.067  1.00  0.00    -0.170 OA 
HETATM   27  H   UNL     1      -9.401   3.097  68.133  1.00  0.00     0.000 HD 
BRANCH  25  28
HETATM   28  C   UNL     1      -7.174   4.106  67.618  1.00  0.00    -0.067 C  
HETATM   29  O   UNL     1      -7.196   2.656  67.644  1.00  0.00    -0.051 OA 
HETATM   30  H   UNL     1      -6.339   2.350  67.915  1.00  0.00     0.000 HD 
BRANCH  28  31
HETATM   31  C   UNL     1      -6.676   4.594  68.985  1.00  0.00    -0.046 C  
BRANCH  31  32
HETATM   32  O   UNL     1      -7.366   3.830  69.983  1.00  0.00    -0.042 OA 
HETATM   33  P   UNL     1      -6.620   3.550  71.368  1.00  0.00    -0.027 P  
HETATM   34  O   UNL     1      -5.315   2.711  70.990  1.00  0.00    -0.004 OA 
HETATM   35  O   UNL     1      -7.524   2.483  72.134  1.00  0.00    -0.042 OA 
HETATM   36  O   UNL     1      -6.304   4.736  72.209  1.00  0.00    -0.030 OA 
ENDBRANCH  31  32
ENDBRANCH  28  31
ENDBRANCH  25  28
ENDBRANCH  22  25
ENDBRANCH  21  22
ENDBRANCH   7  21
TORSDOF 6
ENDMDL
MODEL      213
REMARK 921   NORMALIZED FREE ENERGY PREDICTED BY IDOCK:   -3.62 KCAL/MOL
REMARK 922        TOTAL FREE ENERGY PREDICTED BY IDOCK:   -7.23 KCAL/MOL
REMARK 923 INTER-LIGAND FREE ENERGY PREDICTED BY IDOCK:   -6.20 KCAL/MOL
REMARK 924 INTRA-LIGAND FREE ENERGY PREDICTED BY IDOCK:   -1.03 KCAL/MOL
REMARK 927      BINDING AFFINITY PREDICTED BY RF-SCORE:    0.00 PKD
ROOT
HETATM    1  C   UNL     1      -7.942  10.441  64.934  1.00  0.00    -0.115 C  
HETATM    2  C   UNL     1      -8.364   9.423  65.954  1.00  0.00    -0.125 A  
HETATM    3  C   UNL     1      -8.704   8.131  65.558  1.00  0.00    -0.152 A  
HETATM    4  C   UNL     1      -8.991   7.146  66.513  1.00  0.00    -0.151 A  
HETATM    5  C   UNL     1      -9.073   7.474  67.888  1.00  0.00    -0.130 A  
HETATM    6  C   UNL     1      -8.965   8.811  68.233  1.00  0.00    -0.141 A  
HETATM    7  N   UNL     1      -9.173   6.457  68.871  1.00  0.00    -0.128 NA 
HETATM    8  H   UNL     1      -9.710   1.617  67.189  1.00  0.00     0.000 HD 
HETATM    9  C   UNL     1      -8.389   9.706  67.327  1.00  0.00    -0.114 A  
HETATM   10  C   UNL     1      -9.258   5.144  68.414  1.00  0.00    -0.117 A  
HETATM   11  C   UNL     1      -7.464  10.706  67.966  1.00  0.00    -0.090 C  
HETATM   12  C   UNL     1      -9.464   3.485  66.430  1.00  0.00    -0.147 C  
HETATM   13  N   UNL     1      -9.289   4.132  69.224  1.00  0.00    -0.152 N  
HETATM   14  H   UNL     1      -9.251   4.303  70.229  1.00  0.00     0.000 HD 
HETATM   15  N   UNL     1      -9.143   5.840  66.041  1.00  0.00    -0.158 NA 
HETATM   16  C   UNL     1      -9.371   2.848  68.775  1.00  0.00    -0.168 C  
HETATM   17  N   UNL     1      -9.527   2.587  67.446  1.00  0.00    -0.103 N  
HETATM   18  O   UNL     1      -9.519   3.186  65.248  1.00  0.00    -0.155 OA 
HETATM   19  C   UNL     1      -9.287   4.894  66.915  1.00  0.00    -0.132 A  
HETATM   20  O   UNL     1      -9.307   1.895  69.544  1.00  0.00    -0.109 OA 
ENDROOT
BRANCH   7  21
HETATM   21  C   UNL     1      -8.552   6.721  70.216  1.00  0.00    -0.140 C  
BRANCH  21  22
HETATM   22  C   UNL     1      -9.601   6.824  71.344  1.00  0.00    -0.167 C  
HETATM   23  O   UNL     1     -10.860   6.348  70.869  1.00  0.00    -0.237 OA 
HETATM   24  H   UNL     1     -11.506   6.412  71.563  1.00  0.00     0.000 HD 
BRANCH  22  25
HETATM   25  C   UNL     1      -9.758   8.231  71.966  1.00  0.00    -0.252 C  
HETATM   26  O   UNL     1      -9.190   8.224  73.293  1.00  0.00    -0.255 OA 
HETATM   27  H   UNL     1      -9.286   9.089  73.674  1.00  0.00     0.000 HD 
BRANCH  25  28
HETATM   28  C   UNL     1     -11.173   8.853  72.055  1.00  0.00    -0.352 C  
HETATM   29  O   UNL     1     -12.079   7.849  72.577  1.00  0.00    -0.491 OA 
HETATM   30  H   UNL     1     -12.947   8.230  72.633  1.00  0.00     0.000 HD 
BRANCH  28  31
HETATM   31  C   UNL     1     -11.767   9.389  70.746  1.00  0.00    -0.282 C  
BRANCH  31  32
HETATM   32  O   UNL     1     -10.870  10.395  70.257  1.00  0.00    -0.292 OA 
HETATM   33  P   UNL     1     -11.494  11.675  69.533  1.00  0.00    -0.281 P  
HETATM   34  O   UNL     1     -12.265  11.112  68.254  1.00  0.00    -0.613 OA 
HETATM   35  O   UNL     1     -10.256  12.452  68.893  1.00  0.00    -0.139 OA 
HETATM   36  O   UNL     1     -12.353  12.561  70.364  1.00  0.00    -0.309 OA 
ENDBRANCH  31  32
ENDBRANCH  28  31
ENDBRANCH  25  28
ENDBRANCH  22  25
ENDBRANCH  21  22
ENDBRANCH   7  21
TORSDOF 6
ENDMDL
MODEL      214
REMARK 921   NORMALIZED FREE ENERGY PREDICTED BY IDOCK:   -3.59 KCAL/MOL
REMARK 922        TOTAL FREE ENERGY PREDICTED BY IDOCK:   -7.20 KCAL/MOL
REMARK 923 INTER-LIGAND FREE ENERGY PREDICTED BY IDOCK:   -6.63 KCAL/MOL
REMARK 924 INTRA-LIGAND FREE ENERGY PREDICTED BY IDOCK:   -0.57 KCAL/MOL
REMARK 927      BINDING AFFINITY PREDICTED BY RF-SCORE:    0.00 PKD
ROOT
HETATM    1  C   UNL     1      -9.032   4.693  65.063  1.00  0.00    -0.152 C  
HETATM    2  C   UNL     1      -9.465   5.392  66.321  1.00  0.00    -0.169 A  
HETATM    3  C   UNL     1      -9.761   4.656  67.467  1.00  0.00    -0.213 A  
HETATM    4  C   UNL     1     -10.057   5.306  68.672  1.00  0.00    -0.168 A  
HETATM    5  C   UNL     1     -10.193   6.714  68.721  1.00  0.00    -0.171 A  
HETATM    6  C   UNL     1     -10.127   7.403  67.522  1.00  0.00    -0.250 A  
HETATM    7  N   UNL     1     -10.302   7.390  69.962  1.00  0.00    -0.214 NA 
HETATM    8  H   UNL     1     -10.669   4.471  74.193  1.00  0.00     0.000 HD 
HETATM    9  C   UNL     1      -9.542   6.789  66.411  1.00  0.00    -0.149 A  
HETATM   10  C   UNL     1     -10.340   6.600  71.109  1.00  0.00    -0.206 A  
HETATM   11  C   UNL     1      -8.664   7.703  65.602  1.00  0.00    -0.119 C  
HETATM   12  C   UNL     1     -10.441   4.242  72.187  1.00  0.00    -0.063 C  
HETATM   13  N   UNL     1     -10.375   7.113  72.300  1.00  0.00    -0.197 N  
HETATM   14  H   UNL     1     -10.375   8.128  72.400  1.00  0.00     0.000 HD 
HETATM   15  N   UNL     1     -10.162   4.501  69.809  1.00  0.00    -0.111 NA 
HETATM   16  C   UNL     1     -10.412   6.338  73.420  1.00  0.00    -0.255 C  
HETATM   17  N   UNL     1     -10.517   4.982  73.323  1.00  0.00    -0.193 N  
HETATM   18  O   UNL     1     -10.449   3.022  72.165  1.00  0.00    -0.064 OA 
HETATM   19  C   UNL     1     -10.314   5.088  70.955  1.00  0.00    -0.184 A  
HETATM   20  O   UNL     1     -10.351   6.831  74.542  1.00  0.00    -0.283 OA 
ENDROOT
BRANCH   7  21
HETATM   21  C   UNL     1      -9.733   8.780  70.056  1.00  0.00    -0.173 C  
BRANCH  21  22
HETATM   22  C   UNL     1     -10.828   9.867  70.094  1.00  0.00    -0.304 C  
HETATM   23  O   UNL     1     -12.109   9.251  70.210  1.00  0.00    -0.470 OA 
HETATM   24  H   UNL     1     -12.783   9.920  70.233  1.00  0.00     0.000 HD 
BRANCH  22  25
HETATM   25  C   UNL     1     -10.813  10.854  68.903  1.00  0.00    -0.219 C  
HETATM   26  O   UNL     1      -9.664  11.721  69.026  1.00  0.00    -0.407 OA 
HETATM   27  H   UNL     1      -9.655  12.326  68.294  1.00  0.00     0.000 HD 
BRANCH  25  28
HETATM   28  C   UNL     1     -12.057  11.742  68.654  1.00  0.00    -0.102 C  
HETATM   29  O   UNL     1     -11.969  12.282  67.312  1.00  0.00    -0.546 OA 
HETATM   30  H   UNL     1     -12.732  12.827  67.159  1.00  0.00     0.000 HD 
BRANCH  28  31
HETATM   31  C   UNL     1     -12.264  12.913  69.623  1.00  0.00    -0.141 C  
BRANCH  31  32
HETATM   32  O   UNL     1     -10.999  13.574  69.762  1.00  0.00     0.002 OA 
HETATM   33  P   UNL     1     -10.993  15.097  70.244  1.00  0.00    -0.180 P  
HETATM   34  O   UNL     1     -11.794  15.905  69.124  1.00  0.00    -0.389 OA 
HETATM   35  O   UNL     1      -9.493  15.603  70.048  1.00  0.00    -0.168 OA 
HETATM   36  O   UNL     1     -11.510  15.367  71.613  1.00  0.00    -0.373 OA 
ENDBRANCH  31  32
ENDBRANCH  28  31
ENDBRANCH  25  28
ENDBRANCH  22  25
ENDBRANCH  21  22
ENDBRANCH   7  21
TORSDOF 6
ENDMDL
MODEL      215
REMARK 921   NORMALIZED FREE ENERGY PREDICTED BY IDOCK:   -3.59 KCAL/MOL
REMARK 922        TOTAL FREE ENERGY PREDICTED BY IDOCK:   -7.19 KCAL/MOL
REMARK 923 INTER-LIGAND FREE ENERGY PREDICTED BY IDOCK:   -5.88 KCAL/MOL
REMARK 924 INTRA-LIGAND FREE ENERGY PREDICTED BY IDOCK:   -1.31 KCAL/MOL
REMARK 927      BINDING AFFINITY PREDICTED BY RF-SCORE:    0.00 PKD
ROOT
HETATM    1  C   UNL     1     -10.036   7.388  73.548  1.00  0.00    -0.377 C  
HETATM    2  C   UNL     1      -9.967   8.015  72.184  1.00  0.00    -0.289 A  
HETATM    3  C   UNL     1     -10.802   9.083  71.860  1.00  0.00    -0.413 A  
HETATM    4  C   UNL     1     -10.666   9.743  70.631  1.00  0.00    -0.326 A  
HETATM    5  C   UNL     1      -9.775   9.259  69.643  1.00  0.00    -0.182 A  
HETATM    6  C   UNL     1      -9.130   8.060  69.899  1.00  0.00    -0.145 A  
HETATM    7  N   UNL     1      -9.493  10.024  68.484  1.00  0.00    -0.145 NA 
HETATM    8  H   UNL     1     -12.207  14.353  67.815  1.00  0.00     0.000 HD 
HETATM    9  C   UNL     1      -9.046   7.595  71.214  1.00  0.00    -0.146 A  
HETATM   10  C   UNL     1     -10.185  11.224  68.336  1.00  0.00    -0.195 A  
HETATM   11  C   UNL     1      -7.707   7.008  71.567  1.00  0.00    -0.090 C  
HETATM   12  C   UNL     1     -12.018  12.856  69.176  1.00  0.00    -0.259 C  
HETATM   13  N   UNL     1      -9.961  12.032  67.347  1.00  0.00    -0.190 N  
HETATM   14  H   UNL     1      -9.256  11.781  66.654  1.00  0.00     0.000 HD 
HETATM   15  N   UNL     1     -11.414  10.911  70.461  1.00  0.00    -0.291 NA 
HETATM   16  C   UNL     1     -10.638  13.206  67.204  1.00  0.00    -0.257 C  
HETATM   17  N   UNL     1     -11.658  13.526  68.051  1.00  0.00    -0.316 N  
HETATM   18  O   UNL     1     -12.881  13.236  69.951  1.00  0.00     0.106 OA 
HETATM   19  C   UNL     1     -11.216  11.605  69.385  1.00  0.00    -0.246 A  
HETATM   20  O   UNL     1     -10.354  14.006  66.319  1.00  0.00    -0.280 OA 
ENDROOT
BRANCH   7  21
HETATM   21  C   UNL     1      -8.122   9.895  67.876  1.00  0.00    -0.109 C  
BRANCH  21  22
HETATM   22  C   UNL     1      -8.145   9.180  66.508  1.00  0.00    -0.107 C  
HETATM   23  O   UNL     1      -7.739   7.823  66.672  1.00  0.00    -0.094 OA 
HETATM   24  H   UNL     1      -7.753   7.383  65.829  1.00  0.00     0.000 HD 
BRANCH  22  25
HETATM   25  C   UNL     1      -7.309   9.861  65.398  1.00  0.00    -0.128 C  
HETATM   26  O   UNL     1      -7.405  11.294  65.551  1.00  0.00    -0.342 OA 
HETATM   27  H   UNL     1      -6.892  11.712  64.870  1.00  0.00     0.000 HD 
BRANCH  25  28
HETATM   28  C   UNL     1      -7.612   9.517  63.920  1.00  0.00    -0.122 C  
HETATM   29  O   UNL     1      -9.046   9.375  63.770  1.00  0.00    -0.403 OA 
HETATM   30  H   UNL     1      -9.232   9.164  62.862  1.00  0.00     0.000 HD 
BRANCH  28  31
HETATM   31  C   UNL     1      -6.951   8.248  63.366  1.00  0.00    -0.085 C  
BRANCH  31  32
HETATM   32  O   UNL     1      -7.997   7.295  63.134  1.00  0.00    -0.130 OA 
HETATM   33  P   UNL     1      -7.676   5.748  63.374  1.00  0.00    -0.098 P  
HETATM   34  O   UNL     1      -6.511   5.387  62.344  1.00  0.00    -0.027 OA 
HETATM   35  O   UNL     1      -8.930   4.954  62.792  1.00  0.00    -0.130 OA 
HETATM   36  O   UNL     1      -7.342   5.343  64.767  1.00  0.00    -0.064 OA 
ENDBRANCH  31  32
ENDBRANCH  28  31
ENDBRANCH  25  28
ENDBRANCH  22  25
ENDBRANCH  21  22
ENDBRANCH   7  21
TORSDOF 6
ENDMDL
MODEL      216
REMARK 921   NORMALIZED FREE ENERGY PREDICTED BY IDOCK:   -3.54 KCAL/MOL
REMARK 922        TOTAL FREE ENERGY PREDICTED BY IDOCK:   -7.13 KCAL/MOL
REMARK 923 INTER-LIGAND FREE ENERGY PREDICTED BY IDOCK:   -6.15 KCAL/MOL
REMARK 924 INTRA-LIGAND FREE ENERGY PREDICTED BY IDOCK:   -0.98 KCAL/MOL
REMARK 927      BINDING AFFINITY PREDICTED BY RF-SCORE:    0.00 PKD
ROOT
HETATM    1  C   UNL     1      -9.078   4.030  65.002  1.00  0.00    -0.140 C  
HETATM    2  C   UNL     1      -9.198   5.076  66.074  1.00  0.00    -0.154 A  
HETATM    3  C   UNL     1      -9.462   4.705  67.391  1.00  0.00    -0.177 A  
HETATM    4  C   UNL     1      -9.465   5.665  68.412  1.00  0.00    -0.121 A  
HETATM    5  C   UNL     1      -9.334   7.042  68.113  1.00  0.00    -0.125 A  
HETATM    6  C   UNL     1      -9.310   7.405  66.776  1.00  0.00    -0.202 A  
HETATM    7  N   UNL     1      -9.145   7.994  69.146  1.00  0.00    -0.145 NA 
HETATM    8  H   UNL     1      -9.450   6.281  73.995  1.00  0.00     0.000 HD 
HETATM    9  C   UNL     1      -9.006   6.440  65.811  1.00  0.00    -0.068 A  
HETATM   10  C   UNL     1      -9.168   7.518  70.454  1.00  0.00    -0.157 A  
HETATM   11  C   UNL     1      -8.096   6.936  64.722  1.00  0.00    -0.095 C  
HETATM   12  C   UNL     1      -9.547   5.550  72.102  1.00  0.00    -0.150 C  
HETATM   13  N   UNL     1      -8.944   8.288  71.473  1.00  0.00    -0.156 N  
HETATM   14  H   UNL     1      -8.746   9.275  71.312  1.00  0.00     0.000 HD 
HETATM   15  N   UNL     1      -9.556   5.186  69.722  1.00  0.00    -0.159 NA 
HETATM   16  C   UNL     1      -8.967   7.820  72.753  1.00  0.00    -0.181 C  
HETATM   17  N   UNL     1      -9.330   6.532  73.014  1.00  0.00    -0.135 N  
HETATM   18  O   UNL     1      -9.780   4.388  72.392  1.00  0.00    -0.145 OA 
HETATM   19  C   UNL     1      -9.439   6.041  70.689  1.00  0.00    -0.168 A  
HETATM   20  O   UNL     1      -8.663   8.535  73.702  1.00  0.00    -0.292 OA 
ENDROOT
BRANCH   7  21
HETATM   21  C   UNL     1      -8.325   9.216  68.831  1.00  0.00    -0.124 C  
BRANCH  21  22
HETATM   22  C   UNL     1      -9.186  10.491  68.701  1.00  0.00    -0.172 C  
HETATM   23  O   UNL     1     -10.548  10.126  68.480  1.00  0.00    -0.194 OA 
HETATM   24  H   UNL     1     -11.078  10.911  68.400  1.00  0.00     0.000 HD 
BRANCH  22  25
HETATM   25  C   UNL     1      -8.716  11.492  67.619  1.00  0.00    -0.142 C  
HETATM   26  O   UNL     1      -7.687  12.337  68.178  1.00  0.00    -0.119 OA 
HETATM   27  H   UNL     1      -7.398  12.952  67.514  1.00  0.00     0.000 HD 
BRANCH  25  28
HETATM   28  C   UNL     1      -9.766  12.403  66.939  1.00  0.00    -0.215 C  
HETATM   29  O   UNL     1      -9.290  12.734  65.611  1.00  0.00    -0.459 OA 
HETATM   30  H   UNL     1      -9.935  13.292  65.193  1.00  0.00     0.000 HD 
BRANCH  28  31
HETATM   31  C   UNL     1     -10.103  13.714  67.661  1.00  0.00    -0.242 C  
BRANCH  31  32
HETATM   32  O   UNL     1      -9.193  14.709  67.174  1.00  0.00    -0.202 OA 
HETATM   33  P   UNL     1      -9.802  16.032  66.518  1.00  0.00    -0.310 P  
HETATM   34  O   UNL     1     -10.637  15.538  65.251  1.00  0.00    -0.370 OA 
HETATM   35  O   UNL     1      -8.565  16.793  65.858  1.00  0.00    -0.500 OA 
HETATM   36  O   UNL     1     -10.601  16.914  67.411  1.00  0.00    -0.329 OA 
ENDBRANCH  31  32
ENDBRANCH  28  31
ENDBRANCH  25  28
ENDBRANCH  22  25
ENDBRANCH  21  22
ENDBRANCH   7  21
TORSDOF 6
ENDMDL
MODEL      217
REMARK 921   NORMALIZED FREE ENERGY PREDICTED BY IDOCK:   -3.52 KCAL/MOL
REMARK 922        TOTAL FREE ENERGY PREDICTED BY IDOCK:   -7.10 KCAL/MOL
REMARK 923 INTER-LIGAND FREE ENERGY PREDICTED BY IDOCK:   -6.87 KCAL/MOL
REMARK 924 INTRA-LIGAND FREE ENERGY PREDICTED BY IDOCK:   -0.23 KCAL/MOL
REMARK 927      BINDING AFFINITY PREDICTED BY RF-SCORE:    0.00 PKD
ROOT
HETATM    1  C   UNL     1      -5.147  17.433  70.587  1.00  0.00    -0.266 C  
HETATM    2  C   UNL     1      -5.750  16.340  69.751  1.00  0.00    -0.167 A  
HETATM    3  C   UNL     1      -5.680  15.013  70.173  1.00  0.00    -0.133 A  
HETATM    4  C   UNL     1      -6.336  14.004  69.455  1.00  0.00    -0.121 A  
HETATM    5  C   UNL     1      -6.968  14.286  68.220  1.00  0.00    -0.108 A  
HETATM    6  C   UNL     1      -6.820  15.564  67.706  1.00  0.00    -0.182 A  
HETATM    7  N   UNL     1      -7.790  13.320  67.588  1.00  0.00    -0.154 NA 
HETATM    8  H   UNL     1      -7.965   8.635  69.725  1.00  0.00     0.000 HD 
HETATM    9  C   UNL     1      -6.438  16.604  68.558  1.00  0.00    -0.139 A  
HETATM   10  C   UNL     1      -7.883  12.073  68.201  1.00  0.00    -0.145 A  
HETATM   11  C   UNL     1      -7.179  17.890  68.318  1.00  0.00    -0.236 C  
HETATM   12  C   UNL     1      -7.108  10.445  70.068  1.00  0.00    -0.150 C  
HETATM   13  N   UNL     1      -8.654  11.135  67.746  1.00  0.00    -0.129 N  
HETATM   14  H   UNL     1      -9.211  11.317  66.911  1.00  0.00     0.000 HD 
HETATM   15  N   UNL     1      -6.368  12.737  70.043  1.00  0.00    -0.052 NA 
HETATM   16  C   UNL     1      -8.744   9.916  68.347  1.00  0.00    -0.120 C  
HETATM   17  N   UNL     1      -7.940   9.602  69.402  1.00  0.00    -0.100 N  
HETATM   18  O   UNL     1      -6.478  10.136  71.065  1.00  0.00    -0.312 OA 
HETATM   19  C   UNL     1      -7.071  11.816  69.460  1.00  0.00     0.092 A  
HETATM   20  O   UNL     1      -9.545   9.070  67.964  1.00  0.00    -0.144 OA 
ENDROOT
BRANCH   7  21
HETATM   21  C   UNL     1      -8.951  13.816  66.770  1.00  0.00    -0.185 C  
BRANCH  21  22
HETATM   22  C   UNL     1     -10.056  14.457  67.636  1.00  0.00    -0.222 C  
HETATM   23  O   UNL     1     -10.306  13.636  68.775  1.00  0.00    -0.282 OA 
HETATM   24  H   UNL     1     -10.987  14.030  69.308  1.00  0.00     0.000 HD 
BRANCH  22  25
HETATM   25  C   UNL     1     -11.378  14.762  66.892  1.00  0.00    -0.355 C  
HETATM   26  O   UNL     1     -12.113  13.531  66.720  1.00  0.00    -0.389 OA 
HETATM   27  H   UNL     1     -12.925  13.718  66.264  1.00  0.00     0.000 HD 
BRANCH  25  28
HETATM   28  C   UNL     1     -11.314  15.477  65.521  1.00  0.00    -0.095 C  
HETATM   29  O   UNL     1     -11.011  14.488  64.506  1.00  0.00    -0.561 OA 
HETATM   30  H   UNL     1     -10.972  14.926  63.664  1.00  0.00     0.000 HD 
BRANCH  28  31
HETATM   31  C   UNL     1     -10.293  16.615  65.391  1.00  0.00    -0.190 C  
BRANCH  31  32
HETATM   32  O   UNL     1     -10.517  17.508  66.490  1.00  0.00    -0.326 OA 
HETATM   33  P   UNL     1     -10.235  19.065  66.267  1.00  0.00    -0.437 P  
HETATM   34  O   UNL     1      -8.682  19.174  65.917  1.00  0.00    -0.450 OA 
HETATM   35  O   UNL     1     -10.325  19.730  67.714  1.00  0.00    -0.412 OA 
HETATM   36  O   UNL     1     -11.089  19.762  65.267  1.00  0.00    -0.395 OA 
ENDBRANCH  31  32
ENDBRANCH  28  31
ENDBRANCH  25  28
ENDBRANCH  22  25
ENDBRANCH  21  22
ENDBRANCH   7  21
TORSDOF 6
ENDMDL
MODEL      218
REMARK 921   NORMALIZED FREE ENERGY PREDICTED BY IDOCK:   -3.52 KCAL/MOL
REMARK 922        TOTAL FREE ENERGY PREDICTED BY IDOCK:   -7.10 KCAL/MOL
REMARK 923 INTER-LIGAND FREE ENERGY PREDICTED BY IDOCK:   -6.08 KCAL/MOL
REMARK 924 INTRA-LIGAND FREE ENERGY PREDICTED BY IDOCK:   -1.01 KCAL/MOL
REMARK 927      BINDING AFFINITY PREDICTED BY RF-SCORE:    0.00 PKD
ROOT
HETATM    1  C   UNL     1     -12.975   7.074  72.196  1.00  0.00    -0.071 C  
HETATM    2  C   UNL     1     -12.352   8.059  71.249  1.00  0.00    -0.290 A  
HETATM    3  C   UNL     1     -12.792   9.381  71.221  1.00  0.00    -0.383 A  
HETATM    4  C   UNL     1     -12.141  10.330  70.420  1.00  0.00    -0.286 A  
HETATM    5  C   UNL     1     -11.115   9.941  69.526  1.00  0.00    -0.217 A  
HETATM    6  C   UNL     1     -10.858   8.586  69.400  1.00  0.00    -0.103 A  
HETATM    7  N   UNL     1     -10.328  10.913  68.859  1.00  0.00    -0.196 NA 
HETATM    8  H   UNL     1     -11.691  15.846  69.460  1.00  0.00     0.000 HD 
HETATM    9  C   UNL     1     -11.290   7.712  70.402  1.00  0.00    -0.235 A  
HETATM   10  C   UNL     1     -10.661  12.249  69.071  1.00  0.00    -0.107 A  
HETATM   11  C   UNL     1     -10.288   6.646  70.753  1.00  0.00    -0.232 C  
HETATM   12  C   UNL     1     -12.264  14.007  70.106  1.00  0.00    -0.359 C  
HETATM   13  N   UNL     1      -9.971  13.222  68.563  1.00  0.00    -0.334 N  
HETATM   14  H   UNL     1      -9.158  13.002  67.987  1.00  0.00     0.000 HD 
HETATM   15  N   UNL     1     -12.527  11.662  70.588  1.00  0.00    -0.322 NA 
HETATM   16  C   UNL     1     -10.299  14.528  68.772  1.00  0.00    -0.243 C  
HETATM   17  N   UNL     1     -11.436  14.858  69.448  1.00  0.00    -0.281 N  
HETATM   18  O   UNL     1     -13.220  14.364  70.774  1.00  0.00    -0.353 OA 
HETATM   19  C   UNL     1     -11.858  12.571  69.950  1.00  0.00    -0.303 A  
HETATM   20  O   UNL     1      -9.588  15.440  68.364  1.00  0.00    -0.194 OA 
ENDROOT
BRANCH   7  21
HETATM   21  C   UNL     1      -8.899  10.561  68.545  1.00  0.00    -0.144 C  
BRANCH  21  22
HETATM   22  C   UNL     1      -8.614  10.537  67.028  1.00  0.00    -0.127 C  
HETATM   23  O   UNL     1      -9.572  11.348  66.349  1.00  0.00    -0.195 OA 
HETATM   24  H   UNL     1      -9.397  11.333  65.415  1.00  0.00     0.000 HD 
BRANCH  22  25
HETATM   25  C   UNL     1      -8.559   9.127  66.394  1.00  0.00    -0.125 C  
HETATM   26  O   UNL     1      -9.897   8.722  66.033  1.00  0.00    -0.388 OA 
HETATM   27  H   UNL     1      -9.863   7.857  65.643  1.00  0.00     0.000 HD 
BRANCH  25  28
HETATM   28  C   UNL     1      -7.911   7.973  67.197  1.00  0.00    -0.105 C  
HETATM   29  O   UNL     1      -6.583   8.391  67.602  1.00  0.00    -0.056 OA 
HETATM   30  H   UNL     1      -6.185   7.683  68.095  1.00  0.00     0.000 HD 
BRANCH  28  31
HETATM   31  C   UNL     1      -7.782   6.626  66.474  1.00  0.00    -0.102 C  
BRANCH  31  32
HETATM   32  O   UNL     1      -8.196   6.835  65.117  1.00  0.00    -0.131 OA 
HETATM   33  P   UNL     1      -8.374   5.555  64.177  1.00  0.00     0.004 P  
HETATM   34  O   UNL     1      -6.932   4.875  64.101  1.00  0.00    -0.047 OA 
HETATM   35  O   UNL     1      -8.579   6.130  62.704  1.00  0.00    -0.008 OA 
HETATM   36  O   UNL     1      -9.436   4.586  64.562  1.00  0.00    -0.151 OA 
ENDBRANCH  31  32
ENDBRANCH  28  31
ENDBRANCH  25  28
ENDBRANCH  22  25
ENDBRANCH  21  22
ENDBRANCH   7  21
TORSDOF 6
ENDMDL
MODEL      219
REMARK 921   NORMALIZED FREE ENERGY PREDICTED BY IDOCK:   -3.47 KCAL/MOL
REMARK 922        TOTAL FREE ENERGY PREDICTED BY IDOCK:   -7.03 KCAL/MOL
REMARK 923 INTER-LIGAND FREE ENERGY PREDICTED BY IDOCK:   -6.40 KCAL/MOL
REMARK 924 INTRA-LIGAND FREE ENERGY PREDICTED BY IDOCK:   -0.64 KCAL/MOL
REMARK 927      BINDING AFFINITY PREDICTED BY RF-SCORE:    0.00 PKD
ROOT
HETATM    1  C   UNL     1     -11.436  14.838  66.361  1.00  0.00    -0.319 C  
HETATM    2  C   UNL     1     -10.599  13.591  66.328  1.00  0.00    -0.288 A  
HETATM    3  C   UNL     1      -9.606  13.386  67.285  1.00  0.00    -0.234 A  
HETATM    4  C   UNL     1      -8.898  12.177  67.326  1.00  0.00    -0.186 A  
HETATM    5  C   UNL     1      -9.080  11.196  66.321  1.00  0.00    -0.194 A  
HETATM    6  C   UNL     1      -9.896  11.523  65.251  1.00  0.00    -0.286 A  
HETATM    7  N   UNL     1      -8.515   9.904  66.459  1.00  0.00    -0.124 NA 
HETATM    8  H   UNL     1      -5.411   9.121  70.496  1.00  0.00     0.000 HD 
HETATM    9  C   UNL     1     -10.805  12.577  65.382  1.00  0.00    -0.316 A  
HETATM   10  C   UNL     1      -7.724   9.677  67.583  1.00  0.00    -0.095 A  
HETATM   11  C   UNL     1     -12.153  12.297  64.775  1.00  0.00    -0.436 C  
HETATM   12  C   UNL     1      -6.562  10.600  69.711  1.00  0.00    -0.121 C  
HETATM   13  N   UNL     1      -7.210   8.515  67.842  1.00  0.00    -0.086 N  
HETATM   14  H   UNL     1      -7.389   7.742  67.202  1.00  0.00     0.000 HD 
HETATM   15  N   UNL     1      -8.054  11.982  68.422  1.00  0.00    -0.156 NA 
HETATM   16  C   UNL     1      -6.438   8.295  68.943  1.00  0.00    -0.052 C  
HETATM   17  N   UNL     1      -6.092   9.327  69.765  1.00  0.00    -0.038 N  
HETATM   18  O   UNL     1      -6.290  11.463  70.528  1.00  0.00    -0.301 OA 
HETATM   19  C   UNL     1      -7.482  10.826  68.548  1.00  0.00    -0.100 A  
HETATM   20  O   UNL     1      -6.034   7.173  69.228  1.00  0.00    -0.027 OA 
ENDROOT
BRANCH   7  21
HETATM   21  C   UNL     1      -9.257   8.747  65.846  1.00  0.00    -0.220 C  
BRANCH  21  22
HETATM   22  C   UNL     1      -9.557   7.628  66.866  1.00  0.00    -0.193 C  
HETATM   23  O   UNL     1      -9.728   6.389  66.179  1.00  0.00    -0.363 OA 
HETATM   24  H   UNL     1      -9.913   5.700  66.807  1.00  0.00     0.000 HD 
BRANCH  22  25
HETATM   25  C   UNL     1     -10.763   7.897  67.797  1.00  0.00    -0.119 C  
HETATM   26  O   UNL     1     -11.231   9.246  67.581  1.00  0.00    -0.454 OA 
HETATM   27  H   UNL     1     -11.971   9.410  68.153  1.00  0.00     0.000 HD 
BRANCH  25  28
HETATM   28  C   UNL     1     -10.589   7.688  69.321  1.00  0.00    -0.201 C  
HETATM   29  O   UNL     1      -9.238   7.224  69.565  1.00  0.00    -0.149 OA 
HETATM   30  H   UNL     1      -9.131   7.096  70.500  1.00  0.00     0.000 HD 
BRANCH  28  31
HETATM   31  C   UNL     1     -11.556   6.702  69.990  1.00  0.00    -0.362 C  
BRANCH  31  32
HETATM   32  O   UNL     1     -10.773   5.592  70.451  1.00  0.00    -0.282 OA 
HETATM   33  P   UNL     1     -10.574   5.412  72.025  1.00  0.00    -0.188 P  
HETATM   34  O   UNL     1      -9.810   6.725  72.514  1.00  0.00    -0.164 OA 
HETATM   35  O   UNL     1      -9.471   4.272  72.191  1.00  0.00    -0.122 OA 
HETATM   36  O   UNL     1     -11.798   5.139  72.827  1.00  0.00    -0.219 OA 
ENDBRANCH  31  32
ENDBRANCH  28  31
ENDBRANCH  25  28
ENDBRANCH  22  25
ENDBRANCH  21  22
ENDBRANCH   7  21
TORSDOF 6
ENDMDL
MODEL      220
REMARK 921   NORMALIZED FREE ENERGY PREDICTED BY IDOCK:   -3.43 KCAL/MOL
REMARK 922        TOTAL FREE ENERGY PREDICTED BY IDOCK:   -6.98 KCAL/MOL
REMARK 923 INTER-LIGAND FREE ENERGY PREDICTED BY IDOCK:   -6.97 KCAL/MOL
REMARK 924 INTRA-LIGAND FREE ENERGY PREDICTED BY IDOCK:   -0.01 KCAL/MOL
REMARK 927      BINDING AFFINITY PREDICTED BY RF-SCORE:    0.00 PKD
ROOT
HETATM    1  C   UNL     1     -12.205  16.208  72.928  1.00  0.00    -0.640 C  
HETATM    2  C   UNL     1     -12.279  15.504  71.604  1.00  0.00    -0.468 A  
HETATM    3  C   UNL     1     -11.785  16.116  70.454  1.00  0.00    -0.237 A  
HETATM    4  C   UNL     1     -11.750  15.421  69.237  1.00  0.00    -0.349 A  
HETATM    5  C   UNL     1     -12.336  14.138  69.120  1.00  0.00    -0.138 A  
HETATM    6  C   UNL     1     -13.030  13.650  70.215  1.00  0.00     0.086 A  
HETATM    7  N   UNL     1     -12.139  13.355  67.955  1.00  0.00    -0.311 NA 
HETATM    8  H   UNL     1      -9.636  15.573  64.036  1.00  0.00     0.000 HD 
HETATM    9  C   UNL     1     -12.795  14.207  71.476  1.00  0.00    -0.430 A  
HETATM   10  C   UNL     1     -11.410  13.935  66.920  1.00  0.00    -0.328 A  
HETATM   11  C   UNL     1     -12.722  13.192  72.584  1.00  0.00     0.275 C  
HETATM   12  C   UNL     1     -10.213  16.015  65.933  1.00  0.00    -0.365 C  
HETATM   13  N   UNL     1     -11.115  13.289  65.835  1.00  0.00    -0.284 N  
HETATM   14  H   UNL     1     -11.428  12.323  65.736  1.00  0.00     0.000 HD 
HETATM   15  N   UNL     1     -11.075  16.039  68.181  1.00  0.00    -0.345 NA 
HETATM   16  C   UNL     1     -10.401  13.859  64.824  1.00  0.00    -0.394 C  
HETATM   17  N   UNL     1     -10.056  15.177  64.876  1.00  0.00    -0.234 N  
HETATM   18  O   UNL     1      -9.802  17.164  65.961  1.00  0.00    -0.420 OA 
HETATM   19  C   UNL     1     -10.924  15.366  67.084  1.00  0.00    -0.317 A  
HETATM   20  O   UNL     1     -10.049  13.211  63.844  1.00  0.00    -0.334 OA 
ENDROOT
BRANCH   7  21
HETATM   21  C   UNL     1     -12.110  11.858  68.114  1.00  0.00     0.035 C  
BRANCH  21  22
HETATM   22  C   UNL     1     -10.736  11.338  68.587  1.00  0.00    -0.205 C  
HETATM   23  O   UNL     1      -9.709  12.213  68.123  1.00  0.00    -0.197 OA 
HETATM   24  H   UNL     1      -8.863  11.893  68.414  1.00  0.00     0.000 HD 
BRANCH  22  25
HETATM   25  C   UNL     1     -10.417   9.877  68.192  1.00  0.00    -0.215 C  
HETATM   26  O   UNL     1     -11.017   8.988  69.158  1.00  0.00    -0.404 OA 
HETATM   27  H   UNL     1     -10.821   8.091  68.915  1.00  0.00     0.000 HD 
BRANCH  25  28
HETATM   28  C   UNL     1      -8.936   9.460  68.013  1.00  0.00    -0.127 C  
HETATM   29  O   UNL     1      -8.829   8.039  68.279  1.00  0.00    -0.133 OA 
HETATM   30  H   UNL     1      -7.921   7.783  68.169  1.00  0.00     0.000 HD 
BRANCH  28  31
HETATM   31  C   UNL     1      -7.912  10.185  68.896  1.00  0.00    -0.110 C  
BRANCH  31  32
HETATM   32  O   UNL     1      -7.915   9.529  70.170  1.00  0.00    -0.124 OA 
HETATM   33  P   UNL     1      -6.585   9.590  71.054  1.00  0.00     0.046 P  
HETATM   34  O   UNL     1      -5.459   8.864  70.185  1.00  0.00    -0.027 OA 
HETATM   35  O   UNL     1      -6.822   8.571  72.258  1.00  0.00    -0.093 OA 
HETATM   36  O   UNL     1      -6.155  10.935  71.523  1.00  0.00    -0.178 OA 
ENDBRANCH  31  32
ENDBRANCH  28  31
ENDBRANCH  25  28
ENDBRANCH  22  25
ENDBRANCH  21  22
ENDBRANCH   7  21
TORSDOF 6
ENDMDL
MODEL      221
REMARK 921   NORMALIZED FREE ENERGY PREDICTED BY IDOCK:   -3.37 KCAL/MOL
REMARK 922        TOTAL FREE ENERGY PREDICTED BY IDOCK:   -6.90 KCAL/MOL
REMARK 923 INTER-LIGAND FREE ENERGY PREDICTED BY IDOCK:   -5.81 KCAL/MOL
REMARK 924 INTRA-LIGAND FREE ENERGY PREDICTED BY IDOCK:   -1.09 KCAL/MOL
REMARK 927      BINDING AFFINITY PREDICTED BY RF-SCORE:    0.00 PKD
ROOT
HETATM    1  C   UNL     1     -12.226  15.591  63.942  1.00  0.00     0.241 C  
HETATM    2  C   UNL     1     -11.224  14.953  64.861  1.00  0.00    -0.415 A  
HETATM    3  C   UNL     1     -10.217  15.720  65.443  1.00  0.00    -0.380 A  
HETATM    4  C   UNL     1      -9.348  15.154  66.386  1.00  0.00    -0.301 A  
HETATM    5  C   UNL     1      -9.387  13.767  66.666  1.00  0.00    -0.264 A  
HETATM    6  C   UNL     1     -10.237  12.985  65.902  1.00  0.00    -0.298 A  
HETATM    7  N   UNL     1      -8.649  13.225  67.748  1.00  0.00    -0.171 NA 
HETATM    8  H   UNL     1      -5.482  16.420  70.259  1.00  0.00     0.000 HD 
HETATM    9  C   UNL     1     -11.284  13.595  65.204  1.00  0.00    -0.318 A  
HETATM   10  C   UNL     1      -7.839  14.104  68.463  1.00  0.00    -0.140 A  
HETATM   11  C   UNL     1     -12.578  12.829  65.257  1.00  0.00    -0.460 C  
HETATM   12  C   UNL     1      -6.824  16.476  68.735  1.00  0.00    -0.175 C  
HETATM   13  N   UNL     1      -7.170  13.730  69.509  1.00  0.00    -0.325 N  
HETATM   14  H   UNL     1      -7.238  12.761  69.818  1.00  0.00     0.000 HD 
HETATM   15  N   UNL     1      -8.489  16.031  67.053  1.00  0.00    -0.195 NA 
HETATM   16  C   UNL     1      -6.379  14.593  70.207  1.00  0.00    -0.171 C  
HETATM   17  N   UNL     1      -6.183  15.867  69.765  1.00  0.00    -0.175 N  
HETATM   18  O   UNL     1      -6.678  17.650  68.437  1.00  0.00    -0.190 OA 
HETATM   19  C   UNL     1      -7.762  15.554  68.014  1.00  0.00    -0.127 A  
HETATM   20  O   UNL     1      -5.824  14.253  71.247  1.00  0.00    -0.208 OA 
ENDROOT
BRANCH   7  21
HETATM   21  C   UNL     1      -9.221  12.025  68.454  1.00  0.00    -0.160 C  
BRANCH  21  22
HETATM   22  C   UNL     1      -8.312  10.783  68.344  1.00  0.00    -0.132 C  
HETATM   23  O   UNL     1      -8.786   9.935  67.299  1.00  0.00    -0.131 OA 
HETATM   24  H   UNL     1      -8.226   9.170  67.231  1.00  0.00     0.000 HD 
BRANCH  22  25
HETATM   25  C   UNL     1      -8.141   9.977  69.654  1.00  0.00    -0.172 C  
HETATM   26  O   UNL     1      -7.504  10.817  70.641  1.00  0.00    -0.237 OA 
HETATM   27  H   UNL     1      -7.400  10.322  71.445  1.00  0.00     0.000 HD 
BRANCH  25  28
HETATM   28  C   UNL     1      -7.378   8.631  69.606  1.00  0.00    -0.056 C  
HETATM   29  O   UNL     1      -6.471   8.662  68.476  1.00  0.00    -0.053 OA 
HETATM   30  H   UNL     1      -6.002   7.836  68.448  1.00  0.00     0.000 HD 
BRANCH  28  31
HETATM   31  C   UNL     1      -8.235   7.364  69.490  1.00  0.00    -0.131 C  
BRANCH  31  32
HETATM   32  O   UNL     1      -9.201   7.410  70.548  1.00  0.00    -0.157 OA 
HETATM   33  P   UNL     1      -8.715   7.060  72.029  1.00  0.00    -0.122 P  
HETATM   34  O   UNL     1      -8.200   5.551  71.966  1.00  0.00    -0.113 OA 
HETATM   35  O   UNL     1     -10.045   6.950  72.903  1.00  0.00    -0.172 OA 
HETATM   36  O   UNL     1      -7.710   7.974  72.637  1.00  0.00    -0.105 OA 
ENDBRANCH  31  32
ENDBRANCH  28  31
ENDBRANCH  25  28
ENDBRANCH  22  25
ENDBRANCH  21  22
ENDBRANCH   7  21
TORSDOF 6
ENDMDL
MODEL      222
REMARK 921   NORMALIZED FREE ENERGY PREDICTED BY IDOCK:   -3.37 KCAL/MOL
REMARK 922        TOTAL FREE ENERGY PREDICTED BY IDOCK:   -6.90 KCAL/MOL
REMARK 923 INTER-LIGAND FREE ENERGY PREDICTED BY IDOCK:   -6.23 KCAL/MOL
REMARK 924 INTRA-LIGAND FREE ENERGY PREDICTED BY IDOCK:   -0.67 KCAL/MOL
REMARK 927      BINDING AFFINITY PREDICTED BY RF-SCORE:    0.00 PKD
ROOT
HETATM    1  C   UNL     1     -10.457   7.601  73.147  1.00  0.00    -0.433 C  
HETATM    2  C   UNL     1     -10.672   8.031  71.724  1.00  0.00    -0.296 A  
HETATM    3  C   UNL     1     -10.988   9.356  71.431  1.00  0.00    -0.443 A  
HETATM    4  C   UNL     1     -11.079   9.787  70.101  1.00  0.00    -0.285 A  
HETATM    5  C   UNL     1     -10.986   8.863  69.032  1.00  0.00     0.054 A  
HETATM    6  C   UNL     1     -10.909   7.519  69.356  1.00  0.00    -0.161 A  
HETATM    7  N   UNL     1     -10.887   9.313  67.692  1.00  0.00    -0.202 NA 
HETATM    8  H   UNL     1     -11.371  14.378  66.877  1.00  0.00     0.000 HD 
HETATM    9  C   UNL     1     -10.520   7.148  70.646  1.00  0.00    -0.226 A  
HETATM   10  C   UNL     1     -10.958  10.688  67.480  1.00  0.00    -0.310 A  
HETATM   11  C   UNL     1      -9.575   5.978  70.683  1.00  0.00    -0.201 C  
HETATM   12  C   UNL     1     -11.344  13.070  68.432  1.00  0.00    -0.291 C  
HETATM   13  N   UNL     1     -10.816  11.214  66.304  1.00  0.00    -0.242 N  
HETATM   14  H   UNL     1     -10.647  10.601  65.506  1.00  0.00     0.000 HD 
HETATM   15  N   UNL     1     -11.218  11.162  69.896  1.00  0.00    -0.248 NA 
HETATM   16  C   UNL     1     -10.885  12.560  66.099  1.00  0.00    -0.272 C  
HETATM   17  N   UNL     1     -11.211  13.400  67.122  1.00  0.00    -0.293 N  
HETATM   18  O   UNL     1     -11.547  13.879  69.323  1.00  0.00    -0.268 OA 
HETATM   19  C   UNL     1     -11.183  11.599  68.676  1.00  0.00    -0.250 A  
HETATM   20  O   UNL     1     -10.657  13.053  65.000  1.00  0.00    -0.295 OA 
ENDROOT
BRANCH   7  21
HETATM   21  C   UNL     1     -10.099   8.469  66.726  1.00  0.00    -0.299 C  
BRANCH  21  22
HETATM   22  C   UNL     1      -8.720   9.078  66.394  1.00  0.00    -0.132 C  
HETATM   23  O   UNL     1      -8.424   8.864  65.015  1.00  0.00    -0.159 OA 
HETATM   24  H   UNL     1      -7.575   9.239  64.811  1.00  0.00     0.000 HD 
BRANCH  22  25
HETATM   25  C   UNL     1      -7.553   8.578  67.278  1.00  0.00    -0.097 C  
HETATM   26  O   UNL     1      -6.342   9.258  66.883  1.00  0.00    -0.064 OA 
HETATM   27  H   UNL     1      -5.625   8.951  67.426  1.00  0.00     0.000 HD 
BRANCH  25  28
HETATM   28  C   UNL     1      -7.255   7.060  67.330  1.00  0.00    -0.090 C  
HETATM   29  O   UNL     1      -6.176   6.841  68.273  1.00  0.00    -0.028 OA 
HETATM   30  H   UNL     1      -5.993   5.909  68.306  1.00  0.00     0.000 HD 
BRANCH  28  31
HETATM   31  C   UNL     1      -6.865   6.394  66.004  1.00  0.00    -0.057 C  
BRANCH  31  32
HETATM   32  O   UNL     1      -8.082   5.982  65.366  1.00  0.00    -0.118 OA 
HETATM   33  P   UNL     1      -8.836   4.697  65.942  1.00  0.00    -0.135 P  
HETATM   34  O   UNL     1      -7.813   3.484  65.769  1.00  0.00    -0.087 OA 
HETATM   35  O   UNL     1      -9.978   4.357  64.881  1.00  0.00    -0.177 OA 
HETATM   36  O   UNL     1      -9.363   4.797  67.330  1.00  0.00    -0.124 OA 
ENDBRANCH  31  32
ENDBRANCH  28  31
ENDBRANCH  25  28
ENDBRANCH  22  25
ENDBRANCH  21  22
ENDBRANCH   7  21
TORSDOF 6
ENDMDL
MODEL      223
REMARK 921   NORMALIZED FREE ENERGY PREDICTED BY IDOCK:   -3.34 KCAL/MOL
REMARK 922        TOTAL FREE ENERGY PREDICTED BY IDOCK:   -6.85 KCAL/MOL
REMARK 923 INTER-LIGAND FREE ENERGY PREDICTED BY IDOCK:   -5.88 KCAL/MOL
REMARK 924 INTRA-LIGAND FREE ENERGY PREDICTED BY IDOCK:   -0.97 KCAL/MOL
REMARK 927      BINDING AFFINITY PREDICTED BY RF-SCORE:    0.00 PKD
ROOT
HETATM    1  C   UNL     1      -5.786  13.376  70.087  1.00  0.00    -0.148 C  
HETATM    2  C   UNL     1      -6.804  12.808  69.139  1.00  0.00    -0.054 A  
HETATM    3  C   UNL     1      -7.945  13.539  68.814  1.00  0.00    -0.002 A  
HETATM    4  C   UNL     1      -8.842  13.063  67.847  1.00  0.00    -0.193 A  
HETATM    5  C   UNL     1      -8.680  11.776  67.280  1.00  0.00    -0.163 A  
HETATM    6  C   UNL     1      -7.673  10.975  67.793  1.00  0.00    -0.108 A  
HETATM    7  N   UNL     1      -9.465  11.368  66.172  1.00  0.00    -0.210 NA 
HETATM    8  H   UNL     1     -13.211  14.562  64.652  1.00  0.00     0.000 HD 
HETATM    9  C   UNL     1      -6.632  11.565  68.515  1.00  0.00    -0.063 A  
HETATM   10  C   UNL     1     -10.437  12.260  65.725  1.00  0.00    -0.255 A  
HETATM   11  C   UNL     1      -5.275  10.997  68.198  1.00  0.00    -0.039 C  
HETATM   12  C   UNL     1     -11.730  14.487  66.040  1.00  0.00    -0.345 C  
HETATM   13  N   UNL     1     -11.169  12.018  64.683  1.00  0.00    -0.319 N  
HETATM   14  H   UNL     1     -11.028  11.146  64.173  1.00  0.00     0.000 HD 
HETATM   15  N   UNL     1      -9.857  13.937  67.451  1.00  0.00    -0.233 NA 
HETATM   16  C   UNL     1     -12.119  12.892  64.247  1.00  0.00    -0.419 C  
HETATM   17  N   UNL     1     -12.406  14.017  64.961  1.00  0.00    -0.433 N  
HETATM   18  O   UNL     1     -11.972  15.550  66.588  1.00  0.00     0.253 OA 
HETATM   19  C   UNL     1     -10.625  13.570  66.473  1.00  0.00    -0.281 A  
HETATM   20  O   UNL     1     -12.741  12.696  63.207  1.00  0.00    -0.669 OA 
ENDROOT
BRANCH   7  21
HETATM   21  C   UNL     1      -8.843  10.417  65.187  1.00  0.00    -0.189 C  
BRANCH  21  22
HETATM   22  C   UNL     1      -9.373   8.975  65.339  1.00  0.00    -0.144 C  
HETATM   23  O   UNL     1     -10.271   8.911  66.445  1.00  0.00    -0.283 OA 
HETATM   24  H   UNL     1     -10.598   8.024  66.539  1.00  0.00     0.000 HD 
BRANCH  22  25
HETATM   25  C   UNL     1      -8.283   7.885  65.468  1.00  0.00    -0.140 C  
HETATM   26  O   UNL     1      -8.800   6.641  64.949  1.00  0.00    -0.350 OA 
HETATM   27  H   UNL     1      -8.130   5.972  65.029  1.00  0.00     0.000 HD 
BRANCH  25  28
HETATM   28  C   UNL     1      -7.671   7.605  66.862  1.00  0.00    -0.103 C  
HETATM   29  O   UNL     1      -6.275   7.997  66.833  1.00  0.00    -0.051 OA 
HETATM   30  H   UNL     1      -5.900   7.826  67.688  1.00  0.00     0.000 HD 
BRANCH  28  31
HETATM   31  C   UNL     1      -7.744   6.156  67.361  1.00  0.00    -0.094 C  
BRANCH  31  32
HETATM   32  O   UNL     1      -8.598   6.151  68.513  1.00  0.00    -0.113 OA 
HETATM   33  P   UNL     1      -9.658   4.965  68.661  1.00  0.00    -0.154 P  
HETATM   34  O   UNL     1     -10.623   5.092  67.396  1.00  0.00    -0.153 OA 
HETATM   35  O   UNL     1     -10.602   5.382  69.877  1.00  0.00    -0.307 OA 
HETATM   36  O   UNL     1      -9.107   3.591  68.815  1.00  0.00    -0.118 OA 
ENDBRANCH  31  32
ENDBRANCH  28  31
ENDBRANCH  25  28
ENDBRANCH  22  25
ENDBRANCH  21  22
ENDBRANCH   7  21
TORSDOF 6
ENDMDL
MODEL      224
REMARK 921   NORMALIZED FREE ENERGY PREDICTED BY IDOCK:   -3.31 KCAL/MOL
REMARK 922        TOTAL FREE ENERGY PREDICTED BY IDOCK:   -6.81 KCAL/MOL
REMARK 923 INTER-LIGAND FREE ENERGY PREDICTED BY IDOCK:   -6.97 KCAL/MOL
REMARK 924 INTRA-LIGAND FREE ENERGY PREDICTED BY IDOCK:    0.16 KCAL/MOL
REMARK 927      BINDING AFFINITY PREDICTED BY RF-SCORE:    0.00 PKD
ROOT
HETATM    1  C   UNL     1      -7.281   7.545  65.887  1.00  0.00    -0.066 C  
HETATM    2  C   UNL     1      -8.497   8.152  66.527  1.00  0.00    -0.132 A  
HETATM    3  C   UNL     1      -8.919   7.721  67.784  1.00  0.00    -0.128 A  
HETATM    4  C   UNL     1      -9.984   8.360  68.433  1.00  0.00    -0.187 A  
HETATM    5  C   UNL     1     -10.738   9.361  67.775  1.00  0.00    -0.229 A  
HETATM    6  C   UNL     1     -10.449   9.604  66.443  1.00  0.00    -0.181 A  
HETATM    7  N   UNL     1     -11.687  10.138  68.486  1.00  0.00    -0.079 NA 
HETATM    8  H   UNL     1     -12.593   8.827  73.386  1.00  0.00     0.000 HD 
HETATM    9  C   UNL     1      -9.220   9.190  65.923  1.00  0.00    -0.286 A  
HETATM   10  C   UNL     1     -11.886   9.820  69.827  1.00  0.00     0.122 A  
HETATM   11  C   UNL     1      -8.581  10.193  65.001  1.00  0.00    -0.178 C  
HETATM   12  C   UNL     1     -11.404   8.256  71.840  1.00  0.00    -0.308 C  
HETATM   13  N   UNL     1     -12.682  10.505  70.588  1.00  0.00    -0.371 N  
HETATM   14  H   UNL     1     -13.179  11.302  70.192  1.00  0.00     0.000 HD 
HETATM   15  N   UNL     1     -10.223   7.988  69.759  1.00  0.00    -0.201 NA 
HETATM   16  C   UNL     1     -12.875  10.192  71.901  1.00  0.00    -0.427 C  
HETATM   17  N   UNL     1     -12.308   9.074  72.438  1.00  0.00    -0.324 N  
HETATM   18  O   UNL     1     -10.857   7.319  72.399  1.00  0.00    -0.229 OA 
HETATM   19  C   UNL     1     -11.122   8.647  70.420  1.00  0.00    -0.230 A  
HETATM   20  O   UNL     1     -13.557  10.900  72.634  1.00  0.00     0.245 OA 
ENDROOT
BRANCH   7  21
HETATM   21  C   UNL     1     -11.909  11.556  68.034  1.00  0.00    -0.217 C  
BRANCH  21  22
HETATM   22  C   UNL     1     -10.918  12.547  68.683  1.00  0.00    -0.255 C  
HETATM   23  O   UNL     1     -10.005  11.833  69.514  1.00  0.00    -0.249 OA 
HETATM   24  H   UNL     1      -9.396  12.443  69.914  1.00  0.00     0.000 HD 
BRANCH  22  25
HETATM   25  C   UNL     1     -11.572  13.705  69.473  1.00  0.00    -0.301 C  
HETATM   26  O   UNL     1     -12.621  14.289  68.669  1.00  0.00    -0.506 OA 
HETATM   27  H   UNL     1     -13.022  14.999  69.155  1.00  0.00     0.000 HD 
BRANCH  25  28
HETATM   28  C   UNL     1     -10.674  14.853  69.995  1.00  0.00    -0.138 C  
HETATM   29  O   UNL     1     -11.249  15.357  71.226  1.00  0.00    -0.354 OA 
HETATM   30  H   UNL     1     -10.697  16.061  71.546  1.00  0.00     0.000 HD 
BRANCH  28  31
HETATM   31  C   UNL     1     -10.468  16.042  69.048  1.00  0.00    -0.246 C  
BRANCH  31  32
HETATM   32  O   UNL     1     -11.067  15.691  67.793  1.00  0.00    -0.314 OA 
HETATM   33  P   UNL     1     -10.152  15.723  66.484  1.00  0.00    -0.316 P  
HETATM   34  O   UNL     1      -9.669  17.237  66.335  1.00  0.00    -0.271 OA 
HETATM   35  O   UNL     1     -11.153  15.542  65.256  1.00  0.00    -0.357 OA 
HETATM   36  O   UNL     1      -9.017  14.761  66.439  1.00  0.00    -0.259 OA 
ENDBRANCH  31  32
ENDBRANCH  28  31
ENDBRANCH  25  28
ENDBRANCH  22  25
ENDBRANCH  21  22
ENDBRANCH   7  21
TORSDOF 6
ENDMDL
MODEL      225
REMARK 921   NORMALIZED FREE ENERGY PREDICTED BY IDOCK:   -3.23 KCAL/MOL
REMARK 922        TOTAL FREE ENERGY PREDICTED BY IDOCK:   -6.71 KCAL/MOL
REMARK 923 INTER-LIGAND FREE ENERGY PREDICTED BY IDOCK:   -5.81 KCAL/MOL
REMARK 924 INTRA-LIGAND FREE ENERGY PREDICTED BY IDOCK:   -0.90 KCAL/MOL
REMARK 927      BINDING AFFINITY PREDICTED BY RF-SCORE:    0.00 PKD
ROOT
HETATM    1  C   UNL     1      -7.360  10.026  65.071  1.00  0.00    -0.140 C  
HETATM    2  C   UNL     1      -8.082   8.866  65.696  1.00  0.00    -0.113 A  
HETATM    3  C   UNL     1      -7.411   7.668  65.932  1.00  0.00    -0.082 A  
HETATM    4  C   UNL     1      -8.046   6.621  66.615  1.00  0.00    -0.110 A  
HETATM    5  C   UNL     1      -9.417   6.707  66.959  1.00  0.00    -0.144 A  
HETATM    6  C   UNL     1     -10.121   7.810  66.504  1.00  0.00    -0.224 A  
HETATM    7  N   UNL     1     -10.012   5.743  67.811  1.00  0.00    -0.130 NA 
HETATM    8  H   UNL     1      -7.113   1.707  69.170  1.00  0.00     0.000 HD 
HETATM    9  C   UNL     1      -9.420   8.951  66.104  1.00  0.00    -0.318 A  
HETATM   10  C   UNL     1      -9.208   4.684  68.225  1.00  0.00    -0.128 A  
HETATM   11  C   UNL     1     -10.049  10.240  66.558  1.00  0.00    -0.290 C  
HETATM   12  C   UNL     1      -6.948   3.418  68.087  1.00  0.00    -0.050 C  
HETATM   13  N   UNL     1      -9.629   3.781  69.054  1.00  0.00    -0.163 N  
HETATM   14  H   UNL     1     -10.581   3.847  69.414  1.00  0.00     0.000 HD 
HETATM   15  N   UNL     1      -7.250   5.530  66.970  1.00  0.00    -0.077 NA 
HETATM   16  C   UNL     1      -8.840   2.746  69.459  1.00  0.00    -0.093 C  
HETATM   17  N   UNL     1      -7.600   2.568  68.921  1.00  0.00    -0.047 N  
HETATM   18  O   UNL     1      -5.800   3.255  67.707  1.00  0.00    -0.021 OA 
HETATM   19  C   UNL     1      -7.782   4.605  67.706  1.00  0.00    -0.082 A  
HETATM   20  O   UNL     1      -9.216   1.950  70.313  1.00  0.00    -0.086 OA 
ENDROOT
BRANCH   7  21
HETATM   21  C   UNL     1     -11.135   6.197  68.705  1.00  0.00    -0.294 C  
BRANCH  21  22
HETATM   22  C   UNL     1     -10.636   7.021  69.911  1.00  0.00    -0.229 C  
HETATM   23  O   UNL     1      -9.391   6.494  70.366  1.00  0.00    -0.161 OA 
HETATM   24  H   UNL     1      -9.083   7.001  71.109  1.00  0.00     0.000 HD 
BRANCH  22  25
HETATM   25  C   UNL     1     -11.634   7.132  71.087  1.00  0.00    -0.301 C  
HETATM   26  O   UNL     1     -12.977   7.197  70.559  1.00  0.00    -0.581 OA 
HETATM   27  H   UNL     1     -13.589   7.265  71.281  1.00  0.00     0.000 HD 
BRANCH  25  28
HETATM   28  C   UNL     1     -11.464   8.287  72.104  1.00  0.00    -0.361 C  
HETATM   29  O   UNL     1     -12.146   9.455  71.583  1.00  0.00    -0.341 OA 
HETATM   30  H   UNL     1     -12.041  10.164  72.207  1.00  0.00     0.000 HD 
BRANCH  28  31
HETATM   31  C   UNL     1     -10.023   8.692  72.441  1.00  0.00    -0.249 C  
BRANCH  31  32
HETATM   32  O   UNL     1      -9.454   7.624  73.209  1.00  0.00    -0.209 OA 
HETATM   33  P   UNL     1      -7.912   7.723  73.614  1.00  0.00    -0.210 P  
HETATM   34  O   UNL     1      -7.108   7.754  72.235  1.00  0.00    -0.066 OA 
HETATM   35  O   UNL     1      -7.533   6.297  74.219  1.00  0.00    -0.090 OA 
HETATM   36  O   UNL     1      -7.528   8.843  74.516  1.00  0.00    -0.419 OA 
ENDBRANCH  31  32
ENDBRANCH  28  31
ENDBRANCH  25  28
ENDBRANCH  22  25
ENDBRANCH  21  22
ENDBRANCH   7  21
TORSDOF 6
ENDMDL
MODEL      226
REMARK 921   NORMALIZED FREE ENERGY PREDICTED BY IDOCK:   -3.18 KCAL/MOL
REMARK 922        TOTAL FREE ENERGY PREDICTED BY IDOCK:   -6.63 KCAL/MOL
REMARK 923 INTER-LIGAND FREE ENERGY PREDICTED BY IDOCK:   -5.48 KCAL/MOL
REMARK 924 INTRA-LIGAND FREE ENERGY PREDICTED BY IDOCK:   -1.15 KCAL/MOL
REMARK 927      BINDING AFFINITY PREDICTED BY RF-SCORE:    0.00 PKD
ROOT
HETATM    1  C   UNL     1      -8.561   7.822  73.762  1.00  0.00    -0.306 C  
HETATM    2  C   UNL     1      -8.752   7.986  72.281  1.00  0.00    -0.220 A  
HETATM    3  C   UNL     1      -9.694   8.889  71.791  1.00  0.00    -0.365 A  
HETATM    4  C   UNL     1      -9.800   9.128  70.414  1.00  0.00    -0.218 A  
HETATM    5  C   UNL     1      -9.051   8.364  69.487  1.00  0.00    -0.153 A  
HETATM    6  C   UNL     1      -8.300   7.313  69.986  1.00  0.00    -0.137 A  
HETATM    7  N   UNL     1      -9.009   8.724  68.117  1.00  0.00    -0.141 NA 
HETATM    8  H   UNL     1     -12.060  12.597  66.618  1.00  0.00     0.000 HD 
HETATM    9  C   UNL     1      -7.976   7.289  71.345  1.00  0.00    -0.097 A  
HETATM   10  C   UNL     1      -9.789   9.810  67.725  1.00  0.00    -0.160 A  
HETATM   11  C   UNL     1      -6.564   6.854  71.626  1.00  0.00    -0.049 C  
HETATM   12  C   UNL     1     -11.561  11.609  68.322  1.00  0.00    -0.310 C  
HETATM   13  N   UNL     1      -9.779  10.266  66.512  1.00  0.00    -0.185 N  
HETATM   14  H   UNL     1      -9.180   9.814  65.820  1.00  0.00     0.000 HD 
HETATM   15  N   UNL     1     -10.637  10.176  70.022  1.00  0.00    -0.278 NA 
HETATM   16  C   UNL     1     -10.542  11.329  66.131  1.00  0.00    -0.258 C  
HETATM   17  N   UNL     1     -11.430  11.891  67.000  1.00  0.00    -0.328 N  
HETATM   18  O   UNL     1     -12.309  12.208  69.077  1.00  0.00    -0.095 OA 
HETATM   19  C   UNL     1     -10.659  10.496  68.766  1.00  0.00    -0.207 A  
HETATM   20  O   UNL     1     -10.456  11.810  65.006  1.00  0.00    -0.261 OA 
ENDROOT
BRANCH   7  21
HETATM   21  C   UNL     1      -7.749   8.421  67.351  1.00  0.00    -0.098 C  
BRANCH  21  22
HETATM   22  C   UNL     1      -7.675   6.949  66.891  1.00  0.00    -0.099 C  
HETATM   23  O   UNL     1      -6.310   6.543  66.811  1.00  0.00    -0.038 OA 
HETATM   24  H   UNL     1      -6.264   5.637  66.528  1.00  0.00     0.000 HD 
BRANCH  22  25
HETATM   25  C   UNL     1      -8.407   6.640  65.564  1.00  0.00    -0.144 C  
HETATM   26  O   UNL     1      -9.240   7.766  65.214  1.00  0.00    -0.369 OA 
HETATM   27  H   UNL     1      -9.688   7.575  64.398  1.00  0.00     0.000 HD 
BRANCH  25  28
HETATM   28  C   UNL     1      -9.270   5.358  65.470  1.00  0.00    -0.081 C  
HETATM   29  O   UNL     1     -10.299   5.428  66.489  1.00  0.00    -0.223 OA 
HETATM   30  H   UNL     1     -10.829   4.642  66.431  1.00  0.00     0.000 HD 
BRANCH  28  31
HETATM   31  C   UNL     1      -8.531   4.023  65.635  1.00  0.00    -0.109 C  
BRANCH  31  32
HETATM   32  O   UNL     1      -9.347   3.191  66.470  1.00  0.00    -0.159 OA 
HETATM   33  P   UNL     1      -8.845   2.889  67.956  1.00  0.00    -0.166 P  
HETATM   34  O   UNL     1      -7.454   2.125  67.793  1.00  0.00    -0.054 OA 
HETATM   35  O   UNL     1      -9.816   1.754  68.516  1.00  0.00    -0.092 OA 
HETATM   36  O   UNL     1      -8.743   4.055  68.876  1.00  0.00    -0.085 OA 
ENDBRANCH  31  32
ENDBRANCH  28  31
ENDBRANCH  25  28
ENDBRANCH  22  25
ENDBRANCH  21  22
ENDBRANCH   7  21
TORSDOF 6
ENDMDL
MODEL      227
REMARK 921   NORMALIZED FREE ENERGY PREDICTED BY IDOCK:   -3.15 KCAL/MOL
REMARK 922        TOTAL FREE ENERGY PREDICTED BY IDOCK:   -6.60 KCAL/MOL
REMARK 923 INTER-LIGAND FREE ENERGY PREDICTED BY IDOCK:   -6.36 KCAL/MOL
REMARK 924 INTRA-LIGAND FREE ENERGY PREDICTED BY IDOCK:   -0.24 KCAL/MOL
REMARK 927      BINDING AFFINITY PREDICTED BY RF-SCORE:    0.00 PKD
ROOT
HETATM    1  C   UNL     1     -10.572   5.254  72.699  1.00  0.00    -0.278 C  
HETATM    2  C   UNL     1     -10.717   6.036  71.425  1.00  0.00    -0.314 A  
HETATM    3  C   UNL     1     -11.194   7.346  71.455  1.00  0.00    -0.271 A  
HETATM    4  C   UNL     1     -11.226   8.117  70.285  1.00  0.00    -0.182 A  
HETATM    5  C   UNL     1     -10.905   7.544  69.031  1.00  0.00    -0.061 A  
HETATM    6  C   UNL     1     -10.664   6.181  68.995  1.00  0.00    -0.377 A  
HETATM    7  N   UNL     1     -10.752   8.358  67.881  1.00  0.00    -0.136 NA 
HETATM    8  H   UNL     1     -11.887  13.359  68.379  1.00  0.00     0.000 HD 
HETATM    9  C   UNL     1     -10.343   5.512  70.180  1.00  0.00    -0.354 A  
HETATM   10  C   UNL     1     -11.001   9.720  68.033  1.00  0.00    -0.180 A  
HETATM   11  C   UNL     1      -9.246   4.494  70.025  1.00  0.00    -0.195 C  
HETATM   12  C   UNL     1     -11.812  11.682  69.524  1.00  0.00    -0.348 C  
HETATM   13  N   UNL     1     -10.832  10.565  67.065  1.00  0.00    -0.255 N  
HETATM   14  H   UNL     1     -10.505  10.222  66.161  1.00  0.00     0.000 HD 
HETATM   15  N   UNL     1     -11.544   9.469  70.435  1.00  0.00    -0.243 NA 
HETATM   16  C   UNL     1     -11.076  11.897  67.216  1.00  0.00    -0.288 C  
HETATM   17  N   UNL     1     -11.610  12.377  68.375  1.00  0.00    -0.303 N  
HETATM   18  O   UNL     1     -12.208  12.182  70.564  1.00  0.00    -0.356 OA 
HETATM   19  C   UNL     1     -11.463  10.230  69.388  1.00  0.00    -0.186 A  
HETATM   20  O   UNL     1     -10.824  12.700  66.324  1.00  0.00    -0.265 OA 
ENDROOT
BRANCH   7  21
HETATM   21  C   UNL     1      -9.767   7.912  66.834  1.00  0.00    -0.219 C  
BRANCH  21  22
HETATM   22  C   UNL     1      -8.302   8.086  67.286  1.00  0.00    -0.122 C  
HETATM   23  O   UNL     1      -8.239   9.041  68.344  1.00  0.00    -0.114 OA 
HETATM   24  H   UNL     1      -7.337   9.148  68.623  1.00  0.00     0.000 HD 
BRANCH  22  25
HETATM   25  C   UNL     1      -7.309   8.464  66.161  1.00  0.00    -0.084 C  
HETATM   26  O   UNL     1      -5.969   8.138  66.589  1.00  0.00    -0.043 OA 
HETATM   27  H   UNL     1      -5.360   8.370  65.898  1.00  0.00     0.000 HD 
BRANCH  25  28
HETATM   28  C   UNL     1      -7.301   9.919  65.632  1.00  0.00    -0.116 C  
HETATM   29  O   UNL     1      -8.480  10.111  64.811  1.00  0.00    -0.158 OA 
HETATM   30  H   UNL     1      -8.476  11.003  64.487  1.00  0.00     0.000 HD 
BRANCH  28  31
HETATM   31  C   UNL     1      -6.078  10.340  64.808  1.00  0.00    -0.128 C  
BRANCH  31  32
HETATM   32  O   UNL     1      -5.475  11.451  65.485  1.00  0.00    -0.190 OA 
HETATM   33  P   UNL     1      -5.894  11.728  67.001  1.00  0.00    -0.099 P  
HETATM   34  O   UNL     1      -7.462  12.029  66.965  1.00  0.00    -0.148 OA 
HETATM   35  O   UNL     1      -5.264  13.147  67.368  1.00  0.00    -0.313 OA 
HETATM   36  O   UNL     1      -5.545  10.677  67.994  1.00  0.00    -0.037 OA 
ENDBRANCH  31  32
ENDBRANCH  28  31
ENDBRANCH  25  28
ENDBRANCH  22  25
ENDBRANCH  21  22
ENDBRANCH   7  21
TORSDOF 6
ENDMDL
MODEL      228
REMARK 921   NORMALIZED FREE ENERGY PREDICTED BY IDOCK:   -3.14 KCAL/MOL
REMARK 922        TOTAL FREE ENERGY PREDICTED BY IDOCK:   -6.58 KCAL/MOL
REMARK 923 INTER-LIGAND FREE ENERGY PREDICTED BY IDOCK:   -5.15 KCAL/MOL
REMARK 924 INTRA-LIGAND FREE ENERGY PREDICTED BY IDOCK:   -1.43 KCAL/MOL
REMARK 927      BINDING AFFINITY PREDICTED BY RF-SCORE:    0.00 PKD
ROOT
HETATM    1  C   UNL     1      -8.502  12.086  67.500  1.00  0.00    -0.165 C  
HETATM    2  C   UNL     1      -7.972  10.813  68.097  1.00  0.00    -0.114 A  
HETATM    3  C   UNL     1      -7.953  10.640  69.479  1.00  0.00    -0.079 A  
HETATM    4  C   UNL     1      -7.564   9.415  70.037  1.00  0.00    -0.113 A  
HETATM    5  C   UNL     1      -7.057   8.376  69.220  1.00  0.00    -0.062 A  
HETATM    6  C   UNL     1      -6.864   8.656  67.877  1.00  0.00    -0.067 A  
HETATM    7  N   UNL     1      -6.843   7.078  69.747  1.00  0.00    -0.049 NA 
HETATM    8  H   UNL     1      -7.524   6.466  74.818  1.00  0.00     0.000 HD 
HETATM    9  C   UNL     1      -7.527   9.746  67.305  1.00  0.00    -0.088 A  
HETATM   10  C   UNL     1      -7.086   6.901  71.107  1.00  0.00    -0.075 A  
HETATM   11  C   UNL     1      -8.078   9.469  65.933  1.00  0.00    -0.115 C  
HETATM   12  C   UNL     1      -7.687   7.926  73.414  1.00  0.00    -0.149 C  
HETATM   13  N   UNL     1      -6.984   5.743  71.682  1.00  0.00    -0.070 N  
HETATM   14  H   UNL     1      -6.717   4.935  71.120  1.00  0.00     0.000 HD 
HETATM   15  N   UNL     1      -7.746   9.267  71.414  1.00  0.00    -0.336 NA 
HETATM   16  C   UNL     1      -7.223   5.573  73.013  1.00  0.00    -0.091 C  
HETATM   17  N   UNL     1      -7.481   6.645  73.814  1.00  0.00    -0.083 N  
HETATM   18  O   UNL     1      -8.006   8.833  74.164  1.00  0.00    -0.387 OA 
HETATM   19  C   UNL     1      -7.509   8.103  71.935  1.00  0.00    -0.091 A  
HETATM   20  O   UNL     1      -7.215   4.459  73.528  1.00  0.00    -0.071 OA 
ENDROOT
BRANCH   7  21
HETATM   21  C   UNL     1      -7.022   5.907  68.819  1.00  0.00    -0.072 C  
BRANCH  21  22
HETATM   22  C   UNL     1      -8.214   5.011  69.216  1.00  0.00    -0.083 C  
HETATM   23  O   UNL     1      -7.893   3.645  68.956  1.00  0.00    -0.052 OA 
HETATM   24  H   UNL     1      -8.627   3.094  69.201  1.00  0.00     0.000 HD 
BRANCH  22  25
HETATM   25  C   UNL     1      -9.562   5.381  68.553  1.00  0.00    -0.129 C  
HETATM   26  O   UNL     1      -9.397   6.606  67.807  1.00  0.00    -0.121 OA 
HETATM   27  H   UNL     1     -10.225   6.833  67.400  1.00  0.00     0.000 HD 
BRANCH  25  28
HETATM   28  C   UNL     1     -10.817   5.531  69.448  1.00  0.00    -0.166 C  
HETATM   29  O   UNL     1     -11.713   6.481  68.819  1.00  0.00    -0.533 OA 
HETATM   30  H   UNL     1     -12.483   6.573  69.367  1.00  0.00     0.000 HD 
BRANCH  28  31
HETATM   31  C   UNL     1     -10.575   5.995  70.891  1.00  0.00    -0.251 C  
BRANCH  31  32
HETATM   32  O   UNL     1     -10.495   7.426  70.865  1.00  0.00    -0.215 OA 
HETATM   33  P   UNL     1     -11.447   8.252  71.847  1.00  0.00    -0.366 P  
HETATM   34  O   UNL     1     -12.937   7.884  71.410  1.00  0.00    -0.322 OA 
HETATM   35  O   UNL     1     -11.307   9.777  71.399  1.00  0.00    -0.369 OA 
HETATM   36  O   UNL     1     -11.225   8.066  73.307  1.00  0.00    -0.262 OA 
ENDBRANCH  31  32
ENDBRANCH  28  31
ENDBRANCH  25  28
ENDBRANCH  22  25
ENDBRANCH  21  22
ENDBRANCH   7  21
TORSDOF 6
ENDMDL
MODEL      229
REMARK 921   NORMALIZED FREE ENERGY PREDICTED BY IDOCK:   -3.11 KCAL/MOL
REMARK 922        TOTAL FREE ENERGY PREDICTED BY IDOCK:   -6.55 KCAL/MOL
REMARK 923 INTER-LIGAND FREE ENERGY PREDICTED BY IDOCK:   -5.62 KCAL/MOL
REMARK 924 INTRA-LIGAND FREE ENERGY PREDICTED BY IDOCK:   -0.92 KCAL/MOL
REMARK 927      BINDING AFFINITY PREDICTED BY RF-SCORE:    0.00 PKD
ROOT
HETATM    1  C   UNL     1      -6.164  10.484  70.681  1.00  0.00    -0.065 C  
HETATM    2  C   UNL     1      -7.031  10.457  69.455  1.00  0.00    -0.102 A  
HETATM    3  C   UNL     1      -8.219  11.186  69.419  1.00  0.00     0.176 A  
HETATM    4  C   UNL     1      -8.975  11.254  68.241  1.00  0.00    -0.172 A  
HETATM    5  C   UNL     1      -8.623  10.481  67.108  1.00  0.00    -0.127 A  
HETATM    6  C   UNL     1      -7.575   9.585  67.248  1.00  0.00    -0.091 A  
HETATM    7  N   UNL     1      -9.264  10.687  65.862  1.00  0.00    -0.175 NA 
HETATM    8  H   UNL     1     -13.218  13.990  65.780  1.00  0.00     0.000 HD 
HETATM    9  C   UNL     1      -6.669   9.752  68.299  1.00  0.00    -0.060 A  
HETATM   10  C   UNL     1     -10.294  11.625  65.829  1.00  0.00    -0.249 A  
HETATM   11  C   UNL     1      -5.235   9.517  67.908  1.00  0.00    -0.037 C  
HETATM   12  C   UNL     1     -11.853  13.265  67.098  1.00  0.00    -0.374 C  
HETATM   13  N   UNL     1     -10.907  11.939  64.731  1.00  0.00    -0.296 N  
HETATM   14  H   UNL     1     -10.628  11.484  63.862  1.00  0.00     0.000 HD 
HETATM   15  N   UNL     1     -10.049  12.147  68.236  1.00  0.00    -0.206 NA 
HETATM   16  C   UNL     1     -11.914  12.857  64.701  1.00  0.00    -0.392 C  
HETATM   17  N   UNL     1     -12.383  13.409  65.856  1.00  0.00    -0.443 N  
HETATM   18  O   UNL     1     -12.258  13.855  68.086  1.00  0.00    -0.329 OA 
HETATM   19  C   UNL     1     -10.689  12.319  67.122  1.00  0.00    -0.233 A  
HETATM   20  O   UNL     1     -12.423  13.215  63.645  1.00  0.00    -0.685 OA 
ENDROOT
BRANCH   7  21
HETATM   21  C   UNL     1      -8.461  10.445  64.612  1.00  0.00    -0.173 C  
BRANCH  21  22
HETATM   22  C   UNL     1      -8.604   9.001  64.085  1.00  0.00    -0.143 C  
HETATM   23  O   UNL     1      -9.350   8.224  65.021  1.00  0.00    -0.290 OA 
HETATM   24  H   UNL     1      -9.438   7.335  64.696  1.00  0.00     0.000 HD 
BRANCH  22  25
HETATM   25  C   UNL     1      -7.272   8.294  63.740  1.00  0.00    -0.092 C  
HETATM   26  O   UNL     1      -6.903   8.627  62.384  1.00  0.00    -0.095 OA 
HETATM   27  H   UNL     1      -6.085   8.193  62.172  1.00  0.00     0.000 HD 
BRANCH  25  28
HETATM   28  C   UNL     1      -7.182   6.757  63.897  1.00  0.00    -0.068 C  
HETATM   29  O   UNL     1      -8.442   6.181  63.472  1.00  0.00    -0.324 OA 
HETATM   30  H   UNL     1      -8.387   5.238  63.568  1.00  0.00     0.000 HD 
BRANCH  28  31
HETATM   31  C   UNL     1      -6.873   6.232  65.305  1.00  0.00    -0.048 C  
BRANCH  31  32
HETATM   32  O   UNL     1      -7.785   5.156  65.563  1.00  0.00    -0.084 OA 
HETATM   33  P   UNL     1      -8.543   5.129  66.969  1.00  0.00    -0.102 P  
HETATM   34  O   UNL     1      -7.395   5.011  68.073  1.00  0.00    -0.072 OA 
HETATM   35  O   UNL     1      -9.261   3.707  67.043  1.00  0.00    -0.158 OA 
HETATM   36  O   UNL     1      -9.478   6.253  67.246  1.00  0.00    -0.116 OA 
ENDBRANCH  31  32
ENDBRANCH  28  31
ENDBRANCH  25  28
ENDBRANCH  22  25
ENDBRANCH  21  22
ENDBRANCH   7  21
TORSDOF 6
ENDMDL
MODEL      230
REMARK 921   NORMALIZED FREE ENERGY PREDICTED BY IDOCK:   -3.11 KCAL/MOL
REMARK 922        TOTAL FREE ENERGY PREDICTED BY IDOCK:   -6.55 KCAL/MOL
REMARK 923 INTER-LIGAND FREE ENERGY PREDICTED BY IDOCK:   -5.45 KCAL/MOL
REMARK 924 INTRA-LIGAND FREE ENERGY PREDICTED BY IDOCK:   -1.09 KCAL/MOL
REMARK 927      BINDING AFFINITY PREDICTED BY RF-SCORE:    0.00 PKD
ROOT
HETATM    1  C   UNL     1      -5.985   6.428  64.589  1.00  0.00    -0.023 C  
HETATM    2  C   UNL     1      -6.513   7.642  65.299  1.00  0.00    -0.041 A  
HETATM    3  C   UNL     1      -7.479   8.444  64.694  1.00  0.00    -0.098 A  
HETATM    4  C   UNL     1      -8.056   9.512  65.394  1.00  0.00    -0.125 A  
HETATM    5  C   UNL     1      -7.577   9.882  66.674  1.00  0.00    -0.103 A  
HETATM    6  C   UNL     1      -6.459   9.219  67.152  1.00  0.00    -0.063 A  
HETATM    7  N   UNL     1      -8.274  10.831  67.463  1.00  0.00    -0.111 NA 
HETATM    8  H   UNL     1     -12.297  13.193  65.276  1.00  0.00     0.000 HD 
HETATM    9  C   UNL     1      -6.101   7.989  66.593  1.00  0.00    -0.049 A  
HETATM   10  C   UNL     1      -9.397  11.424  66.891  1.00  0.00    -0.181 A  
HETATM   11  C   UNL     1      -5.657   6.968  67.604  1.00  0.00    -0.020 C  
HETATM   12  C   UNL     1     -10.927  11.763  64.822  1.00  0.00    -0.303 C  
HETATM   13  N   UNL     1     -10.146  12.257  67.544  1.00  0.00    -0.199 N  
HETATM   14  H   UNL     1      -9.905  12.487  68.508  1.00  0.00     0.000 HD 
HETATM   15  N   UNL     1      -9.140  10.149  64.785  1.00  0.00    -0.201 NA 
HETATM   16  C   UNL     1     -11.245  12.836  66.982  1.00  0.00    -0.292 C  
HETATM   17  N   UNL     1     -11.539  12.633  65.666  1.00  0.00    -0.356 N  
HETATM   18  O   UNL     1     -11.289  11.553  63.677  1.00  0.00    -0.411 OA 
HETATM   19  C   UNL     1      -9.767  11.058  65.463  1.00  0.00    -0.229 A  
HETATM   20  O   UNL     1     -11.998  13.550  67.636  1.00  0.00    -0.354 OA 
ENDROOT
BRANCH   7  21
HETATM   21  C   UNL     1      -8.216  10.675  68.959  1.00  0.00    -0.151 C  
BRANCH  21  22
HETATM   22  C   UNL     1      -9.324   9.748  69.502  1.00  0.00    -0.213 C  
HETATM   23  O   UNL     1     -10.252  10.511  70.271  1.00  0.00    -0.415 OA 
HETATM   24  H   UNL     1     -10.933   9.940  70.605  1.00  0.00     0.000 HD 
BRANCH  22  25
HETATM   25  C   UNL     1      -8.820   8.534  70.318  1.00  0.00    -0.148 C  
HETATM   26  O   UNL     1      -7.395   8.400  70.129  1.00  0.00    -0.056 OA 
HETATM   27  H   UNL     1      -7.086   7.655  70.630  1.00  0.00     0.000 HD 
BRANCH  25  28
HETATM   28  C   UNL     1      -9.468   7.149  70.071  1.00  0.00    -0.164 C  
HETATM   29  O   UNL     1     -10.169   6.754  71.276  1.00  0.00    -0.201 OA 
HETATM   30  H   UNL     1     -10.567   5.904  71.124  1.00  0.00     0.000 HD 
BRANCH  28  31
HETATM   31  C   UNL     1      -8.516   6.010  69.683  1.00  0.00    -0.126 C  
BRANCH  31  32
HETATM   32  O   UNL     1      -8.379   6.043  68.256  1.00  0.00    -0.112 OA 
HETATM   33  P   UNL     1      -9.479   5.291  67.375  1.00  0.00    -0.142 P  
HETATM   34  O   UNL     1      -9.387   3.754  67.793  1.00  0.00    -0.162 OA 
HETATM   35  O   UNL     1      -8.911   5.294  65.885  1.00  0.00    -0.135 OA 
HETATM   36  O   UNL     1     -10.870   5.815  67.453  1.00  0.00    -0.268 OA 
ENDBRANCH  31  32
ENDBRANCH  28  31
ENDBRANCH  25  28
ENDBRANCH  22  25
ENDBRANCH  21  22
ENDBRANCH   7  21
TORSDOF 6
ENDMDL
MODEL      231
REMARK 921   NORMALIZED FREE ENERGY PREDICTED BY IDOCK:   -3.10 KCAL/MOL
REMARK 922        TOTAL FREE ENERGY PREDICTED BY IDOCK:   -6.53 KCAL/MOL
REMARK 923 INTER-LIGAND FREE ENERGY PREDICTED BY IDOCK:   -5.87 KCAL/MOL
REMARK 924 INTRA-LIGAND FREE ENERGY PREDICTED BY IDOCK:   -0.67 KCAL/MOL
REMARK 927      BINDING AFFINITY PREDICTED BY RF-SCORE:    0.00 PKD
ROOT
HETATM    1  C   UNL     1      -6.250   6.086  65.367  1.00  0.00    -0.037 C  
HETATM    2  C   UNL     1      -6.876   6.951  66.423  1.00  0.00    -0.064 A  
HETATM    3  C   UNL     1      -7.460   8.169  66.078  1.00  0.00    -0.080 A  
HETATM    4  C   UNL     1      -8.141   8.928  67.039  1.00  0.00    -0.109 A  
HETATM    5  C   UNL     1      -8.137   8.544  68.402  1.00  0.00    -0.122 A  
HETATM    6  C   UNL     1      -7.351   7.459  68.756  1.00  0.00    -0.095 A  
HETATM    7  N   UNL     1      -8.975   9.194  69.341  1.00  0.00    -0.143 NA 
HETATM    8  H   UNL     1     -11.630  13.284  67.675  1.00  0.00     0.000 HD 
HETATM    9  C   UNL     1      -6.941   6.560  67.767  1.00  0.00    -0.082 A  
HETATM   10  C   UNL     1      -9.737  10.262  68.874  1.00  0.00    -0.189 A  
HETATM   11  C   UNL     1      -7.012   5.118  68.190  1.00  0.00    -0.061 C  
HETATM   12  C   UNL     1     -10.345  11.889  66.946  1.00  0.00    -0.210 C  
HETATM   13  N   UNL     1     -10.585  10.889  69.629  1.00  0.00    -0.412 N  
HETATM   14  H   UNL     1     -10.697  10.590  70.598  1.00  0.00     0.000 HD 
HETATM   15  N   UNL     1      -8.850  10.038  66.574  1.00  0.00    -0.138 NA 
HETATM   16  C   UNL     1     -11.330  11.933  69.169  1.00  0.00    -0.279 C  
HETATM   17  N   UNL     1     -11.134  12.425  67.913  1.00  0.00    -0.224 N  
HETATM   18  O   UNL     1     -10.276  12.318  65.806  1.00  0.00    -0.244 OA 
HETATM   19  C   UNL     1      -9.586  10.686  67.422  1.00  0.00    -0.158 A  
HETATM   20  O   UNL     1     -12.194  12.458  69.863  1.00  0.00    -0.248 OA 
ENDROOT
BRANCH   7  21
HETATM   21  C   UNL     1      -9.494   8.382  70.497  1.00  0.00    -0.169 C  
BRANCH  21  22
HETATM   22  C   UNL     1     -10.671   7.467  70.098  1.00  0.00    -0.242 C  
HETATM   23  O   UNL     1     -11.068   7.757  68.759  1.00  0.00    -0.418 OA 
HETATM   24  H   UNL     1     -11.793   7.194  68.513  1.00  0.00     0.000 HD 
BRANCH  22  25
HETATM   25  C   UNL     1     -11.893   7.521  71.045  1.00  0.00    -0.293 C  
HETATM   26  O   UNL     1     -12.272   8.900  71.243  1.00  0.00    -0.298 OA 
HETATM   27  H   UNL     1     -13.023   8.932  71.824  1.00  0.00     0.000 HD 
BRANCH  25  28
HETATM   28  C   UNL     1     -11.790   6.848  72.435  1.00  0.00    -0.177 C  
HETATM   29  O   UNL     1     -11.941   7.873  73.449  1.00  0.00    -0.462 OA 
HETATM   30  H   UNL     1     -11.878   7.461  74.302  1.00  0.00     0.000 HD 
BRANCH  28  31
HETATM   31  C   UNL     1     -10.493   6.082  72.728  1.00  0.00    -0.216 C  
BRANCH  31  32
HETATM   32  O   UNL     1     -10.837   4.694  72.827  1.00  0.00    -0.209 OA 
HETATM   33  P   UNL     1      -9.876   3.626  72.127  1.00  0.00    -0.153 P  
HETATM   34  O   UNL     1      -9.904   3.979  70.571  1.00  0.00    -0.194 OA 
HETATM   35  O   UNL     1     -10.657   2.237  72.195  1.00  0.00    -0.056 OA 
HETATM   36  O   UNL     1      -8.490   3.526  72.658  1.00  0.00    -0.083 OA 
ENDBRANCH  31  32
ENDBRANCH  28  31
ENDBRANCH  25  28
ENDBRANCH  22  25
ENDBRANCH  21  22
ENDBRANCH   7  21
TORSDOF 6
ENDMDL
MODEL      232
REMARK 921   NORMALIZED FREE ENERGY PREDICTED BY IDOCK:   -3.10 KCAL/MOL
REMARK 922        TOTAL FREE ENERGY PREDICTED BY IDOCK:   -6.53 KCAL/MOL
REMARK 923 INTER-LIGAND FREE ENERGY PREDICTED BY IDOCK:   -5.43 KCAL/MOL
REMARK 924 INTRA-LIGAND FREE ENERGY PREDICTED BY IDOCK:   -1.10 KCAL/MOL
REMARK 927      BINDING AFFINITY PREDICTED BY RF-SCORE:    0.00 PKD
ROOT
HETATM    1  C   UNL     1      -9.927  13.222  65.688  1.00  0.00    -0.242 C  
HETATM    2  C   UNL     1      -9.040  12.055  66.017  1.00  0.00    -0.092 A  
HETATM    3  C   UNL     1      -8.362  12.010  67.234  1.00  0.00    -0.176 A  
HETATM    4  C   UNL     1      -7.623  10.874  67.593  1.00  0.00    -0.096 A  
HETATM    5  C   UNL     1      -7.439   9.810  66.677  1.00  0.00    -0.095 A  
HETATM    6  C   UNL     1      -7.925   9.983  65.392  1.00  0.00    -0.141 A  
HETATM    7  N   UNL     1      -6.859   8.586  67.095  1.00  0.00    -0.066 NA 
HETATM    8  H   UNL     1      -5.033   8.382  71.909  1.00  0.00     0.000 HD 
HETATM    9  C   UNL     1      -8.896  10.960  65.154  1.00  0.00    -0.167 A  
HETATM   10  C   UNL     1      -6.421   8.514  68.415  1.00  0.00    -0.055 A  
HETATM   11  C   UNL     1      -9.986  10.517  64.217  1.00  0.00    -0.398 C  
HETATM   12  C   UNL     1      -5.994   9.691  70.688  1.00  0.00    -0.072 C  
HETATM   13  N   UNL     1      -5.933   7.425  68.922  1.00  0.00    -0.026 N  
HETATM   14  H   UNL     1      -5.867   6.593  68.335  1.00  0.00     0.000 HD 
HETATM   15  N   UNL     1      -7.127  10.837  68.898  1.00  0.00    -0.074 NA 
HETATM   16  C   UNL     1      -5.505   7.356  70.214  1.00  0.00    -0.023 C  
HETATM   17  N   UNL     1      -5.482   8.472  70.997  1.00  0.00    -0.032 N  
HETATM   18  O   UNL     1      -6.028  10.633  71.462  1.00  0.00    -0.324 OA 
HETATM   19  C   UNL     1      -6.545   9.748  69.294  1.00  0.00    -0.052 A  
HETATM   20  O   UNL     1      -5.133   6.298  70.710  1.00  0.00    -0.013 OA 
ENDROOT
BRANCH   7  21
HETATM   21  C   UNL     1      -7.314   7.326  66.410  1.00  0.00    -0.080 C  
BRANCH  21  22
HETATM   22  C   UNL     1      -8.123   6.402  67.345  1.00  0.00    -0.116 C  
HETATM   23  O   UNL     1      -7.701   5.051  67.163  1.00  0.00    -0.090 OA 
HETATM   24  H   UNL     1      -8.199   4.482  67.738  1.00  0.00     0.000 HD 
BRANCH  22  25
HETATM   25  C   UNL     1      -9.660   6.508  67.203  1.00  0.00    -0.136 C  
HETATM   26  O   UNL     1      -9.972   7.148  65.946  1.00  0.00    -0.305 OA 
HETATM   27  H   UNL     1     -10.915   7.213  65.859  1.00  0.00     0.000 HD 
BRANCH  25  28
HETATM   28  C   UNL     1     -10.464   7.223  68.316  1.00  0.00    -0.199 C  
HETATM   29  O   UNL     1     -11.107   8.386  67.737  1.00  0.00    -0.481 OA 
HETATM   30  H   UNL     1     -11.601   8.824  68.420  1.00  0.00     0.000 HD 
BRANCH  28  31
HETATM   31  C   UNL     1      -9.667   7.686  69.543  1.00  0.00    -0.168 C  
BRANCH  31  32
HETATM   32  O   UNL     1     -10.477   7.420  70.696  1.00  0.00    -0.211 OA 
HETATM   33  P   UNL     1     -10.573   8.544  71.827  1.00  0.00    -0.355 P  
HETATM   34  O   UNL     1      -9.084   8.738  72.367  1.00  0.00    -0.366 OA 
HETATM   35  O   UNL     1     -11.316   7.854  73.058  1.00  0.00    -0.408 OA 
HETATM   36  O   UNL     1     -11.203   9.835  71.435  1.00  0.00    -0.366 OA 
ENDBRANCH  31  32
ENDBRANCH  28  31
ENDBRANCH  25  28
ENDBRANCH  22  25
ENDBRANCH  21  22
ENDBRANCH   7  21
TORSDOF 6
ENDMDL
MODEL      233
REMARK 921   NORMALIZED FREE ENERGY PREDICTED BY IDOCK:   -3.04 KCAL/MOL
REMARK 922        TOTAL FREE ENERGY PREDICTED BY IDOCK:   -6.45 KCAL/MOL
REMARK 923 INTER-LIGAND FREE ENERGY PREDICTED BY IDOCK:   -7.43 KCAL/MOL
REMARK 924 INTRA-LIGAND FREE ENERGY PREDICTED BY IDOCK:    0.97 KCAL/MOL
REMARK 927      BINDING AFFINITY PREDICTED BY RF-SCORE:    0.00 PKD
ROOT
HETATM    1  C   UNL     1      -7.126   8.249  68.277  1.00  0.00    -0.081 C  
HETATM    2  C   UNL     1      -8.022   9.448  68.142  1.00  0.00    -0.091 A  
HETATM    3  C   UNL     1      -9.099   9.620  69.009  1.00  0.00    -0.148 A  
HETATM    4  C   UNL     1      -9.870  10.789  68.961  1.00  0.00    -0.194 A  
HETATM    5  C   UNL     1      -9.658  11.756  67.948  1.00  0.00    -0.187 A  
HETATM    6  C   UNL     1      -8.739  11.450  66.958  1.00  0.00    -0.160 A  
HETATM    7  N   UNL     1     -10.298  13.019  68.005  1.00  0.00    -0.228 NA 
HETATM    8  H   UNL     1     -13.764  13.721  71.753  1.00  0.00     0.000 HD 
HETATM    9  C   UNL     1      -7.790  10.450  67.190  1.00  0.00    -0.110 A  
HETATM   10  C   UNL     1     -11.190  13.227  69.055  1.00  0.00    -0.270 A  
HETATM   11  C   UNL     1      -6.413  10.790  66.689  1.00  0.00    -0.108 C  
HETATM   12  C   UNL     1     -12.476  12.289  71.104  1.00  0.00    -0.226 C  
HETATM   13  N   UNL     1     -11.784  14.365  69.241  1.00  0.00    -0.297 N  
HETATM   14  H   UNL     1     -11.593  15.132  68.597  1.00  0.00     0.000 HD 
HETATM   15  N   UNL     1     -10.812  10.962  69.979  1.00  0.00    -0.161 NA 
HETATM   16  C   UNL     1     -12.656  14.566  70.269  1.00  0.00    -0.323 C  
HETATM   17  N   UNL     1     -13.014  13.536  71.086  1.00  0.00    -0.296 N  
HETATM   18  O   UNL     1     -12.770  11.430  71.919  1.00  0.00    -0.323 OA 
HETATM   19  C   UNL     1     -11.452  12.088  70.027  1.00  0.00    -0.101 A  
HETATM   20  O   UNL     1     -13.140  15.671  70.490  1.00  0.00    -0.436 OA 
ENDROOT
BRANCH   7  21
HETATM   21  C   UNL     1      -9.569  14.201  67.425  1.00  0.00    -0.229 C  
BRANCH  21  22
HETATM   22  C   UNL     1      -8.367  14.638  68.288  1.00  0.00    -0.148 C  
HETATM   23  O   UNL     1      -8.086  13.632  69.260  1.00  0.00    -0.319 OA 
HETATM   24  H   UNL     1      -7.346  13.901  69.792  1.00  0.00     0.000 HD 
BRANCH  22  25
HETATM   25  C   UNL     1      -8.518  16.018  68.972  1.00  0.00    -0.244 C  
HETATM   26  O   UNL     1      -9.684  15.993  69.825  1.00  0.00    -0.221 OA 
HETATM   27  H   UNL     1      -9.776  16.840  70.245  1.00  0.00     0.000 HD 
BRANCH  25  28
HETATM   28  C   UNL     1      -8.601  17.284  68.085  1.00  0.00    -0.242 C  
HETATM   29  O   UNL     1      -7.266  17.595  67.612  1.00  0.00    -0.174 OA 
HETATM   30  H   UNL     1      -7.317  18.372  67.067  1.00  0.00     0.000 HD 
BRANCH  28  31
HETATM   31  C   UNL     1      -9.173  18.544  68.747  1.00  0.00    -0.265 C  
BRANCH  31  32
HETATM   32  O   UNL     1     -10.124  19.106  67.832  1.00  0.00    -0.344 OA 
HETATM   33  P   UNL     1     -10.170  18.528  66.343  1.00  0.00    -0.406 P  
HETATM   34  O   UNL     1      -8.730  18.825  65.722  1.00  0.00    -0.412 OA 
HETATM   35  O   UNL     1     -11.123  19.514  65.529  1.00  0.00    -0.382 OA 
HETATM   36  O   UNL     1     -10.566  17.101  66.192  1.00  0.00    -0.299 OA 
ENDBRANCH  31  32
ENDBRANCH  28  31
ENDBRANCH  25  28
ENDBRANCH  22  25
ENDBRANCH  21  22
ENDBRANCH   7  21
TORSDOF 6
ENDMDL
MODEL      234
REMARK 921   NORMALIZED FREE ENERGY PREDICTED BY IDOCK:   -3.03 KCAL/MOL
REMARK 922        TOTAL FREE ENERGY PREDICTED BY IDOCK:   -6.44 KCAL/MOL
REMARK 923 INTER-LIGAND FREE ENERGY PREDICTED BY IDOCK:   -5.12 KCAL/MOL
REMARK 924 INTRA-LIGAND FREE ENERGY PREDICTED BY IDOCK:   -1.32 KCAL/MOL
REMARK 927      BINDING AFFINITY PREDICTED BY RF-SCORE:    0.00 PKD
ROOT
HETATM    1  C   UNL     1      -5.340  12.913  68.870  1.00  0.00    -0.067 C  
HETATM    2  C   UNL     1      -5.718  11.481  69.125  1.00  0.00    -0.049 A  
HETATM    3  C   UNL     1      -6.003  11.050  70.419  1.00  0.00    -0.141 A  
HETATM    4  C   UNL     1      -6.463   9.746  70.647  1.00  0.00    -0.109 A  
HETATM    5  C   UNL     1      -6.520   8.802  69.593  1.00  0.00    -0.039 A  
HETATM    6  C   UNL     1      -6.008   9.187  68.365  1.00  0.00    -0.045 A  
HETATM    7  N   UNL     1      -7.158   7.550  69.775  1.00  0.00    -0.066 NA 
HETATM    8  H   UNL     1      -8.800   6.423  74.527  1.00  0.00     0.000 HD 
HETATM    9  C   UNL     1      -5.845  10.547  68.088  1.00  0.00    -0.043 A  
HETATM   10  C   UNL     1      -7.655   7.273  71.046  1.00  0.00    -0.084 A  
HETATM   11  C   UNL     1      -6.248  10.935  66.691  1.00  0.00    -0.113 C  
HETATM   12  C   UNL     1      -7.900   7.953  73.538  1.00  0.00    -0.167 C  
HETATM   13  N   UNL     1      -8.312   6.187  71.310  1.00  0.00    -0.123 N  
HETATM   14  H   UNL     1      -8.470   5.512  70.561  1.00  0.00     0.000 HD 
HETATM   15  N   UNL     1      -6.897   9.452  71.943  1.00  0.00    -0.295 NA 
HETATM   16  C   UNL     1      -8.797   5.918  72.554  1.00  0.00    -0.132 C  
HETATM   17  N   UNL     1      -8.517   6.745  73.601  1.00  0.00    -0.120 N  
HETATM   18  O   UNL     1      -7.756   8.697  74.494  1.00  0.00    -0.368 OA 
HETATM   19  C   UNL     1      -7.439   8.294  72.152  1.00  0.00    -0.118 A  
HETATM   20  O   UNL     1      -9.496   4.933  72.771  1.00  0.00    -0.134 OA 
ENDROOT
BRANCH   7  21
HETATM   21  C   UNL     1      -7.830   6.927  68.581  1.00  0.00    -0.118 C  
BRANCH  21  22
HETATM   22  C   UNL     1      -9.205   7.558  68.278  1.00  0.00    -0.138 C  
HETATM   23  O   UNL     1     -10.233   6.778  68.888  1.00  0.00    -0.161 OA 
HETATM   24  H   UNL     1     -11.080   7.167  68.702  1.00  0.00     0.000 HD 
BRANCH  22  25
HETATM   25  C   UNL     1      -9.513   7.770  66.776  1.00  0.00    -0.197 C  
HETATM   26  O   UNL     1      -8.268   7.833  66.047  1.00  0.00    -0.110 OA 
HETATM   27  H   UNL     1      -8.458   7.962  65.125  1.00  0.00     0.000 HD 
BRANCH  25  28
HETATM   28  C   UNL     1     -10.375   8.985  66.357  1.00  0.00    -0.149 C  
HETATM   29  O   UNL     1      -9.562   9.857  65.533  1.00  0.00    -0.234 OA 
HETATM   30  H   UNL     1     -10.091  10.603  65.275  1.00  0.00     0.000 HD 
BRANCH  28  31
HETATM   31  C   UNL     1     -10.968   9.827  67.494  1.00  0.00    -0.138 C  
BRANCH  31  32
HETATM   32  O   UNL     1     -10.386  11.134  67.398  1.00  0.00    -0.184 OA 
HETATM   33  P   UNL     1     -11.362  12.399  67.418  1.00  0.00    -0.360 P  
HETATM   34  O   UNL     1     -12.300  12.237  66.136  1.00  0.00    -0.588 OA 
HETATM   35  O   UNL     1     -10.450  13.651  67.040  1.00  0.00    -0.266 OA 
HETATM   36  O   UNL     1     -12.144  12.620  68.665  1.00  0.00    -0.269 OA 
ENDBRANCH  31  32
ENDBRANCH  28  31
ENDBRANCH  25  28
ENDBRANCH  22  25
ENDBRANCH  21  22
ENDBRANCH   7  21
TORSDOF 6
ENDMDL
MODEL      235
REMARK 921   NORMALIZED FREE ENERGY PREDICTED BY IDOCK:   -2.94 KCAL/MOL
REMARK 922        TOTAL FREE ENERGY PREDICTED BY IDOCK:   -6.32 KCAL/MOL
REMARK 923 INTER-LIGAND FREE ENERGY PREDICTED BY IDOCK:   -6.30 KCAL/MOL
REMARK 924 INTRA-LIGAND FREE ENERGY PREDICTED BY IDOCK:   -0.02 KCAL/MOL
REMARK 927      BINDING AFFINITY PREDICTED BY RF-SCORE:    0.00 PKD
ROOT
HETATM    1  C   UNL     1      -5.290   3.962  66.973  1.00  0.00    -0.013 C  
HETATM    2  C   UNL     1      -6.708   4.366  67.262  1.00  0.00    -0.047 A  
HETATM    3  C   UNL     1      -7.148   4.492  68.578  1.00  0.00    -0.053 A  
HETATM    4  C   UNL     1      -8.434   4.975  68.854  1.00  0.00    -0.086 A  
HETATM    5  C   UNL     1      -9.357   5.217  67.808  1.00  0.00    -0.119 A  
HETATM    6  C   UNL     1      -8.975   4.859  66.525  1.00  0.00    -0.112 A  
HETATM    7  N   UNL     1     -10.583   5.881  68.061  1.00  0.00    -0.243 NA 
HETATM    8  H   UNL     1     -11.715   6.912  72.981  1.00  0.00     0.000 HD 
HETATM    9  C   UNL     1      -7.619   4.674  66.242  1.00  0.00    -0.090 A  
HETATM   10  C   UNL     1     -10.859   6.212  69.386  1.00  0.00    -0.353 A  
HETATM   11  C   UNL     1      -7.191   5.245  64.918  1.00  0.00    -0.066 C  
HETATM   12  C   UNL     1     -10.209   6.086  71.895  1.00  0.00    -0.200 C  
HETATM   13  N   UNL     1     -11.920   6.876  69.725  1.00  0.00    -0.610 N  
HETATM   14  H   UNL     1     -12.575   7.165  68.998  1.00  0.00     0.000 HD 
HETATM   15  N   UNL     1      -8.730   5.242  70.193  1.00  0.00    -0.119 NA 
HETATM   16  C   UNL     1     -12.188   7.199  71.022  1.00  0.00    -0.343 C  
HETATM   17  N   UNL     1     -11.391   6.743  72.029  1.00  0.00    -0.261 N  
HETATM   18  O   UNL     1      -9.488   5.780  72.830  1.00  0.00    -0.146 OA 
HETATM   19  C   UNL     1      -9.867   5.803  70.462  1.00  0.00    -0.186 A  
HETATM   20  O   UNL     1     -13.144   7.906  71.321  1.00  0.00    -0.279 OA 
ENDROOT
BRANCH   7  21
HETATM   21  C   UNL     1     -11.157   6.736  66.963  1.00  0.00    -0.299 C  
BRANCH  21  22
HETATM   22  C   UNL     1     -10.448   8.102  66.844  1.00  0.00    -0.309 C  
HETATM   23  O   UNL     1      -9.086   7.902  66.467  1.00  0.00    -0.152 OA 
HETATM   24  H   UNL     1      -8.650   8.743  66.393  1.00  0.00     0.000 HD 
BRANCH  22  25
HETATM   25  C   UNL     1     -10.530   8.996  68.104  1.00  0.00    -0.207 C  
HETATM   26  O   UNL     1     -11.614   9.936  67.942  1.00  0.00    -0.583 OA 
HETATM   27  H   UNL     1     -11.665  10.485  68.715  1.00  0.00     0.000 HD 
BRANCH  25  28
HETATM   28  C   UNL     1      -9.273   9.786  68.541  1.00  0.00    -0.134 C  
HETATM   29  O   UNL     1      -8.524   8.968  69.474  1.00  0.00    -0.117 OA 
HETATM   30  H   UNL     1      -7.752   9.453  69.742  1.00  0.00     0.000 HD 
BRANCH  28  31
HETATM   31  C   UNL     1      -9.519  11.150  69.200  1.00  0.00     0.020 C  
BRANCH  31  32
HETATM   32  O   UNL     1     -10.117  11.995  68.208  1.00  0.00    -0.192 OA 
HETATM   33  P   UNL     1     -10.819  13.346  68.692  1.00  0.00    -0.243 P  
HETATM   34  O   UNL     1     -12.004  12.892  69.659  1.00  0.00    -0.313 OA 
HETATM   35  O   UNL     1     -11.592  13.909  67.416  1.00  0.00    -0.327 OA 
HETATM   36  O   UNL     1      -9.939  14.369  69.320  1.00  0.00    -0.121 OA 
ENDBRANCH  31  32
ENDBRANCH  28  31
ENDBRANCH  25  28
ENDBRANCH  22  25
ENDBRANCH  21  22
ENDBRANCH   7  21
TORSDOF 6
ENDMDL
MODEL      236
REMARK 921   NORMALIZED FREE ENERGY PREDICTED BY IDOCK:   -2.88 KCAL/MOL
REMARK 922        TOTAL FREE ENERGY PREDICTED BY IDOCK:   -6.23 KCAL/MOL
REMARK 923 INTER-LIGAND FREE ENERGY PREDICTED BY IDOCK:   -6.42 KCAL/MOL
REMARK 924 INTRA-LIGAND FREE ENERGY PREDICTED BY IDOCK:    0.19 KCAL/MOL
REMARK 927      BINDING AFFINITY PREDICTED BY RF-SCORE:    0.00 PKD
ROOT
HETATM    1  C   UNL     1     -10.377   4.787  72.280  1.00  0.00    -0.264 C  
HETATM    2  C   UNL     1     -10.542   5.928  71.318  1.00  0.00    -0.311 A  
HETATM    3  C   UNL     1     -11.297   7.044  71.675  1.00  0.00    -0.288 A  
HETATM    4  C   UNL     1     -11.363   8.158  70.827  1.00  0.00    -0.270 A  
HETATM    5  C   UNL     1     -10.780   8.123  69.537  1.00  0.00    -0.175 A  
HETATM    6  C   UNL     1     -10.240   6.919  69.115  1.00  0.00    -0.196 A  
HETATM    7  N   UNL     1     -10.677   9.300  68.755  1.00  0.00    -0.194 NA 
HETATM    8  H   UNL     1     -12.941  13.544  70.602  1.00  0.00     0.000 HD 
HETATM    9  C   UNL     1      -9.919   5.943  70.062  1.00  0.00    -0.239 A  
HETATM   10  C   UNL     1     -11.238  10.460  69.284  1.00  0.00    -0.248 A  
HETATM   11  C   UNL     1      -8.614   5.244  69.797  1.00  0.00    -0.102 C  
HETATM   12  C   UNL     1     -12.631  11.612  71.146  1.00  0.00    -0.335 C  
HETATM   13  N   UNL     1     -11.148  11.606  68.685  1.00  0.00    -0.216 N  
HETATM   14  H   UNL     1     -10.650  11.660  67.796  1.00  0.00     0.000 HD 
HETATM   15  N   UNL     1     -11.987   9.299  71.338  1.00  0.00    -0.327 NA 
HETATM   16  C   UNL     1     -11.697  12.740  69.205  1.00  0.00    -0.322 C  
HETATM   17  N   UNL     1     -12.455  12.687  70.336  1.00  0.00    -0.202 N  
HETATM   18  O   UNL     1     -13.246  11.642  72.199  1.00  0.00    -0.504 OA 
HETATM   19  C   UNL     1     -11.955  10.379  70.622  1.00  0.00    -0.351 A  
HETATM   20  O   UNL     1     -11.526  13.834  68.677  1.00  0.00    -0.259 OA 
ENDROOT
BRANCH   7  21
HETATM   21  C   UNL     1      -9.503   9.420  67.822  1.00  0.00    -0.132 C  
BRANCH  21  22
HETATM   22  C   UNL     1      -8.191   9.761  68.560  1.00  0.00    -0.106 C  
HETATM   23  O   UNL     1      -8.494  10.335  69.831  1.00  0.00    -0.348 OA 
HETATM   24  H   UNL     1      -7.686  10.545  70.285  1.00  0.00     0.000 HD 
BRANCH  22  25
HETATM   25  C   UNL     1      -7.216  10.672  67.778  1.00  0.00    -0.088 C  
HETATM   26  O   UNL     1      -7.975  11.691  67.091  1.00  0.00    -0.148 OA 
HETATM   27  H   UNL     1      -7.376  12.251  66.611  1.00  0.00     0.000 HD 
BRANCH  25  28
HETATM   28  C   UNL     1      -6.249  10.026  66.756  1.00  0.00    -0.068 C  
HETATM   29  O   UNL     1      -5.269   9.248  67.487  1.00  0.00    -0.037 OA 
HETATM   30  H   UNL     1      -4.675   8.851  66.860  1.00  0.00     0.000 HD 
BRANCH  28  31
HETATM   31  C   UNL     1      -5.493  10.987  65.829  1.00  0.00    -0.119 C  
BRANCH  31  32
HETATM   32  O   UNL     1      -5.732  10.551  64.484  1.00  0.00    -0.137 OA 
HETATM   33  P   UNL     1      -6.987   9.601  64.211  1.00  0.00    -0.125 P  
HETATM   34  O   UNL     1      -6.719   8.279  65.064  1.00  0.00    -0.062 OA 
HETATM   35  O   UNL     1      -6.825   9.097  62.707  1.00  0.00    -0.094 OA 
HETATM   36  O   UNL     1      -8.333  10.179  64.475  1.00  0.00    -0.155 OA 
ENDBRANCH  31  32
ENDBRANCH  28  31
ENDBRANCH  25  28
ENDBRANCH  22  25
ENDBRANCH  21  22
ENDBRANCH   7  21
TORSDOF 6
ENDMDL
MODEL      237
REMARK 921   NORMALIZED FREE ENERGY PREDICTED BY IDOCK:   -2.78 KCAL/MOL
REMARK 922        TOTAL FREE ENERGY PREDICTED BY IDOCK:   -6.10 KCAL/MOL
REMARK 923 INTER-LIGAND FREE ENERGY PREDICTED BY IDOCK:   -5.30 KCAL/MOL
REMARK 924 INTRA-LIGAND FREE ENERGY PREDICTED BY IDOCK:   -0.81 KCAL/MOL
REMARK 927      BINDING AFFINITY PREDICTED BY RF-SCORE:    0.00 PKD
ROOT
HETATM    1  C   UNL     1      -7.089  10.624  64.833  1.00  0.00     0.126 C  
HETATM    2  C   UNL     1      -7.873   9.430  65.299  1.00  0.00    -0.109 A  
HETATM    3  C   UNL     1      -7.439   8.142  64.993  1.00  0.00    -0.087 A  
HETATM    4  C   UNL     1      -8.102   7.025  65.517  1.00  0.00    -0.132 A  
HETATM    5  C   UNL     1      -9.301   7.175  66.256  1.00  0.00    -0.104 A  
HETATM    6  C   UNL     1      -9.840   8.448  66.345  1.00  0.00    -0.310 A  
HETATM    7  N   UNL     1      -9.870   6.076  66.946  1.00  0.00    -0.149 NA 
HETATM    8  H   UNL     1      -7.666   1.472  66.242  1.00  0.00     0.000 HD 
HETATM    9  C   UNL     1      -9.025   9.554  66.087  1.00  0.00    -0.191 A  
HETATM   10  C   UNL     1      -9.236   4.843  66.802  1.00  0.00    -0.122 A  
HETATM   11  C   UNL     1      -9.238  10.700  67.039  1.00  0.00    -0.167 C  
HETATM   12  C   UNL     1      -7.399   3.403  65.670  1.00  0.00    -0.075 C  
HETATM   13  N   UNL     1      -9.632   3.785  67.437  1.00  0.00    -0.192 N  
HETATM   14  H   UNL     1     -10.435   3.856  68.063  1.00  0.00     0.000 HD 
HETATM   15  N   UNL     1      -7.497   5.782  65.311  1.00  0.00    -0.075 NA 
HETATM   16  C   UNL     1      -9.010   2.580  67.295  1.00  0.00    -0.156 C  
HETATM   17  N   UNL     1      -8.002   2.423  66.391  1.00  0.00    -0.080 N  
HETATM   18  O   UNL     1      -6.437   3.222  64.942  1.00  0.00    -0.030 OA 
HETATM   19  C   UNL     1      -8.025   4.749  65.888  1.00  0.00    -0.103 A  
HETATM   20  O   UNL     1      -9.334   1.609  67.969  1.00  0.00    -0.162 OA 
ENDROOT
BRANCH   7  21
HETATM   21  C   UNL     1     -10.623   6.361  68.217  1.00  0.00    -0.256 C  
BRANCH  21  22
HETATM   22  C   UNL     1      -9.698   6.818  69.365  1.00  0.00    -0.152 C  
HETATM   23  O   UNL     1      -8.424   6.190  69.230  1.00  0.00    -0.117 OA 
HETATM   24  H   UNL     1      -7.855   6.471  69.937  1.00  0.00     0.000 HD 
BRANCH  22  25
HETATM   25  C   UNL     1     -10.260   6.592  70.789  1.00  0.00    -0.187 C  
HETATM   26  O   UNL     1     -11.692   6.422  70.707  1.00  0.00    -0.366 OA 
HETATM   27  H   UNL     1     -12.036   6.283  71.581  1.00  0.00     0.000 HD 
BRANCH  25  28
HETATM   28  C   UNL     1      -9.965   7.647  71.883  1.00  0.00    -0.176 C  
HETATM   29  O   UNL     1      -9.580   6.950  73.094  1.00  0.00    -0.145 OA 
HETATM   30  H   UNL     1      -9.398   7.598  73.765  1.00  0.00     0.000 HD 
BRANCH  28  31
HETATM   31  C   UNL     1     -11.110   8.606  72.233  1.00  0.00    -0.325 C  
BRANCH  31  32
HETATM   32  O   UNL     1     -11.322   9.444  71.089  1.00  0.00    -0.291 OA 
HETATM   33  P   UNL     1     -12.720  10.206  70.961  1.00  0.00    -0.387 P  
HETATM   34  O   UNL     1     -13.828   9.060  70.880  1.00  0.00    -0.072 OA 
HETATM   35  O   UNL     1     -12.738  10.827  69.492  1.00  0.00    -0.257 OA 
HETATM   36  O   UNL     1     -13.030  11.217  72.009  1.00  0.00    -0.447 OA 
ENDBRANCH  31  32
ENDBRANCH  28  31
ENDBRANCH  25  28
ENDBRANCH  22  25
ENDBRANCH  21  22
ENDBRANCH   7  21
TORSDOF 6
ENDMDL
MODEL      238
REMARK 921   NORMALIZED FREE ENERGY PREDICTED BY IDOCK:   -2.71 KCAL/MOL
REMARK 922        TOTAL FREE ENERGY PREDICTED BY IDOCK:   -6.00 KCAL/MOL
REMARK 923 INTER-LIGAND FREE ENERGY PREDICTED BY IDOCK:   -4.27 KCAL/MOL
REMARK 924 INTRA-LIGAND FREE ENERGY PREDICTED BY IDOCK:   -1.73 KCAL/MOL
REMARK 927      BINDING AFFINITY PREDICTED BY RF-SCORE:    0.00 PKD
ROOT
HETATM    1  C   UNL     1      -5.765   9.068  73.429  1.00  0.00    -0.067 C  
HETATM    2  C   UNL     1      -6.925   8.592  72.601  1.00  0.00    -0.064 A  
HETATM    3  C   UNL     1      -6.834   8.571  71.211  1.00  0.00    -0.068 A  
HETATM    4  C   UNL     1      -7.868   8.025  70.439  1.00  0.00    -0.091 A  
HETATM    5  C   UNL     1      -9.079   7.608  71.042  1.00  0.00    -0.147 A  
HETATM    6  C   UNL     1      -9.237   7.858  72.395  1.00  0.00    -0.239 A  
HETATM    7  N   UNL     1     -10.047   6.885  70.301  1.00  0.00    -0.182 NA 
HETATM    8  H   UNL     1      -9.171   6.289  65.258  1.00  0.00     0.000 HD 
HETATM    9  C   UNL     1      -8.109   8.113  73.180  1.00  0.00    -0.237 A  
HETATM   10  C   UNL     1      -9.779   6.674  68.950  1.00  0.00    -0.135 A  
HETATM   11  C   UNL     1      -8.140   7.441  74.525  1.00  0.00    -0.224 C  
HETATM   12  C   UNL     1      -8.269   7.107  66.885  1.00  0.00    -0.117 C  
HETATM   13  N   UNL     1     -10.563   5.972  68.192  1.00  0.00    -0.237 N  
HETATM   14  H   UNL     1     -11.404   5.562  68.598  1.00  0.00     0.000 HD 
HETATM   15  N   UNL     1      -7.619   7.877  69.072  1.00  0.00    -0.097 NA 
HETATM   16  C   UNL     1     -10.298   5.766  66.871  1.00  0.00    -0.251 C  
HETATM   17  N   UNL     1      -9.240   6.382  66.272  1.00  0.00    -0.157 N  
HETATM   18  O   UNL     1      -7.292   7.561  66.313  1.00  0.00    -0.079 OA 
HETATM   19  C   UNL     1      -8.511   7.265  68.357  1.00  0.00    -0.125 A  
HETATM   20  O   UNL     1     -10.996   5.025  66.187  1.00  0.00    -0.242 OA 
ENDROOT
BRANCH   7  21
HETATM   21  C   UNL     1     -10.889   5.882  71.041  1.00  0.00    -0.273 C  
BRANCH  21  22
HETATM   22  C   UNL     1     -10.064   4.689  71.569  1.00  0.00    -0.185 C  
HETATM   23  O   UNL     1      -9.909   3.720  70.533  1.00  0.00    -0.186 OA 
HETATM   24  H   UNL     1      -9.401   2.986  70.858  1.00  0.00     0.000 HD 
BRANCH  22  25
HETATM   25  C   UNL     1     -10.620   4.023  72.849  1.00  0.00    -0.156 C  
HETATM   26  O   UNL     1      -9.895   4.526  73.993  1.00  0.00    -0.133 OA 
HETATM   27  H   UNL     1     -10.237   4.117  74.779  1.00  0.00     0.000 HD 
BRANCH  25  28
HETATM   28  C   UNL     1     -10.639   2.477  72.938  1.00  0.00    -0.137 C  
HETATM   29  O   UNL     1     -11.815   2.079  73.685  1.00  0.00    -0.215 OA 
HETATM   30  H   UNL     1     -11.827   1.130  73.739  1.00  0.00     0.000 HD 
BRANCH  28  31
HETATM   31  C   UNL     1      -9.417   1.816  73.590  1.00  0.00    -0.071 C  
BRANCH  31  32
HETATM   32  O   UNL     1      -8.365   1.821  72.616  1.00  0.00    -0.052 OA 
HETATM   33  P   UNL     1      -6.930   2.366  73.059  1.00  0.00    -0.029 P  
HETATM   34  O   UNL     1      -7.159   3.891  73.472  1.00  0.00    -0.058 OA 
HETATM   35  O   UNL     1      -6.081   2.481  71.714  1.00  0.00    -0.013 OA 
HETATM   36  O   UNL     1      -6.220   1.596  74.116  1.00  0.00    -0.004 OA 
ENDBRANCH  31  32
ENDBRANCH  28  31
ENDBRANCH  25  28
ENDBRANCH  22  25
ENDBRANCH  21  22
ENDBRANCH   7  21
TORSDOF 6
ENDMDL
MODEL      239
REMARK 921   NORMALIZED FREE ENERGY PREDICTED BY IDOCK:   -2.70 KCAL/MOL
REMARK 922        TOTAL FREE ENERGY PREDICTED BY IDOCK:   -5.99 KCAL/MOL
REMARK 923 INTER-LIGAND FREE ENERGY PREDICTED BY IDOCK:   -5.84 KCAL/MOL
REMARK 924 INTRA-LIGAND FREE ENERGY PREDICTED BY IDOCK:   -0.15 KCAL/MOL
REMARK 927      BINDING AFFINITY PREDICTED BY RF-SCORE:    0.00 PKD
ROOT
HETATM    1  C   UNL     1     -11.343  10.885  62.625  1.00  0.00     1.592 C  
HETATM    2  C   UNL     1     -10.868  11.174  64.020  1.00  0.00    -0.351 A  
HETATM    3  C   UNL     1      -9.683  10.612  64.490  1.00  0.00    -0.367 A  
HETATM    4  C   UNL     1      -9.178  10.966  65.749  1.00  0.00    -0.201 A  
HETATM    5  C   UNL     1      -9.925  11.793  66.622  1.00  0.00    -0.200 A  
HETATM    6  C   UNL     1     -11.205  12.146  66.227  1.00  0.00    -0.382 A  
HETATM    7  N   UNL     1      -9.344  12.307  67.808  1.00  0.00    -0.187 NA 
HETATM    8  H   UNL     1      -4.619  10.642  69.013  1.00  0.00     0.000 HD 
HETATM    9  C   UNL     1     -11.557  12.043  64.878  1.00  0.00    -0.332 A  
HETATM   10  C   UNL     1      -8.043  11.902  68.100  1.00  0.00    -0.155 A  
HETATM   11  C   UNL     1     -12.379  13.198  64.375  1.00  0.00    -0.426 C  
HETATM   12  C   UNL     1      -5.994  10.414  67.534  1.00  0.00    -0.052 C  
HETATM   13  N   UNL     1      -7.392  12.358  69.124  1.00  0.00    -0.319 N  
HETATM   14  H   UNL     1      -7.846  13.035  69.737  1.00  0.00     0.000 HD 
HETATM   15  N   UNL     1      -7.900  10.500  66.065  1.00  0.00    -0.142 NA 
HETATM   16  C   UNL     1      -6.119  11.961  69.408  1.00  0.00    -0.096 C  
HETATM   17  N   UNL     1      -5.518  10.982  68.673  1.00  0.00    -0.040 N  
HETATM   18  O   UNL     1      -5.373   9.607  66.863  1.00  0.00    -0.044 OA 
HETATM   19  C   UNL     1      -7.361  10.912  67.170  1.00  0.00    -0.105 A  
HETATM   20  O   UNL     1      -5.479  12.467  70.323  1.00  0.00    -0.108 OA 
ENDROOT
BRANCH   7  21
HETATM   21  C   UNL     1      -9.812  13.653  68.291  1.00  0.00    -0.232 C  
BRANCH  21  22
HETATM   22  C   UNL     1      -9.647  14.756  67.223  1.00  0.00    -0.223 C  
HETATM   23  O   UNL     1      -8.272  14.869  66.862  1.00  0.00    -0.276 OA 
HETATM   24  H   UNL     1      -8.171  15.548  66.205  1.00  0.00     0.000 HD 
BRANCH  22  25
HETATM   25  C   UNL     1     -10.215  16.140  67.618  1.00  0.00    -0.265 C  
HETATM   26  O   UNL     1      -9.649  17.144  66.748  1.00  0.00    -0.250 OA 
HETATM   27  H   UNL     1      -9.998  17.994  66.990  1.00  0.00     0.000 HD 
BRANCH  25  28
HETATM   28  C   UNL     1     -10.049  16.625  69.079  1.00  0.00    -0.293 C  
HETATM   29  O   UNL     1      -8.640  16.858  69.324  1.00  0.00    -0.114 OA 
HETATM   30  H   UNL     1      -8.538  17.156  70.220  1.00  0.00     0.000 HD 
BRANCH  28  31
HETATM   31  C   UNL     1     -10.570  15.683  70.173  1.00  0.00    -0.334 C  
BRANCH  31  32
HETATM   32  O   UNL     1     -11.999  15.790  70.176  1.00  0.00    -0.353 OA 
HETATM   33  P   UNL     1     -12.795  15.236  71.446  1.00  0.00    -0.491 P  
HETATM   34  O   UNL     1     -12.468  13.675  71.510  1.00  0.00    -0.322 OA 
HETATM   35  O   UNL     1     -14.335  15.264  71.033  1.00  0.00    -0.374 OA 
HETATM   36  O   UNL     1     -12.542  15.919  72.744  1.00  0.00    -0.400 OA 
ENDBRANCH  31  32
ENDBRANCH  28  31
ENDBRANCH  25  28
ENDBRANCH  22  25
ENDBRANCH  21  22
ENDBRANCH   7  21
TORSDOF 6
ENDMDL
MODEL      240
REMARK 921   NORMALIZED FREE ENERGY PREDICTED BY IDOCK:   -2.65 KCAL/MOL
REMARK 922        TOTAL FREE ENERGY PREDICTED BY IDOCK:   -5.92 KCAL/MOL
REMARK 923 INTER-LIGAND FREE ENERGY PREDICTED BY IDOCK:   -4.62 KCAL/MOL
REMARK 924 INTRA-LIGAND FREE ENERGY PREDICTED BY IDOCK:   -1.30 KCAL/MOL
REMARK 927      BINDING AFFINITY PREDICTED BY RF-SCORE:    0.00 PKD
ROOT
HETATM    1  C   UNL     1      -7.427   9.029  64.709  1.00  0.00    -0.102 C  
HETATM    2  C   UNL     1      -7.221   8.285  65.998  1.00  0.00    -0.072 A  
HETATM    3  C   UNL     1      -6.742   8.951  67.124  1.00  0.00    -0.066 A  
HETATM    4  C   UNL     1      -6.654   8.289  68.357  1.00  0.00    -0.060 A  
HETATM    5  C   UNL     1      -6.919   6.902  68.455  1.00  0.00    -0.080 A  
HETATM    6  C   UNL     1      -7.162   6.214  67.277  1.00  0.00    -0.075 A  
HETATM    7  N   UNL     1      -7.017   6.270  69.719  1.00  0.00    -0.068 NA 
HETATM    8  H   UNL     1      -5.892   9.124  73.859  1.00  0.00     0.000 HD 
HETATM    9  C   UNL     1      -7.539   6.926  66.135  1.00  0.00    -0.092 A  
HETATM   10  C   UNL     1      -6.771   7.059  70.840  1.00  0.00    -0.053 A  
HETATM   11  C   UNL     1      -8.630   6.265  65.339  1.00  0.00    -0.097 C  
HETATM   12  C   UNL     1      -6.024   9.333  71.842  1.00  0.00    -0.021 C  
HETATM   13  N   UNL     1      -6.894   6.602  72.047  1.00  0.00    -0.063 N  
HETATM   14  H   UNL     1      -7.179   5.632  72.181  1.00  0.00     0.000 HD 
HETATM   15  N   UNL     1      -6.340   9.074  69.469  1.00  0.00    -0.043 NA 
HETATM   16  C   UNL     1      -6.653   7.377  73.143  1.00  0.00    -0.064 C  
HETATM   17  N   UNL     1      -6.171   8.644  73.003  1.00  0.00    -0.092 N  
HETATM   18  O   UNL     1      -5.674  10.500  71.780  1.00  0.00    -0.315 OA 
HETATM   19  C   UNL     1      -6.371   8.511  70.636  1.00  0.00    -0.037 A  
HETATM   20  O   UNL     1      -6.862   6.963  74.278  1.00  0.00    -0.085 OA 
ENDROOT
BRANCH   7  21
HETATM   21  C   UNL     1      -7.954   5.099  69.846  1.00  0.00    -0.078 C  
BRANCH  21  22
HETATM   22  C   UNL     1      -9.297   5.483  70.502  1.00  0.00    -0.157 C  
HETATM   23  O   UNL     1      -9.500   4.694  71.673  1.00  0.00    -0.140 OA 
HETATM   24  H   UNL     1     -10.327   4.931  72.077  1.00  0.00     0.000 HD 
BRANCH  22  25
HETATM   25  C   UNL     1     -10.531   5.391  69.572  1.00  0.00    -0.273 C  
HETATM   26  O   UNL     1     -10.194   4.581  68.425  1.00  0.00    -0.020 OA 
HETATM   27  H   UNL     1     -10.951   4.524  67.855  1.00  0.00     0.000 HD 
BRANCH  25  28
HETATM   28  C   UNL     1     -11.177   6.701  69.060  1.00  0.00    -0.220 C  
HETATM   29  O   UNL     1     -11.460   6.545  67.646  1.00  0.00    -0.694 OA 
HETATM   30  H   UNL     1     -11.857   7.349  67.332  1.00  0.00     0.000 HD 
BRANCH  28  31
HETATM   31  C   UNL     1     -10.355   7.984  69.239  1.00  0.00    -0.220 C  
BRANCH  31  32
HETATM   32  O   UNL     1     -11.176   8.913  69.959  1.00  0.00    -0.213 OA 
HETATM   33  P   UNL     1     -11.081   8.926  71.554  1.00  0.00    -0.378 P  
HETATM   34  O   UNL     1     -11.542   7.472  72.023  1.00  0.00    -0.268 OA 
HETATM   35  O   UNL     1     -12.276   9.859  72.048  1.00  0.00    -0.321 OA 
HETATM   36  O   UNL     1      -9.772   9.320  72.142  1.00  0.00    -0.150 OA 
ENDBRANCH  31  32
ENDBRANCH  28  31
ENDBRANCH  25  28
ENDBRANCH  22  25
ENDBRANCH  21  22
ENDBRANCH   7  21
TORSDOF 6
ENDMDL
MODEL      241
REMARK 921   NORMALIZED FREE ENERGY PREDICTED BY IDOCK:   -2.64 KCAL/MOL
REMARK 922        TOTAL FREE ENERGY PREDICTED BY IDOCK:   -5.92 KCAL/MOL
REMARK 923 INTER-LIGAND FREE ENERGY PREDICTED BY IDOCK:   -5.13 KCAL/MOL
REMARK 924 INTRA-LIGAND FREE ENERGY PREDICTED BY IDOCK:   -0.79 KCAL/MOL
REMARK 927      BINDING AFFINITY PREDICTED BY RF-SCORE:    0.00 PKD
ROOT
HETATM    1  C   UNL     1      -9.975   4.130  64.104  1.00  0.00    -0.125 C  
HETATM    2  C   UNL     1      -9.717   5.187  65.141  1.00  0.00     0.158 A  
HETATM    3  C   UNL     1     -10.582   5.335  66.223  1.00  0.00    -0.308 A  
HETATM    4  C   UNL     1     -10.286   6.243  67.250  1.00  0.00    -0.216 A  
HETATM    5  C   UNL     1      -9.180   7.120  67.145  1.00  0.00    -0.134 A  
HETATM    6  C   UNL     1      -8.475   7.117  65.953  1.00  0.00    -0.151 A  
HETATM    7  N   UNL     1      -8.767   7.901  68.253  1.00  0.00    -0.130 NA 
HETATM    8  H   UNL     1     -11.738   7.759  72.460  1.00  0.00     0.000 HD 
HETATM    9  C   UNL     1      -8.592   6.022  65.092  1.00  0.00    -0.073 A  
HETATM   10  C   UNL     1      -9.538   7.814  69.409  1.00  0.00    -0.156 A  
HETATM   11  C   UNL     1      -7.290   5.593  64.473  1.00  0.00    -0.068 C  
HETATM   12  C   UNL     1     -11.656   6.918  70.612  1.00  0.00    -0.353 C  
HETATM   13  N   UNL     1      -9.217   8.435  70.501  1.00  0.00    -0.147 N  
HETATM   14  H   UNL     1      -8.372   9.006  70.515  1.00  0.00     0.000 HD 
HETATM   15  N   UNL     1     -11.106   6.198  68.380  1.00  0.00    -0.323 NA 
HETATM   16  C   UNL     1      -9.974   8.348  71.632  1.00  0.00    -0.234 C  
HETATM   17  N   UNL     1     -11.161   7.679  71.622  1.00  0.00    -0.243 N  
HETATM   18  O   UNL     1     -12.683   6.264  70.689  1.00  0.00     0.375 OA 
HETATM   19  C   UNL     1     -10.782   6.941  69.392  1.00  0.00    -0.246 A  
HETATM   20  O   UNL     1      -9.612   8.863  72.685  1.00  0.00    -0.208 OA 
ENDROOT
BRANCH   7  21
HETATM   21  C   UNL     1      -7.300   8.215  68.379  1.00  0.00    -0.094 C  
BRANCH  21  22
HETATM   22  C   UNL     1      -6.923   9.559  67.720  1.00  0.00    -0.080 C  
HETATM   23  O   UNL     1      -5.547   9.538  67.345  1.00  0.00    -0.040 OA 
HETATM   24  H   UNL     1      -5.315  10.365  66.940  1.00  0.00     0.000 HD 
BRANCH  22  25
HETATM   25  C   UNL     1      -7.229  10.815  68.571  1.00  0.00    -0.088 C  
HETATM   26  O   UNL     1      -8.326  10.522  69.463  1.00  0.00    -0.292 OA 
HETATM   27  H   UNL     1      -8.512  11.293  69.985  1.00  0.00     0.000 HD 
BRANCH  25  28
HETATM   28  C   UNL     1      -7.544  12.147  67.847  1.00  0.00    -0.123 C  
HETATM   29  O   UNL     1      -8.072  13.080  68.822  1.00  0.00    -0.318 OA 
HETATM   30  H   UNL     1      -8.265  13.898  68.379  1.00  0.00     0.000 HD 
BRANCH  28  31
HETATM   31  C   UNL     1      -8.536  12.071  66.679  1.00  0.00    -0.117 C  
BRANCH  31  32
HETATM   32  O   UNL     1      -9.554  11.133  67.051  1.00  0.00    -0.178 OA 
HETATM   33  P   UNL     1     -10.940  11.702  67.604  1.00  0.00    -0.278 P  
HETATM   34  O   UNL     1     -10.574  12.507  68.933  1.00  0.00    -0.204 OA 
HETATM   35  O   UNL     1     -11.734  10.435  68.159  1.00  0.00    -0.363 OA 
HETATM   36  O   UNL     1     -11.754  12.514  66.659  1.00  0.00    -0.370 OA 
ENDBRANCH  31  32
ENDBRANCH  28  31
ENDBRANCH  25  28
ENDBRANCH  22  25
ENDBRANCH  21  22
ENDBRANCH   7  21
TORSDOF 6
ENDMDL
MODEL      242
REMARK 921   NORMALIZED FREE ENERGY PREDICTED BY IDOCK:   -2.58 KCAL/MOL
REMARK 922        TOTAL FREE ENERGY PREDICTED BY IDOCK:   -5.82 KCAL/MOL
REMARK 923 INTER-LIGAND FREE ENERGY PREDICTED BY IDOCK:   -4.98 KCAL/MOL
REMARK 924 INTRA-LIGAND FREE ENERGY PREDICTED BY IDOCK:   -0.84 KCAL/MOL
REMARK 927      BINDING AFFINITY PREDICTED BY RF-SCORE:    0.00 PKD
ROOT
HETATM    1  C   UNL     1      -9.502  13.117  65.867  1.00  0.00    -0.036 C  
HETATM    2  C   UNL     1      -8.931  11.839  66.412  1.00  0.00    -0.201 A  
HETATM    3  C   UNL     1      -8.122  11.858  67.546  1.00  0.00    -0.156 A  
HETATM    4  C   UNL     1      -7.678  10.660  68.123  1.00  0.00    -0.101 A  
HETATM    5  C   UNL     1      -7.929   9.417  67.493  1.00  0.00    -0.102 A  
HETATM    6  C   UNL     1      -8.530   9.443  66.246  1.00  0.00    -0.133 A  
HETATM    7  N   UNL     1      -7.653   8.198  68.161  1.00  0.00    -0.103 NA 
HETATM    8  H   UNL     1      -5.273   8.510  72.721  1.00  0.00     0.000 HD 
HETATM    9  C   UNL     1      -9.220  10.590  65.844  1.00  0.00    -0.210 A  
HETATM   10  C   UNL     1      -7.064   8.287  69.420  1.00  0.00    -0.055 A  
HETATM   11  C   UNL     1     -10.514  10.303  65.133  1.00  0.00    -0.069 C  
HETATM   12  C   UNL     1      -6.004   9.748  71.285  1.00  0.00    -0.029 C  
HETATM   13  N   UNL     1      -6.826   7.240  70.147  1.00  0.00    -0.058 N  
HETATM   14  H   UNL     1      -7.077   6.320  69.785  1.00  0.00     0.000 HD 
HETATM   15  N   UNL     1      -7.027  10.761  69.355  1.00  0.00    -0.102 NA 
HETATM   16  C   UNL     1      -6.250   7.330  71.379  1.00  0.00    -0.036 C  
HETATM   17  N   UNL     1      -5.807   8.530  71.852  1.00  0.00    -0.046 N  
HETATM   18  O   UNL     1      -5.666  10.802  71.797  1.00  0.00    -0.320 OA 
HETATM   19  C   UNL     1      -6.715   9.662  69.967  1.00  0.00    -0.079 A  
HETATM   20  O   UNL     1      -6.114   6.344  72.096  1.00  0.00    -0.037 OA 
ENDROOT
BRANCH   7  21
HETATM   21  C   UNL     1      -8.531   7.016  67.852  1.00  0.00    -0.124 C  
BRANCH  21  22
HETATM   22  C   UNL     1      -9.267   6.481  69.099  1.00  0.00    -0.135 C  
HETATM   23  O   UNL     1      -8.852   5.141  69.360  1.00  0.00    -0.097 OA 
HETATM   24  H   UNL     1      -9.305   4.812  70.128  1.00  0.00     0.000 HD 
BRANCH  22  25
HETATM   25  C   UNL     1     -10.811   6.562  69.034  1.00  0.00    -0.306 C  
HETATM   26  O   UNL     1     -11.187   7.711  68.244  1.00  0.00    -0.386 OA 
HETATM   27  H   UNL     1     -12.135   7.760  68.205  1.00  0.00     0.000 HD 
BRANCH  25  28
HETATM   28  C   UNL     1     -11.611   6.608  70.358  1.00  0.00    -0.398 C  
HETATM   29  O   UNL     1     -12.385   7.833  70.379  1.00  0.00    -0.459 OA 
HETATM   30  H   UNL     1     -12.877   7.862  71.192  1.00  0.00     0.000 HD 
BRANCH  28  31
HETATM   31  C   UNL     1     -10.791   6.545  71.654  1.00  0.00    -0.240 C  
BRANCH  31  32
HETATM   32  O   UNL     1     -11.367   5.514  72.467  1.00  0.00    -0.278 OA 
HETATM   33  P   UNL     1     -10.399   4.384  73.050  1.00  0.00    -0.199 P  
HETATM   34  O   UNL     1      -9.779   3.650  71.776  1.00  0.00    -0.145 OA 
HETATM   35  O   UNL     1     -11.360   3.274  73.673  1.00  0.00    -0.224 OA 
HETATM   36  O   UNL     1      -9.351   4.832  74.008  1.00  0.00    -0.117 OA 
ENDBRANCH  31  32
ENDBRANCH  28  31
ENDBRANCH  25  28
ENDBRANCH  22  25
ENDBRANCH  21  22
ENDBRANCH   7  21
TORSDOF 6
ENDMDL
MODEL      243
REMARK 921   NORMALIZED FREE ENERGY PREDICTED BY IDOCK:   -2.55 KCAL/MOL
REMARK 922        TOTAL FREE ENERGY PREDICTED BY IDOCK:   -5.79 KCAL/MOL
REMARK 923 INTER-LIGAND FREE ENERGY PREDICTED BY IDOCK:   -5.14 KCAL/MOL
REMARK 924 INTRA-LIGAND FREE ENERGY PREDICTED BY IDOCK:   -0.65 KCAL/MOL
REMARK 927      BINDING AFFINITY PREDICTED BY RF-SCORE:    0.00 PKD
ROOT
HETATM    1  C   UNL     1     -13.447  13.441  72.091  1.00  0.00    -0.646 C  
HETATM    2  C   UNL     1     -12.816  12.514  71.091  1.00  0.00    -0.303 A  
HETATM    3  C   UNL     1     -11.906  13.004  70.156  1.00  0.00    -0.324 A  
HETATM    4  C   UNL     1     -11.232  12.128  69.294  1.00  0.00    -0.226 A  
HETATM    5  C   UNL     1     -11.557  10.750  69.262  1.00  0.00    -0.305 A  
HETATM    6  C   UNL     1     -12.629  10.330  70.031  1.00  0.00    -0.059 A  
HETATM    7  N   UNL     1     -10.755   9.833  68.538  1.00  0.00    -0.223 NA 
HETATM    8  H   UNL     1      -6.950  11.800  65.673  1.00  0.00     0.000 HD 
HETATM    9  C   UNL     1     -13.073  11.136  71.083  1.00  0.00    -0.284 A  
HETATM   10  C   UNL     1      -9.690  10.362  67.812  1.00  0.00    -0.160 A  
HETATM   11  C   UNL     1     -13.424  10.370  72.330  1.00  0.00    -0.195 C  
HETATM   12  C   UNL     1      -8.394  12.439  66.953  1.00  0.00    -0.117 C  
HETATM   13  N   UNL     1      -8.855   9.610  67.165  1.00  0.00    -0.131 N  
HETATM   14  H   UNL     1      -8.982   8.599  67.187  1.00  0.00     0.000 HD 
HETATM   15  N   UNL     1     -10.208  12.677  68.518  1.00  0.00    -0.224 NA 
HETATM   16  C   UNL     1      -7.813  10.130  66.456  1.00  0.00    -0.112 C  
HETATM   17  N   UNL     1      -7.672  11.479  66.319  1.00  0.00    -0.007 N  
HETATM   18  O   UNL     1      -8.166  13.634  66.865  1.00  0.00    -0.094 OA 
HETATM   19  C   UNL     1      -9.490  11.868  67.804  1.00  0.00    -0.184 A  
HETATM   20  O   UNL     1      -6.976   9.407  65.925  1.00  0.00    -0.087 OA 
ENDROOT
BRANCH   7  21
HETATM   21  C   UNL     1     -10.649   8.428  69.065  1.00  0.00    -0.154 C  
BRANCH  21  22
HETATM   22  C   UNL     1      -9.794   8.339  70.348  1.00  0.00    -0.186 C  
HETATM   23  O   UNL     1      -9.640   9.641  70.910  1.00  0.00    -0.286 OA 
HETATM   24  H   UNL     1      -9.114   9.586  71.699  1.00  0.00     0.000 HD 
BRANCH  22  25
HETATM   25  C   UNL     1      -8.414   7.663  70.170  1.00  0.00    -0.138 C  
HETATM   26  O   UNL     1      -8.416   6.907  68.940  1.00  0.00    -0.124 OA 
HETATM   27  H   UNL     1      -7.569   6.493  68.831  1.00  0.00     0.000 HD 
BRANCH  25  28
HETATM   28  C   UNL     1      -7.884   6.743  71.296  1.00  0.00    -0.101 C  
HETATM   29  O   UNL     1      -6.969   7.510  72.118  1.00  0.00    -0.061 OA 
HETATM   30  H   UNL     1      -6.644   6.946  72.810  1.00  0.00     0.000 HD 
BRANCH  28  31
HETATM   31  C   UNL     1      -7.160   5.466  70.850  1.00  0.00    -0.064 C  
BRANCH  31  32
HETATM   32  O   UNL     1      -8.134   4.414  70.832  1.00  0.00    -0.066 OA 
HETATM   33  P   UNL     1      -7.936   3.220  69.789  1.00  0.00    -0.048 P  
HETATM   34  O   UNL     1      -7.990   3.898  68.345  1.00  0.00    -0.074 OA 
HETATM   35  O   UNL     1      -9.289   2.376  69.841  1.00  0.00    -0.121 OA 
HETATM   36  O   UNL     1      -6.728   2.369  69.968  1.00  0.00    -0.032 OA 
ENDBRANCH  31  32
ENDBRANCH  28  31
ENDBRANCH  25  28
ENDBRANCH  22  25
ENDBRANCH  21  22
ENDBRANCH   7  21
TORSDOF 6
ENDMDL
MODEL      244
REMARK 921   NORMALIZED FREE ENERGY PREDICTED BY IDOCK:   -2.42 KCAL/MOL
REMARK 922        TOTAL FREE ENERGY PREDICTED BY IDOCK:   -5.61 KCAL/MOL
REMARK 923 INTER-LIGAND FREE ENERGY PREDICTED BY IDOCK:   -5.01 KCAL/MOL
REMARK 924 INTRA-LIGAND FREE ENERGY PREDICTED BY IDOCK:   -0.59 KCAL/MOL
REMARK 927      BINDING AFFINITY PREDICTED BY RF-SCORE:    0.00 PKD
ROOT
HETATM    1  C   UNL     1      -7.913   2.010  65.430  1.00  0.00    -0.074 C  
HETATM    2  C   UNL     1      -8.510   3.272  65.985  1.00  0.00    -0.111 A  
HETATM    3  C   UNL     1      -9.051   3.288  67.270  1.00  0.00    -0.201 A  
HETATM    4  C   UNL     1      -9.507   4.487  67.834  1.00  0.00    -0.155 A  
HETATM    5  C   UNL     1      -9.555   5.676  67.068  1.00  0.00    -0.136 A  
HETATM    6  C   UNL     1      -9.235   5.582  65.724  1.00  0.00    -0.132 A  
HETATM    7  N   UNL     1      -9.832   6.923  67.682  1.00  0.00    -0.130 NA 
HETATM    8  H   UNL     1     -11.127   6.844  72.668  1.00  0.00     0.000 HD 
HETATM    9  C   UNL     1      -8.508   4.477  65.269  1.00  0.00    -0.124 A  
HETATM   10  C   UNL     1     -10.123   6.905  69.044  1.00  0.00    -0.170 A  
HETATM   11  C   UNL     1      -7.442   4.823  64.266  1.00  0.00    -0.067 C  
HETATM   12  C   UNL     1     -10.569   5.546  71.208  1.00  0.00    -0.236 C  
HETATM   13  N   UNL     1     -10.330   7.992  69.719  1.00  0.00    -0.215 N  
HETATM   14  H   UNL     1     -10.279   8.890  69.238  1.00  0.00     0.000 HD 
HETATM   15  N   UNL     1      -9.863   4.448  69.185  1.00  0.00    -0.166 NA 
HETATM   16  C   UNL     1     -10.614   7.973  71.052  1.00  0.00    -0.213 C  
HETATM   17  N   UNL     1     -10.792   6.790  71.706  1.00  0.00    -0.225 N  
HETATM   18  O   UNL     1     -10.656   4.522  71.865  1.00  0.00    -0.125 OA 
HETATM   19  C   UNL     1     -10.172   5.567  69.762  1.00  0.00    -0.265 A  
HETATM   20  O   UNL     1     -10.717   9.009  71.701  1.00  0.00    -0.321 OA 
ENDROOT
BRANCH   7  21
HETATM   21  C   UNL     1      -9.196   8.152  67.090  1.00  0.00    -0.145 C  
BRANCH  21  22
HETATM   22  C   UNL     1     -10.235   9.159  66.555  1.00  0.00    -0.252 C  
HETATM   23  O   UNL     1     -10.150   9.223  65.132  1.00  0.00    -0.296 OA 
HETATM   24  H   UNL     1     -10.790   9.843  64.803  1.00  0.00     0.000 HD 
BRANCH  22  25
HETATM   25  C   UNL     1     -10.146  10.579  67.162  1.00  0.00    -0.209 C  
HETATM   26  O   UNL     1     -11.400  10.894  67.806  1.00  0.00    -0.340 OA 
HETATM   27  H   UNL     1     -11.344  11.766  68.179  1.00  0.00     0.000 HD 
BRANCH  25  28
HETATM   28  C   UNL     1      -9.771  11.763  66.238  1.00  0.00    -0.222 C  
HETATM   29  O   UNL     1     -10.254  11.469  64.904  1.00  0.00    -0.247 OA 
HETATM   30  H   UNL     1     -10.025  12.196  64.337  1.00  0.00     0.000 HD 
BRANCH  28  31
HETATM   31  C   UNL     1      -8.278  12.103  66.136  1.00  0.00     0.402 C  
BRANCH  31  32
HETATM   32  O   UNL     1      -7.565  10.861  66.092  1.00  0.00    -0.147 OA 
HETATM   33  P   UNL     1      -6.241  10.718  66.975  1.00  0.00    -0.088 P  
HETATM   34  O   UNL     1      -5.235  11.826  66.421  1.00  0.00    -0.302 OA 
HETATM   35  O   UNL     1      -5.561   9.352  66.513  1.00  0.00    -0.050 OA 
HETATM   36  O   UNL     1      -6.411  10.798  68.451  1.00  0.00    -0.054 OA 
ENDBRANCH  31  32
ENDBRANCH  28  31
ENDBRANCH  25  28
ENDBRANCH  22  25
ENDBRANCH  21  22
ENDBRANCH   7  21
TORSDOF 6
ENDMDL
MODEL      245
REMARK 921   NORMALIZED FREE ENERGY PREDICTED BY IDOCK:   -2.41 KCAL/MOL
REMARK 922        TOTAL FREE ENERGY PREDICTED BY IDOCK:   -5.61 KCAL/MOL
REMARK 923 INTER-LIGAND FREE ENERGY PREDICTED BY IDOCK:   -5.65 KCAL/MOL
REMARK 924 INTRA-LIGAND FREE ENERGY PREDICTED BY IDOCK:    0.04 KCAL/MOL
REMARK 927      BINDING AFFINITY PREDICTED BY RF-SCORE:    0.00 PKD
ROOT
HETATM    1  C   UNL     1      -5.939   9.991  65.135  1.00  0.00    -0.104 C  
HETATM    2  C   UNL     1      -6.837   8.928  65.702  1.00  0.00    -0.076 A  
HETATM    3  C   UNL     1      -6.294   7.836  66.375  1.00  0.00    -0.046 A  
HETATM    4  C   UNL     1      -7.129   6.901  67.002  1.00  0.00    -0.076 A  
HETATM    5  C   UNL     1      -8.535   6.969  66.851  1.00  0.00    -0.119 A  
HETATM    6  C   UNL     1      -9.037   7.924  65.983  1.00  0.00    -0.181 A  
HETATM    7  N   UNL     1      -9.389   6.149  67.630  1.00  0.00    -0.114 NA 
HETATM    8  H   UNL     1      -7.143   2.613  70.630  1.00  0.00     0.000 HD 
HETATM    9  C   UNL     1      -8.234   9.010  65.621  1.00  0.00    -0.120 A  
HETATM   10  C   UNL     1      -8.778   5.235  68.485  1.00  0.00    -0.097 A  
HETATM   11  C   UNL     1      -8.969  10.322  65.581  1.00  0.00    -0.198 C  
HETATM   12  C   UNL     1      -6.611   4.099  69.350  1.00  0.00    -0.037 C  
HETATM   13  N   UNL     1      -9.459   4.479  69.288  1.00  0.00    -0.157 N  
HETATM   14  H   UNL     1     -10.476   4.555  69.294  1.00  0.00     0.000 HD 
HETATM   15  N   UNL     1      -6.505   5.943  67.805  1.00  0.00    -0.045 NA 
HETATM   16  C   UNL     1      -8.859   3.586  70.125  1.00  0.00    -0.087 C  
HETATM   17  N   UNL     1      -7.512   3.382  70.071  1.00  0.00    -0.044 N  
HETATM   18  O   UNL     1      -5.404   3.935  69.409  1.00  0.00    -0.010 OA 
HETATM   19  C   UNL     1      -7.261   5.143  68.491  1.00  0.00    -0.062 A  
HETATM   20  O   UNL     1      -9.505   2.943  70.945  1.00  0.00    -0.140 OA 
ENDROOT
BRANCH   7  21
HETATM   21  C   UNL     1     -10.742   6.696  67.997  1.00  0.00    -0.265 C  
BRANCH  21  22
HETATM   22  C   UNL     1     -10.652   7.922  68.930  1.00  0.00    -0.145 C  
HETATM   23  O   UNL     1      -9.320   8.433  68.921  1.00  0.00    -0.147 OA 
HETATM   24  H   UNL     1      -9.265   9.188  69.495  1.00  0.00     0.000 HD 
BRANCH  22  25
HETATM   25  C   UNL     1     -11.123   7.676  70.383  1.00  0.00    -0.258 C  
HETATM   26  O   UNL     1     -12.536   7.377  70.374  1.00  0.00    -0.495 OA 
HETATM   27  H   UNL     1     -12.825   7.226  71.266  1.00  0.00     0.000 HD 
BRANCH  25  28
HETATM   28  C   UNL     1     -10.874   8.776  71.443  1.00  0.00    -0.289 C  
HETATM   29  O   UNL     1     -10.883   8.155  72.753  1.00  0.00    -0.353 OA 
HETATM   30  H   UNL     1     -10.730   8.830  73.404  1.00  0.00     0.000 HD 
BRANCH  28  31
HETATM   31  C   UNL     1     -11.873   9.941  71.466  1.00  0.00    -0.365 C  
BRANCH  31  32
HETATM   32  O   UNL     1     -12.231  10.216  70.105  1.00  0.00    -0.216 OA 
HETATM   33  P   UNL     1     -11.465  11.395  69.347  1.00  0.00    -0.353 P  
HETATM   34  O   UNL     1     -11.800  12.722  70.169  1.00  0.00    -0.319 OA 
HETATM   35  O   UNL     1     -12.256  11.611  67.979  1.00  0.00    -0.551 OA 
HETATM   36  O   UNL     1     -10.003  11.216  69.136  1.00  0.00    -0.179 OA 
ENDBRANCH  31  32
ENDBRANCH  28  31
ENDBRANCH  25  28
ENDBRANCH  22  25
ENDBRANCH  21  22
ENDBRANCH   7  21
TORSDOF 6
ENDMDL
MODEL      246
REMARK 921   NORMALIZED FREE ENERGY PREDICTED BY IDOCK:   -2.40 KCAL/MOL
REMARK 922        TOTAL FREE ENERGY PREDICTED BY IDOCK:   -5.59 KCAL/MOL
REMARK 923 INTER-LIGAND FREE ENERGY PREDICTED BY IDOCK:   -4.25 KCAL/MOL
REMARK 924 INTRA-LIGAND FREE ENERGY PREDICTED BY IDOCK:   -1.34 KCAL/MOL
REMARK 927      BINDING AFFINITY PREDICTED BY RF-SCORE:    0.00 PKD
ROOT
HETATM    1  C   UNL     1      -8.170   7.944  63.497  1.00  0.00    -0.009 C  
HETATM    2  C   UNL     1      -7.666   7.731  64.896  1.00  0.00    -0.110 A  
HETATM    3  C   UNL     1      -7.055   8.774  65.589  1.00  0.00    -0.083 A  
HETATM    4  C   UNL     1      -6.685   8.615  66.931  1.00  0.00    -0.065 A  
HETATM    5  C   UNL     1      -6.798   7.356  67.570  1.00  0.00    -0.078 A  
HETATM    6  C   UNL     1      -7.186   6.279  66.791  1.00  0.00    -0.074 A  
HETATM    7  N   UNL     1      -6.607   7.233  68.968  1.00  0.00    -0.036 NA 
HETATM    8  H   UNL     1      -5.020  11.433  71.496  1.00  0.00     0.000 HD 
HETATM    9  C   UNL     1      -7.827   6.512  65.571  1.00  0.00    -0.104 A  
HETATM   10  C   UNL     1      -6.236   8.384  69.659  1.00  0.00    -0.036 A  
HETATM   11  C   UNL     1      -8.979   5.583  65.302  1.00  0.00    -0.074 C  
HETATM   12  C   UNL     1      -5.534  10.882  69.609  1.00  0.00    -0.040 C  
HETATM   13  N   UNL     1      -6.096   8.402  70.948  1.00  0.00    -0.033 N  
HETATM   14  H   UNL     1      -6.261   7.544  71.474  1.00  0.00     0.000 HD 
HETATM   15  N   UNL     1      -6.248   9.760  67.601  1.00  0.00    -0.055 NA 
HETATM   16  C   UNL     1      -5.733   9.530  71.621  1.00  0.00    -0.052 C  
HETATM   17  N   UNL     1      -5.403  10.666  70.944  1.00  0.00    -0.092 N  
HETATM   18  O   UNL     1      -5.310  11.950  69.065  1.00  0.00    -0.051 OA 
HETATM   19  C   UNL     1      -6.015   9.666  68.873  1.00  0.00    -0.042 A  
HETATM   20  O   UNL     1      -5.694   9.559  72.847  1.00  0.00    -0.289 OA 
ENDROOT
BRANCH   7  21
HETATM   21  C   UNL     1      -7.393   6.173  69.692  1.00  0.00    -0.079 C  
BRANCH  21  22
HETATM   22  C   UNL     1      -8.237   6.747  70.850  1.00  0.00    -0.123 C  
HETATM   23  O   UNL     1      -8.424   5.744  71.847  1.00  0.00    -0.125 OA 
HETATM   24  H   UNL     1      -8.944   6.098  72.560  1.00  0.00     0.000 HD 
BRANCH  22  25
HETATM   25  C   UNL     1      -9.599   7.350  70.432  1.00  0.00    -0.165 C  
HETATM   26  O   UNL     1      -9.732   7.259  68.997  1.00  0.00    -0.150 OA 
HETATM   27  H   UNL     1     -10.569   7.628  68.741  1.00  0.00     0.000 HD 
BRANCH  25  28
HETATM   28  C   UNL     1      -9.932   8.803  70.852  1.00  0.00    -0.222 C  
HETATM   29  O   UNL     1     -10.505   8.771  72.183  1.00  0.00    -0.337 OA 
HETATM   30  H   UNL     1     -10.709   9.662  72.441  1.00  0.00     0.000 HD 
BRANCH  28  31
HETATM   31  C   UNL     1     -10.896   9.573  69.940  1.00  0.00    -0.246 C  
BRANCH  31  32
HETATM   32  O   UNL     1     -10.100  10.442  69.123  1.00  0.00    -0.200 OA 
HETATM   33  P   UNL     1     -10.518  10.631  67.593  1.00  0.00    -0.266 P  
HETATM   34  O   UNL     1     -10.407   9.181  66.935  1.00  0.00    -0.254 OA 
HETATM   35  O   UNL     1      -9.314  11.427  66.914  1.00  0.00    -0.175 OA 
HETATM   36  O   UNL     1     -11.838  11.268  67.334  1.00  0.00    -0.590 OA 
ENDBRANCH  31  32
ENDBRANCH  28  31
ENDBRANCH  25  28
ENDBRANCH  22  25
ENDBRANCH  21  22
ENDBRANCH   7  21
TORSDOF 6
ENDMDL
MODEL      247
REMARK 921   NORMALIZED FREE ENERGY PREDICTED BY IDOCK:   -2.39 KCAL/MOL
REMARK 922        TOTAL FREE ENERGY PREDICTED BY IDOCK:   -5.57 KCAL/MOL
REMARK 923 INTER-LIGAND FREE ENERGY PREDICTED BY IDOCK:   -5.35 KCAL/MOL
REMARK 924 INTRA-LIGAND FREE ENERGY PREDICTED BY IDOCK:   -0.21 KCAL/MOL
REMARK 927      BINDING AFFINITY PREDICTED BY RF-SCORE:    0.00 PKD
ROOT
HETATM    1  C   UNL     1     -10.337   3.260  72.725  1.00  0.00    -0.237 C  
HETATM    2  C   UNL     1      -9.787   3.884  71.474  1.00  0.00    -0.247 A  
HETATM    3  C   UNL     1      -9.648   3.126  70.313  1.00  0.00    -0.180 A  
HETATM    4  C   UNL     1      -9.241   3.729  69.115  1.00  0.00    -0.160 A  
HETATM    5  C   UNL     1      -8.835   5.085  69.088  1.00  0.00    -0.092 A  
HETATM    6  C   UNL     1      -8.756   5.751  70.299  1.00  0.00    -0.137 A  
HETATM    7  N   UNL     1      -8.607   5.749  67.857  1.00  0.00    -0.103 NA 
HETATM    8  H   UNL     1      -8.846   2.893  63.574  1.00  0.00     0.000 HD 
HETATM    9  C   UNL     1      -9.440   5.241  71.406  1.00  0.00    -0.194 A  
HETATM   10  C   UNL     1      -8.731   4.988  66.697  1.00  0.00    -0.108 A  
HETATM   11  C   UNL     1     -10.119   6.294  72.240  1.00  0.00    -0.197 C  
HETATM   12  C   UNL     1      -9.098   2.675  65.579  1.00  0.00    -0.127 C  
HETATM   13  N   UNL     1      -8.607   5.506  65.515  1.00  0.00    -0.147 N  
HETATM   14  H   UNL     1      -8.411   6.503  65.431  1.00  0.00     0.000 HD 
HETATM   15  N   UNL     1      -9.304   2.940  67.964  1.00  0.00    -0.209 NA 
HETATM   16  C   UNL     1      -8.730   4.760  64.381  1.00  0.00    -0.149 C  
HETATM   17  N   UNL     1      -8.889   3.408  64.454  1.00  0.00    -0.103 N  
HETATM   18  O   UNL     1      -9.327   1.477  65.581  1.00  0.00    -0.056 OA 
HETATM   19  C   UNL     1      -9.049   3.507  66.826  1.00  0.00    -0.164 A  
HETATM   20  O   UNL     1      -8.703   5.275  63.268  1.00  0.00    -0.097 OA 
ENDROOT
BRANCH   7  21
HETATM   21  C   UNL     1      -8.896   7.224  67.793  1.00  0.00    -0.124 C  
BRANCH  21  22
HETATM   22  C   UNL     1     -10.392   7.545  67.999  1.00  0.00    -0.204 C  
HETATM   23  O   UNL     1     -11.180   6.712  67.149  1.00  0.00    -0.602 OA 
HETATM   24  H   UNL     1     -12.101   6.909  67.276  1.00  0.00     0.000 HD 
BRANCH  22  25
HETATM   25  C   UNL     1     -10.778   9.030  67.803  1.00  0.00    -0.151 C  
HETATM   26  O   UNL     1      -9.841   9.641  66.889  1.00  0.00    -0.178 OA 
HETATM   27  H   UNL     1     -10.078  10.553  66.768  1.00  0.00     0.000 HD 
BRANCH  25  28
HETATM   28  C   UNL     1     -10.894   9.941  69.049  1.00  0.00    -0.215 C  
HETATM   29  O   UNL     1     -11.088  11.305  68.599  1.00  0.00    -0.195 OA 
HETATM   30  H   UNL     1     -11.159  11.864  69.364  1.00  0.00     0.000 HD 
BRANCH  28  31
HETATM   31  C   UNL     1      -9.703   9.928  70.017  1.00  0.00    -0.227 C  
BRANCH  31  32
HETATM   32  O   UNL     1      -8.549   9.539  69.261  1.00  0.00    -0.132 OA 
HETATM   33  P   UNL     1      -7.193  10.354  69.481  1.00  0.00    -0.147 P  
HETATM   34  O   UNL     1      -7.519  11.856  69.050  1.00  0.00    -0.093 OA 
HETATM   35  O   UNL     1      -6.202   9.858  68.333  1.00  0.00    -0.049 OA 
HETATM   36  O   UNL     1      -6.579  10.277  70.834  1.00  0.00    -0.330 OA 
ENDBRANCH  31  32
ENDBRANCH  28  31
ENDBRANCH  25  28
ENDBRANCH  22  25
ENDBRANCH  21  22
ENDBRANCH   7  21
TORSDOF 6
ENDMDL
MODEL      248
REMARK 921   NORMALIZED FREE ENERGY PREDICTED BY IDOCK:   -2.12 KCAL/MOL
REMARK 922        TOTAL FREE ENERGY PREDICTED BY IDOCK:   -5.21 KCAL/MOL
REMARK 923 INTER-LIGAND FREE ENERGY PREDICTED BY IDOCK:   -7.00 KCAL/MOL
REMARK 924 INTRA-LIGAND FREE ENERGY PREDICTED BY IDOCK:    1.79 KCAL/MOL
REMARK 927      BINDING AFFINITY PREDICTED BY RF-SCORE:    0.00 PKD
ROOT
HETATM    1  C   UNL     1      -6.098  19.793  66.852  1.00  0.00    -0.182 C  
HETATM    2  C   UNL     1      -6.877  18.528  66.630  1.00  0.00    -0.221 A  
HETATM    3  C   UNL     1      -6.290  17.289  66.876  1.00  0.00    -0.225 A  
HETATM    4  C   UNL     1      -7.045  16.112  66.777  1.00  0.00    -0.117 A  
HETATM    5  C   UNL     1      -8.377  16.144  66.298  1.00  0.00    -0.287 A  
HETATM    6  C   UNL     1      -8.859  17.358  65.836  1.00  0.00     0.035 A  
HETATM    7  N   UNL     1      -9.203  14.996  66.376  1.00  0.00    -0.289 NA 
HETATM    8  H   UNL     1      -7.003  10.632  68.007  1.00  0.00     0.000 HD 
HETATM    9  C   UNL     1      -8.217  18.539  66.219  1.00  0.00    -0.248 A  
HETATM   10  C   UNL     1      -8.622  13.832  66.874  1.00  0.00    -0.109 A  
HETATM   11  C   UNL     1      -9.161  19.660  66.560  1.00  0.00    -0.436 C  
HETATM   12  C   UNL     1      -6.507  12.579  67.704  1.00  0.00    -0.138 C  
HETATM   13  N   UNL     1      -9.300  12.741  67.047  1.00  0.00    -0.222 N  
HETATM   14  H   UNL     1     -10.292  12.734  66.811  1.00  0.00     0.000 HD 
HETATM   15  N   UNL     1      -6.432  14.936  67.216  1.00  0.00    -0.277 NA 
HETATM   16  C   UNL     1      -8.729  11.604  67.536  1.00  0.00    -0.156 C  
HETATM   17  N   UNL     1      -7.386  11.545  67.765  1.00  0.00    -0.091 N  
HETATM   18  O   UNL     1      -5.329  12.492  68.009  1.00  0.00    -0.063 OA 
HETATM   19  C   UNL     1      -7.149  13.856  67.249  1.00  0.00     0.086 A  
HETATM   20  O   UNL     1      -9.398  10.606  67.783  1.00  0.00    -0.145 OA 
ENDROOT
BRANCH   7  21
HETATM   21  C   UNL     1     -10.681  15.208  66.564  1.00  0.00    -0.310 C  
BRANCH  21  22
HETATM   22  C   UNL     1     -11.266  14.338  67.697  1.00  0.00    -0.304 C  
HETATM   23  O   UNL     1     -12.597  14.762  67.986  1.00  0.00    -0.400 OA 
HETATM   24  H   UNL     1     -12.956  14.227  68.684  1.00  0.00     0.000 HD 
BRANCH  22  25
HETATM   25  C   UNL     1     -10.422  14.296  68.993  1.00  0.00    -0.204 C  
HETATM   26  O   UNL     1     -10.948  13.270  69.863  1.00  0.00    -0.450 OA 
HETATM   27  H   UNL     1     -10.430  13.245  70.658  1.00  0.00     0.000 HD 
BRANCH  25  28
HETATM   28  C   UNL     1     -10.265  15.593  69.823  1.00  0.00    -0.300 C  
HETATM   29  O   UNL     1      -9.054  15.484  70.612  1.00  0.00     0.513 OA 
HETATM   30  H   UNL     1      -8.957  16.281  71.121  1.00  0.00     0.000 HD 
BRANCH  28  31
HETATM   31  C   UNL     1     -11.419  15.940  70.773  1.00  0.00    -0.407 C  
BRANCH  31  32
HETATM   32  O   UNL     1     -12.233  14.766  70.891  1.00  0.00    -0.277 OA 
HETATM   33  P   UNL     1     -13.202  14.644  72.156  1.00  0.00    -0.447 P  
HETATM   34  O   UNL     1     -12.244  14.649  73.433  1.00  0.00    -0.280 OA 
HETATM   35  O   UNL     1     -13.758  13.150  72.129  1.00  0.00    -0.510 OA 
HETATM   36  O   UNL     1     -14.290  15.654  72.264  1.00  0.00    -0.539 OA 
ENDBRANCH  31  32
ENDBRANCH  28  31
ENDBRANCH  25  28
ENDBRANCH  22  25
ENDBRANCH  21  22
ENDBRANCH   7  21
TORSDOF 6
ENDMDL
MODEL      249
REMARK 921   NORMALIZED FREE ENERGY PREDICTED BY IDOCK:   -2.11 KCAL/MOL
REMARK 922        TOTAL FREE ENERGY PREDICTED BY IDOCK:   -5.20 KCAL/MOL
REMARK 923 INTER-LIGAND FREE ENERGY PREDICTED BY IDOCK:   -4.05 KCAL/MOL
REMARK 924 INTRA-LIGAND FREE ENERGY PREDICTED BY IDOCK:   -1.15 KCAL/MOL
REMARK 927      BINDING AFFINITY PREDICTED BY RF-SCORE:    0.00 PKD
ROOT
HETATM    1  C   UNL     1      -7.979   4.419  65.024  1.00  0.00    -0.097 C  
HETATM    2  C   UNL     1      -8.192   5.004  66.392  1.00  0.00    -0.108 A  
HETATM    3  C   UNL     1      -7.785   4.305  67.526  1.00  0.00    -0.084 A  
HETATM    4  C   UNL     1      -7.879   4.892  68.795  1.00  0.00    -0.077 A  
HETATM    5  C   UNL     1      -8.512   6.147  68.967  1.00  0.00    -0.118 A  
HETATM    6  C   UNL     1      -9.119   6.712  67.858  1.00  0.00    -0.114 A  
HETATM    7  N   UNL     1      -8.443   6.830  70.207  1.00  0.00    -0.134 NA 
HETATM    8  H   UNL     1      -6.235   4.335  74.137  1.00  0.00     0.000 HD 
HETATM    9  C   UNL     1      -8.756   6.273  66.581  1.00  0.00    -0.126 A  
HETATM   10  C   UNL     1      -7.792   6.178  71.251  1.00  0.00    -0.111 A  
HETATM   11  C   UNL     1      -8.615   7.382  65.574  1.00  0.00    -0.093 C  
HETATM   12  C   UNL     1      -6.627   4.047  72.164  1.00  0.00    -0.022 C  
HETATM   13  N   UNL     1      -7.615   6.734  72.409  1.00  0.00    -0.092 N  
HETATM   14  H   UNL     1      -7.965   7.680  72.561  1.00  0.00     0.000 HD 
HETATM   15  N   UNL     1      -7.283   4.200  69.852  1.00  0.00    -0.045 NA 
HETATM   16  C   UNL     1      -6.978   6.094  73.430  1.00  0.00    -0.080 C  
HETATM   17  N   UNL     1      -6.590   4.794  73.298  1.00  0.00    -0.062 N  
HETATM   18  O   UNL     1      -6.181   2.915  72.077  1.00  0.00    -0.013 OA 
HETATM   19  C   UNL     1      -7.251   4.778  71.012  1.00  0.00    -0.059 A  
HETATM   20  O   UNL     1      -6.734   6.662  74.489  1.00  0.00    -0.087 OA 
ENDROOT
BRANCH   7  21
HETATM   21  C   UNL     1      -8.445   8.335  70.178  1.00  0.00    -0.126 C  
BRANCH  21  22
HETATM   22  C   UNL     1      -9.782   8.935  70.665  1.00  0.00    -0.212 C  
HETATM   23  O   UNL     1     -10.569   7.914  71.276  1.00  0.00    -0.210 OA 
HETATM   24  H   UNL     1     -11.392   8.283  71.575  1.00  0.00     0.000 HD 
BRANCH  22  25
HETATM   25  C   UNL     1     -10.604   9.670  69.580  1.00  0.00    -0.229 C  
HETATM   26  O   UNL     1     -11.646   8.790  69.105  1.00  0.00    -0.096 OA 
HETATM   27  H   UNL     1     -12.151   9.241  68.439  1.00  0.00     0.000 HD 
BRANCH  25  28
HETATM   28  C   UNL     1      -9.865  10.246  68.347  1.00  0.00    -0.156 C  
HETATM   29  O   UNL     1      -9.663  11.665  68.561  1.00  0.00    -0.195 OA 
HETATM   30  H   UNL     1      -9.209  12.019  67.805  1.00  0.00     0.000 HD 
BRANCH  28  31
HETATM   31  C   UNL     1     -10.559  10.066  66.990  1.00  0.00    -0.212 C  
BRANCH  31  32
HETATM   32  O   UNL     1     -10.741  11.375  66.434  1.00  0.00    -0.258 OA 
HETATM   33  P   UNL     1     -10.191  11.652  64.960  1.00  0.00    -0.299 P  
HETATM   34  O   UNL     1      -8.614  11.420  65.040  1.00  0.00     0.104 OA 
HETATM   35  O   UNL     1     -10.312  13.227  64.745  1.00  0.00    -0.358 OA 
HETATM   36  O   UNL     1     -10.819  10.877  63.856  1.00  0.00    -0.283 OA 
ENDBRANCH  31  32
ENDBRANCH  28  31
ENDBRANCH  25  28
ENDBRANCH  22  25
ENDBRANCH  21  22
ENDBRANCH   7  21
TORSDOF 6
ENDMDL
MODEL      250
REMARK 921   NORMALIZED FREE ENERGY PREDICTED BY IDOCK:   -2.10 KCAL/MOL
REMARK 922        TOTAL FREE ENERGY PREDICTED BY IDOCK:   -5.18 KCAL/MOL
REMARK 923 INTER-LIGAND FREE ENERGY PREDICTED BY IDOCK:   -5.92 KCAL/MOL
REMARK 924 INTRA-LIGAND FREE ENERGY PREDICTED BY IDOCK:    0.74 KCAL/MOL
REMARK 927      BINDING AFFINITY PREDICTED BY RF-SCORE:    0.00 PKD
ROOT
HETATM    1  C   UNL     1     -10.279   3.160  72.771  1.00  0.00    -0.238 C  
HETATM    2  C   UNL     1      -9.737   3.872  71.564  1.00  0.00    -0.247 A  
HETATM    3  C   UNL     1      -9.484   3.168  70.388  1.00  0.00    -0.227 A  
HETATM    4  C   UNL     1      -9.084   3.844  69.227  1.00  0.00    -0.132 A  
HETATM    5  C   UNL     1      -8.800   5.231  69.258  1.00  0.00    -0.100 A  
HETATM    6  C   UNL     1      -8.830   5.861  70.491  1.00  0.00    -0.147 A  
HETATM    7  N   UNL     1      -8.582   5.953  68.058  1.00  0.00    -0.113 NA 
HETATM    8  H   UNL     1      -8.390   3.231  63.687  1.00  0.00     0.000 HD 
HETATM    9  C   UNL     1      -9.511   5.255  71.552  1.00  0.00    -0.191 A  
HETATM   10  C   UNL     1      -8.590   5.223  66.872  1.00  0.00    -0.105 A  
HETATM   11  C   UNL     1     -10.314   6.216  72.385  1.00  0.00    -0.219 C  
HETATM   12  C   UNL     1      -8.703   2.925  65.671  1.00  0.00    -0.127 C  
HETATM   13  N   UNL     1      -8.465   5.789  65.712  1.00  0.00    -0.137 N  
HETATM   14  H   UNL     1      -8.356   6.802  65.667  1.00  0.00     0.000 HD 
HETATM   15  N   UNL     1      -9.028   3.091  68.052  1.00  0.00    -0.132 NA 
HETATM   16  C   UNL     1      -8.474   5.073  64.553  1.00  0.00    -0.142 C  
HETATM   17  N   UNL     1      -8.515   3.710  64.579  1.00  0.00    -0.096 N  
HETATM   18  O   UNL     1      -8.824   1.712  65.628  1.00  0.00    -0.118 OA 
HETATM   19  C   UNL     1      -8.780   3.717  66.944  1.00  0.00    -0.117 A  
HETATM   20  O   UNL     1      -8.448   5.626  63.458  1.00  0.00    -0.087 OA 
ENDROOT
BRANCH   7  21
HETATM   21  C   UNL     1      -8.999   7.398  68.026  1.00  0.00    -0.132 C  
BRANCH  21  22
HETATM   22  C   UNL     1     -10.533   7.572  67.992  1.00  0.00    -0.197 C  
HETATM   23  O   UNL     1     -11.091   6.689  67.020  1.00  0.00    -0.422 OA 
HETATM   24  H   UNL     1     -12.036   6.797  66.999  1.00  0.00     0.000 HD 
BRANCH  22  25
HETATM   25  C   UNL     1     -11.023   9.019  67.748  1.00  0.00     0.067 C  
HETATM   26  O   UNL     1     -10.266   9.594  66.661  1.00  0.00    -0.234 OA 
HETATM   27  H   UNL     1     -10.568  10.482  66.512  1.00  0.00     0.000 HD 
BRANCH  25  28
HETATM   28  C   UNL     1     -11.004  10.021  68.928  1.00  0.00    -0.207 C  
HETATM   29  O   UNL     1     -12.370  10.246  69.356  1.00  0.00    -0.564 OA 
HETATM   30  H   UNL     1     -12.359  10.861  70.080  1.00  0.00     0.000 HD 
BRANCH  28  31
HETATM   31  C   UNL     1     -10.365  11.388  68.651  1.00  0.00    -0.203 C  
BRANCH  31  32
HETATM   32  O   UNL     1     -10.126  11.464  67.240  1.00  0.00    -0.188 OA 
HETATM   33  P   UNL     1     -10.293  12.881  66.521  1.00  0.00    -0.274 P  
HETATM   34  O   UNL     1     -11.821  13.293  66.735  1.00  0.00    -0.362 OA 
HETATM   35  O   UNL     1     -10.217  12.581  64.957  1.00  0.00    -0.285 OA 
HETATM   36  O   UNL     1      -9.355  13.958  66.940  1.00  0.00    -0.239 OA 
ENDBRANCH  31  32
ENDBRANCH  28  31
ENDBRANCH  25  28
ENDBRANCH  22  25
ENDBRANCH  21  22
ENDBRANCH   7  21
TORSDOF 6
ENDMDL
MODEL      251
REMARK 921   NORMALIZED FREE ENERGY PREDICTED BY IDOCK:   -2.01 KCAL/MOL
REMARK 922        TOTAL FREE ENERGY PREDICTED BY IDOCK:   -5.06 KCAL/MOL
REMARK 923 INTER-LIGAND FREE ENERGY PREDICTED BY IDOCK:   -4.15 KCAL/MOL
REMARK 924 INTRA-LIGAND FREE ENERGY PREDICTED BY IDOCK:   -0.90 KCAL/MOL
REMARK 927      BINDING AFFINITY PREDICTED BY RF-SCORE:    0.00 PKD
ROOT
HETATM    1  C   UNL     1      -5.984   8.816  73.981  1.00  0.00    -0.127 C  
HETATM    2  C   UNL     1      -7.086   8.206  73.163  1.00  0.00    -0.147 A  
HETATM    3  C   UNL     1      -7.389   8.715  71.902  1.00  0.00    -0.092 A  
HETATM    4  C   UNL     1      -8.340   8.082  71.089  1.00  0.00    -0.114 A  
HETATM    5  C   UNL     1      -9.106   6.998  71.581  1.00  0.00    -0.138 A  
HETATM    6  C   UNL     1      -8.953   6.662  72.916  1.00  0.00    -0.138 A  
HETATM    7  N   UNL     1      -9.926   6.236  70.711  1.00  0.00    -0.184 NA 
HETATM    8  H   UNL     1     -10.356   7.890  65.850  1.00  0.00     0.000 HD 
HETATM    9  C   UNL     1      -7.813   7.090  73.602  1.00  0.00    -0.111 A  
HETATM   10  C   UNL     1      -9.993   6.651  69.383  1.00  0.00    -0.156 A  
HETATM   11  C   UNL     1      -7.226   6.048  74.515  1.00  0.00    -0.091 C  
HETATM   12  C   UNL     1      -9.378   8.391  67.559  1.00  0.00    -0.147 C  
HETATM   13  N   UNL     1     -10.661   5.993  68.487  1.00  0.00    -0.238 N  
HETATM   14  H   UNL     1     -11.155   5.144  68.764  1.00  0.00     0.000 HD 
HETATM   15  N   UNL     1      -8.451   8.547  69.777  1.00  0.00    -0.127 NA 
HETATM   16  C   UNL     1     -10.725   6.400  67.188  1.00  0.00    -0.361 C  
HETATM   17  N   UNL     1     -10.165   7.582  66.804  1.00  0.00    -0.269 N  
HETATM   18  O   UNL     1      -8.826   9.394  67.138  1.00  0.00    -0.127 OA 
HETATM   19  C   UNL     1      -9.235   7.901  68.970  1.00  0.00    -0.147 A  
HETATM   20  O   UNL     1     -11.281   5.722  66.331  1.00  0.00    -0.071 OA 
ENDROOT
BRANCH   7  21
HETATM   21  C   UNL     1     -10.118   4.778  71.028  1.00  0.00    -0.199 C  
BRANCH  21  22
HETATM   22  C   UNL     1      -8.907   3.916  70.610  1.00  0.00    -0.081 C  
HETATM   23  O   UNL     1      -7.782   4.759  70.368  1.00  0.00    -0.057 OA 
HETATM   24  H   UNL     1      -7.037   4.228  70.110  1.00  0.00     0.000 HD 
BRANCH  22  25
HETATM   25  C   UNL     1      -9.152   2.986  69.398  1.00  0.00    -0.132 C  
HETATM   26  O   UNL     1      -9.246   1.622  69.864  1.00  0.00    -0.084 OA 
HETATM   27  H   UNL     1      -9.397   1.052  69.120  1.00  0.00     0.000 HD 
BRANCH  25  28
HETATM   28  C   UNL     1      -8.151   3.020  68.218  1.00  0.00    -0.065 C  
HETATM   29  O   UNL     1      -8.088   4.378  67.714  1.00  0.00    -0.094 OA 
HETATM   30  H   UNL     1      -7.473   4.399  66.990  1.00  0.00     0.000 HD 
BRANCH  28  31
HETATM   31  C   UNL     1      -8.457   2.091  67.036  1.00  0.00    -0.093 C  
BRANCH  31  32
HETATM   32  O   UNL     1      -9.423   2.759  66.214  1.00  0.00    -0.059 OA 
HETATM   33  P   UNL     1      -9.056   3.026  64.682  1.00  0.00    -0.143 P  
HETATM   34  O   UNL     1      -7.768   3.970  64.708  1.00  0.00    -0.079 OA 
HETATM   35  O   UNL     1     -10.198   3.992  64.128  1.00  0.00    -0.197 OA 
HETATM   36  O   UNL     1      -8.859   1.827  63.823  1.00  0.00    -0.087 OA 
ENDBRANCH  31  32
ENDBRANCH  28  31
ENDBRANCH  25  28
ENDBRANCH  22  25
ENDBRANCH  21  22
ENDBRANCH   7  21
TORSDOF 6
ENDMDL
MODEL      252
REMARK 921   NORMALIZED FREE ENERGY PREDICTED BY IDOCK:   -2.00 KCAL/MOL
REMARK 922        TOTAL FREE ENERGY PREDICTED BY IDOCK:   -5.04 KCAL/MOL
REMARK 923 INTER-LIGAND FREE ENERGY PREDICTED BY IDOCK:   -4.91 KCAL/MOL
REMARK 924 INTRA-LIGAND FREE ENERGY PREDICTED BY IDOCK:   -0.13 KCAL/MOL
REMARK 927      BINDING AFFINITY PREDICTED BY RF-SCORE:    0.00 PKD
ROOT
HETATM    1  C   UNL     1     -14.317  14.878  72.604  1.00  0.00    -0.030 C  
HETATM    2  C   UNL     1     -13.365  13.912  71.957  1.00  0.00    -0.523 A  
HETATM    3  C   UNL     1     -13.450  12.549  72.237  1.00  0.00    -0.490 A  
HETATM    4  C   UNL     1     -12.640  11.632  71.553  1.00  0.00    -0.236 A  
HETATM    5  C   UNL     1     -11.629  12.078  70.668  1.00  0.00     0.429 A  
HETATM    6  C   UNL     1     -11.408  13.443  70.587  1.00  0.00     0.684 A  
HETATM    7  N   UNL     1     -10.939  11.162  69.835  1.00  0.00    -0.165 NA 
HETATM    8  H   UNL     1     -11.929   6.154  70.537  1.00  0.00     0.000 HD 
HETATM    9  C   UNL     1     -12.401  14.323  71.027  1.00  0.00    -0.431 A  
HETATM   10  C   UNL     1     -11.253   9.813  69.985  1.00  0.00    -0.251 A  
HETATM   11  C   UNL     1     -12.594  15.517  70.132  1.00  0.00    -0.304 C  
HETATM   12  C   UNL     1     -12.532   7.953  71.264  1.00  0.00    -0.264 C  
HETATM   13  N   UNL     1     -10.730   8.894  69.234  1.00  0.00    -0.345 N  
HETATM   14  H   UNL     1     -10.067   9.168  68.509  1.00  0.00     0.000 HD 
HETATM   15  N   UNL     1     -12.914  10.278  71.760  1.00  0.00    -0.444 NA 
HETATM   16  C   UNL     1     -11.039   7.575  69.382  1.00  0.00     0.004 C  
HETATM   17  N   UNL     1     -11.840   7.161  70.404  1.00  0.00    -0.237 N  
HETATM   18  O   UNL     1     -13.309   7.532  72.105  1.00  0.00    -0.172 OA 
HETATM   19  C   UNL     1     -12.262   9.412  71.049  1.00  0.00    -0.279 A  
HETATM   20  O   UNL     1     -10.611   6.726  68.607  1.00  0.00    -0.198 OA 
ENDROOT
BRANCH   7  21
HETATM   21  C   UNL     1     -10.467  11.653  68.494  1.00  0.00    -0.217 C  
BRANCH  21  22
HETATM   22  C   UNL     1      -9.116  12.394  68.576  1.00  0.00    -0.067 C  
HETATM   23  O   UNL     1      -8.896  13.122  67.368  1.00  0.00    -0.184 OA 
HETATM   24  H   UNL     1      -8.064  13.578  67.419  1.00  0.00     0.000 HD 
BRANCH  22  25
HETATM   25  C   UNL     1      -7.895  11.499  68.892  1.00  0.00    -0.071 C  
HETATM   26  O   UNL     1      -6.699  12.308  68.867  1.00  0.00    -0.084 OA 
HETATM   27  H   UNL     1      -5.950  11.758  69.062  1.00  0.00     0.000 HD 
BRANCH  25  28
HETATM   28  C   UNL     1      -7.643  10.246  68.019  1.00  0.00    -0.088 C  
HETATM   29  O   UNL     1      -6.889   9.288  68.803  1.00  0.00    -0.059 OA 
HETATM   30  H   UNL     1      -6.734   8.519  68.267  1.00  0.00     0.000 HD 
BRANCH  28  31
HETATM   31  C   UNL     1      -6.891  10.473  66.700  1.00  0.00    -0.108 C  
BRANCH  31  32
HETATM   32  O   UNL     1      -7.875  10.529  65.659  1.00  0.00    -0.154 OA 
HETATM   33  P   UNL     1      -9.020   9.415  65.642  1.00  0.00    -0.222 P  
HETATM   34  O   UNL     1      -8.262   8.022  65.460  1.00  0.00    -0.123 OA 
HETATM   35  O   UNL     1      -9.776   9.597  64.249  1.00  0.00    -0.083 OA 
HETATM   36  O   UNL     1      -9.956   9.401  66.799  1.00  0.00    -0.203 OA 
ENDBRANCH  31  32
ENDBRANCH  28  31
ENDBRANCH  25  28
ENDBRANCH  22  25
ENDBRANCH  21  22
ENDBRANCH   7  21
TORSDOF 6
ENDMDL
MODEL      253
REMARK 921   NORMALIZED FREE ENERGY PREDICTED BY IDOCK:   -1.95 KCAL/MOL
REMARK 922        TOTAL FREE ENERGY PREDICTED BY IDOCK:   -4.98 KCAL/MOL
REMARK 923 INTER-LIGAND FREE ENERGY PREDICTED BY IDOCK:   -3.82 KCAL/MOL
REMARK 924 INTRA-LIGAND FREE ENERGY PREDICTED BY IDOCK:   -1.16 KCAL/MOL
REMARK 927      BINDING AFFINITY PREDICTED BY RF-SCORE:    0.00 PKD
ROOT
HETATM    1  C   UNL     1      -5.943   8.273  64.961  1.00  0.00    -0.045 C  
HETATM    2  C   UNL     1      -6.146   7.517  66.244  1.00  0.00    -0.041 A  
HETATM    3  C   UNL     1      -5.952   8.150  67.470  1.00  0.00    -0.047 A  
HETATM    4  C   UNL     1      -6.246   7.485  68.668  1.00  0.00    -0.032 A  
HETATM    5  C   UNL     1      -6.616   6.118  68.665  1.00  0.00    -0.058 A  
HETATM    6  C   UNL     1      -6.572   5.448  67.454  1.00  0.00    -0.053 A  
HETATM    7  N   UNL     1      -7.096   5.495  69.843  1.00  0.00    -0.061 NA 
HETATM    8  H   UNL     1      -6.964   8.270  74.183  1.00  0.00     0.000 HD 
HETATM    9  C   UNL     1      -6.576   6.183  66.265  1.00  0.00    -0.048 A  
HETATM   10  C   UNL     1      -7.116   6.267  71.003  1.00  0.00    -0.070 A  
HETATM   11  C   UNL     1      -7.448   5.595  65.190  1.00  0.00    -0.078 C  
HETATM   12  C   UNL     1      -6.527   8.486  72.210  1.00  0.00    -0.080 C  
HETATM   13  N   UNL     1      -7.593   5.819  72.122  1.00  0.00    -0.099 N  
HETATM   14  H   UNL     1      -7.966   4.871  72.156  1.00  0.00     0.000 HD 
HETATM   15  N   UNL     1      -6.198   8.248  69.837  1.00  0.00    -0.032 NA 
HETATM   16  C   UNL     1      -7.611   6.577  73.255  1.00  0.00    -0.092 C  
HETATM   17  N   UNL     1      -7.029   7.809  73.275  1.00  0.00    -0.080 N  
HETATM   18  O   UNL     1      -6.099   9.627  72.267  1.00  0.00    -0.293 OA 
HETATM   19  C   UNL     1      -6.583   7.689  70.941  1.00  0.00    -0.038 A  
HETATM   20  O   UNL     1      -8.149   6.178  74.283  1.00  0.00    -0.108 OA 
ENDROOT
BRANCH   7  21
HETATM   21  C   UNL     1      -8.106   4.389  69.689  1.00  0.00    -0.060 C  
BRANCH  21  22
HETATM   22  C   UNL     1      -9.537   4.839  70.051  1.00  0.00    -0.190 C  
HETATM   23  O   UNL     1     -10.116   3.902  70.959  1.00  0.00    -0.134 OA 
HETATM   24  H   UNL     1     -10.998   4.179  71.181  1.00  0.00     0.000 HD 
BRANCH  22  25
HETATM   25  C   UNL     1     -10.477   5.068  68.844  1.00  0.00     0.009 C  
HETATM   26  O   UNL     1      -9.853   4.534  67.655  1.00  0.00    -0.168 OA 
HETATM   27  H   UNL     1     -10.431   4.675  66.915  1.00  0.00     0.000 HD 
BRANCH  25  28
HETATM   28  C   UNL     1     -10.950   6.508  68.530  1.00  0.00    -0.286 C  
HETATM   29  O   UNL     1     -11.671   6.486  67.273  1.00  0.00    -0.632 OA 
HETATM   30  H   UNL     1     -11.961   7.370  67.080  1.00  0.00     0.000 HD 
BRANCH  28  31
HETATM   31  C   UNL     1      -9.856   7.579  68.429  1.00  0.00    -0.164 C  
BRANCH  31  32
HETATM   32  O   UNL     1     -10.470   8.760  67.896  1.00  0.00    -0.229 OA 
HETATM   33  P   UNL     1      -9.521   9.939  67.386  1.00  0.00    -0.155 P  
HETATM   34  O   UNL     1      -8.695  10.411  68.668  1.00  0.00    -0.124 OA 
HETATM   35  O   UNL     1     -10.487  11.177  67.105  1.00  0.00    -0.209 OA 
HETATM   36  O   UNL     1      -8.638   9.633  66.227  1.00  0.00    -0.125 OA 
ENDBRANCH  31  32
ENDBRANCH  28  31
ENDBRANCH  25  28
ENDBRANCH  22  25
ENDBRANCH  21  22
ENDBRANCH   7  21
TORSDOF 6
ENDMDL
MODEL      254
REMARK 921   NORMALIZED FREE ENERGY PREDICTED BY IDOCK:   -1.88 KCAL/MOL
REMARK 922        TOTAL FREE ENERGY PREDICTED BY IDOCK:   -4.89 KCAL/MOL
REMARK 923 INTER-LIGAND FREE ENERGY PREDICTED BY IDOCK:   -3.92 KCAL/MOL
REMARK 924 INTRA-LIGAND FREE ENERGY PREDICTED BY IDOCK:   -0.97 KCAL/MOL
REMARK 927      BINDING AFFINITY PREDICTED BY RF-SCORE:    0.00 PKD
ROOT
HETATM    1  C   UNL     1      -5.839   9.143  62.999  1.00  0.00    -0.088 C  
HETATM    2  C   UNL     1      -6.114   8.216  64.148  1.00  0.00    -0.065 A  
HETATM    3  C   UNL     1      -5.739   8.572  65.443  1.00  0.00    -0.044 A  
HETATM    4  C   UNL     1      -6.093   7.764  66.532  1.00  0.00    -0.045 A  
HETATM    5  C   UNL     1      -6.716   6.509  66.331  1.00  0.00    -0.056 A  
HETATM    6  C   UNL     1      -6.864   6.072  65.025  1.00  0.00    -0.051 A  
HETATM    7  N   UNL     1      -7.245   5.778  67.424  1.00  0.00    -0.074 NA 
HETATM    8  H   UNL     1      -6.359   7.653  72.141  1.00  0.00     0.000 HD 
HETATM    9  C   UNL     1      -6.789   6.999  63.981  1.00  0.00    -0.051 A  
HETATM   10  C   UNL     1      -7.056   6.318  68.694  1.00  0.00    -0.082 A  
HETATM   11  C   UNL     1      -7.813   6.781  62.901  1.00  0.00    -0.108 C  
HETATM   12  C   UNL     1      -5.992   8.141  70.204  1.00  0.00    -0.025 C  
HETATM   13  N   UNL     1      -7.551   5.768  69.759  1.00  0.00    -0.078 N  
HETATM   14  H   UNL     1      -8.096   4.911  69.664  1.00  0.00     0.000 HD 
HETATM   15  N   UNL     1      -5.839   8.282  67.805  1.00  0.00    -0.042 NA 
HETATM   16  C   UNL     1      -7.365   6.299  71.001  1.00  0.00    -0.084 C  
HETATM   17  N   UNL     1      -6.558   7.383  71.178  1.00  0.00    -0.043 N  
HETATM   18  O   UNL     1      -5.352   9.158  70.415  1.00  0.00    -0.029 OA 
HETATM   19  C   UNL     1      -6.265   7.609  68.828  1.00  0.00    -0.036 A  
HETATM   20  O   UNL     1      -7.915   5.823  71.989  1.00  0.00    -0.105 OA 
ENDROOT
BRANCH   7  21
HETATM   21  C   UNL     1      -8.453   4.917  67.173  1.00  0.00    -0.105 C  
BRANCH  21  22
HETATM   22  C   UNL     1      -9.589   5.179  68.184  1.00  0.00    -0.134 C  
HETATM   23  O   UNL     1     -10.070   3.937  68.694  1.00  0.00     0.105 OA 
HETATM   24  H   UNL     1     -10.770   4.098  69.317  1.00  0.00     0.000 HD 
BRANCH  22  25
HETATM   25  C   UNL     1     -10.764   6.030  67.645  1.00  0.00    -0.296 C  
HETATM   26  O   UNL     1     -10.934   5.755  66.238  1.00  0.00    -0.681 OA 
HETATM   27  H   UNL     1     -11.656   6.277  65.908  1.00  0.00     0.000 HD 
BRANCH  25  28
HETATM   28  C   UNL     1     -10.719   7.566  67.832  1.00  0.00    -0.133 C  
HETATM   29  O   UNL     1      -9.661   8.095  66.994  1.00  0.00    -0.167 OA 
HETATM   30  H   UNL     1      -9.634   9.037  67.107  1.00  0.00     0.000 HD 
BRANCH  28  31
HETATM   31  C   UNL     1     -10.488   8.074  69.261  1.00  0.00    -0.215 C  
BRANCH  31  32
HETATM   32  O   UNL     1     -11.733   7.945  69.960  1.00  0.00     0.038 OA 
HETATM   33  P   UNL     1     -11.708   7.354  71.444  1.00  0.00    -0.318 P  
HETATM   34  O   UNL     1     -11.123   5.875  71.307  1.00  0.00    -0.275 OA 
HETATM   35  O   UNL     1     -13.234   7.102  71.832  1.00  0.00    -0.309 OA 
HETATM   36  O   UNL     1     -10.985   8.154  72.470  1.00  0.00    -0.324 OA 
ENDBRANCH  31  32
ENDBRANCH  28  31
ENDBRANCH  25  28
ENDBRANCH  22  25
ENDBRANCH  21  22
ENDBRANCH   7  21
TORSDOF 6
ENDMDL
MODEL      255
REMARK 921   NORMALIZED FREE ENERGY PREDICTED BY IDOCK:   -1.77 KCAL/MOL
REMARK 922        TOTAL FREE ENERGY PREDICTED BY IDOCK:   -4.73 KCAL/MOL
REMARK 923 INTER-LIGAND FREE ENERGY PREDICTED BY IDOCK:   -4.48 KCAL/MOL
REMARK 924 INTRA-LIGAND FREE ENERGY PREDICTED BY IDOCK:   -0.26 KCAL/MOL
REMARK 927      BINDING AFFINITY PREDICTED BY RF-SCORE:    0.00 PKD
ROOT
HETATM    1  C   UNL     1      -8.830   5.306  70.779  1.00  0.00    -0.151 C  
HETATM    2  C   UNL     1      -8.508   6.337  69.736  1.00  0.00    -0.126 A  
HETATM    3  C   UNL     1      -8.496   5.991  68.386  1.00  0.00    -0.112 A  
HETATM    4  C   UNL     1      -8.306   6.972  67.402  1.00  0.00    -0.122 A  
HETATM    5  C   UNL     1      -7.989   8.304  67.760  1.00  0.00    -0.122 A  
HETATM    6  C   UNL     1      -7.773   8.570  69.102  1.00  0.00    -0.091 A  
HETATM    7  N   UNL     1      -7.984   9.334  66.787  1.00  0.00    -0.107 NA 
HETATM    8  H   UNL     1      -8.680   7.925  61.880  1.00  0.00     0.000 HD 
HETATM    9  C   UNL     1      -8.256   7.677  70.062  1.00  0.00    -0.125 A  
HETATM   10  C   UNL     1      -8.232   8.959  65.468  1.00  0.00    -0.129 A  
HETATM   11  C   UNL     1      -8.866   8.347  71.263  1.00  0.00    -0.210 C  
HETATM   12  C   UNL     1      -8.622   7.077  63.725  1.00  0.00     0.523 C  
HETATM   13  N   UNL     1      -8.313   9.825  64.507  1.00  0.00    -0.152 N  
HETATM   14  H   UNL     1      -8.191  10.814  64.723  1.00  0.00     0.000 HD 
HETATM   15  N   UNL     1      -8.490   6.573  66.076  1.00  0.00    -0.139 NA 
HETATM   16  C   UNL     1      -8.557   9.455  63.218  1.00  0.00    -0.214 C  
HETATM   17  N   UNL     1      -8.623   8.137  62.876  1.00  0.00     0.034 N  
HETATM   18  O   UNL     1      -8.776   5.919  63.372  1.00  0.00     0.115 OA 
HETATM   19  C   UNL     1      -8.440   7.486  65.157  1.00  0.00    -0.031 A  
HETATM   20  O   UNL     1      -8.724  10.288  62.334  1.00  0.00    -0.176 OA 
ENDROOT
BRANCH   7  21
HETATM   21  C   UNL     1      -8.366  10.720  67.232  1.00  0.00    -0.124 C  
BRANCH  21  22
HETATM   22  C   UNL     1      -9.862  10.835  67.594  1.00  0.00    -0.171 C  
HETATM   23  O   UNL     1     -10.600   9.833  66.897  1.00  0.00    -0.227 OA 
HETATM   24  H   UNL     1     -11.521   9.903  67.119  1.00  0.00     0.000 HD 
BRANCH  22  25
HETATM   25  C   UNL     1     -10.490  12.229  67.354  1.00  0.00    -0.210 C  
HETATM   26  O   UNL     1     -11.895  12.174  67.684  1.00  0.00    -0.478 OA 
HETATM   27  H   UNL     1     -12.279  13.030  67.537  1.00  0.00     0.000 HD 
BRANCH  25  28
HETATM   28  C   UNL     1     -10.352  12.877  65.955  1.00  0.00    -0.285 C  
HETATM   29  O   UNL     1      -9.007  13.402  65.827  1.00  0.00    -0.254 OA 
HETATM   30  H   UNL     1      -8.922  13.799  64.968  1.00  0.00     0.000 HD 
BRANCH  28  31
HETATM   31  C   UNL     1     -11.334  14.009  65.627  1.00  0.00    -0.313 C  
BRANCH  31  32
HETATM   32  O   UNL     1     -11.363  14.883  66.764  1.00  0.00    -0.344 OA 
HETATM   33  P   UNL     1     -10.581  16.273  66.667  1.00  0.00    -0.135 P  
HETATM   34  O   UNL     1      -9.048  15.887  66.444  1.00  0.00    -0.260 OA 
HETATM   35  O   UNL     1     -10.589  16.874  68.144  1.00  0.00    -0.330 OA 
HETATM   36  O   UNL     1     -11.071  17.247  65.654  1.00  0.00    -0.009 OA 
ENDBRANCH  31  32
ENDBRANCH  28  31
ENDBRANCH  25  28
ENDBRANCH  22  25
ENDBRANCH  21  22
ENDBRANCH   7  21
TORSDOF 6
ENDMDL
MODEL      256
REMARK 921   NORMALIZED FREE ENERGY PREDICTED BY IDOCK:   -1.48 KCAL/MOL
REMARK 922        TOTAL FREE ENERGY PREDICTED BY IDOCK:   -4.34 KCAL/MOL
REMARK 923 INTER-LIGAND FREE ENERGY PREDICTED BY IDOCK:   -4.41 KCAL/MOL
REMARK 924 INTRA-LIGAND FREE ENERGY PREDICTED BY IDOCK:    0.07 KCAL/MOL
REMARK 927      BINDING AFFINITY PREDICTED BY RF-SCORE:    0.00 PKD
ROOT
HETATM    1  C   UNL     1     -13.239  15.224  73.163  1.00  0.00    -0.612 C  
HETATM    2  C   UNL     1     -12.289  14.945  72.033  1.00  0.00    -0.419 A  
HETATM    3  C   UNL     1     -12.346  13.731  71.352  1.00  0.00    -0.341 A  
HETATM    4  C   UNL     1     -11.539  13.509  70.227  1.00  0.00    -0.066 A  
HETATM    5  C   UNL     1     -10.558  14.454  69.841  1.00  0.00     0.165 A  
HETATM    6  C   UNL     1     -10.361  15.544  70.673  1.00  0.00     0.081 A  
HETATM    7  N   UNL     1      -9.876  14.328  68.606  1.00  0.00    -0.236 NA 
HETATM    8  H   UNL     1     -10.769  10.059  65.862  1.00  0.00     0.000 HD 
HETATM    9  C   UNL     1     -11.355  15.893  71.591  1.00  0.00    -0.356 A  
HETATM   10  C   UNL     1     -10.164  13.202  67.838  1.00  0.00    -0.233 A  
HETATM   11  C   UNL     1     -11.590  17.374  71.699  1.00  0.00     1.967 C  
HETATM   12  C   UNL     1     -11.381  10.923  67.596  1.00  0.00    -0.270 C  
HETATM   13  N   UNL     1      -9.646  13.016  66.664  1.00  0.00    -0.254 N  
HETATM   14  H   UNL     1      -9.006  13.716  66.290  1.00  0.00     0.000 HD 
HETATM   15  N   UNL     1     -11.787  12.343  69.498  1.00  0.00    -0.310 NA 
HETATM   16  C   UNL     1      -9.931  11.914  65.914  1.00  0.00    -0.234 C  
HETATM   17  N   UNL     1     -10.699  10.909  66.422  1.00  0.00    -0.229 N  
HETATM   18  O   UNL     1     -12.130  10.032  67.962  1.00  0.00     0.599 OA 
HETATM   19  C   UNL     1     -11.139  12.174  68.388  1.00  0.00    -0.245 A  
HETATM   20  O   UNL     1      -9.509  11.793  64.769  1.00  0.00    -0.148 OA 
ENDROOT
BRANCH   7  21
HETATM   21  C   UNL     1      -9.446  15.591  67.911  1.00  0.00    -0.201 C  
BRANCH  21  22
HETATM   22  C   UNL     1      -7.911  15.726  67.821  1.00  0.00    -0.141 C  
HETATM   23  O   UNL     1      -7.384  16.046  69.108  1.00  0.00    -0.185 OA 
HETATM   24  H   UNL     1      -6.439  16.129  69.053  1.00  0.00     0.000 HD 
BRANCH  22  25
HETATM   25  C   UNL     1      -7.401  16.736  66.766  1.00  0.00    -0.240 C  
HETATM   26  O   UNL     1      -5.965  16.841  66.872  1.00  0.00    -0.165 OA 
HETATM   27  H   UNL     1      -5.653  17.460  66.223  1.00  0.00     0.000 HD 
BRANCH  25  28
HETATM   28  C   UNL     1      -7.986  18.169  66.763  1.00  0.00    -0.240 C  
HETATM   29  O   UNL     1      -7.983  18.659  65.399  1.00  0.00    -0.170 OA 
HETATM   30  H   UNL     1      -8.342  19.538  65.396  1.00  0.00     0.000 HD 
BRANCH  28  31
HETATM   31  C   UNL     1      -7.265  19.203  67.638  1.00  0.00    -0.223 C  
BRANCH  31  32
HETATM   32  O   UNL     1      -8.182  19.597  68.667  1.00  0.00    -0.337 OA 
HETATM   33  P   UNL     1      -9.743  19.591  68.330  1.00  0.00    -0.443 P  
HETATM   34  O   UNL     1      -9.930  20.644  67.145  1.00  0.00    -0.452 OA 
HETATM   35  O   UNL     1     -10.452  20.311  69.564  1.00  0.00    -0.107 OA 
HETATM   36  O   UNL     1     -10.354  18.272  68.013  1.00  0.00    -0.368 OA 
ENDBRANCH  31  32
ENDBRANCH  28  31
ENDBRANCH  25  28
ENDBRANCH  22  25
ENDBRANCH  21  22
ENDBRANCH   7  21
TORSDOF 6
ENDMDL
MODEL      257
REMARK 921   NORMALIZED FREE ENERGY PREDICTED BY IDOCK:   -0.92 KCAL/MOL
REMARK 922        TOTAL FREE ENERGY PREDICTED BY IDOCK:   -3.59 KCAL/MOL
REMARK 923 INTER-LIGAND FREE ENERGY PREDICTED BY IDOCK:   -3.79 KCAL/MOL
REMARK 924 INTRA-LIGAND FREE ENERGY PREDICTED BY IDOCK:    0.21 KCAL/MOL
REMARK 927      BINDING AFFINITY PREDICTED BY RF-SCORE:    0.00 PKD
ROOT
HETATM    1  C   UNL     1      -7.061   7.612  74.416  1.00  0.00    -0.139 C  
HETATM    2  C   UNL     1      -7.598   7.459  73.021  1.00  0.00    -0.099 A  
HETATM    3  C   UNL     1      -8.470   8.411  72.496  1.00  0.00    -0.229 A  
HETATM    4  C   UNL     1      -8.886   8.334  71.160  1.00  0.00    -0.151 A  
HETATM    5  C   UNL     1      -8.539   7.221  70.357  1.00  0.00    -0.144 A  
HETATM    6  C   UNL     1      -7.871   6.175  70.971  1.00  0.00    -0.114 A  
HETATM    7  N   UNL     1      -8.792   7.226  68.962  1.00  0.00    -0.132 NA 
HETATM    8  H   UNL     1     -11.437  11.225  67.075  1.00  0.00     0.000 HD 
HETATM    9  C   UNL     1      -7.216   6.401  72.185  1.00  0.00    -0.087 A  
HETATM   10  C   UNL     1      -9.455   8.336  68.445  1.00  0.00    -0.139 A  
HETATM   11  C   UNL     1      -5.872   5.733  72.285  1.00  0.00    -0.031 C  
HETATM   12  C   UNL     1     -10.688  10.583  68.852  1.00  0.00    -0.220 C  
HETATM   13  N   UNL     1      -9.681   8.476  67.176  1.00  0.00    -0.175 N  
HETATM   14  H   UNL     1      -9.365   7.749  66.535  1.00  0.00     0.000 HD 
HETATM   15  N   UNL     1      -9.609   9.422  70.665  1.00  0.00    -0.267 NA 
HETATM   16  C   UNL     1     -10.330   9.564  66.672  1.00  0.00    -0.210 C  
HETATM   17  N   UNL     1     -10.857  10.505  67.506  1.00  0.00    -0.284 N  
HETATM   18  O   UNL     1     -11.106  11.499  69.541  1.00  0.00    -0.244 OA 
HETATM   19  C   UNL     1      -9.901   9.430  69.402  1.00  0.00    -0.178 A  
HETATM   20  O   UNL     1     -10.457   9.731  65.464  1.00  0.00    -0.072 OA 
ENDROOT
BRANCH   7  21
HETATM   21  C   UNL     1      -7.841   6.469  68.076  1.00  0.00    -0.105 C  
BRANCH  21  22
HETATM   22  C   UNL     1      -8.566   5.497  67.120  1.00  0.00    -0.109 C  
HETATM   23  O   UNL     1      -9.858   5.191  67.643  1.00  0.00    -0.144 OA 
HETATM   24  H   UNL     1     -10.305   4.592  67.055  1.00  0.00     0.000 HD 
BRANCH  22  25
HETATM   25  C   UNL     1      -7.795   4.196  66.798  1.00  0.00    -0.097 C  
HETATM   26  O   UNL     1      -7.944   3.276  67.901  1.00  0.00    -0.074 OA 
HETATM   27  H   UNL     1      -7.471   2.477  67.703  1.00  0.00     0.000 HD 
BRANCH  25  28
HETATM   28  C   UNL     1      -6.288   4.288  66.453  1.00  0.00    -0.036 C  
HETATM   29  O   UNL     1      -5.752   5.484  67.073  1.00  0.00    -0.016 OA 
HETATM   30  H   UNL     1      -4.828   5.541  66.862  1.00  0.00     0.000 HD 
BRANCH  28  31
HETATM   31  C   UNL     1      -5.931   4.329  64.962  1.00  0.00    -0.022 C  
BRANCH  31  32
HETATM   32  O   UNL     1      -5.634   5.693  64.636  1.00  0.00    -0.016 OA 
HETATM   33  P   UNL     1      -6.689   6.505  63.753  1.00  0.00    -0.047 P  
HETATM   34  O   UNL     1      -6.773   5.726  62.362  1.00  0.00    -0.034 OA 
HETATM   35  O   UNL     1      -5.961   7.868  63.359  1.00  0.00    -0.061 OA 
HETATM   36  O   UNL     1      -8.031   6.731  64.355  1.00  0.00    -0.119 OA 
ENDBRANCH  31  32
ENDBRANCH  28  31
ENDBRANCH  25  28
ENDBRANCH  22  25
ENDBRANCH  21  22
ENDBRANCH   7  21
TORSDOF 6
ENDMDL
MODEL      258
REMARK 921   NORMALIZED FREE ENERGY PREDICTED BY IDOCK:   -0.84 KCAL/MOL
REMARK 922        TOTAL FREE ENERGY PREDICTED BY IDOCK:   -3.47 KCAL/MOL
REMARK 923 INTER-LIGAND FREE ENERGY PREDICTED BY IDOCK:   -2.17 KCAL/MOL
REMARK 924 INTRA-LIGAND FREE ENERGY PREDICTED BY IDOCK:   -1.31 KCAL/MOL
REMARK 927      BINDING AFFINITY PREDICTED BY RF-SCORE:    0.00 PKD
ROOT
HETATM    1  C   UNL     1     -12.038   7.026  69.454  1.00  0.00     0.740 C  
HETATM    2  C   UNL     1     -10.994   7.873  68.783  1.00  0.00     0.127 A  
HETATM    3  C   UNL     1     -11.172   9.251  68.672  1.00  0.00     0.185 A  
HETATM    4  C   UNL     1     -10.154  10.059  68.148  1.00  0.00    -0.159 A  
HETATM    5  C   UNL     1      -8.983   9.484  67.599  1.00  0.00    -0.117 A  
HETATM    6  C   UNL     1      -8.934   8.103  67.506  1.00  0.00    -0.143 A  
HETATM    7  N   UNL     1      -7.875  10.293  67.245  1.00  0.00    -0.103 NA 
HETATM    8  H   UNL     1      -8.498  15.397  67.587  1.00  0.00     0.000 HD 
HETATM    9  C   UNL     1      -9.797   7.333  68.292  1.00  0.00    -0.165 A  
HETATM   10  C   UNL     1      -8.026  11.670  67.395  1.00  0.00    -0.147 A  
HETATM   11  C   UNL     1      -9.150   6.116  68.892  1.00  0.00    -0.123 C  
HETATM   12  C   UNL     1      -9.548  13.696  67.953  1.00  0.00    -0.223 C  
HETATM   13  N   UNL     1      -7.057  12.500  67.162  1.00  0.00    -0.334 N  
HETATM   14  H   UNL     1      -6.156  12.134  66.857  1.00  0.00     0.000 HD 
HETATM   15  N   UNL     1     -10.341  11.440  68.240  1.00  0.00    -0.186 NA 
HETATM   16  C   UNL     1      -7.207  13.847  67.310  1.00  0.00     0.044 C  
HETATM   17  N   UNL     1      -8.424  14.380  67.615  1.00  0.00    -0.172 N  
HETATM   18  O   UNL     1     -10.588  14.225  68.308  1.00  0.00    -0.235 OA 
HETATM   19  C   UNL     1      -9.363  12.209  67.874  1.00  0.00    -0.192 A  
HETATM   20  O   UNL     1      -6.260  14.615  67.177  1.00  0.00    -0.225 OA 
ENDROOT
BRANCH   7  21
HETATM   21  C   UNL     1      -6.500   9.694  67.372  1.00  0.00    -0.069 C  
BRANCH  21  22
HETATM   22  C   UNL     1      -5.886   9.323  66.006  1.00  0.00    -0.054 C  
HETATM   23  O   UNL     1      -6.135  10.371  65.070  1.00  0.00    -0.124 OA 
HETATM   24  H   UNL     1      -5.757  10.142  64.229  1.00  0.00     0.000 HD 
BRANCH  22  25
HETATM   25  C   UNL     1      -6.349   7.965  65.426  1.00  0.00    -0.041 C  
HETATM   26  O   UNL     1      -5.186   7.176  65.094  1.00  0.00    -0.027 OA 
HETATM   27  H   UNL     1      -5.471   6.342  64.739  1.00  0.00     0.000 HD 
BRANCH  25  28
HETATM   28  C   UNL     1      -7.296   7.961  64.202  1.00  0.00    -0.097 C  
HETATM   29  O   UNL     1      -8.009   9.223  64.173  1.00  0.00    -0.122 OA 
HETATM   30  H   UNL     1      -8.589   9.220  63.422  1.00  0.00     0.000 HD 
BRANCH  28  31
HETATM   31  C   UNL     1      -8.333   6.831  64.144  1.00  0.00     0.156 C  
BRANCH  31  32
HETATM   32  O   UNL     1      -7.917   5.830  65.082  1.00  0.00    -0.105 OA 
HETATM   33  P   UNL     1      -7.447   4.413  64.515  1.00  0.00    -0.073 P  
HETATM   34  O   UNL     1      -8.716   3.810  63.758  1.00  0.00    -0.094 OA 
HETATM   35  O   UNL     1      -7.305   3.465  65.789  1.00  0.00    -0.070 OA 
HETATM   36  O   UNL     1      -6.226   4.406  63.662  1.00  0.00    -0.018 OA 
ENDBRANCH  31  32
ENDBRANCH  28  31
ENDBRANCH  25  28
ENDBRANCH  22  25
ENDBRANCH  21  22
ENDBRANCH   7  21
TORSDOF 6
ENDMDL
MODEL      259
REMARK 921   NORMALIZED FREE ENERGY PREDICTED BY IDOCK:   -0.16 KCAL/MOL
REMARK 922        TOTAL FREE ENERGY PREDICTED BY IDOCK:   -2.56 KCAL/MOL
REMARK 923 INTER-LIGAND FREE ENERGY PREDICTED BY IDOCK:   -2.94 KCAL/MOL
REMARK 924 INTRA-LIGAND FREE ENERGY PREDICTED BY IDOCK:    0.39 KCAL/MOL
REMARK 927      BINDING AFFINITY PREDICTED BY RF-SCORE:    0.00 PKD
ROOT
HETATM    1  C   UNL     1      -5.607  16.905  66.665  1.00  0.00    -0.115 C  
HETATM    2  C   UNL     1      -6.649  15.927  67.128  1.00  0.00    -0.132 A  
HETATM    3  C   UNL     1      -6.346  14.569  67.220  1.00  0.00     0.348 A  
HETATM    4  C   UNL     1      -7.276  13.669  67.756  1.00  0.00    -0.164 A  
HETATM    5  C   UNL     1      -8.586  14.092  68.088  1.00  0.00    -0.181 A  
HETATM    6  C   UNL     1      -8.937  15.392  67.765  1.00  0.00    -0.173 A  
HETATM    7  N   UNL     1      -9.464  13.239  68.802  1.00  0.00     0.004 NA 
HETATM    8  H   UNL     1      -7.855   8.424  69.681  1.00  0.00     0.000 HD 
HETATM    9  C   UNL     1      -7.931  16.332  67.524  1.00  0.00    -0.171 A  
HETATM   10  C   UNL     1      -9.003  11.957  69.091  1.00  0.00     0.488 A  
HETATM   11  C   UNL     1      -8.204  17.683  68.128  1.00  0.00    -0.257 C  
HETATM   12  C   UNL     1      -7.173  10.137  68.827  1.00  0.00    -0.081 C  
HETATM   13  N   UNL     1      -9.696  11.115  69.792  1.00  0.00    -0.079 N  
HETATM   14  H   UNL     1     -10.610  11.401  70.144  1.00  0.00     0.000 HD 
HETATM   15  N   UNL     1      -6.828  12.365  67.981  1.00  0.00    -0.079 NA 
HETATM   16  C   UNL     1      -9.242   9.861  70.074  1.00  0.00    -0.183 C  
HETATM   17  N   UNL     1      -8.074   9.409  69.536  1.00  0.00    -0.104 N  
HETATM   18  O   UNL     1      -6.097   9.706  68.446  1.00  0.00    -0.043 OA 
HETATM   19  C   UNL     1      -7.629  11.545  68.587  1.00  0.00    -0.134 A  
HETATM   20  O   UNL     1      -9.864   9.107  70.815  1.00  0.00    -0.225 OA 
ENDROOT
BRANCH   7  21
HETATM   21  C   UNL     1     -10.461  13.879  69.730  1.00  0.00     0.482 C  
BRANCH  21  22
HETATM   22  C   UNL     1     -11.921  13.636  69.290  1.00  0.00    -0.336 C  
HETATM   23  O   UNL     1     -12.115  14.155  67.975  1.00  0.00    -0.485 OA 
HETATM   24  H   UNL     1     -13.014  14.005  67.704  1.00  0.00     0.000 HD 
BRANCH  22  25
HETATM   25  C   UNL     1     -12.997  14.194  70.251  1.00  0.00    -0.003 C  
HETATM   26  O   UNL     1     -12.893  15.634  70.287  1.00  0.00    -0.591 OA 
HETATM   27  H   UNL     1     -13.554  15.976  70.877  1.00  0.00     0.000 HD 
BRANCH  25  28
HETATM   28  C   UNL     1     -13.030  13.681  71.711  1.00  0.00    -0.353 C  
HETATM   29  O   UNL     1     -11.670  13.399  72.126  1.00  0.00     0.904 OA 
HETATM   30  H   UNL     1     -11.690  13.085  73.022  1.00  0.00     0.000 HD 
BRANCH  28  31
HETATM   31  C   UNL     1     -13.873  12.426  71.975  1.00  0.00     0.070 C  
BRANCH  31  32
HETATM   32  O   UNL     1     -12.963  11.369  72.305  1.00  0.00    -0.286 OA 
HETATM   33  P   UNL     1     -12.926  10.082  71.359  1.00  0.00    -0.451 P  
HETATM   34  O   UNL     1     -14.389   9.448  71.440  1.00  0.00    -0.073 OA 
HETATM   35  O   UNL     1     -12.028   9.010  72.126  1.00  0.00    -0.357 OA 
HETATM   36  O   UNL     1     -12.481  10.296  69.955  1.00  0.00    -0.183 OA 
ENDBRANCH  31  32
ENDBRANCH  28  31
ENDBRANCH  25  28
ENDBRANCH  22  25
ENDBRANCH  21  22
ENDBRANCH   7  21
TORSDOF 6
ENDMDL
MODEL      260
REMARK 921   NORMALIZED FREE ENERGY PREDICTED BY IDOCK:    2.67 KCAL/MOL
REMARK 922        TOTAL FREE ENERGY PREDICTED BY IDOCK:    1.27 KCAL/MOL
REMARK 923 INTER-LIGAND FREE ENERGY PREDICTED BY IDOCK:   -1.16 KCAL/MOL
REMARK 924 INTRA-LIGAND FREE ENERGY PREDICTED BY IDOCK:    2.42 KCAL/MOL
REMARK 927      BINDING AFFINITY PREDICTED BY RF-SCORE:    0.00 PKD
ROOT
HETATM    1  C   UNL     1      -5.958  16.810  66.996  1.00  0.00    -0.213 C  
HETATM    2  C   UNL     1      -6.874  15.680  67.371  1.00  0.00    -0.231 A  
HETATM    3  C   UNL     1      -6.362  14.402  67.583  1.00  0.00    -0.126 A  
HETATM    4  C   UNL     1      -7.193  13.370  68.041  1.00  0.00    -0.123 A  
HETATM    5  C   UNL     1      -8.589  13.567  68.169  1.00  0.00    -0.173 A  
HETATM    6  C   UNL     1      -9.106  14.774  67.727  1.00  0.00    -0.186 A  
HETATM    7  N   UNL     1      -9.403  12.598  68.807  1.00  0.00     0.047 NA 
HETATM    8  H   UNL     1      -7.142   8.174  70.174  1.00  0.00     0.000 HD 
HETATM    9  C   UNL     1      -8.250  15.867  67.568  1.00  0.00    -0.177 A  
HETATM   10  C   UNL     1      -8.777  11.428  69.230  1.00  0.00     0.343 A  
HETATM   11  C   UNL     1      -8.830  17.169  68.050  1.00  0.00    -0.229 C  
HETATM   12  C   UNL     1      -6.646   9.950  69.321  1.00  0.00    -0.049 C  
HETATM   13  N   UNL     1      -9.410  10.502  69.880  1.00  0.00    -0.368 N  
HETATM   14  H   UNL     1     -10.400  10.634  70.089  1.00  0.00     0.000 HD 
HETATM   15  N   UNL     1      -6.567  12.174  68.400  1.00  0.00    -0.055 NA 
HETATM   16  C   UNL     1      -8.795   9.358  70.293  1.00  0.00    -0.236 C  
HETATM   17  N   UNL     1      -7.503   9.100  69.944  1.00  0.00    -0.063 N  
HETATM   18  O   UNL     1      -5.470   9.703  69.113  1.00  0.00    -0.036 OA 
HETATM   19  C   UNL     1      -7.296  11.247  68.939  1.00  0.00    -0.115 A  
HETATM   20  O   UNL     1      -9.379   8.532  70.987  1.00  0.00    -0.158 OA 
ENDROOT
BRANCH   7  21
HETATM   21  C   UNL     1     -10.616  13.084  69.554  1.00  0.00     0.420 C  
BRANCH  21  22
HETATM   22  C   UNL     1     -11.671  11.976  69.756  1.00  0.00    -0.319 C  
HETATM   23  O   UNL     1     -11.093  10.893  70.481  1.00  0.00    -0.449 OA 
HETATM   24  H   UNL     1     -11.742  10.210  70.606  1.00  0.00     0.000 HD 
BRANCH  22  25
HETATM   25  C   UNL     1     -12.335  11.459  68.458  1.00  0.00     0.364 C  
HETATM   26  O   UNL     1     -12.113  10.036  68.351  1.00  0.00    -0.308 OA 
HETATM   27  H   UNL     1     -12.522   9.719  67.555  1.00  0.00     0.000 HD 
BRANCH  25  28
HETATM   28  C   UNL     1     -11.940  12.107  67.109  1.00  0.00    -0.078 C  
HETATM   29  O   UNL     1     -12.899  13.151  66.806  1.00  0.00     0.088 OA 
HETATM   30  H   UNL     1     -12.656  13.549  65.979  1.00  0.00     0.000 HD 
BRANCH  28  31
HETATM   31  C   UNL     1     -11.864  11.169  65.897  1.00  0.00     1.117 C  
BRANCH  31  32
HETATM   32  O   UNL     1     -10.942  11.754  64.968  1.00  0.00    -0.300 OA 
HETATM   33  P   UNL     1     -11.495  12.207  63.539  1.00  0.00    -0.411 P  
HETATM   34  O   UNL     1     -12.035  10.874  62.846  1.00  0.00     0.948 OA 
HETATM   35  O   UNL     1     -10.204  12.565  62.673  1.00  0.00     0.650 OA 
HETATM   36  O   UNL     1     -12.507  13.298  63.529  1.00  0.00    -0.728 OA 
ENDBRANCH  31  32
ENDBRANCH  28  31
ENDBRANCH  25  28
ENDBRANCH  22  25
ENDBRANCH  21  22
ENDBRANCH   7  21
TORSDOF 6
ENDMDL
MODEL      261
REMARK 921   NORMALIZED FREE ENERGY PREDICTED BY IDOCK:    4.43 KCAL/MOL
REMARK 922        TOTAL FREE ENERGY PREDICTED BY IDOCK:    3.64 KCAL/MOL
REMARK 923 INTER-LIGAND FREE ENERGY PREDICTED BY IDOCK:   -3.23 KCAL/MOL
REMARK 924 INTRA-LIGAND FREE ENERGY PREDICTED BY IDOCK:    6.86 KCAL/MOL
REMARK 927      BINDING AFFINITY PREDICTED BY RF-SCORE:    0.00 PKD
ROOT
HETATM    1  C   UNL     1      -7.062   7.767  73.768  1.00  0.00    -0.136 C  
HETATM    2  C   UNL     1      -7.903   7.888  72.529  1.00  0.00    -0.150 A  
HETATM    3  C   UNL     1      -8.794   8.950  72.386  1.00  0.00     0.153 A  
HETATM    4  C   UNL     1      -9.499   9.130  71.188  1.00  0.00    -0.261 A  
HETATM    5  C   UNL     1      -9.425   8.167  70.152  1.00  0.00    -0.167 A  
HETATM    6  C   UNL     1      -8.719   7.004  70.412  1.00  0.00    -0.147 A  
HETATM    7  N   UNL     1      -9.977   8.433  68.875  1.00  0.00    -0.182 NA 
HETATM    8  H   UNL     1     -12.659  12.801  68.344  1.00  0.00     0.000 HD 
HETATM    9  C   UNL     1      -7.798   6.983  71.463  1.00  0.00    -0.098 A  
HETATM   10  C   UNL     1     -10.651   9.642  68.717  1.00  0.00    -0.216 A  
HETATM   11  C   UNL     1      -6.520   6.260  71.136  1.00  0.00    -0.049 C  
HETATM   12  C   UNL     1     -11.588  11.822  69.767  1.00  0.00    -0.299 C  
HETATM   13  N   UNL     1     -11.140  10.017  67.577  1.00  0.00    -0.381 N  
HETATM   14  H   UNL     1     -11.030   9.405  66.768  1.00  0.00     0.000 HD 
HETATM   15  N   UNL     1     -10.228  10.315  71.062  1.00  0.00     0.633 NA 
HETATM   16  C   UNL     1     -11.798  11.201  67.425  1.00  0.00     0.248 C  
HETATM   17  N   UNL     1     -12.055  11.995  68.503  1.00  0.00    -0.195 N  
HETATM   18  O   UNL     1     -11.772  12.614  70.677  1.00  0.00    -0.079 OA 
HETATM   19  C   UNL     1     -10.789  10.562  69.920  1.00  0.00    -0.276 A  
HETATM   20  O   UNL     1     -12.176  11.587  66.324  1.00  0.00     0.061 OA 
ENDROOT
BRANCH   7  21
HETATM   21  C   UNL     1      -9.306   7.814  67.679  1.00  0.00    -0.142 C  
BRANCH  21  22
HETATM   22  C   UNL     1     -10.114   6.638  67.088  1.00  0.00    -0.174 C  
HETATM   23  O   UNL     1     -10.799   5.956  68.137  1.00  0.00    -0.271 OA 
HETATM   24  H   UNL     1     -11.297   5.232  67.773  1.00  0.00     0.000 HD 
BRANCH  22  25
HETATM   25  C   UNL     1      -9.292   5.637  66.242  1.00  0.00    -0.157 C  
HETATM   26  O   UNL     1      -8.961   4.494  67.060  1.00  0.00    -0.111 OA 
HETATM   27  H   UNL     1      -8.457   3.879  66.540  1.00  0.00     0.000 HD 
BRANCH  25  28
HETATM   28  C   UNL     1      -7.993   6.129  65.560  1.00  0.00    -0.117 C  
HETATM   29  O   UNL     1      -8.340   6.679  64.264  1.00  0.00    -0.315 OA 
HETATM   30  H   UNL     1      -7.543   6.982  63.845  1.00  0.00     0.000 HD 
BRANCH  28  31
HETATM   31  C   UNL     1      -6.893   5.080  65.348  1.00  0.00    -0.061 C  
BRANCH  31  32
HETATM   32  O   UNL     1      -7.369   4.167  64.350  1.00  0.00    -0.067 OA 
HETATM   33  P   UNL     1      -8.639   4.595  63.480  1.00  0.00    -0.117 P  
HETATM   34  O   UNL     1      -9.834   4.772  64.523  1.00  0.00     0.038 OA 
HETATM   35  O   UNL     1      -9.062   3.290  62.667  1.00  0.00    -0.091 OA 
HETATM   36  O   UNL     1      -8.477   5.785  62.601  1.00  0.00    -0.102 OA 
ENDBRANCH  31  32
ENDBRANCH  28  31
ENDBRANCH  25  28
ENDBRANCH  22  25
ENDBRANCH  21  22
ENDBRANCH   7  21
TORSDOF 6
ENDMDL
MODEL      262
REMARK 921   NORMALIZED FREE ENERGY PREDICTED BY IDOCK:    6.97 KCAL/MOL
REMARK 922        TOTAL FREE ENERGY PREDICTED BY IDOCK:    7.07 KCAL/MOL
REMARK 923 INTER-LIGAND FREE ENERGY PREDICTED BY IDOCK:   -0.02 KCAL/MOL
REMARK 924 INTRA-LIGAND FREE ENERGY PREDICTED BY IDOCK:    7.09 KCAL/MOL
REMARK 927      BINDING AFFINITY PREDICTED BY RF-SCORE:    0.00 PKD
ROOT
HETATM    1  C   UNL     1      -6.038  16.657  67.279  1.00  0.00    -0.195 C  
HETATM    2  C   UNL     1      -6.879  15.449  67.580  1.00  0.00    -0.223 A  
HETATM    3  C   UNL     1      -6.274  14.235  67.903  1.00  0.00    -0.167 A  
HETATM    4  C   UNL     1      -7.051  13.136  68.293  1.00  0.00    -0.105 A  
HETATM    5  C   UNL     1      -8.465  13.192  68.237  1.00  0.00    -0.161 A  
HETATM    6  C   UNL     1      -9.037  14.327  67.687  1.00  0.00    -0.192 A  
HETATM    7  N   UNL     1      -9.254  12.161  68.805  1.00  0.00     0.008 NA 
HETATM    8  H   UNL     1      -6.763   8.030  70.615  1.00  0.00     0.000 HD 
HETATM    9  C   UNL     1      -8.280  15.498  67.595  1.00  0.00    -0.168 A  
HETATM   10  C   UNL     1      -8.575  11.073  69.348  1.00  0.00     0.200 A  
HETATM   11  C   UNL     1      -9.043  16.745  67.949  1.00  0.00    -0.224 C  
HETATM   12  C   UNL     1      -6.338   9.825  69.763  1.00  0.00    -0.050 C  
HETATM   13  N   UNL     1      -9.192  10.104  69.949  1.00  0.00    -0.390 N  
HETATM   14  H   UNL     1     -10.209  10.139  70.026  1.00  0.00     0.000 HD 
HETATM   15  N   UNL     1      -6.362  12.020  68.773  1.00  0.00    -0.066 NA 
HETATM   16  C   UNL     1      -8.526   9.040  70.480  1.00  0.00    -0.200 C  
HETATM   17  N   UNL     1      -7.180   8.908  70.306  1.00  0.00    -0.048 N  
HETATM   18  O   UNL     1      -5.126   9.695  69.714  1.00  0.00    -0.034 OA 
HETATM   19  C   UNL     1      -7.059  11.038  69.253  1.00  0.00    -0.123 A  
HETATM   20  O   UNL     1      -9.109   8.176  71.127  1.00  0.00    -0.142 OA 
ENDROOT
BRANCH   7  21
HETATM   21  C   UNL     1     -10.595  12.539  69.374  1.00  0.00     0.269 C  
BRANCH  21  22
HETATM   22  C   UNL     1     -11.567  11.342  69.447  1.00  0.00    -0.321 C  
HETATM   23  O   UNL     1     -11.357  10.630  70.666  1.00  0.00    -0.357 OA 
HETATM   24  H   UNL     1     -11.955   9.893  70.710  1.00  0.00     0.000 HD 
BRANCH  22  25
HETATM   25  C   UNL     1     -11.505  10.373  68.242  1.00  0.00    -0.144 C  
HETATM   26  O   UNL     1     -12.736  10.477  67.493  1.00  0.00     2.519 OA 
HETATM   27  H   UNL     1     -12.697   9.883  66.753  1.00  0.00     0.000 HD 
BRANCH  25  28
HETATM   28  C   UNL     1     -11.231   8.873  68.505  1.00  0.00     0.424 C  
HETATM   29  O   UNL     1     -10.612   8.745  69.810  1.00  0.00    -0.220 OA 
HETATM   30  H   UNL     1     -10.444   7.824  69.971  1.00  0.00     0.000 HD 
BRANCH  28  31
HETATM   31  C   UNL     1     -10.338   8.153  67.486  1.00  0.00    -0.261 C  
BRANCH  31  32
HETATM   32  O   UNL     1      -9.657   7.104  68.188  1.00  0.00    -0.132 OA 
HETATM   33  P   UNL     1     -10.220   5.616  68.051  1.00  0.00    -0.176 P  
HETATM   34  O   UNL     1     -11.700   5.660  68.646  1.00  0.00     0.999 OA 
HETATM   35  O   UNL     1      -9.423   4.754  69.130  1.00  0.00    -0.124 OA 
HETATM   36  O   UNL     1     -10.176   5.007  66.693  1.00  0.00    -0.214 OA 
ENDBRANCH  31  32
ENDBRANCH  28  31
ENDBRANCH  25  28
ENDBRANCH  22  25
ENDBRANCH  21  22
ENDBRANCH   7  21
TORSDOF 6
ENDMDL
MODEL      263
REMARK 921   NORMALIZED FREE ENERGY PREDICTED BY IDOCK:    7.08 KCAL/MOL
REMARK 922        TOTAL FREE ENERGY PREDICTED BY IDOCK:    7.21 KCAL/MOL
REMARK 923 INTER-LIGAND FREE ENERGY PREDICTED BY IDOCK:    7.32 KCAL/MOL
REMARK 924 INTRA-LIGAND FREE ENERGY PREDICTED BY IDOCK:   -0.11 KCAL/MOL
REMARK 927      BINDING AFFINITY PREDICTED BY RF-SCORE:    0.00 PKD
ROOT
HETATM    1  C   UNL     1      -5.869  17.097  66.055  1.00  0.00     0.211 C  
HETATM    2  C   UNL     1      -7.025  16.259  66.523  1.00  0.00     0.105 A  
HETATM    3  C   UNL     1      -6.927  14.869  66.529  1.00  0.00     1.949 A  
HETATM    4  C   UNL     1      -7.958  14.087  67.068  1.00  0.00     0.055 A  
HETATM    5  C   UNL     1      -9.171  14.680  67.491  1.00  0.00    -0.192 A  
HETATM    6  C   UNL     1      -9.335  16.035  67.255  1.00  0.00    -0.218 A  
HETATM    7  N   UNL     1     -10.135  13.927  68.207  1.00  0.00    -0.235 NA 
HETATM    8  H   UNL     1      -9.236   8.882  68.751  1.00  0.00     0.000 HD 
HETATM    9  C   UNL     1      -8.211  16.827  67.008  1.00  0.00    -0.224 A  
HETATM   10  C   UNL     1      -9.861  12.575  68.404  1.00  0.00    -0.202 A  
HETATM   11  C   UNL     1      -8.248  18.165  67.694  1.00  0.00    -0.243 C  
HETATM   12  C   UNL     1      -8.342  10.522  67.949  1.00  0.00    -0.115 C  
HETATM   13  N   UNL     1     -10.641  11.807  69.098  1.00  0.00    -0.393 N  
HETATM   14  H   UNL     1     -11.484  12.204  69.513  1.00  0.00     0.000 HD 
HETATM   15  N   UNL     1      -7.702  12.720  67.201  1.00  0.00    -0.115 NA 
HETATM   16  C   UNL     1     -10.370  10.485  69.291  1.00  0.00    -0.227 C  
HETATM   17  N   UNL     1      -9.310   9.896  68.668  1.00  0.00    -0.145 N  
HETATM   18  O   UNL     1      -7.362   9.959  67.489  1.00  0.00    -0.089 OA 
HETATM   19  C   UNL     1      -8.590  11.994  67.807  1.00  0.00    -0.157 A  
HETATM   20  O   UNL     1     -11.064   9.789  70.025  1.00  0.00    -0.242 OA 
ENDROOT
BRANCH   7  21
HETATM   21  C   UNL     1     -10.980  14.652  69.219  1.00  0.00    -0.260 C  
BRANCH  21  22
HETATM   22  C   UNL     1     -12.475  14.676  68.835  1.00  0.00     0.104 C  
HETATM   23  O   UNL     1     -12.620  14.335  67.457  1.00  0.00    -0.513 OA 
HETATM   24  H   UNL     1     -13.540  14.350  67.221  1.00  0.00     0.000 HD 
BRANCH  22  25
HETATM   25  C   UNL     1     -13.210  16.002  69.140  1.00  0.00     2.450 C  
HETATM   26  O   UNL     1     -12.724  17.025  68.243  1.00  0.00     1.479 OA 
HETATM   27  H   UNL     1     -13.176  17.839  68.431  1.00  0.00     0.000 HD 
BRANCH  25  28
HETATM   28  C   UNL     1     -13.161  16.567  70.581  1.00  0.00     3.520 C  
HETATM   29  O   UNL     1     -11.803  16.445  71.071  1.00  0.00    -0.589 OA 
HETATM   30  H   UNL     1     -11.773  16.792  71.955  1.00  0.00     0.000 HD 
BRANCH  28  31
HETATM   31  C   UNL     1     -14.095  15.908  71.605  1.00  0.00     0.278 C  
BRANCH  31  32
HETATM   32  O   UNL     1     -13.276  15.453  72.690  1.00  0.00    -0.384 OA 
HETATM   33  P   UNL     1     -12.934  13.894  72.775  1.00  0.00     0.009 P  
HETATM   34  O   UNL     1     -14.339  13.156  72.941  1.00  0.00    -0.372 OA 
HETATM   35  O   UNL     1     -12.246  13.683  74.198  1.00  0.00     1.961 OA 
HETATM   36  O   UNL     1     -12.126  13.325  71.663  1.00  0.00     0.118 OA 
ENDBRANCH  31  32
ENDBRANCH  28  31
ENDBRANCH  25  28
ENDBRANCH  22  25
ENDBRANCH  21  22
ENDBRANCH   7  21
TORSDOF 6
ENDMDL
MODEL      264
REMARK 921   NORMALIZED FREE ENERGY PREDICTED BY IDOCK:    7.49 KCAL/MOL
REMARK 922        TOTAL FREE ENERGY PREDICTED BY IDOCK:    7.78 KCAL/MOL
REMARK 923 INTER-LIGAND FREE ENERGY PREDICTED BY IDOCK:   -0.75 KCAL/MOL
REMARK 924 INTRA-LIGAND FREE ENERGY PREDICTED BY IDOCK:    8.53 KCAL/MOL
REMARK 927      BINDING AFFINITY PREDICTED BY RF-SCORE:    0.00 PKD
ROOT
HETATM    1  C   UNL     1     -11.348   3.847  73.214  1.00  0.00    -0.206 C  
HETATM    2  C   UNL     1     -11.436   4.790  72.048  1.00  0.00     0.551 A  
HETATM    3  C   UNL     1     -12.070   6.023  72.188  1.00  0.00    -0.201 A  
HETATM    4  C   UNL     1     -12.058   6.951  71.138  1.00  0.00    -0.381 A  
HETATM    5  C   UNL     1     -11.522   6.608  69.874  1.00  0.00    -0.354 A  
HETATM    6  C   UNL     1     -11.112   5.298  69.689  1.00  0.00     0.562 A  
HETATM    7  N   UNL     1     -11.334   7.595  68.874  1.00  0.00     0.386 NA 
HETATM    8  H   UNL     1     -13.126  12.320  69.879  1.00  0.00     0.000 HD 
HETATM    9  C   UNL     1     -10.855   4.498  70.806  1.00  0.00     0.785 A  
HETATM   10  C   UNL     1     -11.765   8.885  69.172  1.00  0.00     1.040 A  
HETATM   11  C   UNL     1      -9.630   3.635  70.667  1.00  0.00    -0.254 C  
HETATM   12  C   UNL     1     -12.982  10.509  70.789  1.00  0.00    -0.330 C  
HETATM   13  N   UNL     1     -11.586   9.878  68.358  1.00  0.00    -0.440 N  
HETATM   14  H   UNL     1     -11.115   9.709  67.469  1.00  0.00     0.000 HD 
HETATM   15  N   UNL     1     -12.555   8.226  71.423  1.00  0.00    -0.299 NA 
HETATM   16  C   UNL     1     -12.009  11.140  68.651  1.00  0.00    -0.219 C  
HETATM   17  N   UNL     1     -12.732  11.384  69.781  1.00  0.00     0.032 N  
HETATM   18  O   UNL     1     -13.558  10.805  71.823  1.00  0.00    -0.225 OA 
HETATM   19  C   UNL     1     -12.444   9.137  70.508  1.00  0.00     0.232 A  
HETATM   20  O   UNL     1     -11.753  12.089  67.917  1.00  0.00    -0.375 OA 
ENDROOT
BRANCH   7  21
HETATM   21  C   UNL     1     -10.184   7.415  67.920  1.00  0.00    -0.194 C  
BRANCH  21  22
HETATM   22  C   UNL     1      -8.811   7.531  68.617  1.00  0.00    -0.127 C  
HETATM   23  O   UNL     1      -8.973   7.349  70.023  1.00  0.00    -0.144 OA 
HETATM   24  H   UNL     1      -8.128   7.421  70.452  1.00  0.00     0.000 HD 
BRANCH  22  25
HETATM   25  C   UNL     1      -8.040   8.841  68.330  1.00  0.00    -0.117 C  
HETATM   26  O   UNL     1      -7.032   9.024  69.348  1.00  0.00    -0.051 OA 
HETATM   27  H   UNL     1      -6.558   9.828  69.172  1.00  0.00     0.000 HD 
BRANCH  25  28
HETATM   28  C   UNL     1      -8.836  10.162  68.202  1.00  0.00    -0.126 C  
HETATM   29  O   UNL     1      -8.677  10.659  66.850  1.00  0.00    -0.130 OA 
HETATM   30  H   UNL     1      -9.166  11.470  66.771  1.00  0.00     0.000 HD 
BRANCH  28  31
HETATM   31  C   UNL     1      -8.447  11.290  69.168  1.00  0.00     0.100 C  
BRANCH  31  32
HETATM   32  O   UNL     1      -7.321  11.967  68.595  1.00  0.00    -0.105 OA 
HETATM   33  P   UNL     1      -7.050  11.789  67.030  1.00  0.00    -0.056 P  
HETATM   34  O   UNL     1      -6.785  10.229  66.816  1.00  0.00    -0.077 OA 
HETATM   35  O   UNL     1      -5.617  12.437  66.766  1.00  0.00    -0.319 OA 
HETATM   36  O   UNL     1      -8.091  12.316  66.107  1.00  0.00     0.292 OA 
ENDBRANCH  31  32
ENDBRANCH  28  31
ENDBRANCH  25  28
ENDBRANCH  22  25
ENDBRANCH  21  22
ENDBRANCH   7  21
TORSDOF 6
ENDMDL
MODEL      265
REMARK 921   NORMALIZED FREE ENERGY PREDICTED BY IDOCK:    7.60 KCAL/MOL
REMARK 922        TOTAL FREE ENERGY PREDICTED BY IDOCK:    7.92 KCAL/MOL
REMARK 923 INTER-LIGAND FREE ENERGY PREDICTED BY IDOCK:    5.94 KCAL/MOL
REMARK 924 INTRA-LIGAND FREE ENERGY PREDICTED BY IDOCK:    1.98 KCAL/MOL
REMARK 927      BINDING AFFINITY PREDICTED BY RF-SCORE:    0.00 PKD
ROOT
HETATM    1  C   UNL     1      -6.472  16.863  68.603  1.00  0.00    -0.169 C  
HETATM    2  C   UNL     1      -7.518  15.827  68.898  1.00  0.00    -0.173 A  
HETATM    3  C   UNL     1      -8.127  15.780  70.151  1.00  0.00     0.812 A  
HETATM    4  C   UNL     1      -9.181  14.889  70.396  1.00  0.00     1.118 A  
HETATM    5  C   UNL     1      -9.558  13.929  69.426  1.00  0.00     0.579 A  
HETATM    6  C   UNL     1      -8.782  13.839  68.283  1.00  0.00    -0.179 A  
HETATM    7  N   UNL     1     -10.736  13.159  69.589  1.00  0.00     0.277 NA 
HETATM    8  H   UNL     1     -13.270  13.665  74.047  1.00  0.00     0.000 HD 
HETATM    9  C   UNL     1      -7.954  14.909  67.932  1.00  0.00    -0.145 A  
HETATM   10  C   UNL     1     -11.452  13.342  70.770  1.00  0.00     0.803 A  
HETATM   11  C   UNL     1      -7.951  15.219  66.460  1.00  0.00     0.171 C  
HETATM   12  C   UNL     1     -11.635  14.434  73.116  1.00  0.00     0.835 C  
HETATM   13  N   UNL     1     -12.577  12.737  70.997  1.00  0.00    -0.335 N  
HETATM   14  H   UNL     1     -12.949  12.106  70.288  1.00  0.00     0.000 HD 
HETATM   15  N   UNL     1      -9.853  15.033  71.612  1.00  0.00     2.169 NA 
HETATM   16  C   UNL     1     -13.276  12.918  72.152  1.00  0.00    -0.448 C  
HETATM   17  N   UNL     1     -12.760  13.673  73.164  1.00  0.00     0.276 N  
HETATM   18  O   UNL     1     -11.266  15.164  74.021  1.00  0.00     0.641 OA 
HETATM   19  C   UNL     1     -10.906  14.304  71.812  1.00  0.00     2.397 A  
HETATM   20  O   UNL     1     -14.382  12.415  72.318  1.00  0.00     0.176 OA 
ENDROOT
BRANCH   7  21
HETATM   21  C   UNL     1     -11.477  12.740  68.347  1.00  0.00    -0.311 C  
BRANCH  21  22
HETATM   22  C   UNL     1     -10.653  11.782  67.460  1.00  0.00    -0.214 C  
HETATM   23  O   UNL     1     -11.072  11.911  66.103  1.00  0.00    -0.303 OA 
HETATM   24  H   UNL     1     -10.566  11.320  65.557  1.00  0.00     0.000 HD 
BRANCH  22  25
HETATM   25  C   UNL     1     -10.685  10.298  67.894  1.00  0.00    -0.264 C  
HETATM   26  O   UNL     1     -11.971  10.008  68.484  1.00  0.00    -0.490 OA 
HETATM   27  H   UNL     1     -11.990   9.097  68.750  1.00  0.00     0.000 HD 
BRANCH  25  28
HETATM   28  C   UNL     1      -9.589   9.779  68.858  1.00  0.00    -0.167 C  
HETATM   29  O   UNL     1     -10.009  10.059  70.216  1.00  0.00    -0.352 OA 
HETATM   30  H   UNL     1      -9.337   9.741  70.808  1.00  0.00     0.000 HD 
BRANCH  28  31
HETATM   31  C   UNL     1      -8.182  10.362  68.668  1.00  0.00    -0.121 C  
BRANCH  31  32
HETATM   32  O   UNL     1      -7.531   9.573  67.664  1.00  0.00    -0.090 OA 
HETATM   33  P   UNL     1      -8.218   9.466  66.225  1.00  0.00    -0.113 P  
HETATM   34  O   UNL     1      -9.637   8.778  66.478  1.00  0.00    -0.195 OA 
HETATM   35  O   UNL     1      -7.406   8.337  65.444  1.00  0.00    -0.079 OA 
HETATM   36  O   UNL     1      -8.334  10.727  65.444  1.00  0.00    -0.161 OA 
ENDBRANCH  31  32
ENDBRANCH  28  31
ENDBRANCH  25  28
ENDBRANCH  22  25
ENDBRANCH  21  22
ENDBRANCH   7  21
TORSDOF 6
ENDMDL
MODEL      266
REMARK 921   NORMALIZED FREE ENERGY PREDICTED BY IDOCK:    7.91 KCAL/MOL
REMARK 922        TOTAL FREE ENERGY PREDICTED BY IDOCK:    8.33 KCAL/MOL
REMARK 923 INTER-LIGAND FREE ENERGY PREDICTED BY IDOCK:    3.55 KCAL/MOL
REMARK 924 INTRA-LIGAND FREE ENERGY PREDICTED BY IDOCK:    4.79 KCAL/MOL
REMARK 927      BINDING AFFINITY PREDICTED BY RF-SCORE:    0.00 PKD
ROOT
HETATM    1  C   UNL     1     -12.215  12.252  70.360  1.00  0.00    -0.371 C  
HETATM    2  C   UNL     1     -11.047  12.996  69.779  1.00  0.00     0.109 A  
HETATM    3  C   UNL     1     -11.213  14.288  69.283  1.00  0.00    -0.309 A  
HETATM    4  C   UNL     1     -10.107  15.028  68.842  1.00  0.00    -0.234 A  
HETATM    5  C   UNL     1      -8.824  14.435  68.765  1.00  0.00    -0.131 A  
HETATM    6  C   UNL     1      -8.729  13.081  69.038  1.00  0.00     0.483 A  
HETATM    7  N   UNL     1      -7.676  15.224  68.504  1.00  0.00    -0.123 NA 
HETATM    8  H   UNL     1      -8.453  20.193  67.384  1.00  0.00     0.000 HD 
HETATM    9  C   UNL     1      -9.754  12.454  69.752  1.00  0.00     1.978 A  
HETATM   10  C   UNL     1      -7.884  16.580  68.261  1.00  0.00    -0.175 A  
HETATM   11  C   UNL     1      -9.265  11.472  70.782  1.00  0.00     6.157 C  
HETATM   12  C   UNL     1      -9.533  18.550  67.895  1.00  0.00    -0.296 C  
HETATM   13  N   UNL     1      -6.902  17.406  68.074  1.00  0.00    -0.177 N  
HETATM   14  H   UNL     1      -5.946  17.053  68.105  1.00  0.00     0.000 HD 
HETATM   15  N   UNL     1     -10.335  16.371  68.534  1.00  0.00    -0.255 NA 
HETATM   16  C   UNL     1      -7.108  18.733  67.836  1.00  0.00    -0.237 C  
HETATM   17  N   UNL     1      -8.372  19.222  67.685  1.00  0.00    -0.285 N  
HETATM   18  O   UNL     1     -10.639  19.061  67.834  1.00  0.00    -0.399 OA 
HETATM   19  C   UNL     1      -9.309  17.107  68.241  1.00  0.00    -0.265 A  
HETATM   20  O   UNL     1      -6.173  19.521  67.753  1.00  0.00    -0.204 OA 
ENDROOT
BRANCH   7  21
HETATM   21  C   UNL     1      -6.372  14.787  69.116  1.00  0.00    -0.108 C  
BRANCH  21  22
HETATM   22  C   UNL     1      -5.405  14.179  68.078  1.00  0.00    -0.109 C  
HETATM   23  O   UNL     1      -5.480  14.922  66.863  1.00  0.00     0.330 OA 
HETATM   24  H   UNL     1      -4.885  14.547  66.224  1.00  0.00     0.000 HD 
BRANCH  22  25
HETATM   25  C   UNL     1      -5.607  12.670  67.800  1.00  0.00    -0.122 C  
HETATM   26  O   UNL     1      -5.208  12.387  66.441  1.00  0.00    -0.324 OA 
HETATM   27  H   UNL     1      -5.331  11.461  66.271  1.00  0.00     0.000 HD 
BRANCH  25  28
HETATM   28  C   UNL     1      -7.008  12.052  68.025  1.00  0.00    -0.084 C  
HETATM   29  O   UNL     1      -6.864  10.611  68.087  1.00  0.00    -0.067 OA 
HETATM   30  H   UNL     1      -7.724  10.231  68.226  1.00  0.00     0.000 HD 
BRANCH  28  31
HETATM   31  C   UNL     1      -8.075  12.375  66.971  1.00  0.00    -0.124 C  
BRANCH  31  32
HETATM   32  O   UNL     1      -8.585  11.124  66.491  1.00  0.00    -0.159 OA 
HETATM   33  P   UNL     1      -9.955  11.134  65.668  1.00  0.00    -0.276 P  
HETATM   34  O   UNL     1     -11.055  11.704  66.674  1.00  0.00    -0.287 OA 
HETATM   35  O   UNL     1     -10.371   9.603  65.510  1.00  0.00    -0.130 OA 
HETATM   36  O   UNL     1      -9.949  11.859  64.369  1.00  0.00    -0.259 OA 
ENDBRANCH  31  32
ENDBRANCH  28  31
ENDBRANCH  25  28
ENDBRANCH  22  25
ENDBRANCH  21  22
ENDBRANCH   7  21
TORSDOF 6
ENDMDL
MODEL      267
REMARK 921   NORMALIZED FREE ENERGY PREDICTED BY IDOCK:   16.33 KCAL/MOL
REMARK 922        TOTAL FREE ENERGY PREDICTED BY IDOCK:   19.72 KCAL/MOL
REMARK 923 INTER-LIGAND FREE ENERGY PREDICTED BY IDOCK:    4.43 KCAL/MOL
REMARK 924 INTRA-LIGAND FREE ENERGY PREDICTED BY IDOCK:   15.29 KCAL/MOL
REMARK 927      BINDING AFFINITY PREDICTED BY RF-SCORE:    0.00 PKD
ROOT
HETATM    1  C   UNL     1      -6.634  17.617  68.929  1.00  0.00    -0.228 C  
HETATM    2  C   UNL     1      -7.622  16.497  69.085  1.00  0.00    -0.210 A  
HETATM    3  C   UNL     1      -8.285  16.309  70.297  1.00  0.00     1.831 A  
HETATM    4  C   UNL     1      -9.288  15.337  70.415  1.00  0.00     0.798 A  
HETATM    5  C   UNL     1      -9.555  14.440  69.354  1.00  0.00     0.227 A  
HETATM    6  C   UNL     1      -8.723  14.493  68.248  1.00  0.00    -0.173 A  
HETATM    7  N   UNL     1     -10.687  13.587  69.393  1.00  0.00     0.002 NA 
HETATM    8  H   UNL     1     -13.453  13.564  73.740  1.00  0.00     0.000 HD 
HETATM    9  C   UNL     1      -7.951  15.638  68.028  1.00  0.00    -0.137 A  
HETATM   10  C   UNL     1     -11.467  13.627  70.546  1.00  0.00     0.193 A  
HETATM   11  C   UNL     1      -7.900  16.068  66.587  1.00  0.00    -0.266 C  
HETATM   12  C   UNL     1     -11.831  14.506  72.960  1.00  0.00     0.221 C  
HETATM   13  N   UNL     1     -12.559  12.937  70.665  1.00  0.00    -0.231 N  
HETATM   14  H   UNL     1     -12.855  12.345  69.890  1.00  0.00     0.000 HD 
HETATM   15  N   UNL     1     -10.024  15.338  71.603  1.00  0.00     1.699 NA 
HETATM   16  C   UNL     1     -13.321  12.978  71.794  1.00  0.00    -0.378 C  
HETATM   17  N   UNL     1     -12.904  13.676  72.888  1.00  0.00    -0.122 N  
HETATM   18  O   UNL     1     -11.554  15.180  73.938  1.00  0.00    -0.167 OA 
HETATM   19  C   UNL     1     -11.035  14.531  71.689  1.00  0.00     1.168 A  
HETATM   20  O   UNL     1     -14.398  12.395  71.861  1.00  0.00     0.693 OA 
ENDROOT
BRANCH   7  21
HETATM   21  C   UNL     1     -11.339  13.229  68.085  1.00  0.00    -0.288 C  
BRANCH  21  22
HETATM   22  C   UNL     1     -10.433  12.358  67.189  1.00  0.00    -0.219 C  
HETATM   23  O   UNL     1     -10.984  12.290  65.875  1.00  0.00    -0.280 OA 
HETATM   24  H   UNL     1     -10.426  11.754  65.324  1.00  0.00     0.000 HD 
BRANCH  22  25
HETATM   25  C   UNL     1     -10.151  10.935  67.728  1.00  0.00    -0.177 C  
HETATM   26  O   UNL     1     -11.362  10.406  68.310  1.00  0.00    -0.404 OA 
HETATM   27  H   UNL     1     -11.188   9.532  68.640  1.00  0.00     0.000 HD 
BRANCH  25  28
HETATM   28  C   UNL     1      -9.003  10.738  68.747  1.00  0.00    -0.170 C  
HETATM   29  O   UNL     1      -7.746  10.980  68.069  1.00  0.00    -0.100 OA 
HETATM   30  H   UNL     1      -7.041  10.860  68.694  1.00  0.00     0.000 HD 
BRANCH  28  31
HETATM   31  C   UNL     1      -8.918   9.362  69.422  1.00  0.00    -0.157 C  
BRANCH  31  32
HETATM   32  O   UNL     1     -10.048   9.252  70.298  1.00  0.00    -0.189 OA 
HETATM   33  P   UNL     1     -11.500   9.539  69.696  1.00  0.00     0.263 P  
HETATM   34  O   UNL     1     -11.468  11.057  69.204  1.00  0.00    -0.248 OA 
HETATM   35  O   UNL     1     -12.483   9.589  70.952  1.00  0.00    -0.280 OA 
HETATM   36  O   UNL     1     -11.980   8.612  68.636  1.00  0.00     1.767 OA 
ENDBRANCH  31  32
ENDBRANCH  28  31
ENDBRANCH  25  28
ENDBRANCH  22  25
ENDBRANCH  21  22
ENDBRANCH   7  21
TORSDOF 6
ENDMDL
MODEL      268
REMARK 921   NORMALIZED FREE ENERGY PREDICTED BY IDOCK:   16.98 KCAL/MOL
REMARK 922        TOTAL FREE ENERGY PREDICTED BY IDOCK:   20.60 KCAL/MOL
REMARK 923 INTER-LIGAND FREE ENERGY PREDICTED BY IDOCK:   15.61 KCAL/MOL
REMARK 924 INTRA-LIGAND FREE ENERGY PREDICTED BY IDOCK:    4.98 KCAL/MOL
REMARK 927      BINDING AFFINITY PREDICTED BY RF-SCORE:    0.00 PKD
ROOT
HETATM    1  C   UNL     1     -12.168  12.292  70.342  1.00  0.00    -0.371 C  
HETATM    2  C   UNL     1     -11.264  13.339  69.756  1.00  0.00    -0.029 A  
HETATM    3  C   UNL     1     -11.777  14.577  69.374  1.00  0.00    -0.361 A  
HETATM    4  C   UNL     1     -10.922  15.595  68.932  1.00  0.00    -0.266 A  
HETATM    5  C   UNL     1      -9.542  15.347  68.735  1.00  0.00    -0.209 A  
HETATM    6  C   UNL     1      -9.099  14.045  68.895  1.00  0.00     0.048 A  
HETATM    7  N   UNL     1      -8.644  16.412  68.474  1.00  0.00    -0.212 NA 
HETATM    8  H   UNL     1     -10.694  21.091  67.793  1.00  0.00     0.000 HD 
HETATM    9  C   UNL     1      -9.884  13.139  69.614  1.00  0.00     1.392 A  
HETATM   10  C   UNL     1      -9.195  17.686  68.350  1.00  0.00    -0.288 A  
HETATM   11  C   UNL     1      -9.095  12.248  70.534  1.00  0.00     6.532 C  
HETATM   12  C   UNL     1     -11.298  19.201  68.233  1.00  0.00     1.157 C  
HETATM   13  N   UNL     1      -8.462  18.741  68.173  1.00  0.00    -0.297 N  
HETATM   14  H   UNL     1      -7.449  18.635  68.123  1.00  0.00     0.000 HD 
HETATM   15  N   UNL     1     -11.493  16.856  68.743  1.00  0.00     0.046 NA 
HETATM   16  C   UNL     1      -9.003  19.986  68.053  1.00  0.00    -0.236 C  
HETATM   17  N   UNL     1     -10.355  20.154  68.012  1.00  0.00    -0.358 N  
HETATM   18  O   UNL     1     -12.496  19.424  68.276  1.00  0.00     3.568 OA 
HETATM   19  C   UNL     1     -10.703  17.841  68.452  1.00  0.00    -0.197 A  
HETATM   20  O   UNL     1      -8.297  20.986  67.980  1.00  0.00     0.225 OA 
ENDROOT
BRANCH   7  21
HETATM   21  C   UNL     1      -7.232  16.276  68.975  1.00  0.00    -0.204 C  
BRANCH  21  22
HETATM   22  C   UNL     1      -6.187  16.400  67.845  1.00  0.00    -0.128 C  
HETATM   23  O   UNL     1      -6.451  17.574  67.078  1.00  0.00    -0.145 OA 
HETATM   24  H   UNL     1      -5.808  17.650  66.382  1.00  0.00     0.000 HD 
BRANCH  22  25
HETATM   25  C   UNL     1      -6.075  15.167  66.918  1.00  0.00     1.125 C  
HETATM   26  O   UNL     1      -5.227  15.498  65.797  1.00  0.00     3.423 OA 
HETATM   27  H   UNL     1      -5.158  14.740  65.228  1.00  0.00     0.000 HD 
BRANCH  25  28
HETATM   28  C   UNL     1      -7.373  14.531  66.363  1.00  0.00     2.214 C  
HETATM   29  O   UNL     1      -8.412  15.542  66.366  1.00  0.00    -0.325 OA 
HETATM   30  H   UNL     1      -9.209  15.152  66.025  1.00  0.00     0.000 HD 
BRANCH  28  31
HETATM   31  C   UNL     1      -7.906  13.303  67.113  1.00  0.00    -0.033 C  
BRANCH  31  32
HETATM   32  O   UNL     1      -7.831  12.192  66.210  1.00  0.00     0.213 OA 
HETATM   33  P   UNL     1      -8.902  11.017  66.368  1.00  0.00    -0.184 P  
HETATM   34  O   UNL     1      -8.668  10.417  67.828  1.00  0.00    -0.121 OA 
HETATM   35  O   UNL     1      -8.397   9.845  65.412  1.00  0.00    -0.134 OA 
HETATM   36  O   UNL     1     -10.327  11.374  66.127  1.00  0.00    -0.233 OA 
ENDBRANCH  31  32
ENDBRANCH  28  31
ENDBRANCH  25  28
ENDBRANCH  22  25
ENDBRANCH  21  22
ENDBRANCH   7  21
TORSDOF 6
ENDMDL
MODEL      269
REMARK 921   NORMALIZED FREE ENERGY PREDICTED BY IDOCK:   18.22 KCAL/MOL
REMARK 922        TOTAL FREE ENERGY PREDICTED BY IDOCK:   22.27 KCAL/MOL
REMARK 923 INTER-LIGAND FREE ENERGY PREDICTED BY IDOCK:   18.40 KCAL/MOL
REMARK 924 INTRA-LIGAND FREE ENERGY PREDICTED BY IDOCK:    3.87 KCAL/MOL
REMARK 927      BINDING AFFINITY PREDICTED BY RF-SCORE:    0.00 PKD
ROOT
HETATM    1  C   UNL     1     -12.181  12.291  70.359  1.00  0.00    -0.371 C  
HETATM    2  C   UNL     1     -11.240  13.365  69.892  1.00  0.00     0.032 A  
HETATM    3  C   UNL     1     -11.722  14.637  69.587  1.00  0.00    -0.358 A  
HETATM    4  C   UNL     1     -10.837  15.673  69.259  1.00  0.00    -0.250 A  
HETATM    5  C   UNL     1      -9.453  15.419  69.098  1.00  0.00    -0.242 A  
HETATM    6  C   UNL     1      -9.033  14.101  69.174  1.00  0.00     0.226 A  
HETATM    7  N   UNL     1      -8.532  16.487  68.955  1.00  0.00    -0.232 NA 
HETATM    8  H   UNL     1     -10.493  21.235  68.560  1.00  0.00     0.000 HD 
HETATM    9  C   UNL     1      -9.858  13.155  69.790  1.00  0.00     1.745 A  
HETATM   10  C   UNL     1      -9.061  17.774  68.909  1.00  0.00    -0.126 A  
HETATM   11  C   UNL     1      -9.118  12.183  70.668  1.00  0.00     7.296 C  
HETATM   12  C   UNL     1     -11.138  19.327  68.828  1.00  0.00     1.381 C  
HETATM   13  N   UNL     1      -8.308  18.828  68.844  1.00  0.00    -0.263 N  
HETATM   14  H   UNL     1      -7.295  18.710  68.825  1.00  0.00     0.000 HD 
HETATM   15  N   UNL     1     -11.384  16.953  69.146  1.00  0.00     0.073 NA 
HETATM   16  C   UNL     1      -8.828  20.087  68.799  1.00  0.00     0.084 C  
HETATM   17  N   UNL     1     -10.175  20.279  68.718  1.00  0.00    -0.232 N  
HETATM   18  O   UNL     1     -12.334  19.565  68.840  1.00  0.00     5.124 OA 
HETATM   19  C   UNL     1     -10.570  17.946  68.964  1.00  0.00     0.065 A  
HETATM   20  O   UNL     1      -8.107  21.079  68.832  1.00  0.00     1.272 OA 
ENDROOT
BRANCH   7  21
HETATM   21  C   UNL     1      -7.143  16.290  69.500  1.00  0.00    -0.141 C  
BRANCH  21  22
HETATM   22  C   UNL     1      -6.055  16.433  68.414  1.00  0.00    -0.119 C  
HETATM   23  O   UNL     1      -6.267  17.639  67.682  1.00  0.00    -0.155 OA 
HETATM   24  H   UNL     1      -5.597  17.727  67.013  1.00  0.00     0.000 HD 
BRANCH  22  25
HETATM   25  C   UNL     1      -5.933  15.232  67.446  1.00  0.00     0.108 C  
HETATM   26  O   UNL     1      -5.191  15.644  66.278  1.00  0.00     1.253 OA 
HETATM   27  H   UNL     1      -5.116  14.906  65.684  1.00  0.00     0.000 HD 
BRANCH  25  28
HETATM   28  C   UNL     1      -7.225  14.526  66.968  1.00  0.00     0.404 C  
HETATM   29  O   UNL     1      -6.867  13.216  66.462  1.00  0.00     0.164 OA 
HETATM   30  H   UNL     1      -7.660  12.782  66.169  1.00  0.00     0.000 HD 
BRANCH  28  31
HETATM   31  C   UNL     1      -8.035  15.246  65.882  1.00  0.00     2.003 C  
BRANCH  31  32
HETATM   32  O   UNL     1      -9.308  15.575  66.454  1.00  0.00    -0.249 OA 
HETATM   33  P   UNL     1     -10.272  16.553  65.638  1.00  0.00    -0.141 P  
HETATM   34  O   UNL     1      -9.476  17.931  65.508  1.00  0.00    -0.204 OA 
HETATM   35  O   UNL     1     -11.460  16.918  66.637  1.00  0.00     0.568 OA 
HETATM   36  O   UNL     1     -10.765  16.061  64.323  1.00  0.00    -0.314 OA 
ENDBRANCH  31  32
ENDBRANCH  28  31
ENDBRANCH  25  28
ENDBRANCH  22  25
ENDBRANCH  21  22
ENDBRANCH   7  21
TORSDOF 6
ENDMDL
MODEL      270
REMARK 921   NORMALIZED FREE ENERGY PREDICTED BY IDOCK:   58.16 KCAL/MOL
REMARK 922        TOTAL FREE ENERGY PREDICTED BY IDOCK:   76.22 KCAL/MOL
REMARK 923 INTER-LIGAND FREE ENERGY PREDICTED BY IDOCK:   76.37 KCAL/MOL
REMARK 924 INTRA-LIGAND FREE ENERGY PREDICTED BY IDOCK:   -0.16 KCAL/MOL
REMARK 927      BINDING AFFINITY PREDICTED BY RF-SCORE:    0.00 PKD
ROOT
HETATM    1  C   UNL     1      -6.048  16.677  67.327  1.00  0.00    -0.195 C  
HETATM    2  C   UNL     1      -7.035  15.818  68.066  1.00  0.00    -0.137 A  
HETATM    3  C   UNL     1      -6.649  14.575  68.564  1.00  0.00    -0.093 A  
HETATM    4  C   UNL     1      -7.530  13.819  69.348  1.00  0.00     0.237 A  
HETATM    5  C   UNL     1      -8.870  14.236  69.539  1.00  0.00     0.569 A  
HETATM    6  C   UNL     1      -9.296  15.353  68.840  1.00  0.00    -0.218 A  
HETATM    7  N   UNL     1      -9.705  13.583  70.480  1.00  0.00     3.756 NA 
HETATM    8  H   UNL     1      -7.813   9.373  72.770  1.00  0.00     0.000 HD 
HETATM    9  C   UNL     1      -8.346  16.240  68.324  1.00  0.00    -0.185 A  
HETATM   10  C   UNL     1      -9.170  12.481  71.141  1.00  0.00    12.534 A  
HETATM   11  C   UNL     1      -8.714  17.689  68.491  1.00  0.00    -0.285 C  
HETATM   12  C   UNL     1      -7.224  10.789  71.436  1.00  0.00     3.206 C  
HETATM   13  N   UNL     1      -9.821  11.847  72.066  1.00  0.00    13.658 N  
HETATM   14  H   UNL     1     -10.757  12.165  72.317  1.00  0.00     0.000 HD 
HETATM   15  N   UNL     1      -7.005  12.676  69.956  1.00  0.00     0.489 NA 
HETATM   16  C   UNL     1      -9.295  10.769  72.713  1.00  0.00    13.764 C  
HETATM   17  N   UNL     1      -8.091  10.253  72.334  1.00  0.00     5.359 N  
HETATM   18  O   UNL     1      -6.117  10.335  71.201  1.00  0.00    -0.288 OA 
HETATM   19  C   UNL     1      -7.764  12.027  70.783  1.00  0.00     5.284 A  
HETATM   20  O   UNL     1      -9.880  10.234  73.648  1.00  0.00     9.031 OA 
ENDROOT
BRANCH   7  21
HETATM   21  C   UNL     1     -10.757  14.407  71.173  1.00  0.00     1.358 C  
BRANCH  21  22
HETATM   22  C   UNL     1     -12.120  14.358  70.450  1.00  0.00    -0.331 C  
HETATM   23  O   UNL     1     -12.740  13.095  70.685  1.00  0.00    -0.235 OA 
HETATM   24  H   UNL     1     -13.579  13.065  70.240  1.00  0.00     0.000 HD 
BRANCH  22  25
HETATM   25  C   UNL     1     -12.068  14.656  68.932  1.00  0.00    -0.216 C  
HETATM   26  O   UNL     1     -12.986  15.730  68.634  1.00  0.00     0.513 OA 
HETATM   27  H   UNL     1     -12.954  15.913  67.702  1.00  0.00     0.000 HD 
BRANCH  25  28
HETATM   28  C   UNL     1     -12.341  13.503  67.936  1.00  0.00     0.061 C  
HETATM   29  O   UNL     1     -11.917  12.261  68.552  1.00  0.00    -0.317 OA 
HETATM   30  H   UNL     1     -12.084  11.553  67.941  1.00  0.00     0.000 HD 
BRANCH  28  31
HETATM   31  C   UNL     1     -11.658  13.609  66.566  1.00  0.00    -0.366 C  
BRANCH  31  32
HETATM   32  O   UNL     1     -11.291  12.279  66.175  1.00  0.00    -0.318 OA 
HETATM   33  P   UNL     1     -12.179  11.546  65.067  1.00  0.00     1.469 P  
HETATM   34  O   UNL     1     -13.642  11.435  65.694  1.00  0.00     5.613 OA 
HETATM   35  O   UNL     1     -11.679  10.032  65.049  1.00  0.00     3.129 OA 
HETATM   36  O   UNL     1     -12.192  12.157  63.710  1.00  0.00    -0.474 OA 
ENDBRANCH  31  32
ENDBRANCH  28  31
ENDBRANCH  25  28
ENDBRANCH  22  25
ENDBRANCH  21  22
ENDBRANCH   7  21
TORSDOF 6
ENDMDL
