MODEL        1
REMARK 921   NORMALIZED FREE ENERGY PREDICTED BY IDOCK:   -6.93 KCAL/MOL
REMARK 922        TOTAL FREE ENERGY PREDICTED BY IDOCK:   -7.60 KCAL/MOL
REMARK 923 INTER-LIGAND FREE ENERGY PREDICTED BY IDOCK:   -7.34 KCAL/MOL
REMARK 924 INTRA-LIGAND FREE ENERGY PREDICTED BY IDOCK:   -0.26 KCAL/MOL
REMARK 927      BINDING AFFINITY PREDICTED BY RF-SCORE:    0.00 PKD
ROOT
HETATM    1  O   UNL     1      -9.934  17.178  66.767  1.00  0.00    -0.268 OA 
HETATM    2  C   UNL     1     -10.563  16.272  67.298  1.00  0.00    -0.298 C  
HETATM    3  C   UNL     1     -11.083  16.414  68.665  1.00  0.00    -0.352 C  
HETATM    4  C   UNL     1     -11.715  15.385  69.250  1.00  0.00    -0.349 C  
HETATM    5  C   UNL     1     -10.860  15.010  66.615  1.00  0.00    -0.318 A  
HETATM    6  O   UNL     1     -11.928  14.158  68.626  1.00  0.00    -0.346 OA 
HETATM    7  C   UNL     1     -11.537  14.014  67.315  1.00  0.00    -0.369 A  
HETATM    8  C   UNL     1     -10.494  14.824  65.279  1.00  0.00    -0.427 A  
HETATM    9  C   UNL     1     -11.853  12.816  66.674  1.00  0.00    -0.462 A  
HETATM   10  C   UNL     1     -10.820  13.630  64.638  1.00  0.00    -0.416 A  
HETATM   11  C   UNL     1     -11.500  12.628  65.334  1.00  0.00    -0.373 A  
ENDROOT
BRANCH   4  12
HETATM   12  C   UNL     1     -12.294  15.504  70.612  1.00  0.00    -0.462 A  
HETATM   13  C   UNL     1     -12.132  16.204  72.949  1.00  0.00    -0.643 A  
HETATM   14  C   UNL     1     -14.198  15.283  72.123  1.00  0.00    -0.667 A  
HETATM   15  C   UNL     1     -13.619  15.113  70.860  1.00  0.00    -0.397 A  
HETATM   16  C   UNL     1     -11.554  16.025  71.689  1.00  0.00    -0.538 A  
HETATM   17  C   UNL     1     -13.458  15.840  73.163  1.00  0.00    -0.652 A  
ENDBRANCH   4  12
TORSDOF 1
ENDMDL
MODEL        2
REMARK 921   NORMALIZED FREE ENERGY PREDICTED BY IDOCK:   -6.81 KCAL/MOL
REMARK 922        TOTAL FREE ENERGY PREDICTED BY IDOCK:   -7.46 KCAL/MOL
REMARK 923 INTER-LIGAND FREE ENERGY PREDICTED BY IDOCK:   -7.20 KCAL/MOL
REMARK 924 INTRA-LIGAND FREE ENERGY PREDICTED BY IDOCK:   -0.27 KCAL/MOL
REMARK 927      BINDING AFFINITY PREDICTED BY RF-SCORE:    0.00 PKD
ROOT
HETATM    1  O   UNL     1     -11.627  10.717  67.801  1.00  0.00    -0.501 OA 
HETATM    2  C   UNL     1     -11.626  11.925  67.997  1.00  0.00    -0.332 C  
HETATM    3  C   UNL     1     -11.902  12.473  69.332  1.00  0.00    -0.368 C  
HETATM    4  C   UNL     1     -11.958  13.802  69.510  1.00  0.00    -0.345 C  
HETATM    5  C   UNL     1     -11.332  12.897  66.940  1.00  0.00    -0.358 A  
HETATM    6  O   UNL     1     -11.754  14.724  68.486  1.00  0.00    -0.306 OA 
HETATM    7  C   UNL     1     -11.404  14.254  67.243  1.00  0.00    -0.334 A  
HETATM    8  C   UNL     1     -10.959  12.465  65.664  1.00  0.00    -0.321 A  
HETATM    9  C   UNL     1     -11.101  15.195  66.258  1.00  0.00    -0.309 A  
HETATM   10  C   UNL     1     -10.647  13.407  64.685  1.00  0.00    -0.431 A  
HETATM   11  C   UNL     1     -10.717  14.770  64.982  1.00  0.00    -0.452 A  
ENDROOT
BRANCH   4  12
HETATM   12  C   UNL     1     -12.189  14.395  70.852  1.00  0.00    -0.413 A  
HETATM   13  C   UNL     1     -11.924  16.219  72.456  1.00  0.00    -0.648 A  
HETATM   14  C   UNL     1     -13.269  14.310  73.039  1.00  0.00    -0.500 A  
HETATM   15  C   UNL     1     -12.989  13.731  71.796  1.00  0.00    -0.441 A  
HETATM   16  C   UNL     1     -11.638  15.636  71.218  1.00  0.00    -0.485 A  
HETATM   17  C   UNL     1     -12.747  15.560  73.362  1.00  0.00    -0.653 A  
ENDBRANCH   4  12
TORSDOF 1
ENDMDL
MODEL        3
REMARK 921   NORMALIZED FREE ENERGY PREDICTED BY IDOCK:   -6.64 KCAL/MOL
REMARK 922        TOTAL FREE ENERGY PREDICTED BY IDOCK:   -7.29 KCAL/MOL
REMARK 923 INTER-LIGAND FREE ENERGY PREDICTED BY IDOCK:   -7.02 KCAL/MOL
REMARK 924 INTRA-LIGAND FREE ENERGY PREDICTED BY IDOCK:   -0.27 KCAL/MOL
REMARK 927      BINDING AFFINITY PREDICTED BY RF-SCORE:    0.00 PKD
ROOT
HETATM    1  O   UNL     1     -12.315  10.596  71.208  1.00  0.00    -0.360 OA 
HETATM    2  C   UNL     1     -12.301  11.582  70.482  1.00  0.00    -0.342 C  
HETATM    3  C   UNL     1     -11.979  11.462  69.054  1.00  0.00    -0.387 C  
HETATM    4  C   UNL     1     -11.907  12.564  68.290  1.00  0.00    -0.309 C  
HETATM    5  C   UNL     1     -12.622  12.926  70.968  1.00  0.00    -0.376 A  
HETATM    6  O   UNL     1     -12.137  13.849  68.773  1.00  0.00    -0.354 OA 
HETATM    7  C   UNL     1     -12.530  13.997  70.082  1.00  0.00    -0.319 A  
HETATM    8  C   UNL     1     -13.039  13.122  72.288  1.00  0.00    -0.458 A  
HETATM    9  C   UNL     1     -12.857  15.281  70.518  1.00  0.00    -0.421 A  
HETATM   10  C   UNL     1     -13.376  14.404  72.719  1.00  0.00    -0.606 A  
HETATM   11  C   UNL     1     -13.286  15.481  71.835  1.00  0.00    -0.553 A  
ENDROOT
BRANCH   4  12
HETATM   12  C   UNL     1     -11.628  12.480  66.834  1.00  0.00    -0.436 A  
HETATM   13  C   UNL     1     -10.588  11.377  64.918  1.00  0.00    -0.368 A  
HETATM   14  C   UNL     1     -12.023  13.276  64.561  1.00  0.00    -0.449 A  
HETATM   15  C   UNL     1     -12.225  13.385  65.941  1.00  0.00    -0.502 A  
HETATM   16  C   UNL     1     -10.783  11.493  66.297  1.00  0.00    -0.321 A  
HETATM   17  C   UNL     1     -11.216  12.263  64.050  1.00  0.00    -0.456 A  
ENDBRANCH   4  12
TORSDOF 1
ENDMDL
MODEL        4
REMARK 921   NORMALIZED FREE ENERGY PREDICTED BY IDOCK:   -6.63 KCAL/MOL
REMARK 922        TOTAL FREE ENERGY PREDICTED BY IDOCK:   -7.28 KCAL/MOL
REMARK 923 INTER-LIGAND FREE ENERGY PREDICTED BY IDOCK:   -7.03 KCAL/MOL
REMARK 924 INTRA-LIGAND FREE ENERGY PREDICTED BY IDOCK:   -0.25 KCAL/MOL
REMARK 927      BINDING AFFINITY PREDICTED BY RF-SCORE:    0.00 PKD
ROOT
HETATM    1  O   UNL     1     -11.184  13.143  68.726  1.00  0.00    -0.252 OA 
HETATM    2  C   UNL     1     -11.794  12.720  69.699  1.00  0.00    -0.317 C  
HETATM    3  C   UNL     1     -11.885  11.279  69.966  1.00  0.00    -0.448 C  
HETATM    4  C   UNL     1     -12.613  10.835  71.002  1.00  0.00    -0.420 C  
HETATM    5  C   UNL     1     -12.449  13.605  70.667  1.00  0.00    -0.417 A  
HETATM    6  O   UNL     1     -13.298  11.676  71.876  1.00  0.00    -0.445 OA 
HETATM    7  C   UNL     1     -13.166  13.035  71.716  1.00  0.00    -0.392 A  
HETATM    8  C   UNL     1     -12.330  14.993  70.551  1.00  0.00    -0.411 A  
HETATM    9  C   UNL     1     -13.773  13.860  72.663  1.00  0.00    -0.582 A  
HETATM   10  C   UNL     1     -12.929  15.815  71.505  1.00  0.00    -0.495 A  
HETATM   11  C   UNL     1     -13.648  15.249  72.559  1.00  0.00    -0.613 A  
ENDROOT
BRANCH   4  12
HETATM   12  C   UNL     1     -12.692   9.389  71.331  1.00  0.00    -0.425 A  
HETATM   13  C   UNL     1     -13.988   7.351  71.705  1.00  0.00    -0.523 A  
HETATM   14  C   UNL     1     -11.583   7.254  71.738  1.00  0.00    -0.309 A  
HETATM   15  C   UNL     1     -11.522   8.630  71.494  1.00  0.00    -0.363 A  
HETATM   16  C   UNL     1     -13.925   8.727  71.470  1.00  0.00    -0.391 A  
HETATM   17  C   UNL     1     -12.816   6.613  71.830  1.00  0.00    -0.231 A  
ENDBRANCH   4  12
TORSDOF 1
ENDMDL
MODEL        5
REMARK 921   NORMALIZED FREE ENERGY PREDICTED BY IDOCK:   -6.61 KCAL/MOL
REMARK 922        TOTAL FREE ENERGY PREDICTED BY IDOCK:   -7.25 KCAL/MOL
REMARK 923 INTER-LIGAND FREE ENERGY PREDICTED BY IDOCK:   -6.98 KCAL/MOL
REMARK 924 INTRA-LIGAND FREE ENERGY PREDICTED BY IDOCK:   -0.27 KCAL/MOL
REMARK 927      BINDING AFFINITY PREDICTED BY RF-SCORE:    0.00 PKD
ROOT
HETATM    1  O   UNL     1     -11.980  13.039  68.618  1.00  0.00    -0.319 OA 
HETATM    2  C   UNL     1     -11.835  14.137  69.138  1.00  0.00    -0.341 C  
HETATM    3  C   UNL     1     -11.253  15.257  68.386  1.00  0.00    -0.314 C  
HETATM    4  C   UNL     1     -11.045  16.435  68.996  1.00  0.00    -0.315 C  
HETATM    5  C   UNL     1     -12.246  14.419  70.516  1.00  0.00    -0.411 A  
HETATM    6  O   UNL     1     -11.365  16.677  70.329  1.00  0.00    -0.190 OA 
HETATM    7  C   UNL     1     -11.995  15.684  71.042  1.00  0.00    -0.400 A  
HETATM    8  C   UNL     1     -12.901  13.444  71.274  1.00  0.00    -0.407 A  
HETATM    9  C   UNL     1     -12.403  15.981  72.343  1.00  0.00    -0.581 A  
HETATM   10  C   UNL     1     -13.317  13.747  72.569  1.00  0.00    -0.656 A  
HETATM   11  C   UNL     1     -13.069  15.013  73.102  1.00  0.00    -0.619 A  
ENDROOT
BRANCH   4  12
HETATM   12  C   UNL     1     -10.501  17.603  68.259  1.00  0.00    -0.376 A  
HETATM   13  C   UNL     1     -10.205  18.879  66.195  1.00  0.00    -0.485 A  
HETATM   14  C   UNL     1      -9.367  19.765  68.271  1.00  0.00    -0.415 A  
HETATM   15  C   UNL     1      -9.826  18.627  68.944  1.00  0.00    -0.394 A  
HETATM   16  C   UNL     1     -10.655  17.739  66.868  1.00  0.00    -0.247 A  
HETATM   17  C   UNL     1      -9.569  19.896  66.900  1.00  0.00    -0.517 A  
ENDBRANCH   4  12
TORSDOF 1
ENDMDL
MODEL        6
REMARK 921   NORMALIZED FREE ENERGY PREDICTED BY IDOCK:   -6.57 KCAL/MOL
REMARK 922        TOTAL FREE ENERGY PREDICTED BY IDOCK:   -7.22 KCAL/MOL
REMARK 923 INTER-LIGAND FREE ENERGY PREDICTED BY IDOCK:   -6.95 KCAL/MOL
REMARK 924 INTRA-LIGAND FREE ENERGY PREDICTED BY IDOCK:   -0.27 KCAL/MOL
REMARK 927      BINDING AFFINITY PREDICTED BY RF-SCORE:    0.00 PKD
ROOT
HETATM    1  O   UNL     1     -12.989  10.546  72.030  1.00  0.00    -0.458 OA 
HETATM    2  C   UNL     1     -12.676  11.336  71.148  1.00  0.00    -0.390 C  
HETATM    3  C   UNL     1     -12.136  10.862  69.867  1.00  0.00    -0.428 C  
HETATM    4  C   UNL     1     -11.741  11.748  68.939  1.00  0.00    -0.323 C  
HETATM    5  C   UNL     1     -12.837  12.785  71.293  1.00  0.00    -0.355 A  
HETATM    6  O   UNL     1     -11.823  13.127  69.110  1.00  0.00    -0.294 OA 
HETATM    7  C   UNL     1     -12.406  13.611  70.257  1.00  0.00    -0.322 A  
HETATM    8  C   UNL     1     -13.436  13.322  72.436  1.00  0.00    -0.670 A  
HETATM    9  C   UNL     1     -12.575  14.993  70.364  1.00  0.00    -0.399 A  
HETATM   10  C   UNL     1     -13.613  14.701  72.535  1.00  0.00    -0.572 A  
HETATM   11  C   UNL     1     -13.184  15.534  71.500  1.00  0.00    -0.589 A  
ENDROOT
BRANCH   4  12
HETATM   12  C   UNL     1     -11.233  11.308  67.616  1.00  0.00    -0.357 A  
HETATM   13  C   UNL     1     -10.817  11.719  65.242  1.00  0.00    -0.343 A  
HETATM   14  C   UNL     1     -10.039   9.676  66.249  1.00  0.00    -0.322 A  
HETATM   15  C   UNL     1     -10.581  10.072  67.477  1.00  0.00    -0.336 A  
HETATM   16  C   UNL     1     -11.366  12.109  66.467  1.00  0.00    -0.405 A  
HETATM   17  C   UNL     1     -10.146  10.506  65.136  1.00  0.00    -0.383 A  
ENDBRANCH   4  12
TORSDOF 1
ENDMDL
MODEL        7
REMARK 921   NORMALIZED FREE ENERGY PREDICTED BY IDOCK:   -6.52 KCAL/MOL
REMARK 922        TOTAL FREE ENERGY PREDICTED BY IDOCK:   -7.16 KCAL/MOL
REMARK 923 INTER-LIGAND FREE ENERGY PREDICTED BY IDOCK:   -6.90 KCAL/MOL
REMARK 924 INTRA-LIGAND FREE ENERGY PREDICTED BY IDOCK:   -0.27 KCAL/MOL
REMARK 927      BINDING AFFINITY PREDICTED BY RF-SCORE:    0.00 PKD
ROOT
HETATM    1  O   UNL     1     -12.140  10.702  70.986  1.00  0.00    -0.340 OA 
HETATM    2  C   UNL     1     -12.185  11.719  70.306  1.00  0.00    -0.299 C  
HETATM    3  C   UNL     1     -11.908  11.676  68.864  1.00  0.00    -0.392 C  
HETATM    4  C   UNL     1     -11.900  12.813  68.151  1.00  0.00    -0.324 C  
HETATM    5  C   UNL     1     -12.535  13.027  70.865  1.00  0.00    -0.396 A  
HETATM    6  O   UNL     1     -12.158  14.067  68.701  1.00  0.00    -0.351 OA 
HETATM    7  C   UNL     1     -12.511  14.140  70.028  1.00  0.00    -0.296 A  
HETATM    8  C   UNL     1     -12.913  13.148  72.206  1.00  0.00    -0.354 A  
HETATM    9  C   UNL     1     -12.868  15.390  70.534  1.00  0.00    -0.425 A  
HETATM   10  C   UNL     1     -13.280  14.396  72.706  1.00  0.00    -0.611 A  
HETATM   11  C   UNL     1     -13.258  15.515  71.871  1.00  0.00    -0.553 A  
ENDROOT
BRANCH   4  12
HETATM   12  C   UNL     1     -11.670  12.806  66.685  1.00  0.00    -0.459 A  
HETATM   13  C   UNL     1     -12.014  13.764  64.463  1.00  0.00    -0.458 A  
HETATM   14  C   UNL     1     -10.515  11.900  64.734  1.00  0.00    -0.333 A  
HETATM   15  C   UNL     1     -10.792  11.875  66.105  1.00  0.00    -0.334 A  
HETATM   16  C   UNL     1     -12.297  13.732  65.831  1.00  0.00    -0.516 A  
HETATM   17  C   UNL     1     -11.116  12.854  63.916  1.00  0.00    -0.454 A  
ENDBRANCH   4  12
TORSDOF 1
ENDMDL
MODEL        8
REMARK 921   NORMALIZED FREE ENERGY PREDICTED BY IDOCK:   -6.49 KCAL/MOL
REMARK 922        TOTAL FREE ENERGY PREDICTED BY IDOCK:   -7.12 KCAL/MOL
REMARK 923 INTER-LIGAND FREE ENERGY PREDICTED BY IDOCK:   -6.87 KCAL/MOL
REMARK 924 INTRA-LIGAND FREE ENERGY PREDICTED BY IDOCK:   -0.26 KCAL/MOL
REMARK 927      BINDING AFFINITY PREDICTED BY RF-SCORE:    0.00 PKD
ROOT
HETATM    1  O   UNL     1     -13.733  14.156  72.922  1.00  0.00    -0.658 OA 
HETATM    2  C   UNL     1     -13.248  13.436  72.059  1.00  0.00    -0.438 C  
HETATM    3  C   UNL     1     -13.309  11.973  72.175  1.00  0.00    -0.396 C  
HETATM    4  C   UNL     1     -12.715  11.203  71.250  1.00  0.00    -0.426 C  
HETATM    5  C   UNL     1     -12.603  13.969  70.857  1.00  0.00    -0.431 A  
HETATM    6  O   UNL     1     -12.035  11.715  70.147  1.00  0.00    -0.327 OA 
HETATM    7  C   UNL     1     -12.032  13.076  69.953  1.00  0.00    -0.311 A  
HETATM    8  C   UNL     1     -12.587  15.345  70.611  1.00  0.00    -0.491 A  
HETATM    9  C   UNL     1     -11.437  13.561  68.788  1.00  0.00    -0.349 A  
HETATM   10  C   UNL     1     -12.002  15.827  69.441  1.00  0.00    -0.321 A  
HETATM   11  C   UNL     1     -11.429  14.936  68.531  1.00  0.00    -0.336 A  
ENDROOT
BRANCH   4  12
HETATM   12  C   UNL     1     -12.793   9.722  71.308  1.00  0.00    -0.472 A  
HETATM   13  C   UNL     1     -11.736   7.521  71.201  1.00  0.00    -0.315 A  
HETATM   14  C   UNL     1     -14.075   7.692  71.747  1.00  0.00    -0.510 A  
HETATM   15  C   UNL     1     -14.003   9.084  71.624  1.00  0.00    -0.386 A  
HETATM   16  C   UNL     1     -11.669   8.911  71.070  1.00  0.00    -0.340 A  
HETATM   17  C   UNL     1     -12.938   6.913  71.549  1.00  0.00    -0.362 A  
ENDBRANCH   4  12
TORSDOF 1
ENDMDL
MODEL        9
REMARK 921   NORMALIZED FREE ENERGY PREDICTED BY IDOCK:   -6.44 KCAL/MOL
REMARK 922        TOTAL FREE ENERGY PREDICTED BY IDOCK:   -7.07 KCAL/MOL
REMARK 923 INTER-LIGAND FREE ENERGY PREDICTED BY IDOCK:   -6.84 KCAL/MOL
REMARK 924 INTRA-LIGAND FREE ENERGY PREDICTED BY IDOCK:   -0.23 KCAL/MOL
REMARK 927      BINDING AFFINITY PREDICTED BY RF-SCORE:    0.00 PKD
ROOT
HETATM    1  O   UNL     1     -10.340  16.085  69.854  1.00  0.00    -0.283 OA 
HETATM    2  C   UNL     1     -10.456  16.238  68.645  1.00  0.00    -0.282 C  
HETATM    3  C   UNL     1     -10.762  15.101  67.766  1.00  0.00    -0.279 C  
HETATM    4  C   UNL     1     -10.822  15.281  66.437  1.00  0.00    -0.317 C  
HETATM    5  C   UNL     1     -10.326  17.546  67.998  1.00  0.00    -0.368 A  
HETATM    6  O   UNL     1     -10.621  16.512  65.819  1.00  0.00    -0.347 OA 
HETATM    7  C   UNL     1     -10.422  17.618  66.611  1.00  0.00    -0.286 A  
HETATM    8  C   UNL     1     -10.136  18.700  68.765  1.00  0.00    -0.398 A  
HETATM    9  C   UNL     1     -10.328  18.859  65.978  1.00  0.00    -0.485 A  
HETATM   10  C   UNL     1     -10.053  19.939  68.131  1.00  0.00    -0.569 A  
HETATM   11  C   UNL     1     -10.150  20.018  66.740  1.00  0.00    -0.607 A  
ENDROOT
BRANCH   4  12
HETATM   12  C   UNL     1     -11.172  14.168  65.520  1.00  0.00    -0.317 A  
HETATM   13  C   UNL     1     -12.821  12.690  64.484  1.00  0.00    -0.356 A  
HETATM   14  C   UNL     1     -10.517  12.564  63.800  1.00  0.00    -0.451 A  
HETATM   15  C   UNL     1     -10.188  13.568  64.717  1.00  0.00    -0.355 A  
HETATM   16  C   UNL     1     -12.489  13.688  65.405  1.00  0.00    -0.537 A  
HETATM   17  C   UNL     1     -11.836  12.135  63.675  1.00  0.00    -0.608 A  
ENDBRANCH   4  12
TORSDOF 1
ENDMDL
MODEL       10
REMARK 921   NORMALIZED FREE ENERGY PREDICTED BY IDOCK:   -6.38 KCAL/MOL
REMARK 922        TOTAL FREE ENERGY PREDICTED BY IDOCK:   -7.01 KCAL/MOL
REMARK 923 INTER-LIGAND FREE ENERGY PREDICTED BY IDOCK:   -6.76 KCAL/MOL
REMARK 924 INTRA-LIGAND FREE ENERGY PREDICTED BY IDOCK:   -0.25 KCAL/MOL
REMARK 927      BINDING AFFINITY PREDICTED BY RF-SCORE:    0.00 PKD
ROOT
HETATM    1  O   UNL     1     -11.459  15.670  68.397  1.00  0.00    -0.351 OA 
HETATM    2  C   UNL     1     -11.572  14.482  68.122  1.00  0.00    -0.331 C  
HETATM    3  C   UNL     1     -11.614  13.463  69.179  1.00  0.00    -0.365 C  
HETATM    4  C   UNL     1     -11.674  12.163  68.851  1.00  0.00    -0.327 C  
HETATM    5  C   UNL     1     -11.695  13.999  66.744  1.00  0.00    -0.430 A  
HETATM    6  O   UNL     1     -11.714  11.702  67.538  1.00  0.00    -0.535 OA 
HETATM    7  C   UNL     1     -11.767  12.626  66.521  1.00  0.00    -0.400 A  
HETATM    8  C   UNL     1     -11.767  14.902  65.679  1.00  0.00    -0.194 A  
HETATM    9  C   UNL     1     -11.912  12.147  65.219  1.00  0.00    -0.313 A  
HETATM   10  C   UNL     1     -11.923  14.422  64.380  1.00  0.00    -0.471 A  
HETATM   11  C   UNL     1     -11.996  13.046  64.151  1.00  0.00    -0.494 A  
ENDROOT
BRANCH   4  12
HETATM   12  C   UNL     1     -11.764  11.106  69.890  1.00  0.00    -0.433 A  
HETATM   13  C   UNL     1     -10.884   9.106  70.986  1.00  0.00    -0.362 A  
HETATM   14  C   UNL     1     -12.839  10.188  71.880  1.00  0.00    -0.526 A  
HETATM   15  C   UNL     1     -12.783  11.140  70.857  1.00  0.00    -0.438 A  
HETATM   16  C   UNL     1     -10.834  10.053  69.959  1.00  0.00    -0.352 A  
HETATM   17  C   UNL     1     -11.882   9.180  71.952  1.00  0.00    -0.439 A  
ENDBRANCH   4  12
TORSDOF 1
ENDMDL
MODEL       11
REMARK 921   NORMALIZED FREE ENERGY PREDICTED BY IDOCK:   -6.37 KCAL/MOL
REMARK 922        TOTAL FREE ENERGY PREDICTED BY IDOCK:   -7.00 KCAL/MOL
REMARK 923 INTER-LIGAND FREE ENERGY PREDICTED BY IDOCK:   -6.76 KCAL/MOL
REMARK 924 INTRA-LIGAND FREE ENERGY PREDICTED BY IDOCK:   -0.24 KCAL/MOL
REMARK 927      BINDING AFFINITY PREDICTED BY RF-SCORE:    0.00 PKD
ROOT
HETATM    1  O   UNL     1     -10.573  17.194  69.726  1.00  0.00    -0.200 OA 
HETATM    2  C   UNL     1     -11.130  16.108  69.626  1.00  0.00    -0.344 C  
HETATM    3  C   UNL     1     -11.089  15.352  68.367  1.00  0.00    -0.301 C  
HETATM    4  C   UNL     1     -11.760  14.194  68.261  1.00  0.00    -0.348 C  
HETATM    5  C   UNL     1     -11.846  15.482  70.741  1.00  0.00    -0.406 A  
HETATM    6  O   UNL     1     -12.504  13.640  69.299  1.00  0.00    -0.214 OA 
HETATM    7  C   UNL     1     -12.495  14.269  70.521  1.00  0.00    -0.361 A  
HETATM    8  C   UNL     1     -11.853  16.080  72.004  1.00  0.00    -0.623 A  
HETATM    9  C   UNL     1     -13.159  13.643  71.576  1.00  0.00    -0.431 A  
HETATM   10  C   UNL     1     -12.508  15.447  73.060  1.00  0.00    -0.542 A  
HETATM   11  C   UNL     1     -13.159  14.230  72.845  1.00  0.00    -0.589 A  
ENDROOT
BRANCH   4  12
HETATM   12  C   UNL     1     -11.706  13.379  67.021  1.00  0.00    -0.426 A  
HETATM   13  C   UNL     1     -12.409  12.937  64.722  1.00  0.00    -0.516 A  
HETATM   14  C   UNL     1     -10.707  11.565  65.730  1.00  0.00    -0.325 A  
HETATM   15  C   UNL     1     -10.814  12.300  66.916  1.00  0.00    -0.290 A  
HETATM   16  C   UNL     1     -12.521  13.664  65.911  1.00  0.00    -0.502 A  
HETATM   17  C   UNL     1     -11.495  11.893  64.630  1.00  0.00    -0.345 A  
ENDBRANCH   4  12
TORSDOF 1
ENDMDL
MODEL       12
REMARK 921   NORMALIZED FREE ENERGY PREDICTED BY IDOCK:   -6.36 KCAL/MOL
REMARK 922        TOTAL FREE ENERGY PREDICTED BY IDOCK:   -6.99 KCAL/MOL
REMARK 923 INTER-LIGAND FREE ENERGY PREDICTED BY IDOCK:   -6.72 KCAL/MOL
REMARK 924 INTRA-LIGAND FREE ENERGY PREDICTED BY IDOCK:   -0.27 KCAL/MOL
REMARK 927      BINDING AFFINITY PREDICTED BY RF-SCORE:    0.00 PKD
ROOT
HETATM    1  O   UNL     1     -11.045  17.006  64.291  1.00  0.00    -1.092 OA 
HETATM    2  C   UNL     1     -10.957  16.766  65.488  1.00  0.00    -0.031 C  
HETATM    3  C   UNL     1     -11.157  15.404  66.002  1.00  0.00    -0.233 C  
HETATM    4  C   UNL     1     -11.118  15.177  67.325  1.00  0.00    -0.332 C  
HETATM    5  C   UNL     1     -10.628  17.796  66.478  1.00  0.00    -0.220 A  
HETATM    6  O   UNL     1     -10.881  16.172  68.269  1.00  0.00    -0.297 OA 
HETATM    7  C   UNL     1     -10.599  17.442  67.825  1.00  0.00    -0.371 A  
HETATM    8  C   UNL     1     -10.321  19.097  66.071  1.00  0.00    -0.538 A  
HETATM    9  C   UNL     1     -10.261  18.402  68.780  1.00  0.00    -0.333 A  
HETATM   10  C   UNL     1      -9.974  20.051  67.027  1.00  0.00    -0.582 A  
HETATM   11  C   UNL     1      -9.943  19.703  68.379  1.00  0.00    -0.543 A  
ENDROOT
BRANCH   4  12
HETATM   12  C   UNL     1     -11.270  13.808  67.880  1.00  0.00    -0.299 A  
HETATM   13  C   UNL     1     -11.829  12.298  69.718  1.00  0.00    -0.388 A  
HETATM   14  C   UNL     1     -11.295  11.389  67.554  1.00  0.00    -0.362 A  
HETATM   15  C   UNL     1     -11.090  12.682  67.060  1.00  0.00    -0.322 A  
HETATM   16  C   UNL     1     -11.615  13.588  69.225  1.00  0.00    -0.369 A  
HETATM   17  C   UNL     1     -11.678  11.199  68.879  1.00  0.00    -0.406 A  
ENDBRANCH   4  12
TORSDOF 1
ENDMDL
MODEL       13
REMARK 921   NORMALIZED FREE ENERGY PREDICTED BY IDOCK:   -6.29 KCAL/MOL
REMARK 922        TOTAL FREE ENERGY PREDICTED BY IDOCK:   -6.91 KCAL/MOL
REMARK 923 INTER-LIGAND FREE ENERGY PREDICTED BY IDOCK:   -6.66 KCAL/MOL
REMARK 924 INTRA-LIGAND FREE ENERGY PREDICTED BY IDOCK:   -0.25 KCAL/MOL
REMARK 927      BINDING AFFINITY PREDICTED BY RF-SCORE:    0.00 PKD
ROOT
HETATM    1  O   UNL     1      -8.987   9.732  66.470  1.00  0.00    -0.146 OA 
HETATM    2  C   UNL     1      -9.915  10.506  66.661  1.00  0.00    -0.211 C  
HETATM    3  C   UNL     1     -10.440  10.738  68.013  1.00  0.00    -0.225 C  
HETATM    4  C   UNL     1     -11.499  11.543  68.190  1.00  0.00    -0.315 C  
HETATM    5  C   UNL     1     -10.545  11.266  65.577  1.00  0.00    -0.306 A  
HETATM    6  O   UNL     1     -12.145  12.203  67.148  1.00  0.00    -0.575 OA 
HETATM    7  C   UNL     1     -11.629  12.086  65.879  1.00  0.00    -0.300 A  
HETATM    8  C   UNL     1     -10.046  11.188  64.273  1.00  0.00    -0.382 A  
HETATM    9  C   UNL     1     -12.226  12.838  64.866  1.00  0.00    -0.519 A  
HETATM   10  C   UNL     1     -10.637  11.949  63.266  1.00  0.00    -0.420 A  
HETATM   11  C   UNL     1     -11.724  12.773  63.562  1.00  0.00    -0.597 A  
ENDROOT
BRANCH   4  12
HETATM   12  C   UNL     1     -12.031  11.837  69.545  1.00  0.00    -0.364 A  
HETATM   13  C   UNL     1     -12.731  13.423  71.267  1.00  0.00    -0.424 A  
HETATM   14  C   UNL     1     -13.006  11.061  71.643  1.00  0.00    -0.561 A  
HETATM   15  C   UNL     1     -12.442  10.794  70.391  1.00  0.00    -0.430 A  
HETATM   16  C   UNL     1     -12.159  13.154  70.020  1.00  0.00    -0.375 A  
HETATM   17  C   UNL     1     -13.163  12.376  72.075  1.00  0.00    -0.514 A  
ENDBRANCH   4  12
TORSDOF 1
ENDMDL
MODEL       14
REMARK 921   NORMALIZED FREE ENERGY PREDICTED BY IDOCK:   -6.27 KCAL/MOL
REMARK 922        TOTAL FREE ENERGY PREDICTED BY IDOCK:   -6.90 KCAL/MOL
REMARK 923 INTER-LIGAND FREE ENERGY PREDICTED BY IDOCK:   -6.64 KCAL/MOL
REMARK 924 INTRA-LIGAND FREE ENERGY PREDICTED BY IDOCK:   -0.26 KCAL/MOL
REMARK 927      BINDING AFFINITY PREDICTED BY RF-SCORE:    0.00 PKD
ROOT
HETATM    1  O   UNL     1     -12.629  14.248  63.940  1.00  0.00    -0.787 OA 
HETATM    2  C   UNL     1     -12.040  13.704  64.865  1.00  0.00    -0.397 C  
HETATM    3  C   UNL     1     -12.275  14.114  66.256  1.00  0.00    -0.474 C  
HETATM    4  C   UNL     1     -11.570  13.547  67.248  1.00  0.00    -0.362 C  
HETATM    5  C   UNL     1     -11.090  12.607  64.659  1.00  0.00    -0.348 A  
HETATM    6  O   UNL     1     -10.612  12.558  67.042  1.00  0.00    -0.229 OA 
HETATM    7  C   UNL     1     -10.426  12.082  65.765  1.00  0.00    -0.254 A  
HETATM    8  C   UNL     1     -10.879  12.082  63.381  1.00  0.00    -0.471 A  
HETATM    9  C   UNL     1      -9.538  11.019  65.594  1.00  0.00    -0.265 A  
HETATM   10  C   UNL     1     -10.000  11.013  63.214  1.00  0.00    -0.414 A  
HETATM   11  C   UNL     1      -9.332  10.482  64.320  1.00  0.00    -0.310 A  
ENDROOT
BRANCH   4  12
HETATM   12  C   UNL     1     -11.811  13.901  68.669  1.00  0.00    -0.407 A  
HETATM   13  C   UNL     1     -12.058  15.563  70.445  1.00  0.00    -0.426 A  
HETATM   14  C   UNL     1     -12.416  13.234  70.938  1.00  0.00    -0.424 A  
HETATM   15  C   UNL     1     -12.123  12.906  69.610  1.00  0.00    -0.290 A  
HETATM   16  C   UNL     1     -11.756  15.232  69.120  1.00  0.00    -0.355 A  
HETATM   17  C   UNL     1     -12.397  14.564  71.351  1.00  0.00    -0.425 A  
ENDBRANCH   4  12
TORSDOF 1
ENDMDL
MODEL       15
REMARK 921   NORMALIZED FREE ENERGY PREDICTED BY IDOCK:   -6.26 KCAL/MOL
REMARK 922        TOTAL FREE ENERGY PREDICTED BY IDOCK:   -6.89 KCAL/MOL
REMARK 923 INTER-LIGAND FREE ENERGY PREDICTED BY IDOCK:   -6.63 KCAL/MOL
REMARK 924 INTRA-LIGAND FREE ENERGY PREDICTED BY IDOCK:   -0.26 KCAL/MOL
REMARK 927      BINDING AFFINITY PREDICTED BY RF-SCORE:    0.00 PKD
ROOT
HETATM    1  O   UNL     1     -11.045  14.534  65.785  1.00  0.00    -0.310 OA 
HETATM    2  C   UNL     1     -11.066  15.107  66.867  1.00  0.00    -0.314 C  
HETATM    3  C   UNL     1     -11.776  14.526  68.015  1.00  0.00    -0.373 C  
HETATM    4  C   UNL     1     -11.839  15.203  69.173  1.00  0.00    -0.313 C  
HETATM    5  C   UNL     1     -10.379  16.380  67.100  1.00  0.00    -0.290 A  
HETATM    6  O   UNL     1     -11.250  16.449  69.368  1.00  0.00    -0.316 OA 
HETATM    7  C   UNL     1     -10.500  16.986  68.348  1.00  0.00    -0.370 A  
HETATM    8  C   UNL     1      -9.595  16.956  66.096  1.00  0.00    -0.280 A  
HETATM    9  C   UNL     1      -9.831  18.184  68.599  1.00  0.00    -0.389 A  
HETATM   10  C   UNL     1      -8.919  18.148  66.353  1.00  0.00    -0.256 A  
HETATM   11  C   UNL     1      -9.036  18.760  67.603  1.00  0.00    -0.304 A  
ENDROOT
BRANCH   4  12
HETATM   12  C   UNL     1     -12.507  14.630  70.368  1.00  0.00    -0.410 A  
HETATM   13  C   UNL     1     -13.994  14.849  72.296  1.00  0.00    -0.602 A  
HETATM   14  C   UNL     1     -13.048  12.701  71.763  1.00  0.00    -0.461 A  
HETATM   15  C   UNL     1     -12.370  13.267  70.678  1.00  0.00    -0.416 A  
HETATM   16  C   UNL     1     -13.309  15.415  71.216  1.00  0.00    -0.598 A  
HETATM   17  C   UNL     1     -13.870  13.490  72.563  1.00  0.00    -0.624 A  
ENDBRANCH   4  12
TORSDOF 1
ENDMDL
MODEL       16
REMARK 921   NORMALIZED FREE ENERGY PREDICTED BY IDOCK:   -6.26 KCAL/MOL
REMARK 922        TOTAL FREE ENERGY PREDICTED BY IDOCK:   -6.88 KCAL/MOL
REMARK 923 INTER-LIGAND FREE ENERGY PREDICTED BY IDOCK:   -6.65 KCAL/MOL
REMARK 924 INTRA-LIGAND FREE ENERGY PREDICTED BY IDOCK:   -0.23 KCAL/MOL
REMARK 927      BINDING AFFINITY PREDICTED BY RF-SCORE:    0.00 PKD
ROOT
HETATM    1  O   UNL     1     -11.266  15.174  66.147  1.00  0.00    -0.336 OA 
HETATM    2  C   UNL     1     -11.390  14.470  67.141  1.00  0.00    -0.350 C  
HETATM    3  C   UNL     1     -11.819  15.044  68.424  1.00  0.00    -0.298 C  
HETATM    4  C   UNL     1     -11.887  14.266  69.515  1.00  0.00    -0.329 C  
HETATM    5  C   UNL     1     -11.148  13.025  67.121  1.00  0.00    -0.304 A  
HETATM    6  O   UNL     1     -11.582  12.907  69.510  1.00  0.00    -0.290 OA 
HETATM    7  C   UNL     1     -11.264  12.312  68.312  1.00  0.00    -0.267 A  
HETATM    8  C   UNL     1     -10.836  12.375  65.924  1.00  0.00    -0.305 A  
HETATM    9  C   UNL     1     -11.065  10.931  68.308  1.00  0.00    -0.324 A  
HETATM   10  C   UNL     1     -10.648  10.994  65.921  1.00  0.00    -0.270 A  
HETATM   11  C   UNL     1     -10.763  10.273  67.111  1.00  0.00    -0.303 A  
ENDROOT
BRANCH   4  12
HETATM   12  C   UNL     1     -12.359  14.798  70.818  1.00  0.00    -0.397 A  
HETATM   13  C   UNL     1     -11.919  15.820  72.994  1.00  0.00    -0.596 A  
HETATM   14  C   UNL     1     -14.192  15.443  72.296  1.00  0.00    -0.639 A  
HETATM   15  C   UNL     1     -13.732  14.882  71.099  1.00  0.00    -0.452 A  
HETATM   16  C   UNL     1     -11.462  15.251  71.802  1.00  0.00    -0.494 A  
HETATM   17  C   UNL     1     -13.284  15.924  73.236  1.00  0.00    -0.698 A  
ENDBRANCH   4  12
TORSDOF 1
ENDMDL
MODEL       17
REMARK 921   NORMALIZED FREE ENERGY PREDICTED BY IDOCK:   -6.24 KCAL/MOL
REMARK 922        TOTAL FREE ENERGY PREDICTED BY IDOCK:   -6.87 KCAL/MOL
REMARK 923 INTER-LIGAND FREE ENERGY PREDICTED BY IDOCK:   -6.59 KCAL/MOL
REMARK 924 INTRA-LIGAND FREE ENERGY PREDICTED BY IDOCK:   -0.28 KCAL/MOL
REMARK 927      BINDING AFFINITY PREDICTED BY RF-SCORE:    0.00 PKD
ROOT
HETATM    1  O   UNL     1     -14.374   8.513  72.679  1.00  0.00    -0.473 OA 
HETATM    2  C   UNL     1     -13.558   9.207  72.086  1.00  0.00    -0.474 C  
HETATM    3  C   UNL     1     -13.653  10.673  72.114  1.00  0.00    -0.129 C  
HETATM    4  C   UNL     1     -12.786  11.412  71.404  1.00  0.00    -0.384 C  
HETATM    5  C   UNL     1     -12.434   8.639  71.336  1.00  0.00    -0.337 A  
HETATM    6  O   UNL     1     -11.765  10.866  70.630  1.00  0.00    -0.331 OA 
HETATM    7  C   UNL     1     -11.586   9.503  70.649  1.00  0.00    -0.283 A  
HETATM    8  C   UNL     1     -12.206   7.260  71.338  1.00  0.00    -0.384 A  
HETATM    9  C   UNL     1     -10.494   8.985  69.951  1.00  0.00    -0.226 A  
HETATM   10  C   UNL     1     -11.108   6.745  70.650  1.00  0.00    -0.338 A  
HETATM   11  C   UNL     1     -10.253   7.607  69.959  1.00  0.00    -0.213 A  
ENDROOT
BRANCH   4  12
HETATM   12  C   UNL     1     -12.820  12.895  71.442  1.00  0.00    -0.377 A  
HETATM   13  C   UNL     1     -12.183  15.072  70.531  1.00  0.00    -0.391 A  
HETATM   14  C   UNL     1     -13.707  14.962  72.391  1.00  0.00    -0.576 A  
HETATM   15  C   UNL     1     -13.614  13.566  72.387  1.00  0.00    -0.709 A  
HETATM   16  C   UNL     1     -12.084  13.677  70.534  1.00  0.00    -0.411 A  
HETATM   17  C   UNL     1     -13.002  15.713  71.454  1.00  0.00    -0.555 A  
ENDBRANCH   4  12
TORSDOF 1
ENDMDL
MODEL       18
REMARK 921   NORMALIZED FREE ENERGY PREDICTED BY IDOCK:   -6.22 KCAL/MOL
REMARK 922        TOTAL FREE ENERGY PREDICTED BY IDOCK:   -6.85 KCAL/MOL
REMARK 923 INTER-LIGAND FREE ENERGY PREDICTED BY IDOCK:   -6.57 KCAL/MOL
REMARK 924 INTRA-LIGAND FREE ENERGY PREDICTED BY IDOCK:   -0.27 KCAL/MOL
REMARK 927      BINDING AFFINITY PREDICTED BY RF-SCORE:    0.00 PKD
ROOT
HETATM    1  O   UNL     1     -12.038  13.479  69.091  1.00  0.00    -0.329 OA 
HETATM    2  C   UNL     1     -11.616  14.124  68.140  1.00  0.00    -0.331 C  
HETATM    3  C   UNL     1     -11.259  15.542  68.289  1.00  0.00    -0.343 C  
HETATM    4  C   UNL     1     -10.859  16.246  67.218  1.00  0.00    -0.216 C  
HETATM    5  C   UNL     1     -11.417  13.537  66.812  1.00  0.00    -0.374 A  
HETATM    6  O   UNL     1     -10.745  15.704  65.941  1.00  0.00    -0.322 OA 
HETATM    7  C   UNL     1     -10.982  14.360  65.776  1.00  0.00    -0.314 A  
HETATM    8  C   UNL     1     -11.634  12.172  66.601  1.00  0.00    -0.416 A  
HETATM    9  C   UNL     1     -10.761  13.814  64.511  1.00  0.00    -0.405 A  
HETATM   10  C   UNL     1     -11.401  11.627  65.340  1.00  0.00    -0.218 A  
HETATM   11  C   UNL     1     -10.964  12.447  64.297  1.00  0.00    -0.396 A  
ENDROOT
BRANCH   4  12
HETATM   12  C   UNL     1     -10.447  17.667  67.336  1.00  0.00    -0.356 A  
HETATM   13  C   UNL     1     -10.068  19.871  66.350  1.00  0.00    -0.615 A  
HETATM   14  C   UNL     1      -9.796  19.568  68.723  1.00  0.00    -0.532 A  
HETATM   15  C   UNL     1     -10.122  18.214  68.588  1.00  0.00    -0.406 A  
HETATM   16  C   UNL     1     -10.385  18.516  66.217  1.00  0.00    -0.459 A  
HETATM   17  C   UNL     1      -9.783  20.398  67.605  1.00  0.00    -0.540 A  
ENDBRANCH   4  12
TORSDOF 1
ENDMDL
MODEL       19
REMARK 921   NORMALIZED FREE ENERGY PREDICTED BY IDOCK:   -6.16 KCAL/MOL
REMARK 922        TOTAL FREE ENERGY PREDICTED BY IDOCK:   -6.78 KCAL/MOL
REMARK 923 INTER-LIGAND FREE ENERGY PREDICTED BY IDOCK:   -6.51 KCAL/MOL
REMARK 924 INTRA-LIGAND FREE ENERGY PREDICTED BY IDOCK:   -0.28 KCAL/MOL
REMARK 927      BINDING AFFINITY PREDICTED BY RF-SCORE:    0.00 PKD
ROOT
HETATM    1  O   UNL     1     -12.920  11.696  71.309  1.00  0.00    -0.366 OA 
HETATM    2  C   UNL     1     -12.510  12.724  70.785  1.00  0.00    -0.271 C  
HETATM    3  C   UNL     1     -12.150  12.754  69.361  1.00  0.00    -0.248 C  
HETATM    4  C   UNL     1     -11.643  13.874  68.824  1.00  0.00    -0.335 C  
HETATM    5  C   UNL     1     -12.373  13.984  71.520  1.00  0.00    -0.371 A  
HETATM    6  O   UNL     1     -11.441  15.049  69.544  1.00  0.00    -0.259 OA 
HETATM    7  C   UNL     1     -11.849  15.091  70.856  1.00  0.00    -0.324 A  
HETATM    8  C   UNL     1     -12.786  14.077  72.852  1.00  0.00    -0.365 A  
HETATM    9  C   UNL     1     -11.735  16.307  71.530  1.00  0.00    -0.467 A  
HETATM   10  C   UNL     1     -12.682  15.296  73.520  1.00  0.00    -0.690 A  
HETATM   11  C   UNL     1     -12.158  16.409  72.859  1.00  0.00    -0.567 A  
ENDROOT
BRANCH   4  12
HETATM   12  C   UNL     1     -11.310  13.958  67.379  1.00  0.00    -0.349 A  
HETATM   13  C   UNL     1     -11.430  13.073  65.104  1.00  0.00    -0.338 A  
HETATM   14  C   UNL     1     -10.359  15.192  65.501  1.00  0.00    -0.399 A  
HETATM   15  C   UNL     1     -10.620  15.070  66.870  1.00  0.00    -0.297 A  
HETATM   16  C   UNL     1     -11.683  12.949  66.473  1.00  0.00    -0.453 A  
HETATM   17  C   UNL     1     -10.776  14.200  64.617  1.00  0.00    -0.408 A  
ENDBRANCH   4  12
TORSDOF 1
ENDMDL
MODEL       20
REMARK 921   NORMALIZED FREE ENERGY PREDICTED BY IDOCK:   -6.16 KCAL/MOL
REMARK 922        TOTAL FREE ENERGY PREDICTED BY IDOCK:   -6.78 KCAL/MOL
REMARK 923 INTER-LIGAND FREE ENERGY PREDICTED BY IDOCK:   -6.51 KCAL/MOL
REMARK 924 INTRA-LIGAND FREE ENERGY PREDICTED BY IDOCK:   -0.27 KCAL/MOL
REMARK 927      BINDING AFFINITY PREDICTED BY RF-SCORE:    0.00 PKD
ROOT
HETATM    1  O   UNL     1      -8.542  12.857  67.074  1.00  0.00    -0.200 OA 
HETATM    2  C   UNL     1      -9.305  13.695  66.611  1.00  0.00    -0.254 C  
HETATM    3  C   UNL     1      -9.273  15.086  67.082  1.00  0.00    -0.229 C  
HETATM    4  C   UNL     1     -10.161  15.973  66.606  1.00  0.00    -0.291 C  
HETATM    5  C   UNL     1     -10.273  13.385  65.556  1.00  0.00    -0.300 A  
HETATM    6  O   UNL     1     -11.132  15.656  65.659  1.00  0.00    -0.288 OA 
HETATM    7  C   UNL     1     -11.137  14.389  65.126  1.00  0.00    -0.362 A  
HETATM    8  C   UNL     1     -10.307  12.114  64.975  1.00  0.00    -0.320 A  
HETATM    9  C   UNL     1     -12.048  14.122  64.103  1.00  0.00    -0.437 A  
HETATM   10  C   UNL     1     -11.210  11.852  63.946  1.00  0.00    -0.497 A  
HETATM   11  C   UNL     1     -12.078  12.855  63.510  1.00  0.00    -0.633 A  
ENDROOT
BRANCH   4  12
HETATM   12  C   UNL     1     -10.133  17.397  67.023  1.00  0.00    -0.313 A  
HETATM   13  C   UNL     1      -9.676  19.128  68.688  1.00  0.00    -0.478 A  
HETATM   14  C   UNL     1     -10.362  19.764  66.470  1.00  0.00    -0.621 A  
HETATM   15  C   UNL     1     -10.450  18.415  66.108  1.00  0.00    -0.422 A  
HETATM   16  C   UNL     1      -9.772  17.781  68.327  1.00  0.00    -0.320 A  
HETATM   17  C   UNL     1      -9.962  20.119  67.755  1.00  0.00    -0.549 A  
ENDBRANCH   4  12
TORSDOF 1
ENDMDL
MODEL       21
REMARK 921   NORMALIZED FREE ENERGY PREDICTED BY IDOCK:   -6.13 KCAL/MOL
REMARK 922        TOTAL FREE ENERGY PREDICTED BY IDOCK:   -6.75 KCAL/MOL
REMARK 923 INTER-LIGAND FREE ENERGY PREDICTED BY IDOCK:   -6.47 KCAL/MOL
REMARK 924 INTRA-LIGAND FREE ENERGY PREDICTED BY IDOCK:   -0.28 KCAL/MOL
REMARK 927      BINDING AFFINITY PREDICTED BY RF-SCORE:    0.00 PKD
ROOT
HETATM    1  O   UNL     1     -10.820  14.039  64.352  1.00  0.00    -0.374 OA 
HETATM    2  C   UNL     1     -10.864  14.537  65.469  1.00  0.00    -0.336 C  
HETATM    3  C   UNL     1     -10.649  15.978  65.663  1.00  0.00    -0.392 C  
HETATM    4  C   UNL     1     -10.639  16.491  66.903  1.00  0.00    -0.238 C  
HETATM    5  C   UNL     1     -11.153  13.753  66.672  1.00  0.00    -0.316 A  
HETATM    6  O   UNL     1     -10.837  15.729  68.051  1.00  0.00    -0.288 OA 
HETATM    7  C   UNL     1     -11.131  14.394  67.909  1.00  0.00    -0.274 A  
HETATM    8  C   UNL     1     -11.470  12.395  66.574  1.00  0.00    -0.427 A  
HETATM    9  C   UNL     1     -11.430  13.670  69.064  1.00  0.00    -0.346 A  
HETATM   10  C   UNL     1     -11.779  11.677  67.729  1.00  0.00    -0.315 A  
HETATM   11  C   UNL     1     -11.760  12.314  68.971  1.00  0.00    -0.376 A  
ENDROOT
BRANCH   4  12
HETATM   12  C   UNL     1     -10.470  17.947  67.137  1.00  0.00    -0.359 A  
HETATM   13  C   UNL     1     -10.038  19.836  68.627  1.00  0.00    -0.546 A  
HETATM   14  C   UNL     1     -10.261  20.216  66.260  1.00  0.00    -0.541 A  
HETATM   15  C   UNL     1     -10.485  18.849  66.060  1.00  0.00    -0.507 A  
HETATM   16  C   UNL     1     -10.271  18.472  68.426  1.00  0.00    -0.409 A  
HETATM   17  C   UNL     1     -10.024  20.706  67.541  1.00  0.00    -0.428 A  
ENDBRANCH   4  12
TORSDOF 1
ENDMDL
MODEL       22
REMARK 921   NORMALIZED FREE ENERGY PREDICTED BY IDOCK:   -6.13 KCAL/MOL
REMARK 922        TOTAL FREE ENERGY PREDICTED BY IDOCK:   -6.75 KCAL/MOL
REMARK 923 INTER-LIGAND FREE ENERGY PREDICTED BY IDOCK:   -6.47 KCAL/MOL
REMARK 924 INTRA-LIGAND FREE ENERGY PREDICTED BY IDOCK:   -0.28 KCAL/MOL
REMARK 927      BINDING AFFINITY PREDICTED BY RF-SCORE:    0.00 PKD
ROOT
HETATM    1  O   UNL     1     -10.312   9.644  68.235  1.00  0.00    -0.186 OA 
HETATM    2  C   UNL     1     -10.957   9.896  69.244  1.00  0.00    -0.211 C  
HETATM    3  C   UNL     1     -11.419  11.262  69.524  1.00  0.00    -0.376 C  
HETATM    4  C   UNL     1     -12.068  11.527  70.669  1.00  0.00    -0.353 C  
HETATM    5  C   UNL     1     -11.329   8.868  70.220  1.00  0.00    -0.179 A  
HETATM    6  O   UNL     1     -12.354  10.561  71.631  1.00  0.00    -0.362 OA 
HETATM    7  C   UNL     1     -12.019   9.254  71.367  1.00  0.00    -0.351 A  
HETATM    8  C   UNL     1     -11.022   7.525  69.987  1.00  0.00    -0.252 A  
HETATM    9  C   UNL     1     -12.407   8.287  72.295  1.00  0.00    -0.410 A  
HETATM   10  C   UNL     1     -11.420   6.559  70.911  1.00  0.00    -0.408 A  
HETATM   11  C   UNL     1     -12.112   6.940  72.062  1.00  0.00    -0.331 A  
ENDROOT
BRANCH   4  12
HETATM   12  C   UNL     1     -12.590  12.884  70.967  1.00  0.00    -0.376 A  
HETATM   13  C   UNL     1     -12.738  15.273  70.472  1.00  0.00    -0.440 A  
HETATM   14  C   UNL     1     -14.079  14.341  72.240  1.00  0.00    -0.621 A  
HETATM   15  C   UNL     1     -13.530  13.077  71.993  1.00  0.00    -0.584 A  
HETATM   16  C   UNL     1     -12.184  14.012  70.232  1.00  0.00    -0.430 A  
HETATM   17  C   UNL     1     -13.692  15.435  71.470  1.00  0.00    -0.601 A  
ENDBRANCH   4  12
TORSDOF 1
ENDMDL
MODEL       23
REMARK 921   NORMALIZED FREE ENERGY PREDICTED BY IDOCK:   -6.13 KCAL/MOL
REMARK 922        TOTAL FREE ENERGY PREDICTED BY IDOCK:   -6.75 KCAL/MOL
REMARK 923 INTER-LIGAND FREE ENERGY PREDICTED BY IDOCK:   -6.49 KCAL/MOL
REMARK 924 INTRA-LIGAND FREE ENERGY PREDICTED BY IDOCK:   -0.26 KCAL/MOL
REMARK 927      BINDING AFFINITY PREDICTED BY RF-SCORE:    0.00 PKD
ROOT
HETATM    1  O   UNL     1     -13.992  13.223  72.587  1.00  0.00    -0.741 OA 
HETATM    2  C   UNL     1     -13.216  13.042  71.657  1.00  0.00    -0.336 C  
HETATM    3  C   UNL     1     -12.717  14.170  70.860  1.00  0.00    -0.432 C  
HETATM    4  C   UNL     1     -11.917  13.942  69.806  1.00  0.00    -0.338 C  
HETATM    5  C   UNL     1     -12.718  11.713  71.293  1.00  0.00    -0.444 A  
HETATM    6  O   UNL     1     -11.507  12.670  69.415  1.00  0.00    -0.276 OA 
HETATM    7  C   UNL     1     -11.878  11.595  70.188  1.00  0.00    -0.344 A  
HETATM    8  C   UNL     1     -13.058  10.594  72.057  1.00  0.00    -0.501 A  
HETATM    9  C   UNL     1     -11.370  10.343  69.840  1.00  0.00    -0.370 A  
HETATM   10  C   UNL     1     -12.541   9.345  71.715  1.00  0.00    -0.470 A  
HETATM   11  C   UNL     1     -11.698   9.221  70.608  1.00  0.00    -0.276 A  
ENDROOT
BRANCH   4  12
HETATM   12  C   UNL     1     -11.356  15.057  69.003  1.00  0.00    -0.306 A  
HETATM   13  C   UNL     1     -10.314  17.263  68.845  1.00  0.00    -0.352 A  
HETATM   14  C   UNL     1     -10.649  15.960  66.848  1.00  0.00    -0.309 A  
HETATM   15  C   UNL     1     -11.237  14.943  67.609  1.00  0.00    -0.330 A  
HETATM   16  C   UNL     1     -10.910  16.249  69.602  1.00  0.00    -0.345 A  
HETATM   17  C   UNL     1     -10.176  17.113  67.469  1.00  0.00    -0.323 A  
ENDBRANCH   4  12
TORSDOF 1
ENDMDL
MODEL       24
REMARK 921   NORMALIZED FREE ENERGY PREDICTED BY IDOCK:   -6.12 KCAL/MOL
REMARK 922        TOTAL FREE ENERGY PREDICTED BY IDOCK:   -6.73 KCAL/MOL
REMARK 923 INTER-LIGAND FREE ENERGY PREDICTED BY IDOCK:   -6.46 KCAL/MOL
REMARK 924 INTRA-LIGAND FREE ENERGY PREDICTED BY IDOCK:   -0.27 KCAL/MOL
REMARK 927      BINDING AFFINITY PREDICTED BY RF-SCORE:    0.00 PKD
ROOT
HETATM    1  O   UNL     1     -13.703  15.378  72.265  1.00  0.00    -0.436 OA 
HETATM    2  C   UNL     1     -13.042  14.914  71.345  1.00  0.00    -0.369 C  
HETATM    3  C   UNL     1     -12.394  15.794  70.363  1.00  0.00    -0.367 C  
HETATM    4  C   UNL     1     -11.727  15.262  69.326  1.00  0.00    -0.338 C  
HETATM    5  C   UNL     1     -12.830  13.475  71.172  1.00  0.00    -0.387 A  
HETATM    6  O   UNL     1     -11.593  13.891  69.121  1.00  0.00    -0.269 OA 
HETATM    7  C   UNL     1     -12.106  13.034  70.066  1.00  0.00    -0.297 A  
HETATM    8  C   UNL     1     -13.323  12.567  72.114  1.00  0.00    -0.540 A  
HETATM    9  C   UNL     1     -11.871  11.669  69.897  1.00  0.00    -0.434 A  
HETATM   10  C   UNL     1     -13.077  11.205  71.949  1.00  0.00    -0.513 A  
HETATM   11  C   UNL     1     -12.351  10.757  70.843  1.00  0.00    -0.497 A  
ENDROOT
BRANCH   4  12
HETATM   12  C   UNL     1     -11.022  16.116  68.339  1.00  0.00    -0.341 A  
HETATM   13  C   UNL     1     -10.187  16.527  66.078  1.00  0.00    -0.372 A  
HETATM   14  C   UNL     1      -9.976  18.243  67.753  1.00  0.00    -0.343 A  
HETATM   15  C   UNL     1     -10.583  17.403  68.693  1.00  0.00    -0.318 A  
HETATM   16  C   UNL     1     -10.785  15.685  67.021  1.00  0.00    -0.314 A  
HETATM   17  C   UNL     1      -9.791  17.809  66.443  1.00  0.00    -0.328 A  
ENDBRANCH   4  12
TORSDOF 1
ENDMDL
MODEL       25
REMARK 921   NORMALIZED FREE ENERGY PREDICTED BY IDOCK:   -6.06 KCAL/MOL
REMARK 922        TOTAL FREE ENERGY PREDICTED BY IDOCK:   -6.68 KCAL/MOL
REMARK 923 INTER-LIGAND FREE ENERGY PREDICTED BY IDOCK:   -6.44 KCAL/MOL
REMARK 924 INTRA-LIGAND FREE ENERGY PREDICTED BY IDOCK:   -0.24 KCAL/MOL
REMARK 927      BINDING AFFINITY PREDICTED BY RF-SCORE:    0.00 PKD
ROOT
HETATM    1  O   UNL     1     -11.787  12.008  66.243  1.00  0.00    -0.563 OA 
HETATM    2  C   UNL     1     -11.759  12.227  67.447  1.00  0.00    -0.335 C  
HETATM    3  C   UNL     1     -11.832  11.125  68.416  1.00  0.00    -0.302 C  
HETATM    4  C   UNL     1     -11.864  11.393  69.731  1.00  0.00    -0.364 C  
HETATM    5  C   UNL     1     -11.629  13.577  68.001  1.00  0.00    -0.372 A  
HETATM    6  O   UNL     1     -11.817  12.683  70.254  1.00  0.00    -0.310 OA 
HETATM    7  C   UNL     1     -11.657  13.737  69.385  1.00  0.00    -0.310 A  
HETATM    8  C   UNL     1     -11.451  14.676  67.156  1.00  0.00    -0.380 A  
HETATM    9  C   UNL     1     -11.507  15.011  69.933  1.00  0.00    -0.320 A  
HETATM   10  C   UNL     1     -11.290  15.947  67.707  1.00  0.00    -0.199 A  
HETATM   11  C   UNL     1     -11.317  16.113  69.093  1.00  0.00    -0.323 A  
ENDROOT
BRANCH   4  12
HETATM   12  C   UNL     1     -11.892  10.307  70.743  1.00  0.00    -0.459 A  
HETATM   13  C   UNL     1     -13.107   8.875  72.307  1.00  0.00    -0.491 A  
HETATM   14  C   UNL     1     -10.754   8.517  71.949  1.00  0.00    -0.394 A  
HETATM   15  C   UNL     1     -10.726   9.586  71.047  1.00  0.00    -0.411 A  
HETATM   16  C   UNL     1     -13.076   9.949  71.412  1.00  0.00    -0.500 A  
HETATM   17  C   UNL     1     -11.947   8.154  72.568  1.00  0.00    -0.410 A  
ENDBRANCH   4  12
TORSDOF 1
ENDMDL
MODEL       26
REMARK 921   NORMALIZED FREE ENERGY PREDICTED BY IDOCK:   -6.04 KCAL/MOL
REMARK 922        TOTAL FREE ENERGY PREDICTED BY IDOCK:   -6.65 KCAL/MOL
REMARK 923 INTER-LIGAND FREE ENERGY PREDICTED BY IDOCK:   -6.39 KCAL/MOL
REMARK 924 INTRA-LIGAND FREE ENERGY PREDICTED BY IDOCK:   -0.26 KCAL/MOL
REMARK 927      BINDING AFFINITY PREDICTED BY RF-SCORE:    0.00 PKD
ROOT
HETATM    1  O   UNL     1     -11.442  14.350  65.338  1.00  0.00    -0.327 OA 
HETATM    2  C   UNL     1     -11.368  14.672  66.516  1.00  0.00    -0.353 C  
HETATM    3  C   UNL     1     -11.817  13.761  67.578  1.00  0.00    -0.422 C  
HETATM    4  C   UNL     1     -11.785  14.160  68.859  1.00  0.00    -0.334 C  
HETATM    5  C   UNL     1     -10.816  15.958  66.951  1.00  0.00    -0.240 A  
HETATM    6  O   UNL     1     -11.331  15.413  69.262  1.00  0.00    -0.273 OA 
HETATM    7  C   UNL     1     -10.819  16.262  68.310  1.00  0.00    -0.340 A  
HETATM    8  C   UNL     1     -10.272  16.847  66.019  1.00  0.00    -0.350 A  
HETATM    9  C   UNL     1     -10.273  17.469  68.747  1.00  0.00    -0.373 A  
HETATM   10  C   UNL     1      -9.717  18.048  66.459  1.00  0.00    -0.338 A  
HETATM   11  C   UNL     1      -9.717  18.357  67.821  1.00  0.00    -0.316 A  
ENDROOT
BRANCH   4  12
HETATM   12  C   UNL     1     -12.187  13.252  69.963  1.00  0.00    -0.345 A  
HETATM   13  C   UNL     1     -13.310  12.848  72.096  1.00  0.00    -0.615 A  
HETATM   14  C   UNL     1     -12.339  11.001  70.895  1.00  0.00    -0.503 A  
HETATM   15  C   UNL     1     -11.907  11.877  69.893  1.00  0.00    -0.418 A  
HETATM   16  C   UNL     1     -12.871  13.723  71.098  1.00  0.00    -0.409 A  
HETATM   17  C   UNL     1     -13.052  11.486  71.989  1.00  0.00    -0.430 A  
ENDBRANCH   4  12
TORSDOF 1
ENDMDL
MODEL       27
REMARK 921   NORMALIZED FREE ENERGY PREDICTED BY IDOCK:   -6.04 KCAL/MOL
REMARK 922        TOTAL FREE ENERGY PREDICTED BY IDOCK:   -6.65 KCAL/MOL
REMARK 923 INTER-LIGAND FREE ENERGY PREDICTED BY IDOCK:   -6.39 KCAL/MOL
REMARK 924 INTRA-LIGAND FREE ENERGY PREDICTED BY IDOCK:   -0.26 KCAL/MOL
REMARK 927      BINDING AFFINITY PREDICTED BY RF-SCORE:    0.00 PKD
ROOT
HETATM    1  O   UNL     1     -12.297  14.280  66.760  1.00  0.00    -0.429 OA 
HETATM    2  C   UNL     1     -11.835  13.157  66.919  1.00  0.00    -0.386 C  
HETATM    3  C   UNL     1     -11.904  12.490  68.226  1.00  0.00    -0.361 C  
HETATM    4  C   UNL     1     -11.334  11.286  68.393  1.00  0.00    -0.281 C  
HETATM    5  C   UNL     1     -11.212  12.399  65.831  1.00  0.00    -0.373 A  
HETATM    6  O   UNL     1     -10.675  10.601  67.375  1.00  0.00    -0.237 OA 
HETATM    7  C   UNL     1     -10.667  11.149  66.115  1.00  0.00    -0.225 A  
HETATM    8  C   UNL     1     -11.193  12.910  64.530  1.00  0.00    -0.372 A  
HETATM    9  C   UNL     1     -10.094  10.399  65.087  1.00  0.00    -0.379 A  
HETATM   10  C   UNL     1     -10.630  12.155  63.503  1.00  0.00    -0.501 A  
HETATM   11  C   UNL     1     -10.082  10.901  63.782  1.00  0.00    -0.413 A  
ENDROOT
BRANCH   4  12
HETATM   12  C   UNL     1     -11.421  10.561  69.685  1.00  0.00    -0.349 A  
HETATM   13  C   UNL     1     -12.685   9.832  71.646  1.00  0.00    -0.517 A  
HETATM   14  C   UNL     1     -10.422   9.069  71.339  1.00  0.00    -0.395 A  
HETATM   15  C   UNL     1     -10.331   9.811  70.156  1.00  0.00    -0.335 A  
HETATM   16  C   UNL     1     -12.588  10.580  70.469  1.00  0.00    -0.423 A  
HETATM   17  C   UNL     1     -11.604   9.070  72.076  1.00  0.00    -0.413 A  
ENDBRANCH   4  12
TORSDOF 1
ENDMDL
MODEL       28
REMARK 921   NORMALIZED FREE ENERGY PREDICTED BY IDOCK:   -6.01 KCAL/MOL
REMARK 922        TOTAL FREE ENERGY PREDICTED BY IDOCK:   -6.62 KCAL/MOL
REMARK 923 INTER-LIGAND FREE ENERGY PREDICTED BY IDOCK:   -6.36 KCAL/MOL
REMARK 924 INTRA-LIGAND FREE ENERGY PREDICTED BY IDOCK:   -0.26 KCAL/MOL
REMARK 927      BINDING AFFINITY PREDICTED BY RF-SCORE:    0.00 PKD
ROOT
HETATM    1  O   UNL     1      -8.467   9.610  69.121  1.00  0.00    -0.127 OA 
HETATM    2  C   UNL     1      -9.568  10.119  68.956  1.00  0.00    -0.196 C  
HETATM    3  C   UNL     1      -9.876  10.876  67.735  1.00  0.00    -0.194 C  
HETATM    4  C   UNL     1     -11.068  11.478  67.605  1.00  0.00    -0.266 C  
HETATM    5  C   UNL     1     -10.651   9.993  69.936  1.00  0.00    -0.324 A  
HETATM    6  O   UNL     1     -12.068  11.421  68.572  1.00  0.00    -0.550 OA 
HETATM    7  C   UNL     1     -11.855  10.649  69.689  1.00  0.00    -0.286 A  
HETATM    8  C   UNL     1     -10.484   9.207  71.080  1.00  0.00    -0.385 A  
HETATM    9  C   UNL     1     -12.907  10.520  70.596  1.00  0.00    -0.407 A  
HETATM   10  C   UNL     1     -11.540   9.071  71.979  1.00  0.00    -0.413 A  
HETATM   11  C   UNL     1     -12.750   9.725  71.737  1.00  0.00    -0.519 A  
ENDROOT
BRANCH   4  12
HETATM   12  C   UNL     1     -11.432  12.214  66.368  1.00  0.00    -0.430 A  
HETATM   13  C   UNL     1     -11.510  12.391  63.931  1.00  0.00    -0.509 A  
HETATM   14  C   UNL     1     -12.556  14.088  65.280  1.00  0.00    -0.495 A  
HETATM   15  C   UNL     1     -12.149  13.420  66.440  1.00  0.00    -0.464 A  
HETATM   16  C   UNL     1     -11.096  11.729  65.091  1.00  0.00    -0.341 A  
HETATM   17  C   UNL     1     -12.248  13.566  64.027  1.00  0.00    -0.458 A  
ENDBRANCH   4  12
TORSDOF 1
ENDMDL
MODEL       29
REMARK 921   NORMALIZED FREE ENERGY PREDICTED BY IDOCK:   -5.99 KCAL/MOL
REMARK 922        TOTAL FREE ENERGY PREDICTED BY IDOCK:   -6.60 KCAL/MOL
REMARK 923 INTER-LIGAND FREE ENERGY PREDICTED BY IDOCK:   -6.34 KCAL/MOL
REMARK 924 INTRA-LIGAND FREE ENERGY PREDICTED BY IDOCK:   -0.26 KCAL/MOL
REMARK 927      BINDING AFFINITY PREDICTED BY RF-SCORE:    0.00 PKD
ROOT
HETATM    1  O   UNL     1     -12.618  14.199  70.275  1.00  0.00    -0.346 OA 
HETATM    2  C   UNL     1     -12.014  14.553  69.271  1.00  0.00    -0.319 C  
HETATM    3  C   UNL     1     -11.627  15.957  69.079  1.00  0.00    -0.392 C  
HETATM    4  C   UNL     1     -11.022  16.334  67.942  1.00  0.00    -0.310 C  
HETATM    5  C   UNL     1     -11.617  13.616  68.216  1.00  0.00    -0.374 A  
HETATM    6  O   UNL     1     -10.714  15.454  66.907  1.00  0.00    -0.306 OA 
HETATM    7  C   UNL     1     -10.977  14.117  67.085  1.00  0.00    -0.299 A  
HETATM    8  C   UNL     1     -11.851  12.246  68.360  1.00  0.00    -0.358 A  
HETATM    9  C   UNL     1     -10.566  13.238  66.081  1.00  0.00    -0.293 A  
HETATM   10  C   UNL     1     -11.431  11.369  67.362  1.00  0.00    -0.328 A  
HETATM   11  C   UNL     1     -10.788  11.865  66.225  1.00  0.00    -0.323 A  
ENDROOT
BRANCH   4  12
HETATM   12  C   UNL     1     -10.576  17.734  67.729  1.00  0.00    -0.392 A  
HETATM   13  C   UNL     1      -9.634  19.828  68.568  1.00  0.00    -0.434 A  
HETATM   14  C   UNL     1     -10.096  19.590  66.218  1.00  0.00    -0.560 A  
HETATM   15  C   UNL     1     -10.576  18.295  66.441  1.00  0.00    -0.318 A  
HETATM   16  C   UNL     1     -10.123  18.537  68.791  1.00  0.00    -0.394 A  
HETATM   17  C   UNL     1      -9.613  20.350  67.280  1.00  0.00    -0.592 A  
ENDBRANCH   4  12
TORSDOF 1
ENDMDL
MODEL       30
REMARK 921   NORMALIZED FREE ENERGY PREDICTED BY IDOCK:   -5.96 KCAL/MOL
REMARK 922        TOTAL FREE ENERGY PREDICTED BY IDOCK:   -6.57 KCAL/MOL
REMARK 923 INTER-LIGAND FREE ENERGY PREDICTED BY IDOCK:   -6.34 KCAL/MOL
REMARK 924 INTRA-LIGAND FREE ENERGY PREDICTED BY IDOCK:   -0.24 KCAL/MOL
REMARK 927      BINDING AFFINITY PREDICTED BY RF-SCORE:    0.00 PKD
ROOT
HETATM    1  O   UNL     1     -13.827   9.260  72.357  1.00  0.00    -0.470 OA 
HETATM    2  C   UNL     1     -12.820   9.574  71.735  1.00  0.00    -0.406 C  
HETATM    3  C   UNL     1     -12.855  10.651  70.737  1.00  0.00    -0.439 C  
HETATM    4  C   UNL     1     -11.755  10.935  70.021  1.00  0.00    -0.345 C  
HETATM    5  C   UNL     1     -11.524   8.926  71.952  1.00  0.00    -0.442 A  
HETATM    6  O   UNL     1     -10.544  10.265  70.176  1.00  0.00    -0.280 OA 
HETATM    7  C   UNL     1     -10.444   9.312  71.162  1.00  0.00    -0.331 A  
HETATM    8  C   UNL     1     -11.371   7.962  72.953  1.00  0.00    -0.399 A  
HETATM    9  C   UNL     1      -9.194   8.728  71.371  1.00  0.00    -0.325 A  
HETATM   10  C   UNL     1     -10.120   7.387  73.167  1.00  0.00    -0.342 A  
HETATM   11  C   UNL     1      -9.033   7.770  72.378  1.00  0.00    -0.202 A  
ENDROOT
BRANCH   4  12
HETATM   12  C   UNL     1     -11.738  12.045  69.036  1.00  0.00    -0.382 A  
HETATM   13  C   UNL     1     -11.758  12.856  66.730  1.00  0.00    -0.445 A  
HETATM   14  C   UNL     1     -11.831  14.434  68.547  1.00  0.00    -0.369 A  
HETATM   15  C   UNL     1     -11.780  13.381  69.466  1.00  0.00    -0.385 A  
HETATM   16  C   UNL     1     -11.698  11.805  67.651  1.00  0.00    -0.320 A  
HETATM   17  C   UNL     1     -11.833  14.170  67.179  1.00  0.00    -0.454 A  
ENDBRANCH   4  12
TORSDOF 1
ENDMDL
MODEL       31
REMARK 921   NORMALIZED FREE ENERGY PREDICTED BY IDOCK:   -5.93 KCAL/MOL
REMARK 922        TOTAL FREE ENERGY PREDICTED BY IDOCK:   -6.54 KCAL/MOL
REMARK 923 INTER-LIGAND FREE ENERGY PREDICTED BY IDOCK:   -6.27 KCAL/MOL
REMARK 924 INTRA-LIGAND FREE ENERGY PREDICTED BY IDOCK:   -0.27 KCAL/MOL
REMARK 927      BINDING AFFINITY PREDICTED BY RF-SCORE:    0.00 PKD
ROOT
HETATM    1  O   UNL     1     -12.516  14.047  63.331  1.00  0.00    -0.826 OA 
HETATM    2  C   UNL     1     -11.707  14.164  64.243  1.00  0.00    -0.345 C  
HETATM    3  C   UNL     1     -11.526  15.450  64.930  1.00  0.00    -0.311 C  
HETATM    4  C   UNL     1     -10.589  15.572  65.884  1.00  0.00    -0.339 C  
HETATM    5  C   UNL     1     -10.892  13.046  64.725  1.00  0.00    -0.357 A  
HETATM    6  O   UNL     1      -9.762  14.527  66.287  1.00  0.00    -0.281 OA 
HETATM    7  C   UNL     1      -9.961  13.284  65.733  1.00  0.00    -0.251 A  
HETATM    8  C   UNL     1     -11.069  11.762  64.201  1.00  0.00    -0.442 A  
HETATM    9  C   UNL     1      -9.194  12.227  66.225  1.00  0.00    -0.171 A  
HETATM   10  C   UNL     1     -10.309  10.706  64.701  1.00  0.00    -0.353 A  
HETATM   11  C   UNL     1      -9.375  10.938  65.712  1.00  0.00    -0.232 A  
ENDROOT
BRANCH   4  12
HETATM   12  C   UNL     1     -10.406  16.841  66.632  1.00  0.00    -0.297 A  
HETATM   13  C   UNL     1     -10.429  19.283  66.735  1.00  0.00    -0.544 A  
HETATM   14  C   UNL     1     -10.012  18.013  68.737  1.00  0.00    -0.380 A  
HETATM   15  C   UNL     1     -10.121  16.824  68.007  1.00  0.00    -0.284 A  
HETATM   16  C   UNL     1     -10.529  18.095  66.006  1.00  0.00    -0.346 A  
HETATM   17  C   UNL     1     -10.180  19.241  68.102  1.00  0.00    -0.515 A  
ENDBRANCH   4  12
TORSDOF 1
ENDMDL
MODEL       32
REMARK 921   NORMALIZED FREE ENERGY PREDICTED BY IDOCK:   -5.93 KCAL/MOL
REMARK 922        TOTAL FREE ENERGY PREDICTED BY IDOCK:   -6.54 KCAL/MOL
REMARK 923 INTER-LIGAND FREE ENERGY PREDICTED BY IDOCK:   -6.26 KCAL/MOL
REMARK 924 INTRA-LIGAND FREE ENERGY PREDICTED BY IDOCK:   -0.27 KCAL/MOL
REMARK 927      BINDING AFFINITY PREDICTED BY RF-SCORE:    0.00 PKD
ROOT
HETATM    1  O   UNL     1      -7.446  16.210  68.098  1.00  0.00    -0.128 OA 
HETATM    2  C   UNL     1      -8.385  16.362  67.329  1.00  0.00    -0.177 C  
HETATM    3  C   UNL     1      -8.968  15.219  66.613  1.00  0.00    -0.324 C  
HETATM    4  C   UNL     1      -9.956  15.418  65.727  1.00  0.00    -0.362 C  
HETATM    5  C   UNL     1      -9.004  17.668  67.086  1.00  0.00    -0.249 A  
HETATM    6  O   UNL     1     -10.490  16.672  65.441  1.00  0.00    -0.571 OA 
HETATM    7  C   UNL     1     -10.036  17.756  66.155  1.00  0.00    -0.304 A  
HETATM    8  C   UNL     1      -8.584  18.795  67.798  1.00  0.00    -0.305 A  
HETATM    9  C   UNL     1     -10.657  18.985  65.929  1.00  0.00    -0.466 A  
HETATM   10  C   UNL     1      -9.213  20.020  67.579  1.00  0.00    -0.475 A  
HETATM   11  C   UNL     1     -10.248  20.114  66.647  1.00  0.00    -0.556 A  
ENDROOT
BRANCH   4  12
HETATM   12  C   UNL     1     -10.600  14.285  65.017  1.00  0.00    -0.444 A  
HETATM   13  C   UNL     1     -12.459  13.342  63.740  1.00  0.00    -0.318 A  
HETATM   14  C   UNL     1     -10.491  12.013  64.131  1.00  0.00    -0.393 A  
HETATM   15  C   UNL     1      -9.921  13.066  64.854  1.00  0.00    -0.151 A  
HETATM   16  C   UNL     1     -11.892  14.390  64.471  1.00  0.00    -0.463 A  
HETATM   17  C   UNL     1     -11.754  12.157  63.563  1.00  0.00    -0.579 A  
ENDBRANCH   4  12
TORSDOF 1
ENDMDL
MODEL       33
REMARK 921   NORMALIZED FREE ENERGY PREDICTED BY IDOCK:   -5.92 KCAL/MOL
REMARK 922        TOTAL FREE ENERGY PREDICTED BY IDOCK:   -6.52 KCAL/MOL
REMARK 923 INTER-LIGAND FREE ENERGY PREDICTED BY IDOCK:   -6.26 KCAL/MOL
REMARK 924 INTRA-LIGAND FREE ENERGY PREDICTED BY IDOCK:   -0.26 KCAL/MOL
REMARK 927      BINDING AFFINITY PREDICTED BY RF-SCORE:    0.00 PKD
ROOT
HETATM    1  O   UNL     1      -8.543   9.422  68.992  1.00  0.00    -0.127 OA 
HETATM    2  C   UNL     1      -9.632   9.963  68.848  1.00  0.00    -0.172 C  
HETATM    3  C   UNL     1      -9.954  10.695  67.616  1.00  0.00    -0.197 C  
HETATM    4  C   UNL     1     -11.130  11.334  67.507  1.00  0.00    -0.286 C  
HETATM    5  C   UNL     1     -10.684   9.901  69.866  1.00  0.00    -0.318 A  
HETATM    6  O   UNL     1     -12.098  11.338  68.508  1.00  0.00    -0.573 OA 
HETATM    7  C   UNL     1     -11.874  10.589  69.639  1.00  0.00    -0.234 A  
HETATM    8  C   UNL     1     -10.505   9.142  71.026  1.00  0.00    -0.368 A  
HETATM    9  C   UNL     1     -12.899  10.521  70.583  1.00  0.00    -0.407 A  
HETATM   10  C   UNL     1     -11.535   9.066  71.962  1.00  0.00    -0.408 A  
HETATM   11  C   UNL     1     -12.730   9.754  71.740  1.00  0.00    -0.519 A  
ENDROOT
BRANCH   4  12
HETATM   12  C   UNL     1     -11.511  12.047  66.262  1.00  0.00    -0.408 A  
HETATM   13  C   UNL     1     -12.523  13.954  65.116  1.00  0.00    -0.479 A  
HETATM   14  C   UNL     1     -11.434  12.235  63.830  1.00  0.00    -0.545 A  
HETATM   15  C   UNL     1     -11.138  11.539  65.007  1.00  0.00    -0.268 A  
HETATM   16  C   UNL     1     -12.235  13.253  66.290  1.00  0.00    -0.440 A  
HETATM   17  C   UNL     1     -12.114  13.449  63.886  1.00  0.00    -0.514 A  
ENDBRANCH   4  12
TORSDOF 1
ENDMDL
MODEL       34
REMARK 921   NORMALIZED FREE ENERGY PREDICTED BY IDOCK:   -5.87 KCAL/MOL
REMARK 922        TOTAL FREE ENERGY PREDICTED BY IDOCK:   -6.47 KCAL/MOL
REMARK 923 INTER-LIGAND FREE ENERGY PREDICTED BY IDOCK:   -6.19 KCAL/MOL
REMARK 924 INTRA-LIGAND FREE ENERGY PREDICTED BY IDOCK:   -0.28 KCAL/MOL
REMARK 927      BINDING AFFINITY PREDICTED BY RF-SCORE:    0.00 PKD
ROOT
HETATM    1  O   UNL     1      -9.470   9.791  64.538  1.00  0.00    -0.282 OA 
HETATM    2  C   UNL     1     -10.162  10.416  65.331  1.00  0.00    -0.259 C  
HETATM    3  C   UNL     1     -10.276   9.991  66.733  1.00  0.00    -0.295 C  
HETATM    4  C   UNL     1     -11.091  10.655  67.568  1.00  0.00    -0.300 C  
HETATM    5  C   UNL     1     -10.896  11.627  64.954  1.00  0.00    -0.359 A  
HETATM    6  O   UNL     1     -11.847  11.760  67.187  1.00  0.00    -0.599 OA 
HETATM    7  C   UNL     1     -11.700  12.245  65.909  1.00  0.00    -0.389 A  
HETATM    8  C   UNL     1     -10.767  12.164  63.670  1.00  0.00    -0.518 A  
HETATM    9  C   UNL     1     -12.386  13.414  65.578  1.00  0.00    -0.528 A  
HETATM   10  C   UNL     1     -11.444  13.338  63.346  1.00  0.00    -0.080 A  
HETATM   11  C   UNL     1     -12.251  13.963  64.299  1.00  0.00    -0.447 A  
ENDROOT
BRANCH   4  12
HETATM   12  C   UNL     1     -11.199  10.284  69.001  1.00  0.00    -0.260 A  
HETATM   13  C   UNL     1     -12.334  10.413  71.162  1.00  0.00    -0.505 A  
HETATM   14  C   UNL     1     -10.443   8.947  70.899  1.00  0.00    -0.299 A  
HETATM   15  C   UNL     1     -10.310   9.355  69.567  1.00  0.00    -0.223 A  
HETATM   16  C   UNL     1     -12.195  10.826  69.834  1.00  0.00    -0.384 A  
HETATM   17  C   UNL     1     -11.463   9.466  71.691  1.00  0.00    -0.463 A  
ENDBRANCH   4  12
TORSDOF 1
ENDMDL
MODEL       35
REMARK 921   NORMALIZED FREE ENERGY PREDICTED BY IDOCK:   -5.86 KCAL/MOL
REMARK 922        TOTAL FREE ENERGY PREDICTED BY IDOCK:   -6.46 KCAL/MOL
REMARK 923 INTER-LIGAND FREE ENERGY PREDICTED BY IDOCK:   -6.22 KCAL/MOL
REMARK 924 INTRA-LIGAND FREE ENERGY PREDICTED BY IDOCK:   -0.24 KCAL/MOL
REMARK 927      BINDING AFFINITY PREDICTED BY RF-SCORE:    0.00 PKD
ROOT
HETATM    1  O   UNL     1      -7.557  15.526  67.877  1.00  0.00    -0.119 OA 
HETATM    2  C   UNL     1      -8.617  16.043  68.202  1.00  0.00    -0.171 C  
HETATM    3  C   UNL     1      -9.482  15.421  69.214  1.00  0.00    -0.261 C  
HETATM    4  C   UNL     1     -10.670  15.972  69.508  1.00  0.00    -0.298 C  
HETATM    5  C   UNL     1      -9.085  17.311  67.634  1.00  0.00    -0.228 A  
HETATM    6  O   UNL     1     -11.146  17.136  68.910  1.00  0.00    -0.164 OA 
HETATM    7  C   UNL     1     -10.330  17.799  68.025  1.00  0.00    -0.393 A  
HETATM    8  C   UNL     1      -8.283  18.026  66.741  1.00  0.00    -0.272 A  
HETATM    9  C   UNL     1     -10.781  19.018  67.517  1.00  0.00    -0.532 A  
HETATM   10  C   UNL     1      -8.731  19.249  66.243  1.00  0.00    -0.333 A  
HETATM   11  C   UNL     1      -9.978  19.744  66.632  1.00  0.00    -0.556 A  
ENDROOT
BRANCH   4  12
HETATM   12  C   UNL     1     -11.551  15.398  70.556  1.00  0.00    -0.355 A  
HETATM   13  C   UNL     1     -13.012  13.622  71.383  1.00  0.00    -0.427 A  
HETATM   14  C   UNL     1     -12.476  15.482  72.813  1.00  0.00    -0.519 A  
HETATM   15  C   UNL     1     -11.702  16.046  71.794  1.00  0.00    -0.593 A  
HETATM   16  C   UNL     1     -12.245  14.191  70.362  1.00  0.00    -0.427 A  
HETATM   17  C   UNL     1     -13.120  14.264  72.611  1.00  0.00    -0.567 A  
ENDBRANCH   4  12
TORSDOF 1
ENDMDL
MODEL       36
REMARK 921   NORMALIZED FREE ENERGY PREDICTED BY IDOCK:   -5.79 KCAL/MOL
REMARK 922        TOTAL FREE ENERGY PREDICTED BY IDOCK:   -6.39 KCAL/MOL
REMARK 923 INTER-LIGAND FREE ENERGY PREDICTED BY IDOCK:   -6.14 KCAL/MOL
REMARK 924 INTRA-LIGAND FREE ENERGY PREDICTED BY IDOCK:   -0.25 KCAL/MOL
REMARK 927      BINDING AFFINITY PREDICTED BY RF-SCORE:    0.00 PKD
ROOT
HETATM    1  O   UNL     1     -10.298  20.004  68.520  1.00  0.00    -0.438 OA 
HETATM    2  C   UNL     1      -9.839  19.175  67.745  1.00  0.00    -0.335 C  
HETATM    3  C   UNL     1     -10.585  17.951  67.420  1.00  0.00    -0.370 C  
HETATM    4  C   UNL     1     -10.035  17.026  66.619  1.00  0.00    -0.302 C  
HETATM    5  C   UNL     1      -8.546  19.347  67.078  1.00  0.00    -0.318 A  
HETATM    6  O   UNL     1      -8.772  17.158  66.047  1.00  0.00    -0.484 OA 
HETATM    7  C   UNL     1      -8.079  18.328  66.252  1.00  0.00    -0.223 A  
HETATM    8  C   UNL     1      -7.813  20.525  67.247  1.00  0.00    -0.367 A  
HETATM    9  C   UNL     1      -6.863  18.484  65.586  1.00  0.00    -0.279 A  
HETATM   10  C   UNL     1      -6.604  20.684  66.572  1.00  0.00    -0.317 A  
HETATM   11  C   UNL     1      -6.131  19.666  65.742  1.00  0.00    -0.210 A  
ENDROOT
BRANCH   4  12
HETATM   12  C   UNL     1     -10.775  15.799  66.231  1.00  0.00    -0.282 A  
HETATM   13  C   UNL     1     -12.044  13.794  66.817  1.00  0.00    -0.460 A  
HETATM   14  C   UNL     1     -11.757  14.384  64.501  1.00  0.00    -0.430 A  
HETATM   15  C   UNL     1     -11.004  15.502  64.877  1.00  0.00    -0.452 A  
HETATM   16  C   UNL     1     -11.284  14.906  67.191  1.00  0.00    -0.345 A  
HETATM   17  C   UNL     1     -12.287  13.539  65.472  1.00  0.00    -0.524 A  
ENDBRANCH   4  12
TORSDOF 1
ENDMDL
MODEL       37
REMARK 921   NORMALIZED FREE ENERGY PREDICTED BY IDOCK:   -5.72 KCAL/MOL
REMARK 922        TOTAL FREE ENERGY PREDICTED BY IDOCK:   -6.32 KCAL/MOL
REMARK 923 INTER-LIGAND FREE ENERGY PREDICTED BY IDOCK:   -6.04 KCAL/MOL
REMARK 924 INTRA-LIGAND FREE ENERGY PREDICTED BY IDOCK:   -0.28 KCAL/MOL
REMARK 927      BINDING AFFINITY PREDICTED BY RF-SCORE:    0.00 PKD
ROOT
HETATM    1  O   UNL     1     -10.877   8.304  70.482  1.00  0.00    -0.225 OA 
HETATM    2  C   UNL     1     -11.083   9.352  69.885  1.00  0.00    -0.200 C  
HETATM    3  C   UNL     1     -11.639  10.521  70.581  1.00  0.00    -0.445 C  
HETATM    4  C   UNL     1     -11.916  11.639  69.893  1.00  0.00    -0.340 C  
HETATM    5  C   UNL     1     -10.775   9.525  68.463  1.00  0.00    -0.222 A  
HETATM    6  O   UNL     1     -11.693  11.775  68.525  1.00  0.00    -0.295 OA 
HETATM    7  C   UNL     1     -11.091  10.737  67.853  1.00  0.00    -0.308 A  
HETATM    8  C   UNL     1     -10.150   8.502  67.743  1.00  0.00    -0.266 A  
HETATM    9  C   UNL     1     -10.780  10.932  66.507  1.00  0.00    -0.270 A  
HETATM   10  C   UNL     1      -9.831   8.703  66.401  1.00  0.00    -0.341 A  
HETATM   11  C   UNL     1     -10.145   9.916  65.785  1.00  0.00    -0.317 A  
ENDROOT
BRANCH   4  12
HETATM   12  C   UNL     1     -12.435  12.855  70.568  1.00  0.00    -0.294 A  
HETATM   13  C   UNL     1     -13.467  13.956  72.491  1.00  0.00    -0.676 A  
HETATM   14  C   UNL     1     -12.734  15.277  70.617  1.00  0.00    -0.470 A  
HETATM   15  C   UNL     1     -12.308  14.116  69.962  1.00  0.00    -0.403 A  
HETATM   16  C   UNL     1     -13.049  12.796  71.832  1.00  0.00    -0.474 A  
HETATM   17  C   UNL     1     -13.300  15.197  71.886  1.00  0.00    -0.494 A  
ENDBRANCH   4  12
TORSDOF 1
ENDMDL
MODEL       38
REMARK 921   NORMALIZED FREE ENERGY PREDICTED BY IDOCK:   -5.71 KCAL/MOL
REMARK 922        TOTAL FREE ENERGY PREDICTED BY IDOCK:   -6.30 KCAL/MOL
REMARK 923 INTER-LIGAND FREE ENERGY PREDICTED BY IDOCK:   -6.05 KCAL/MOL
REMARK 924 INTRA-LIGAND FREE ENERGY PREDICTED BY IDOCK:   -0.25 KCAL/MOL
REMARK 927      BINDING AFFINITY PREDICTED BY RF-SCORE:    0.00 PKD
ROOT
HETATM    1  O   UNL     1     -10.507  19.826  65.710  1.00  0.00    -0.511 OA 
HETATM    2  C   UNL     1     -10.054  19.189  66.651  1.00  0.00    -0.395 C  
HETATM    3  C   UNL     1     -10.762  18.016  67.180  1.00  0.00    -0.276 C  
HETATM    4  C   UNL     1     -10.279  17.371  68.253  1.00  0.00    -0.362 C  
HETATM    5  C   UNL     1      -8.782  19.528  67.295  1.00  0.00    -0.348 A  
HETATM    6  O   UNL     1      -9.109  17.743  68.911  1.00  0.00    -0.236 OA 
HETATM    7  C   UNL     1      -8.368  18.779  68.394  1.00  0.00    -0.342 A  
HETATM    8  C   UNL     1      -7.989  20.566  66.796  1.00  0.00    -0.248 A  
HETATM    9  C   UNL     1      -7.147  19.068  69.004  1.00  0.00    -0.361 A  
HETATM   10  C   UNL     1      -6.764  20.846  67.400  1.00  0.00    -0.427 A  
HETATM   11  C   UNL     1      -6.344  20.098  68.502  1.00  0.00    -0.335 A  
ENDROOT
BRANCH   4  12
HETATM   12  C   UNL     1     -10.941  16.155  68.789  1.00  0.00    -0.330 A  
HETATM   13  C   UNL     1     -11.862  13.912  68.481  1.00  0.00    -0.401 A  
HETATM   14  C   UNL     1     -11.767  14.865  70.690  1.00  0.00    -0.357 A  
HETATM   15  C   UNL     1     -11.204  16.033  70.163  1.00  0.00    -0.376 A  
HETATM   16  C   UNL     1     -11.308  15.083  67.956  1.00  0.00    -0.339 A  
HETATM   17  C   UNL     1     -12.083  13.800  69.850  1.00  0.00    -0.412 A  
ENDBRANCH   4  12
TORSDOF 1
ENDMDL
MODEL       39
REMARK 921   NORMALIZED FREE ENERGY PREDICTED BY IDOCK:   -5.71 KCAL/MOL
REMARK 922        TOTAL FREE ENERGY PREDICTED BY IDOCK:   -6.30 KCAL/MOL
REMARK 923 INTER-LIGAND FREE ENERGY PREDICTED BY IDOCK:   -6.06 KCAL/MOL
REMARK 924 INTRA-LIGAND FREE ENERGY PREDICTED BY IDOCK:   -0.24 KCAL/MOL
REMARK 927      BINDING AFFINITY PREDICTED BY RF-SCORE:    0.00 PKD
ROOT
HETATM    1  O   UNL     1     -12.063  15.484  69.543  1.00  0.00    -0.344 OA 
HETATM    2  C   UNL     1     -12.078  14.328  69.140  1.00  0.00    -0.302 C  
HETATM    3  C   UNL     1     -11.762  14.012  67.740  1.00  0.00    -0.403 C  
HETATM    4  C   UNL     1     -11.847  12.745  67.305  1.00  0.00    -0.350 C  
HETATM    5  C   UNL     1     -12.385  13.191  70.012  1.00  0.00    -0.241 A  
HETATM    6  O   UNL     1     -12.214  11.676  68.119  1.00  0.00    -0.537 OA 
HETATM    7  C   UNL     1     -12.430  11.915  69.456  1.00  0.00     0.126 A  
HETATM    8  C   UNL     1     -12.599  13.385  71.380  1.00  0.00    -0.374 A  
HETATM    9  C   UNL     1     -12.694  10.817  70.275  1.00  0.00    -0.286 A  
HETATM   10  C   UNL     1     -12.851  12.285  72.198  1.00  0.00    -0.152 A  
HETATM   11  C   UNL     1     -12.898  11.003  71.646  1.00  0.00    -0.540 A  
ENDROOT
BRANCH   4  12
HETATM   12  C   UNL     1     -11.492  12.379  65.911  1.00  0.00    -0.422 A  
HETATM   13  C   UNL     1     -11.945  12.419  63.510  1.00  0.00    -0.627 A  
HETATM   14  C   UNL     1      -9.911  11.417  64.319  1.00  0.00    -0.329 A  
HETATM   15  C   UNL     1     -10.289  11.709  65.634  1.00  0.00    -0.306 A  
HETATM   16  C   UNL     1     -12.325  12.702  64.825  1.00  0.00    -0.556 A  
HETATM   17  C   UNL     1     -10.733  11.785  63.257  1.00  0.00    -0.414 A  
ENDBRANCH   4  12
TORSDOF 1
ENDMDL
MODEL       40
REMARK 921   NORMALIZED FREE ENERGY PREDICTED BY IDOCK:   -5.69 KCAL/MOL
REMARK 922        TOTAL FREE ENERGY PREDICTED BY IDOCK:   -6.29 KCAL/MOL
REMARK 923 INTER-LIGAND FREE ENERGY PREDICTED BY IDOCK:   -6.03 KCAL/MOL
REMARK 924 INTRA-LIGAND FREE ENERGY PREDICTED BY IDOCK:   -0.26 KCAL/MOL
REMARK 927      BINDING AFFINITY PREDICTED BY RF-SCORE:    0.00 PKD
ROOT
HETATM    1  O   UNL     1     -11.018  12.591  68.546  1.00  0.00    -0.227 OA 
HETATM    2  C   UNL     1     -11.530  12.124  69.555  1.00  0.00    -0.265 C  
HETATM    3  C   UNL     1     -11.302  10.723  69.937  1.00  0.00    -0.385 C  
HETATM    4  C   UNL     1     -11.925  10.214  71.012  1.00  0.00    -0.378 C  
HETATM    5  C   UNL     1     -12.373  12.917  70.453  1.00  0.00    -0.333 A  
HETATM    6  O   UNL     1     -12.787  10.950  71.820  1.00  0.00    -0.431 OA 
HETATM    7  C   UNL     1     -12.957  12.288  71.551  1.00  0.00    -0.289 A  
HETATM    8  C   UNL     1     -12.563  14.283  70.226  1.00  0.00    -0.378 A  
HETATM    9  C   UNL     1     -13.741  13.031  72.433  1.00  0.00    -0.593 A  
HETATM   10  C   UNL     1     -13.338  15.026  71.115  1.00  0.00    -0.510 A  
HETATM   11  C   UNL     1     -13.925  14.401  72.217  1.00  0.00    -0.610 A  
ENDROOT
BRANCH   4  12
HETATM   12  C   UNL     1     -11.686   8.818  71.456  1.00  0.00    -0.377 A  
HETATM   13  C   UNL     1     -11.495   6.428  70.983  1.00  0.00    -0.394 A  
HETATM   14  C   UNL     1     -11.027   7.241  73.200  1.00  0.00    -0.384 A  
HETATM   15  C   UNL     1     -11.320   8.545  72.785  1.00  0.00    -0.091 A  
HETATM   16  C   UNL     1     -11.796   7.730  70.572  1.00  0.00    -0.063 A  
HETATM   17  C   UNL     1     -11.102   6.186  72.294  1.00  0.00    -0.320 A  
ENDBRANCH   4  12
TORSDOF 1
ENDMDL
MODEL       41
REMARK 921   NORMALIZED FREE ENERGY PREDICTED BY IDOCK:   -5.64 KCAL/MOL
REMARK 922        TOTAL FREE ENERGY PREDICTED BY IDOCK:   -6.22 KCAL/MOL
REMARK 923 INTER-LIGAND FREE ENERGY PREDICTED BY IDOCK:   -5.98 KCAL/MOL
REMARK 924 INTRA-LIGAND FREE ENERGY PREDICTED BY IDOCK:   -0.24 KCAL/MOL
REMARK 927      BINDING AFFINITY PREDICTED BY RF-SCORE:    0.00 PKD
ROOT
HETATM    1  O   UNL     1     -10.830  11.454  65.030  1.00  0.00    -0.291 OA 
HETATM    2  C   UNL     1     -10.941  11.952  66.143  1.00  0.00    -0.308 C  
HETATM    3  C   UNL     1     -11.137  11.111  67.331  1.00  0.00    -0.370 C  
HETATM    4  C   UNL     1     -11.320  11.682  68.531  1.00  0.00    -0.274 C  
HETATM    5  C   UNL     1     -10.863  13.398  66.372  1.00  0.00    -0.294 A  
HETATM    6  O   UNL     1     -11.323  13.060  68.734  1.00  0.00    -0.252 OA 
HETATM    7  C   UNL     1     -11.052  13.880  67.665  1.00  0.00    -0.277 A  
HETATM    8  C   UNL     1     -10.577  14.268  65.316  1.00  0.00    -0.396 A  
HETATM    9  C   UNL     1     -10.955  15.251  67.908  1.00  0.00    -0.306 A  
HETATM   10  C   UNL     1     -10.470  15.636  65.564  1.00  0.00    -0.426 A  
HETATM   11  C   UNL     1     -10.658  16.126  66.858  1.00  0.00    -0.283 A  
ENDROOT
BRANCH   4  12
HETATM   12  C   UNL     1     -11.476  10.866  69.762  1.00  0.00    -0.390 A  
HETATM   13  C   UNL     1     -12.803  10.112  71.671  1.00  0.00    -0.559 A  
HETATM   14  C   UNL     1     -10.631   9.151  71.279  1.00  0.00    -0.399 A  
HETATM   15  C   UNL     1     -10.467   9.974  70.159  1.00  0.00    -0.338 A  
HETATM   16  C   UNL     1     -12.634  10.940  70.557  1.00  0.00    -0.409 A  
HETATM   17  C   UNL     1     -11.804   9.211  72.026  1.00  0.00    -0.407 A  
ENDBRANCH   4  12
TORSDOF 1
ENDMDL
MODEL       42
REMARK 921   NORMALIZED FREE ENERGY PREDICTED BY IDOCK:   -5.62 KCAL/MOL
REMARK 922        TOTAL FREE ENERGY PREDICTED BY IDOCK:   -6.20 KCAL/MOL
REMARK 923 INTER-LIGAND FREE ENERGY PREDICTED BY IDOCK:   -5.97 KCAL/MOL
REMARK 924 INTRA-LIGAND FREE ENERGY PREDICTED BY IDOCK:   -0.23 KCAL/MOL
REMARK 927      BINDING AFFINITY PREDICTED BY RF-SCORE:    0.00 PKD
ROOT
HETATM    1  O   UNL     1      -8.853  15.616  67.801  1.00  0.00    -0.169 OA 
HETATM    2  C   UNL     1      -9.876  14.950  67.713  1.00  0.00    -0.217 C  
HETATM    3  C   UNL     1     -10.347  14.136  68.842  1.00  0.00    -0.204 C  
HETATM    4  C   UNL     1     -11.436  13.364  68.702  1.00  0.00    -0.310 C  
HETATM    5  C   UNL     1     -10.706  14.931  66.505  1.00  0.00    -0.309 A  
HETATM    6  O   UNL     1     -12.178  13.289  67.526  1.00  0.00    -0.304 OA 
HETATM    7  C   UNL     1     -11.825  14.103  66.476  1.00  0.00    -0.419 A  
HETATM    8  C   UNL     1     -10.392  15.751  65.417  1.00  0.00    -0.417 A  
HETATM    9  C   UNL     1     -12.643  14.091  65.345  1.00  0.00    -0.529 A  
HETATM   10  C   UNL     1     -11.217  15.746  64.293  1.00  0.00    -0.119 A  
HETATM   11  C   UNL     1     -12.341  14.918  64.258  1.00  0.00    -0.300 A  
ENDROOT
BRANCH   4  12
HETATM   12  C   UNL     1     -11.968  12.563  69.833  1.00  0.00    -0.371 A  
HETATM   13  C   UNL     1     -13.217  12.390  71.927  1.00  0.00    -0.486 A  
HETATM   14  C   UNL     1     -12.370  10.395  70.880  1.00  0.00    -0.480 A  
HETATM   15  C   UNL     1     -11.815  11.168  69.853  1.00  0.00    -0.439 A  
HETATM   16  C   UNL     1     -12.655  13.161  70.905  1.00  0.00    -0.377 A  
HETATM   17  C   UNL     1     -13.082  11.006  71.908  1.00  0.00    -0.525 A  
ENDBRANCH   4  12
TORSDOF 1
ENDMDL
MODEL       43
REMARK 921   NORMALIZED FREE ENERGY PREDICTED BY IDOCK:   -5.59 KCAL/MOL
REMARK 922        TOTAL FREE ENERGY PREDICTED BY IDOCK:   -6.18 KCAL/MOL
REMARK 923 INTER-LIGAND FREE ENERGY PREDICTED BY IDOCK:   -5.90 KCAL/MOL
REMARK 924 INTRA-LIGAND FREE ENERGY PREDICTED BY IDOCK:   -0.28 KCAL/MOL
REMARK 927      BINDING AFFINITY PREDICTED BY RF-SCORE:    0.00 PKD
ROOT
HETATM    1  O   UNL     1     -12.480  16.071  63.778  1.00  0.00    -0.784 OA 
HETATM    2  C   UNL     1     -11.597  15.529  64.430  1.00  0.00    -0.258 C  
HETATM    3  C   UNL     1     -10.731  16.311  65.324  1.00  0.00    -0.349 C  
HETATM    4  C   UNL     1      -9.729  15.706  65.981  1.00  0.00    -0.346 C  
HETATM    5  C   UNL     1     -11.356  14.084  64.388  1.00  0.00    -0.330 A  
HETATM    6  O   UNL     1      -9.454  14.345  65.878  1.00  0.00    -0.256 OA 
HETATM    7  C   UNL     1     -10.295  13.562  65.124  1.00  0.00    -0.353 A  
HETATM    8  C   UNL     1     -12.194  13.248  63.644  1.00  0.00    -0.522 A  
HETATM    9  C   UNL     1     -10.066  12.185  65.118  1.00  0.00    -0.288 A  
HETATM   10  C   UNL     1     -11.969  11.872  63.649  1.00  0.00    -0.578 A  
HETATM   11  C   UNL     1     -10.908  11.342  64.386  1.00  0.00    -0.397 A  
ENDROOT
BRANCH   4  12
HETATM   12  C   UNL     1      -8.862  16.452  66.927  1.00  0.00    -0.232 A  
HETATM   13  C   UNL     1      -8.414  18.401  68.333  1.00  0.00    -0.345 A  
HETATM   14  C   UNL     1      -6.884  16.542  68.355  1.00  0.00    -0.145 A  
HETATM   15  C   UNL     1      -7.676  15.877  67.412  1.00  0.00    -0.203 A  
HETATM   16  C   UNL     1      -9.199  17.738  67.385  1.00  0.00    -0.248 A  
HETATM   17  C   UNL     1      -7.261  17.798  68.825  1.00  0.00    -0.271 A  
ENDBRANCH   4  12
TORSDOF 1
ENDMDL
MODEL       44
REMARK 921   NORMALIZED FREE ENERGY PREDICTED BY IDOCK:   -5.58 KCAL/MOL
REMARK 922        TOTAL FREE ENERGY PREDICTED BY IDOCK:   -6.16 KCAL/MOL
REMARK 923 INTER-LIGAND FREE ENERGY PREDICTED BY IDOCK:   -5.93 KCAL/MOL
REMARK 924 INTRA-LIGAND FREE ENERGY PREDICTED BY IDOCK:   -0.24 KCAL/MOL
REMARK 927      BINDING AFFINITY PREDICTED BY RF-SCORE:    0.00 PKD
ROOT
HETATM    1  O   UNL     1     -10.898   9.469  68.175  1.00  0.00    -0.222 OA 
HETATM    2  C   UNL     1     -11.286  10.617  68.346  1.00  0.00    -0.288 C  
HETATM    3  C   UNL     1     -11.178  11.617  67.275  1.00  0.00    -0.365 C  
HETATM    4  C   UNL     1     -11.550  12.886  67.505  1.00  0.00    -0.356 C  
HETATM    5  C   UNL     1     -11.897  11.067  69.599  1.00  0.00    -0.414 A  
HETATM    6  O   UNL     1     -12.059  13.328  68.724  1.00  0.00    -0.326 OA 
HETATM    7  C   UNL     1     -12.261  12.406  69.723  1.00  0.00    -0.131 A  
HETATM    8  C   UNL     1     -12.133  10.161  70.637  1.00  0.00    -0.411 A  
HETATM    9  C   UNL     1     -12.870  12.847  70.898  1.00  0.00    -0.203 A  
HETATM   10  C   UNL     1     -12.751  10.603  71.806  1.00  0.00    -0.489 A  
HETATM   11  C   UNL     1     -13.119  11.943  71.936  1.00  0.00    -0.474 A  
ENDROOT
BRANCH   4  12
HETATM   12  C   UNL     1     -11.499  13.915  66.436  1.00  0.00    -0.354 A  
HETATM   13  C   UNL     1     -10.572  15.970  65.490  1.00  0.00    -0.415 A  
HETATM   14  C   UNL     1     -12.183  14.701  64.229  1.00  0.00    -0.432 A  
HETATM   15  C   UNL     1     -12.273  13.773  65.273  1.00  0.00    -0.461 A  
HETATM   16  C   UNL     1     -10.670  15.046  66.536  1.00  0.00    -0.312 A  
HETATM   17  C   UNL     1     -11.323  15.791  64.333  1.00  0.00    -0.274 A  
ENDBRANCH   4  12
TORSDOF 1
ENDMDL
MODEL       45
REMARK 921   NORMALIZED FREE ENERGY PREDICTED BY IDOCK:   -5.49 KCAL/MOL
REMARK 922        TOTAL FREE ENERGY PREDICTED BY IDOCK:   -6.07 KCAL/MOL
REMARK 923 INTER-LIGAND FREE ENERGY PREDICTED BY IDOCK:   -5.80 KCAL/MOL
REMARK 924 INTRA-LIGAND FREE ENERGY PREDICTED BY IDOCK:   -0.27 KCAL/MOL
REMARK 927      BINDING AFFINITY PREDICTED BY RF-SCORE:    0.00 PKD
ROOT
HETATM    1  O   UNL     1     -11.434  14.886  69.531  1.00  0.00    -0.264 OA 
HETATM    2  C   UNL     1     -10.999  15.472  68.549  1.00  0.00    -0.288 C  
HETATM    3  C   UNL     1     -10.070  16.602  68.693  1.00  0.00    -0.270 C  
HETATM    4  C   UNL     1      -9.656  17.270  67.605  1.00  0.00    -0.256 C  
HETATM    5  C   UNL     1     -11.347  15.085  67.179  1.00  0.00    -0.323 A  
HETATM    6  O   UNL     1     -10.050  16.947  66.309  1.00  0.00    -0.297 OA 
HETATM    7  C   UNL     1     -10.846  15.842  66.123  1.00  0.00    -0.240 A  
HETATM    8  C   UNL     1     -12.143  13.960  66.941  1.00  0.00    -0.467 A  
HETATM    9  C   UNL     1     -11.144  15.473  64.810  1.00  0.00    -0.421 A  
HETATM   10  C   UNL     1     -12.429  13.587  65.629  1.00  0.00    -0.528 A  
HETATM   11  C   UNL     1     -11.930  14.342  64.566  1.00  0.00    -0.487 A  
ENDROOT
BRANCH   4  12
HETATM   12  C   UNL     1      -8.684  18.387  67.706  1.00  0.00    -0.278 A  
HETATM   13  C   UNL     1      -6.884  19.554  68.878  1.00  0.00    -0.376 A  
HETATM   14  C   UNL     1      -7.598  20.336  66.716  1.00  0.00    -0.336 A  
HETATM   15  C   UNL     1      -8.556  19.318  66.662  1.00  0.00    -0.339 A  
HETATM   16  C   UNL     1      -7.849  18.544  68.827  1.00  0.00    -0.301 A  
HETATM   17  C   UNL     1      -6.753  20.445  67.818  1.00  0.00    -0.330 A  
ENDBRANCH   4  12
TORSDOF 1
ENDMDL
MODEL       46
REMARK 921   NORMALIZED FREE ENERGY PREDICTED BY IDOCK:   -5.47 KCAL/MOL
REMARK 922        TOTAL FREE ENERGY PREDICTED BY IDOCK:   -6.05 KCAL/MOL
REMARK 923 INTER-LIGAND FREE ENERGY PREDICTED BY IDOCK:   -5.77 KCAL/MOL
REMARK 924 INTRA-LIGAND FREE ENERGY PREDICTED BY IDOCK:   -0.28 KCAL/MOL
REMARK 927      BINDING AFFINITY PREDICTED BY RF-SCORE:    0.00 PKD
ROOT
HETATM    1  O   UNL     1     -12.203  11.989  70.760  1.00  0.00    -0.377 OA 
HETATM    2  C   UNL     1     -11.732  11.277  69.883  1.00  0.00    -0.352 C  
HETATM    3  C   UNL     1     -11.671  11.738  68.489  1.00  0.00    -0.390 C  
HETATM    4  C   UNL     1     -11.209  10.916  67.533  1.00  0.00    -0.293 C  
HETATM    5  C   UNL     1     -11.183   9.946  70.155  1.00  0.00    -0.347 A  
HETATM    6  O   UNL     1     -10.760   9.622  67.784  1.00  0.00    -0.258 OA 
HETATM    7  C   UNL     1     -10.716   9.185  69.087  1.00  0.00    -0.172 A  
HETATM    8  C   UNL     1     -11.106   9.465  71.466  1.00  0.00    -0.446 A  
HETATM    9  C   UNL     1     -10.165   7.926  69.328  1.00  0.00    -0.216 A  
HETATM   10  C   UNL     1     -10.545   8.212  71.706  1.00  0.00    -0.313 A  
HETATM   11  C   UNL     1     -10.074   7.444  70.638  1.00  0.00    -0.191 A  
ENDROOT
BRANCH   4  12
HETATM   12  C   UNL     1     -11.089  11.360  66.122  1.00  0.00    -0.259 A  
HETATM   13  C   UNL     1     -11.603  12.938  64.327  1.00  0.00    -0.434 A  
HETATM   14  C   UNL     1     -10.083  11.117  63.911  1.00  0.00    -0.404 A  
HETATM   15  C   UNL     1     -10.256  10.670  65.226  1.00  0.00    -0.351 A  
HETATM   16  C   UNL     1     -11.781  12.484  65.637  1.00  0.00    -0.473 A  
HETATM   17  C   UNL     1     -10.746  12.259  63.467  1.00  0.00    -0.497 A  
ENDBRANCH   4  12
TORSDOF 1
ENDMDL
MODEL       47
REMARK 921   NORMALIZED FREE ENERGY PREDICTED BY IDOCK:   -5.46 KCAL/MOL
REMARK 922        TOTAL FREE ENERGY PREDICTED BY IDOCK:   -6.04 KCAL/MOL
REMARK 923 INTER-LIGAND FREE ENERGY PREDICTED BY IDOCK:   -5.80 KCAL/MOL
REMARK 924 INTRA-LIGAND FREE ENERGY PREDICTED BY IDOCK:   -0.24 KCAL/MOL
REMARK 927      BINDING AFFINITY PREDICTED BY RF-SCORE:    0.00 PKD
ROOT
HETATM    1  O   UNL     1     -13.070  13.270  71.584  1.00  0.00    -0.376 OA 
HETATM    2  C   UNL     1     -12.535  12.788  70.595  1.00  0.00    -0.246 C  
HETATM    3  C   UNL     1     -12.275  13.607  69.402  1.00  0.00    -0.307 C  
HETATM    4  C   UNL     1     -11.746  13.041  68.306  1.00  0.00    -0.353 C  
HETATM    5  C   UNL     1     -12.099  11.390  70.534  1.00  0.00    -0.487 A  
HETATM    6  O   UNL     1     -11.404  11.694  68.225  1.00  0.00    -0.237 OA 
HETATM    7  C   UNL     1     -11.546  10.913  69.348  1.00  0.00    -0.316 A  
HETATM    8  C   UNL     1     -12.212  10.564  71.656  1.00  0.00    -0.292 A  
HETATM    9  C   UNL     1     -11.101   9.593  69.279  1.00  0.00    -0.149 A  
HETATM   10  C   UNL     1     -11.756   9.248  71.588  1.00  0.00    -0.462 A  
HETATM   11  C   UNL     1     -11.201   8.764  70.401  1.00  0.00    -0.247 A  
ENDROOT
BRANCH   4  12
HETATM   12  C   UNL     1     -11.427  13.843  67.098  1.00  0.00    -0.370 A  
HETATM   13  C   UNL     1     -11.984  14.645  64.857  1.00  0.00    -0.402 A  
HETATM   14  C   UNL     1     -10.012  15.474  65.960  1.00  0.00    -0.356 A  
HETATM   15  C   UNL     1     -10.288  14.663  67.067  1.00  0.00    -0.263 A  
HETATM   16  C   UNL     1     -12.253  13.829  65.960  1.00  0.00    -0.495 A  
HETATM   17  C   UNL     1     -10.868  15.475  64.862  1.00  0.00    -0.447 A  
ENDBRANCH   4  12
TORSDOF 1
ENDMDL
MODEL       48
REMARK 921   NORMALIZED FREE ENERGY PREDICTED BY IDOCK:   -5.37 KCAL/MOL
REMARK 922        TOTAL FREE ENERGY PREDICTED BY IDOCK:   -5.94 KCAL/MOL
REMARK 923 INTER-LIGAND FREE ENERGY PREDICTED BY IDOCK:   -5.66 KCAL/MOL
REMARK 924 INTRA-LIGAND FREE ENERGY PREDICTED BY IDOCK:   -0.28 KCAL/MOL
REMARK 927      BINDING AFFINITY PREDICTED BY RF-SCORE:    0.00 PKD
ROOT
HETATM    1  O   UNL     1     -12.512  13.225  70.896  1.00  0.00    -0.362 OA 
HETATM    2  C   UNL     1     -12.094  12.248  70.289  1.00  0.00    -0.295 C  
HETATM    3  C   UNL     1     -11.923  10.955  70.966  1.00  0.00    -0.375 C  
HETATM    4  C   UNL     1     -11.403   9.914  70.297  1.00  0.00    -0.291 C  
HETATM    5  C   UNL     1     -11.761  12.287  68.863  1.00  0.00    -0.380 A  
HETATM    6  O   UNL     1     -11.015   9.976  68.961  1.00  0.00    -0.223 OA 
HETATM    7  C   UNL     1     -11.243  11.140  68.266  1.00  0.00    -0.279 A  
HETATM    8  C   UNL     1     -11.988  13.445  68.113  1.00  0.00    -0.356 A  
HETATM    9  C   UNL     1     -10.945  11.148  66.903  1.00  0.00    -0.333 A  
HETATM   10  C   UNL     1     -11.700  13.447  66.749  1.00  0.00    -0.429 A  
HETATM   11  C   UNL     1     -11.181  12.300  66.146  1.00  0.00    -0.372 A  
ENDROOT
BRANCH   4  12
HETATM   12  C   UNL     1     -11.256   8.581  70.933  1.00  0.00    -0.304 A  
HETATM   13  C   UNL     1     -11.377   7.121  72.889  1.00  0.00    -0.257 A  
HETATM   14  C   UNL     1     -10.864   6.180  70.734  1.00  0.00    -0.350 A  
HETATM   15  C   UNL     1     -10.940   7.452  70.158  1.00  0.00    -0.272 A  
HETATM   16  C   UNL     1     -11.444   8.393  72.314  1.00  0.00    -0.454 A  
HETATM   17  C   UNL     1     -11.096   6.013  72.097  1.00  0.00    -0.328 A  
ENDBRANCH   4  12
TORSDOF 1
ENDMDL
MODEL       49
REMARK 921   NORMALIZED FREE ENERGY PREDICTED BY IDOCK:   -5.30 KCAL/MOL
REMARK 922        TOTAL FREE ENERGY PREDICTED BY IDOCK:   -5.87 KCAL/MOL
REMARK 923 INTER-LIGAND FREE ENERGY PREDICTED BY IDOCK:   -5.60 KCAL/MOL
REMARK 924 INTRA-LIGAND FREE ENERGY PREDICTED BY IDOCK:   -0.27 KCAL/MOL
REMARK 927      BINDING AFFINITY PREDICTED BY RF-SCORE:    0.00 PKD
ROOT
HETATM    1  O   UNL     1     -10.635   6.226  73.973  1.00  0.00    -0.280 OA 
HETATM    2  C   UNL     1     -10.796   6.685  72.849  1.00  0.00    -0.262 C  
HETATM    3  C   UNL     1     -11.252   8.067  72.656  1.00  0.00    -0.462 C  
HETATM    4  C   UNL     1     -11.483   8.528  71.416  1.00  0.00    -0.287 C  
HETATM    5  C   UNL     1     -10.527   5.910  71.634  1.00  0.00    -0.285 A  
HETATM    6  O   UNL     1     -11.300   7.764  70.266  1.00  0.00    -0.252 OA 
HETATM    7  C   UNL     1     -10.787   6.495  70.398  1.00  0.00    -0.273 A  
HETATM    8  C   UNL     1      -9.993   4.621  71.719  1.00  0.00    -0.260 A  
HETATM    9  C   UNL     1     -10.512   5.784  69.229  1.00  0.00    -0.358 A  
HETATM   10  C   UNL     1      -9.709   3.917  70.550  1.00  0.00    -0.247 A  
HETATM   11  C   UNL     1      -9.967   4.499  69.307  1.00  0.00    -0.192 A  
ENDROOT
BRANCH   4  12
HETATM   12  C   UNL     1     -11.901   9.932  71.177  1.00  0.00    -0.472 A  
HETATM   13  C   UNL     1     -13.133  11.937  71.838  1.00  0.00    -0.474 A  
HETATM   14  C   UNL     1     -11.720  11.999  69.891  1.00  0.00    -0.374 A  
HETATM   15  C   UNL     1     -11.384  10.655  70.089  1.00  0.00    -0.402 A  
HETATM   16  C   UNL     1     -12.804  10.592  72.030  1.00  0.00    -0.419 A  
HETATM   17  C   UNL     1     -12.583  12.642  70.774  1.00  0.00    -0.302 A  
ENDBRANCH   4  12
TORSDOF 1
ENDMDL
MODEL       50
REMARK 921   NORMALIZED FREE ENERGY PREDICTED BY IDOCK:   -5.28 KCAL/MOL
REMARK 922        TOTAL FREE ENERGY PREDICTED BY IDOCK:   -5.84 KCAL/MOL
REMARK 923 INTER-LIGAND FREE ENERGY PREDICTED BY IDOCK:   -5.56 KCAL/MOL
REMARK 924 INTRA-LIGAND FREE ENERGY PREDICTED BY IDOCK:   -0.28 KCAL/MOL
REMARK 927      BINDING AFFINITY PREDICTED BY RF-SCORE:    0.00 PKD
ROOT
HETATM    1  O   UNL     1      -9.104   7.695  67.272  1.00  0.00    -0.125 OA 
HETATM    2  C   UNL     1      -9.766   8.686  67.549  1.00  0.00    -0.165 C  
HETATM    3  C   UNL     1     -10.143   9.656  66.512  1.00  0.00    -0.314 C  
HETATM    4  C   UNL     1     -10.814  10.769  66.850  1.00  0.00    -0.229 C  
HETATM    5  C   UNL     1     -10.245   8.963  68.907  1.00  0.00    -0.220 A  
HETATM    6  O   UNL     1     -11.201  11.067  68.154  1.00  0.00    -0.253 OA 
HETATM    7  C   UNL     1     -10.948  10.142  69.140  1.00  0.00    -0.230 A  
HETATM    8  C   UNL     1     -10.022   8.045  69.937  1.00  0.00    -0.189 A  
HETATM    9  C   UNL     1     -11.435  10.411  70.420  1.00  0.00    -0.420 A  
HETATM   10  C   UNL     1     -10.519   8.311  71.212  1.00  0.00    -0.262 A  
HETATM   11  C   UNL     1     -11.225   9.491  71.452  1.00  0.00    -0.452 A  
ENDROOT
BRANCH   4  12
HETATM   12  C   UNL     1     -11.252  11.750  65.826  1.00  0.00    -0.337 A  
HETATM   13  C   UNL     1     -11.388  12.497  63.503  1.00  0.00    -0.556 A  
HETATM   14  C   UNL     1     -12.522  13.745  65.221  1.00  0.00    -0.512 A  
HETATM   15  C   UNL     1     -12.048  12.850  66.186  1.00  0.00    -0.458 A  
HETATM   16  C   UNL     1     -10.908  11.609  64.470  1.00  0.00    -0.383 A  
HETATM   17  C   UNL     1     -12.202  13.560  63.878  1.00  0.00    -0.458 A  
ENDBRANCH   4  12
TORSDOF 1
ENDMDL
MODEL       51
REMARK 921   NORMALIZED FREE ENERGY PREDICTED BY IDOCK:   -5.26 KCAL/MOL
REMARK 922        TOTAL FREE ENERGY PREDICTED BY IDOCK:   -5.82 KCAL/MOL
REMARK 923 INTER-LIGAND FREE ENERGY PREDICTED BY IDOCK:   -5.59 KCAL/MOL
REMARK 924 INTRA-LIGAND FREE ENERGY PREDICTED BY IDOCK:   -0.23 KCAL/MOL
REMARK 927      BINDING AFFINITY PREDICTED BY RF-SCORE:    0.00 PKD
ROOT
HETATM    1  O   UNL     1     -12.592  13.565  63.245  1.00  0.00    -0.773 OA 
HETATM    2  C   UNL     1     -11.796  13.320  64.142  1.00  0.00    -0.443 C  
HETATM    3  C   UNL     1     -11.466  11.934  64.501  1.00  0.00    -0.363 C  
HETATM    4  C   UNL     1     -10.639  11.689  65.529  1.00  0.00    -0.279 C  
HETATM    5  C   UNL     1     -11.107  14.371  64.895  1.00  0.00    -0.404 A  
HETATM    6  O   UNL     1     -10.046  12.690  66.294  1.00  0.00    -0.243 OA 
HETATM    7  C   UNL     1     -10.257  14.000  65.934  1.00  0.00    -0.320 A  
HETATM    8  C   UNL     1     -11.281  15.716  64.557  1.00  0.00    -0.337 A  
HETATM    9  C   UNL     1      -9.570  14.985  66.646  1.00  0.00    -0.281 A  
HETATM   10  C   UNL     1     -10.586  16.697  65.262  1.00  0.00    -0.224 A  
HETATM   11  C   UNL     1      -9.731  16.331  66.304  1.00  0.00    -0.329 A  
ENDROOT
BRANCH   4  12
HETATM   12  C   UNL     1     -10.246  10.304  65.894  1.00  0.00    -0.293 A  
HETATM   13  C   UNL     1      -8.964   8.266  65.474  1.00  0.00    -0.114 A  
HETATM   14  C   UNL     1     -10.296   8.442  67.471  1.00  0.00    -0.333 A  
HETATM   15  C   UNL     1     -10.712   9.720  67.083  1.00  0.00    -0.273 A  
HETATM   16  C   UNL     1      -9.387   9.540  65.084  1.00  0.00    -0.316 A  
HETATM   17  C   UNL     1      -9.412   7.721  66.672  1.00  0.00    -0.263 A  
ENDBRANCH   4  12
TORSDOF 1
ENDMDL
MODEL       52
REMARK 921   NORMALIZED FREE ENERGY PREDICTED BY IDOCK:   -5.24 KCAL/MOL
REMARK 922        TOTAL FREE ENERGY PREDICTED BY IDOCK:   -5.80 KCAL/MOL
REMARK 923 INTER-LIGAND FREE ENERGY PREDICTED BY IDOCK:   -5.53 KCAL/MOL
REMARK 924 INTRA-LIGAND FREE ENERGY PREDICTED BY IDOCK:   -0.27 KCAL/MOL
REMARK 927      BINDING AFFINITY PREDICTED BY RF-SCORE:    0.00 PKD
ROOT
HETATM    1  O   UNL     1     -11.360   8.921  70.095  1.00  0.00    -0.217 OA 
HETATM    2  C   UNL     1     -11.435   9.984  69.494  1.00  0.00    -0.120 C  
HETATM    3  C   UNL     1     -11.087  10.073  68.069  1.00  0.00    -0.263 C  
HETATM    4  C   UNL     1     -11.116  11.262  67.446  1.00  0.00    -0.297 C  
HETATM    5  C   UNL     1     -11.891  11.222  70.132  1.00  0.00    -0.449 A  
HETATM    6  O   UNL     1     -11.476  12.450  68.076  1.00  0.00    -0.277 OA 
HETATM    7  C   UNL     1     -11.895  12.397  69.385  1.00  0.00    -0.304 A  
HETATM    8  C   UNL     1     -12.339  11.213  71.456  1.00  0.00    -0.256 A  
HETATM    9  C   UNL     1     -12.351  13.581  69.966  1.00  0.00    -0.315 A  
HETATM   10  C   UNL     1     -12.805  12.394  72.031  1.00  0.00    -0.263 A  
HETATM   11  C   UNL     1     -12.812  13.576  71.287  1.00  0.00    -0.420 A  
ENDROOT
BRANCH   4  12
HETATM   12  C   UNL     1     -10.815  11.385  65.998  1.00  0.00    -0.306 A  
HETATM   13  C   UNL     1     -10.941  12.609  63.886  1.00  0.00    -0.468 A  
HETATM   14  C   UNL     1      -9.675  10.565  64.002  1.00  0.00    -0.383 A  
HETATM   15  C   UNL     1     -10.020  10.425  65.350  1.00  0.00    -0.362 A  
HETATM   16  C   UNL     1     -11.292  12.463  65.231  1.00  0.00    -0.374 A  
HETATM   17  C   UNL     1     -10.124  11.664  63.274  1.00  0.00    -0.454 A  
ENDBRANCH   4  12
TORSDOF 1
ENDMDL
MODEL       53
REMARK 921   NORMALIZED FREE ENERGY PREDICTED BY IDOCK:   -5.23 KCAL/MOL
REMARK 922        TOTAL FREE ENERGY PREDICTED BY IDOCK:   -5.80 KCAL/MOL
REMARK 923 INTER-LIGAND FREE ENERGY PREDICTED BY IDOCK:   -5.52 KCAL/MOL
REMARK 924 INTRA-LIGAND FREE ENERGY PREDICTED BY IDOCK:   -0.27 KCAL/MOL
REMARK 927      BINDING AFFINITY PREDICTED BY RF-SCORE:    0.00 PKD
ROOT
HETATM    1  O   UNL     1     -10.752  10.944  66.228  1.00  0.00    -0.243 OA 
HETATM    2  C   UNL     1     -11.007  11.041  67.421  1.00  0.00    -0.291 C  
HETATM    3  C   UNL     1     -10.910   9.876  68.312  1.00  0.00    -0.275 C  
HETATM    4  C   UNL     1     -11.256   9.992  69.603  1.00  0.00    -0.239 C  
HETATM    5  C   UNL     1     -11.399  12.308  68.044  1.00  0.00    -0.348 A  
HETATM    6  O   UNL     1     -11.702  11.181  70.176  1.00  0.00    -0.304 OA 
HETATM    7  C   UNL     1     -11.721  12.315  69.399  1.00  0.00    -0.330 A  
HETATM    8  C   UNL     1     -11.420  13.489  67.297  1.00  0.00    -0.369 A  
HETATM    9  C   UNL     1     -12.070  13.516  70.018  1.00  0.00    -0.411 A  
HETATM   10  C   UNL     1     -11.758  14.690  67.919  1.00  0.00    -0.379 A  
HETATM   11  C   UNL     1     -12.081  14.703  69.277  1.00  0.00    -0.307 A  
ENDROOT
BRANCH   4  12
HETATM   12  C   UNL     1     -11.129   8.851  70.544  1.00  0.00    -0.288 A  
HETATM   13  C   UNL     1     -11.004   7.958  72.816  1.00  0.00    -0.456 A  
HETATM   14  C   UNL     1     -11.053   6.444  70.945  1.00  0.00    -0.354 A  
HETATM   15  C   UNL     1     -11.106   7.531  70.065  1.00  0.00    -0.219 A  
HETATM   16  C   UNL     1     -11.047   9.043  71.935  1.00  0.00    -0.433 A  
HETATM   17  C   UNL     1     -11.016   6.659  72.321  1.00  0.00    -0.278 A  
ENDBRANCH   4  12
TORSDOF 1
ENDMDL
MODEL       54
REMARK 921   NORMALIZED FREE ENERGY PREDICTED BY IDOCK:   -5.21 KCAL/MOL
REMARK 922        TOTAL FREE ENERGY PREDICTED BY IDOCK:   -5.78 KCAL/MOL
REMARK 923 INTER-LIGAND FREE ENERGY PREDICTED BY IDOCK:   -5.51 KCAL/MOL
REMARK 924 INTRA-LIGAND FREE ENERGY PREDICTED BY IDOCK:   -0.27 KCAL/MOL
REMARK 927      BINDING AFFINITY PREDICTED BY RF-SCORE:    0.00 PKD
ROOT
HETATM    1  O   UNL     1      -6.606  17.433  66.026  1.00  0.00    -0.225 OA 
HETATM    2  C   UNL     1      -7.788  17.246  66.286  1.00  0.00    -0.309 C  
HETATM    3  C   UNL     1      -8.371  15.899  66.219  1.00  0.00    -0.235 C  
HETATM    4  C   UNL     1      -9.683  15.727  66.446  1.00  0.00    -0.282 C  
HETATM    5  C   UNL     1      -8.687  18.327  66.697  1.00  0.00    -0.289 A  
HETATM    6  O   UNL     1     -10.551  16.769  66.762  1.00  0.00    -0.288 OA 
HETATM    7  C   UNL     1     -10.029  18.030  66.923  1.00  0.00    -0.340 A  
HETATM    8  C   UNL     1      -8.198  19.623  66.886  1.00  0.00    -0.323 A  
HETATM    9  C   UNL     1     -10.896  19.040  67.342  1.00  0.00    -0.496 A  
HETATM   10  C   UNL     1      -9.064  20.628  67.315  1.00  0.00    -0.408 A  
HETATM   11  C   UNL     1     -10.410  20.336  67.544  1.00  0.00    -0.415 A  
ENDROOT
BRANCH   4  12
HETATM   12  C   UNL     1     -10.300  14.377  66.432  1.00  0.00    -0.289 A  
HETATM   13  C   UNL     1     -12.180  12.892  65.948  1.00  0.00    -0.469 A  
HETATM   14  C   UNL     1     -10.104  11.963  66.738  1.00  0.00    -0.225 A  
HETATM   15  C   UNL     1      -9.555  13.248  66.809  1.00  0.00    -0.258 A  
HETATM   16  C   UNL     1     -11.632  14.175  66.029  1.00  0.00    -0.364 A  
HETATM   17  C   UNL     1     -11.412  11.785  66.294  1.00  0.00    -0.296 A  
ENDBRANCH   4  12
TORSDOF 1
ENDMDL
MODEL       55
REMARK 921   NORMALIZED FREE ENERGY PREDICTED BY IDOCK:   -5.18 KCAL/MOL
REMARK 922        TOTAL FREE ENERGY PREDICTED BY IDOCK:   -5.74 KCAL/MOL
REMARK 923 INTER-LIGAND FREE ENERGY PREDICTED BY IDOCK:   -5.47 KCAL/MOL
REMARK 924 INTRA-LIGAND FREE ENERGY PREDICTED BY IDOCK:   -0.27 KCAL/MOL
REMARK 927      BINDING AFFINITY PREDICTED BY RF-SCORE:    0.00 PKD
ROOT
HETATM    1  O   UNL     1      -9.182   9.073  67.086  1.00  0.00    -0.131 OA 
HETATM    2  C   UNL     1      -9.863  10.086  66.995  1.00  0.00    -0.189 C  
HETATM    3  C   UNL     1     -10.508  10.672  68.178  1.00  0.00    -0.215 C  
HETATM    4  C   UNL     1     -11.301  11.746  68.044  1.00  0.00    -0.288 C  
HETATM    5  C   UNL     1     -10.065  10.791  65.726  1.00  0.00    -0.320 A  
HETATM    6  O   UNL     1     -11.553  12.368  66.824  1.00  0.00    -0.349 OA 
HETATM    7  C   UNL     1     -10.898  11.907  65.706  1.00  0.00    -0.295 A  
HETATM    8  C   UNL     1      -9.409  10.366  64.567  1.00  0.00    -0.313 A  
HETATM    9  C   UNL     1     -11.081  12.608  64.514  1.00  0.00    -0.365 A  
HETATM   10  C   UNL     1      -9.585  11.074  63.379  1.00  0.00    -0.361 A  
HETATM   11  C   UNL     1     -10.419  12.194  63.354  1.00  0.00    -0.450 A  
ENDROOT
BRANCH   4  12
HETATM   12  C   UNL     1     -11.933  12.393  69.221  1.00  0.00    -0.308 A  
HETATM   13  C   UNL     1     -12.771  12.305  71.516  1.00  0.00    -0.339 A  
HETATM   14  C   UNL     1     -12.757  14.403  70.336  1.00  0.00    -0.362 A  
HETATM   15  C   UNL     1     -12.223  13.768  69.209  1.00  0.00    -0.307 A  
HETATM   16  C   UNL     1     -12.245  11.670  70.386  1.00  0.00    -0.434 A  
HETATM   17  C   UNL     1     -13.018  13.673  71.492  1.00  0.00    -0.443 A  
ENDBRANCH   4  12
TORSDOF 1
ENDMDL
MODEL       56
REMARK 921   NORMALIZED FREE ENERGY PREDICTED BY IDOCK:   -5.12 KCAL/MOL
REMARK 922        TOTAL FREE ENERGY PREDICTED BY IDOCK:   -5.68 KCAL/MOL
REMARK 923 INTER-LIGAND FREE ENERGY PREDICTED BY IDOCK:   -5.45 KCAL/MOL
REMARK 924 INTRA-LIGAND FREE ENERGY PREDICTED BY IDOCK:   -0.24 KCAL/MOL
REMARK 927      BINDING AFFINITY PREDICTED BY RF-SCORE:    0.00 PKD
ROOT
HETATM    1  O   UNL     1      -7.983   9.133  70.218  1.00  0.00    -0.099 OA 
HETATM    2  C   UNL     1      -9.132   9.544  70.117  1.00  0.00    -0.240 C  
HETATM    3  C   UNL     1      -9.486  10.555  69.112  1.00  0.00    -0.205 C  
HETATM    4  C   UNL     1     -10.738  11.037  69.062  1.00  0.00    -0.219 C  
HETATM    5  C   UNL     1     -10.224   9.049  70.960  1.00  0.00    -0.347 A  
HETATM    6  O   UNL     1     -11.757  10.621  69.916  1.00  0.00    -0.267 OA 
HETATM    7  C   UNL     1     -11.490   9.611  70.810  1.00  0.00    -0.328 A  
HETATM    8  C   UNL     1     -10.002   8.015  71.874  1.00  0.00    -0.255 A  
HETATM    9  C   UNL     1     -12.549   9.136  71.584  1.00  0.00    -0.433 A  
HETATM   10  C   UNL     1     -11.065   7.535  72.638  1.00  0.00    -0.398 A  
HETATM   11  C   UNL     1     -12.336   8.094  72.492  1.00  0.00    -0.296 A  
ENDROOT
BRANCH   4  12
HETATM   12  C   UNL     1     -11.146  12.025  68.032  1.00  0.00    -0.292 A  
HETATM   13  C   UNL     1     -11.620  12.619  65.709  1.00  0.00    -0.431 A  
HETATM   14  C   UNL     1     -12.002  14.236  67.451  1.00  0.00    -0.426 A  
HETATM   15  C   UNL     1     -11.552  13.317  68.405  1.00  0.00    -0.372 A  
HETATM   16  C   UNL     1     -11.162  11.705  66.663  1.00  0.00    -0.362 A  
HETATM   17  C   UNL     1     -12.049  13.881  66.105  1.00  0.00    -0.478 A  
ENDBRANCH   4  12
TORSDOF 1
ENDMDL
MODEL       57
REMARK 921   NORMALIZED FREE ENERGY PREDICTED BY IDOCK:   -5.11 KCAL/MOL
REMARK 922        TOTAL FREE ENERGY PREDICTED BY IDOCK:   -5.67 KCAL/MOL
REMARK 923 INTER-LIGAND FREE ENERGY PREDICTED BY IDOCK:   -5.39 KCAL/MOL
REMARK 924 INTRA-LIGAND FREE ENERGY PREDICTED BY IDOCK:   -0.27 KCAL/MOL
REMARK 927      BINDING AFFINITY PREDICTED BY RF-SCORE:    0.00 PKD
ROOT
HETATM    1  O   UNL     1      -8.757  10.700  66.292  1.00  0.00    -0.146 OA 
HETATM    2  C   UNL     1      -9.673  11.129  66.982  1.00  0.00    -0.186 C  
HETATM    3  C   UNL     1     -10.072  10.442  68.218  1.00  0.00    -0.174 C  
HETATM    4  C   UNL     1     -11.120  10.893  68.925  1.00  0.00    -0.252 C  
HETATM    5  C   UNL     1     -10.411  12.350  66.646  1.00  0.00    -0.245 A  
HETATM    6  O   UNL     1     -11.868  12.010  68.561  1.00  0.00    -0.318 OA 
HETATM    7  C   UNL     1     -11.472  12.734  67.461  1.00  0.00    -0.336 A  
HETATM    8  C   UNL     1     -10.035  13.124  65.545  1.00  0.00    -0.220 A  
HETATM    9  C   UNL     1     -12.170  13.908  67.174  1.00  0.00    -0.353 A  
HETATM   10  C   UNL     1     -10.727  14.302  65.267  1.00  0.00    -0.377 A  
HETATM   11  C   UNL     1     -11.791  14.694  66.081  1.00  0.00    -0.282 A  
ENDROOT
BRANCH   4  12
HETATM   12  C   UNL     1     -11.526  10.254  70.201  1.00  0.00    -0.383 A  
HETATM   13  C   UNL     1     -13.220   9.724  71.882  1.00  0.00    -0.545 A  
HETATM   14  C   UNL     1     -11.004   8.808  72.097  1.00  0.00    -0.404 A  
HETATM   15  C   UNL     1     -10.615   9.470  70.927  1.00  0.00    -0.395 A  
HETATM   16  C   UNL     1     -12.827  10.391  70.718  1.00  0.00    -0.450 A  
HETATM   17  C   UNL     1     -12.310   8.925  72.566  1.00  0.00    -0.325 A  
ENDBRANCH   4  12
TORSDOF 1
ENDMDL
MODEL       58
REMARK 921   NORMALIZED FREE ENERGY PREDICTED BY IDOCK:   -5.10 KCAL/MOL
REMARK 922        TOTAL FREE ENERGY PREDICTED BY IDOCK:   -5.66 KCAL/MOL
REMARK 923 INTER-LIGAND FREE ENERGY PREDICTED BY IDOCK:   -5.40 KCAL/MOL
REMARK 924 INTRA-LIGAND FREE ENERGY PREDICTED BY IDOCK:   -0.26 KCAL/MOL
REMARK 927      BINDING AFFINITY PREDICTED BY RF-SCORE:    0.00 PKD
ROOT
HETATM    1  O   UNL     1     -11.363  12.548  65.041  1.00  0.00    -0.296 OA 
HETATM    2  C   UNL     1     -11.040  12.047  66.110  1.00  0.00    -0.322 C  
HETATM    3  C   UNL     1     -11.691  12.453  67.362  1.00  0.00    -0.417 C  
HETATM    4  C   UNL     1     -11.277  11.936  68.530  1.00  0.00    -0.256 C  
HETATM    5  C   UNL     1     -10.015  11.005  66.215  1.00  0.00    -0.269 A  
HETATM    6  O   UNL     1     -10.249  11.002  68.635  1.00  0.00    -0.183 OA 
HETATM    7  C   UNL     1      -9.675  10.528  67.479  1.00  0.00    -0.166 A  
HETATM    8  C   UNL     1      -9.413  10.483  65.067  1.00  0.00    -0.296 A  
HETATM    9  C   UNL     1      -8.721   9.517  67.599  1.00  0.00    -0.122 A  
HETATM   10  C   UNL     1      -8.468   9.466  65.188  1.00  0.00    -0.166 A  
HETATM   11  C   UNL     1      -8.124   8.983  66.452  1.00  0.00    -0.110 A  
ENDROOT
BRANCH   4  12
HETATM   12  C   UNL     1     -11.940  12.287  69.811  1.00  0.00    -0.365 A  
HETATM   13  C   UNL     1     -12.861  13.941  71.357  1.00  0.00    -0.439 A  
HETATM   14  C   UNL     1     -13.062  11.596  71.865  1.00  0.00    -0.490 A  
HETATM   15  C   UNL     1     -12.378  11.280  70.687  1.00  0.00    -0.477 A  
HETATM   16  C   UNL     1     -12.169  13.623  70.184  1.00  0.00    -0.413 A  
HETATM   17  C   UNL     1     -13.315  12.926  72.192  1.00  0.00    -0.615 A  
ENDBRANCH   4  12
TORSDOF 1
ENDMDL
MODEL       59
REMARK 921   NORMALIZED FREE ENERGY PREDICTED BY IDOCK:   -5.08 KCAL/MOL
REMARK 922        TOTAL FREE ENERGY PREDICTED BY IDOCK:   -5.64 KCAL/MOL
REMARK 923 INTER-LIGAND FREE ENERGY PREDICTED BY IDOCK:   -5.36 KCAL/MOL
REMARK 924 INTRA-LIGAND FREE ENERGY PREDICTED BY IDOCK:   -0.28 KCAL/MOL
REMARK 927      BINDING AFFINITY PREDICTED BY RF-SCORE:    0.00 PKD
ROOT
HETATM    1  O   UNL     1      -9.913   9.453  68.349  1.00  0.00    -0.160 OA 
HETATM    2  C   UNL     1     -10.476   9.041  69.355  1.00  0.00    -0.222 C  
HETATM    3  C   UNL     1     -10.267   7.666  69.828  1.00  0.00    -0.210 C  
HETATM    4  C   UNL     1     -10.943   7.217  70.897  1.00  0.00    -0.251 C  
HETATM    5  C   UNL     1     -11.365   9.881  70.162  1.00  0.00    -0.335 A  
HETATM    6  O   UNL     1     -11.847   7.994  71.617  1.00  0.00    -0.268 OA 
HETATM    7  C   UNL     1     -12.003   9.314  71.262  1.00  0.00    -0.340 A  
HETATM    8  C   UNL     1     -11.544  11.231  69.847  1.00  0.00    -0.413 A  
HETATM    9  C   UNL     1     -12.833  10.103  72.060  1.00  0.00    -0.472 A  
HETATM   10  C   UNL     1     -12.364  12.021  70.652  1.00  0.00    -0.394 A  
HETATM   11  C   UNL     1     -13.006  11.458  71.756  1.00  0.00    -0.519 A  
ENDROOT
BRANCH   4  12
HETATM   12  C   UNL     1     -10.726   5.849  71.432  1.00  0.00    -0.319 A  
HETATM   13  C   UNL     1      -9.774   3.606  71.241  1.00  0.00    -0.239 A  
HETATM   14  C   UNL     1     -10.937   4.237  73.253  1.00  0.00    -0.334 A  
HETATM   15  C   UNL     1     -11.192   5.501  72.710  1.00  0.00    -0.358 A  
HETATM   16  C   UNL     1     -10.038   4.867  70.698  1.00  0.00    -0.306 A  
HETATM   17  C   UNL     1     -10.216   3.295  72.523  1.00  0.00    -0.218 A  
ENDBRANCH   4  12
TORSDOF 1
ENDMDL
MODEL       60
REMARK 921   NORMALIZED FREE ENERGY PREDICTED BY IDOCK:   -5.08 KCAL/MOL
REMARK 922        TOTAL FREE ENERGY PREDICTED BY IDOCK:   -5.63 KCAL/MOL
REMARK 923 INTER-LIGAND FREE ENERGY PREDICTED BY IDOCK:   -5.35 KCAL/MOL
REMARK 924 INTRA-LIGAND FREE ENERGY PREDICTED BY IDOCK:   -0.28 KCAL/MOL
REMARK 927      BINDING AFFINITY PREDICTED BY RF-SCORE:    0.00 PKD
ROOT
HETATM    1  O   UNL     1     -11.492   8.025  73.066  1.00  0.00    -0.370 OA 
HETATM    2  C   UNL     1     -11.345   8.268  71.876  1.00  0.00    -0.308 C  
HETATM    3  C   UNL     1     -11.570   9.620  71.348  1.00  0.00    -0.472 C  
HETATM    4  C   UNL     1     -11.464   9.849  70.029  1.00  0.00    -0.217 C  
HETATM    5  C   UNL     1     -10.918   7.252  70.909  1.00  0.00    -0.275 A  
HETATM    6  O   UNL     1     -11.134   8.863  69.103  1.00  0.00    -0.045 OA 
HETATM    7  C   UNL     1     -10.827   7.605  69.565  1.00  0.00    -0.165 A  
HETATM    8  C   UNL     1     -10.584   5.964  71.336  1.00  0.00    -0.309 A  
HETATM    9  C   UNL     1     -10.397   6.660  68.633  1.00  0.00    -0.208 A  
HETATM   10  C   UNL     1     -10.144   5.024  70.405  1.00  0.00    -0.330 A  
HETATM   11  C   UNL     1     -10.049   5.373  69.056  1.00  0.00    -0.283 A  
ENDROOT
BRANCH   4  12
HETATM   12  C   UNL     1     -11.639  11.210  69.463  1.00  0.00    -0.392 A  
HETATM   13  C   UNL     1     -12.003  13.611  69.743  1.00  0.00    -0.404 A  
HETATM   14  C   UNL     1     -11.610  12.717  67.543  1.00  0.00    -0.418 A  
HETATM   15  C   UNL     1     -11.513  11.429  68.081  1.00  0.00    -0.375 A  
HETATM   16  C   UNL     1     -11.915  12.322  70.279  1.00  0.00    -0.373 A  
HETATM   17  C   UNL     1     -11.841  13.808  68.376  1.00  0.00    -0.411 A  
ENDBRANCH   4  12
TORSDOF 1
ENDMDL
MODEL       61
REMARK 921   NORMALIZED FREE ENERGY PREDICTED BY IDOCK:   -5.07 KCAL/MOL
REMARK 922        TOTAL FREE ENERGY PREDICTED BY IDOCK:   -5.63 KCAL/MOL
REMARK 923 INTER-LIGAND FREE ENERGY PREDICTED BY IDOCK:   -5.36 KCAL/MOL
REMARK 924 INTRA-LIGAND FREE ENERGY PREDICTED BY IDOCK:   -0.27 KCAL/MOL
REMARK 927      BINDING AFFINITY PREDICTED BY RF-SCORE:    0.00 PKD
ROOT
HETATM    1  O   UNL     1     -12.392  11.099  68.912  1.00  0.00    -0.512 OA 
HETATM    2  C   UNL     1     -11.654  11.658  68.111  1.00  0.00    -0.319 C  
HETATM    3  C   UNL     1     -11.576  13.124  68.051  1.00  0.00    -0.371 C  
HETATM    4  C   UNL     1     -10.808  13.715  67.123  1.00  0.00    -0.285 C  
HETATM    5  C   UNL     1     -10.790  10.921  67.185  1.00  0.00    -0.337 A  
HETATM    6  O   UNL     1     -10.047  13.011  66.193  1.00  0.00    -0.274 OA 
HETATM    7  C   UNL     1     -10.020  11.639  66.273  1.00  0.00    -0.217 A  
HETATM    8  C   UNL     1     -10.720   9.525  67.239  1.00  0.00    -0.269 A  
HETATM    9  C   UNL     1      -9.171  10.957  65.402  1.00  0.00    -0.231 A  
HETATM   10  C   UNL     1      -9.863   8.847  66.375  1.00  0.00    -0.353 A  
HETATM   11  C   UNL     1      -9.089   9.562  65.459  1.00  0.00    -0.262 A  
ENDROOT
BRANCH   4  12
HETATM   12  C   UNL     1     -10.669  15.192  67.059  1.00  0.00    -0.307 A  
HETATM   13  C   UNL     1     -10.444  17.264  65.782  1.00  0.00    -0.237 A  
HETATM   14  C   UNL     1     -10.659  17.361  68.178  1.00  0.00    -0.376 A  
HETATM   15  C   UNL     1     -10.723  15.965  68.231  1.00  0.00    -0.291 A  
HETATM   16  C   UNL     1     -10.499  15.868  65.838  1.00  0.00    -0.373 A  
HETATM   17  C   UNL     1     -10.534  18.010  66.952  1.00  0.00    -0.350 A  
ENDBRANCH   4  12
TORSDOF 1
ENDMDL
MODEL       62
REMARK 921   NORMALIZED FREE ENERGY PREDICTED BY IDOCK:   -5.06 KCAL/MOL
REMARK 922        TOTAL FREE ENERGY PREDICTED BY IDOCK:   -5.62 KCAL/MOL
REMARK 923 INTER-LIGAND FREE ENERGY PREDICTED BY IDOCK:   -5.34 KCAL/MOL
REMARK 924 INTRA-LIGAND FREE ENERGY PREDICTED BY IDOCK:   -0.28 KCAL/MOL
REMARK 927      BINDING AFFINITY PREDICTED BY RF-SCORE:    0.00 PKD
ROOT
HETATM    1  O   UNL     1     -13.177  11.791  72.023  1.00  0.00    -0.506 OA 
HETATM    2  C   UNL     1     -12.485  11.099  71.288  1.00  0.00    -0.360 C  
HETATM    3  C   UNL     1     -12.200   9.696  71.619  1.00  0.00    -0.484 C  
HETATM    4  C   UNL     1     -11.386   8.976  70.832  1.00  0.00    -0.293 C  
HETATM    5  C   UNL     1     -11.918  11.602  70.034  1.00  0.00    -0.429 A  
HETATM    6  O   UNL     1     -10.787   9.480  69.680  1.00  0.00    -0.231 OA 
HETATM    7  C   UNL     1     -11.099  10.759  69.286  1.00  0.00    -0.256 A  
HETATM    8  C   UNL     1     -12.218  12.891  69.586  1.00  0.00    -0.203 A  
HETATM    9  C   UNL     1     -10.571  11.209  68.075  1.00  0.00    -0.233 A  
HETATM   10  C   UNL     1     -11.699  13.335  68.371  1.00  0.00    -0.389 A  
HETATM   11  C   UNL     1     -10.878  12.495  67.617  1.00  0.00    -0.255 A  
ENDROOT
BRANCH   4  12
HETATM   12  C   UNL     1     -11.111   7.543  71.108  1.00  0.00    -0.270 A  
HETATM   13  C   UNL     1     -10.214   5.371  70.434  1.00  0.00    -0.332 A  
HETATM   14  C   UNL     1     -11.083   5.660  72.660  1.00  0.00    -0.331 A  
HETATM   15  C   UNL     1     -11.399   6.991  72.366  1.00  0.00    -0.307 A  
HETATM   16  C   UNL     1     -10.539   6.699  70.139  1.00  0.00    -0.264 A  
HETATM   17  C   UNL     1     -10.478   4.855  71.698  1.00  0.00    -0.196 A  
ENDBRANCH   4  12
TORSDOF 1
ENDMDL
MODEL       63
REMARK 921   NORMALIZED FREE ENERGY PREDICTED BY IDOCK:   -5.01 KCAL/MOL
REMARK 922        TOTAL FREE ENERGY PREDICTED BY IDOCK:   -5.57 KCAL/MOL
REMARK 923 INTER-LIGAND FREE ENERGY PREDICTED BY IDOCK:   -5.29 KCAL/MOL
REMARK 924 INTRA-LIGAND FREE ENERGY PREDICTED BY IDOCK:   -0.28 KCAL/MOL
REMARK 927      BINDING AFFINITY PREDICTED BY RF-SCORE:    0.00 PKD
ROOT
HETATM    1  O   UNL     1     -10.733  12.627  63.482  1.00  0.00    -0.417 OA 
HETATM    2  C   UNL     1     -10.520  13.011  64.624  1.00  0.00    -0.380 C  
HETATM    3  C   UNL     1     -10.563  14.441  64.960  1.00  0.00    -0.452 C  
HETATM    4  C   UNL     1     -10.264  14.844  66.205  1.00  0.00    -0.300 C  
HETATM    5  C   UNL     1     -10.233  12.090  65.727  1.00  0.00    -0.274 A  
HETATM    6  O   UNL     1      -9.916  13.971  67.232  1.00  0.00    -0.236 OA 
HETATM    7  C   UNL     1      -9.952  12.620  66.984  1.00  0.00    -0.219 A  
HETATM    8  C   UNL     1     -10.271  10.707  65.524  1.00  0.00    -0.329 A  
HETATM    9  C   UNL     1      -9.703  11.759  68.054  1.00  0.00    -0.185 A  
HETATM   10  C   UNL     1     -10.033   9.849  66.596  1.00  0.00    -0.277 A  
HETATM   11  C   UNL     1      -9.751  10.375  67.859  1.00  0.00    -0.168 A  
ENDROOT
BRANCH   4  12
HETATM   12  C   UNL     1     -10.340  16.275  66.595  1.00  0.00    -0.302 A  
HETATM   13  C   UNL     1     -10.094  18.054  68.252  1.00  0.00    -0.390 A  
HETATM   14  C   UNL     1     -10.658  18.616  65.981  1.00  0.00    -0.410 A  
HETATM   15  C   UNL     1     -10.648  17.258  65.641  1.00  0.00    -0.173 A  
HETATM   16  C   UNL     1     -10.093  16.698  67.913  1.00  0.00    -0.270 A  
HETATM   17  C   UNL     1     -10.368  19.013  67.283  1.00  0.00    -0.505 A  
ENDBRANCH   4  12
TORSDOF 1
ENDMDL
MODEL       64
REMARK 921   NORMALIZED FREE ENERGY PREDICTED BY IDOCK:   -5.01 KCAL/MOL
REMARK 922        TOTAL FREE ENERGY PREDICTED BY IDOCK:   -5.56 KCAL/MOL
REMARK 923 INTER-LIGAND FREE ENERGY PREDICTED BY IDOCK:   -5.29 KCAL/MOL
REMARK 924 INTRA-LIGAND FREE ENERGY PREDICTED BY IDOCK:   -0.26 KCAL/MOL
REMARK 927      BINDING AFFINITY PREDICTED BY RF-SCORE:    0.00 PKD
ROOT
HETATM    1  O   UNL     1     -12.514  10.216  72.204  1.00  0.00    -0.278 OA 
HETATM    2  C   UNL     1     -11.915  10.180  71.138  1.00  0.00    -0.386 C  
HETATM    3  C   UNL     1     -12.116  11.223  70.122  1.00  0.00    -0.448 C  
HETATM    4  C   UNL     1     -11.496  11.128  68.935  1.00  0.00    -0.295 C  
HETATM    5  C   UNL     1     -10.951   9.126  70.809  1.00  0.00    -0.332 A  
HETATM    6  O   UNL     1     -10.640  10.084  68.597  1.00  0.00    -0.194 OA 
HETATM    7  C   UNL     1     -10.354   9.136  69.550  1.00  0.00    -0.215 A  
HETATM    8  C   UNL     1     -10.619   8.149  71.752  1.00  0.00    -0.313 A  
HETATM    9  C   UNL     1      -9.413   8.157  69.227  1.00  0.00    -0.159 A  
HETATM   10  C   UNL     1      -9.671   7.179  71.431  1.00  0.00    -0.170 A  
HETATM   11  C   UNL     1      -9.068   7.184  70.171  1.00  0.00    -0.152 A  
ENDROOT
BRANCH   4  12
HETATM   12  C   UNL     1     -11.639  12.184  67.902  1.00  0.00    -0.413 A  
HETATM   13  C   UNL     1     -11.853  14.534  67.262  1.00  0.00    -0.419 A  
HETATM   14  C   UNL     1     -11.668  12.848  65.553  1.00  0.00    -0.423 A  
HETATM   15  C   UNL     1     -11.601  11.855  66.537  1.00  0.00    -0.328 A  
HETATM   16  C   UNL     1     -11.795  13.539  68.243  1.00  0.00    -0.401 A  
HETATM   17  C   UNL     1     -11.780  14.188  65.917  1.00  0.00    -0.369 A  
ENDBRANCH   4  12
TORSDOF 1
ENDMDL
MODEL       65
REMARK 921   NORMALIZED FREE ENERGY PREDICTED BY IDOCK:   -4.99 KCAL/MOL
REMARK 922        TOTAL FREE ENERGY PREDICTED BY IDOCK:   -5.54 KCAL/MOL
REMARK 923 INTER-LIGAND FREE ENERGY PREDICTED BY IDOCK:   -5.26 KCAL/MOL
REMARK 924 INTRA-LIGAND FREE ENERGY PREDICTED BY IDOCK:   -0.28 KCAL/MOL
REMARK 927      BINDING AFFINITY PREDICTED BY RF-SCORE:    0.00 PKD
ROOT
HETATM    1  O   UNL     1     -10.399   7.245  70.042  1.00  0.00    -0.204 OA 
HETATM    2  C   UNL     1     -10.785   8.339  69.652  1.00  0.00    -0.194 C  
HETATM    3  C   UNL     1     -10.480   8.807  68.293  1.00  0.00    -0.236 C  
HETATM    4  C   UNL     1     -10.859  10.036  67.908  1.00  0.00    -0.271 C  
HETATM    5  C   UNL     1     -11.587   9.238  70.487  1.00  0.00    -0.266 A  
HETATM    6  O   UNL     1     -11.554  10.918  68.731  1.00  0.00    -0.279 OA 
HETATM    7  C   UNL     1     -11.938  10.486  69.978  1.00  0.00    -0.288 A  
HETATM    8  C   UNL     1     -12.011   8.836  71.756  1.00  0.00    -0.418 A  
HETATM    9  C   UNL     1     -12.724  11.346  70.747  1.00  0.00    -0.343 A  
HETATM   10  C   UNL     1     -12.805   9.692  72.518  1.00  0.00    -0.193 A  
HETATM   11  C   UNL     1     -13.162  10.944  72.013  1.00  0.00    -0.456 A  
ENDROOT
BRANCH   4  12
HETATM   12  C   UNL     1     -10.608  10.527  66.530  1.00  0.00    -0.240 A  
HETATM   13  C   UNL     1      -9.686  10.222  64.287  1.00  0.00    -0.373 A  
HETATM   14  C   UNL     1     -10.970  12.196  64.786  1.00  0.00    -0.356 A  
HETATM   15  C   UNL     1     -11.143  11.753  66.102  1.00  0.00    -0.358 A  
HETATM   16  C   UNL     1      -9.852   9.785  65.604  1.00  0.00    -0.371 A  
HETATM   17  C   UNL     1     -10.254  11.423  63.876  1.00  0.00    -0.415 A  
ENDBRANCH   4  12
TORSDOF 1
ENDMDL
MODEL       66
REMARK 921   NORMALIZED FREE ENERGY PREDICTED BY IDOCK:   -4.99 KCAL/MOL
REMARK 922        TOTAL FREE ENERGY PREDICTED BY IDOCK:   -5.54 KCAL/MOL
REMARK 923 INTER-LIGAND FREE ENERGY PREDICTED BY IDOCK:   -5.28 KCAL/MOL
REMARK 924 INTRA-LIGAND FREE ENERGY PREDICTED BY IDOCK:   -0.26 KCAL/MOL
REMARK 927      BINDING AFFINITY PREDICTED BY RF-SCORE:    0.00 PKD
ROOT
HETATM    1  O   UNL     1      -9.748   7.219  67.644  1.00  0.00    -0.135 OA 
HETATM    2  C   UNL     1     -10.261   8.123  68.290  1.00  0.00    -0.206 C  
HETATM    3  C   UNL     1     -10.457   9.455  67.702  1.00  0.00    -0.328 C  
HETATM    4  C   UNL     1     -10.963  10.448  68.450  1.00  0.00    -0.264 C  
HETATM    5  C   UNL     1     -10.732   7.941  69.666  1.00  0.00    -0.218 A  
HETATM    6  O   UNL     1     -11.338  10.292  69.782  1.00  0.00    -0.247 OA 
HETATM    7  C   UNL     1     -11.256   9.040  70.343  1.00  0.00    -0.241 A  
HETATM    8  C   UNL     1     -10.680   6.683  70.272  1.00  0.00    -0.294 A  
HETATM    9  C   UNL     1     -11.734   8.881  71.644  1.00  0.00    -0.411 A  
HETATM   10  C   UNL     1     -11.168   6.525  71.568  1.00  0.00    -0.322 A  
HETATM   11  C   UNL     1     -11.696   7.622  72.252  1.00  0.00    -0.371 A  
ENDROOT
BRANCH   4  12
HETATM   12  C   UNL     1     -11.218  11.795  67.879  1.00  0.00    -0.331 A  
HETATM   13  C   UNL     1     -11.950  13.235  66.045  1.00  0.00    -0.473 A  
HETATM   14  C   UNL     1     -11.359  14.215  68.163  1.00  0.00    -0.316 A  
HETATM   15  C   UNL     1     -11.059  12.945  68.669  1.00  0.00    -0.307 A  
HETATM   16  C   UNL     1     -11.641  11.968  66.549  1.00  0.00    -0.384 A  
HETATM   17  C   UNL     1     -11.818  14.357  66.856  1.00  0.00    -0.433 A  
ENDBRANCH   4  12
TORSDOF 1
ENDMDL
MODEL       67
REMARK 921   NORMALIZED FREE ENERGY PREDICTED BY IDOCK:   -4.98 KCAL/MOL
REMARK 922        TOTAL FREE ENERGY PREDICTED BY IDOCK:   -5.53 KCAL/MOL
REMARK 923 INTER-LIGAND FREE ENERGY PREDICTED BY IDOCK:   -5.29 KCAL/MOL
REMARK 924 INTRA-LIGAND FREE ENERGY PREDICTED BY IDOCK:   -0.24 KCAL/MOL
REMARK 927      BINDING AFFINITY PREDICTED BY RF-SCORE:    0.00 PKD
ROOT
HETATM    1  O   UNL     1     -11.716  12.478  68.670  1.00  0.00    -0.290 OA 
HETATM    2  C   UNL     1     -11.413  11.823  67.681  1.00  0.00    -0.300 C  
HETATM    3  C   UNL     1     -10.919  10.445  67.810  1.00  0.00    -0.369 C  
HETATM    4  C   UNL     1     -10.533   9.769  66.717  1.00  0.00    -0.189 C  
HETATM    5  C   UNL     1     -11.541  12.346  66.318  1.00  0.00    -0.449 A  
HETATM    6  O   UNL     1     -10.583  10.296  65.429  1.00  0.00    -0.152 OA 
HETATM    7  C   UNL     1     -11.124  11.548  65.255  1.00  0.00    -0.191 A  
HETATM    8  C   UNL     1     -12.097  13.608  66.092  1.00  0.00    -0.477 A  
HETATM    9  C   UNL     1     -11.262  12.017  63.948  1.00  0.00    -0.490 A  
HETATM   10  C   UNL     1     -12.245  14.069  64.785  1.00  0.00    -0.454 A  
HETATM   11  C   UNL     1     -11.829  13.274  63.715  1.00  0.00    -0.522 A  
ENDROOT
BRANCH   4  12
HETATM   12  C   UNL     1     -10.071   8.361  66.801  1.00  0.00    -0.373 A  
HETATM   13  C   UNL     1      -8.288   6.689  66.741  1.00  0.00    -0.115 A  
HETATM   14  C   UNL     1     -10.537   6.010  67.268  1.00  0.00    -0.367 A  
HETATM   15  C   UNL     1     -10.972   7.332  67.121  1.00  0.00    -0.285 A  
HETATM   16  C   UNL     1      -8.727   8.008  66.586  1.00  0.00    -0.153 A  
HETATM   17  C   UNL     1      -9.193   5.693  67.091  1.00  0.00    -0.114 A  
ENDBRANCH   4  12
TORSDOF 1
ENDMDL
MODEL       68
REMARK 921   NORMALIZED FREE ENERGY PREDICTED BY IDOCK:   -4.96 KCAL/MOL
REMARK 922        TOTAL FREE ENERGY PREDICTED BY IDOCK:   -5.51 KCAL/MOL
REMARK 923 INTER-LIGAND FREE ENERGY PREDICTED BY IDOCK:   -5.25 KCAL/MOL
REMARK 924 INTRA-LIGAND FREE ENERGY PREDICTED BY IDOCK:   -0.26 KCAL/MOL
REMARK 927      BINDING AFFINITY PREDICTED BY RF-SCORE:    0.00 PKD
ROOT
HETATM    1  O   UNL     1      -9.022  10.393  64.166  1.00  0.00    -0.196 OA 
HETATM    2  C   UNL     1      -9.718  10.558  65.159  1.00  0.00    -0.282 C  
HETATM    3  C   UNL     1      -9.819   9.518  66.191  1.00  0.00    -0.343 C  
HETATM    4  C   UNL     1     -10.638   9.694  67.240  1.00  0.00    -0.247 C  
HETATM    5  C   UNL     1     -10.470  11.792  65.400  1.00  0.00    -0.317 A  
HETATM    6  O   UNL     1     -11.411  10.837  67.427  1.00  0.00    -0.467 OA 
HETATM    7  C   UNL     1     -11.278  11.872  66.533  1.00  0.00    -0.327 A  
HETATM    8  C   UNL     1     -10.355  12.876  64.525  1.00  0.00    -0.380 A  
HETATM    9  C   UNL     1     -11.981  13.048  66.795  1.00  0.00    -0.434 A  
HETATM   10  C   UNL     1     -11.050  14.054  64.794  1.00  0.00    -0.391 A  
HETATM   11  C   UNL     1     -11.860  14.140  65.928  1.00  0.00    -0.391 A  
ENDROOT
BRANCH   4  12
HETATM   12  C   UNL     1     -10.734   8.686  68.326  1.00  0.00    -0.107 A  
HETATM   13  C   UNL     1     -10.797   6.364  69.087  1.00  0.00    -0.382 A  
HETATM   14  C   UNL     1     -10.782   8.146  70.706  1.00  0.00    -0.242 A  
HETATM   15  C   UNL     1     -10.759   9.088  69.671  1.00  0.00    -0.228 A  
HETATM   16  C   UNL     1     -10.783   7.307  68.055  1.00  0.00    -0.209 A  
HETATM   17  C   UNL     1     -10.787   6.785  70.413  1.00  0.00    -0.306 A  
ENDBRANCH   4  12
TORSDOF 1
ENDMDL
MODEL       69
REMARK 921   NORMALIZED FREE ENERGY PREDICTED BY IDOCK:   -4.93 KCAL/MOL
REMARK 922        TOTAL FREE ENERGY PREDICTED BY IDOCK:   -5.48 KCAL/MOL
REMARK 923 INTER-LIGAND FREE ENERGY PREDICTED BY IDOCK:   -5.21 KCAL/MOL
REMARK 924 INTRA-LIGAND FREE ENERGY PREDICTED BY IDOCK:   -0.27 KCAL/MOL
REMARK 927      BINDING AFFINITY PREDICTED BY RF-SCORE:    0.00 PKD
ROOT
HETATM    1  O   UNL     1     -14.255   9.024  72.528  1.00  0.00    -0.537 OA 
HETATM    2  C   UNL     1     -13.194   8.631  72.061  1.00  0.00    -0.386 C  
HETATM    3  C   UNL     1     -12.710   7.270  72.325  1.00  0.00    -0.017 C  
HETATM    4  C   UNL     1     -11.514   6.882  71.855  1.00  0.00    -0.272 C  
HETATM    5  C   UNL     1     -12.354   9.467  71.199  1.00  0.00    -0.410 A  
HETATM    6  O   UNL     1     -10.682   7.705  71.100  1.00  0.00    -0.225 OA 
HETATM    7  C   UNL     1     -11.137   8.956  70.754  1.00  0.00    -0.261 A  
HETATM    8  C   UNL     1     -12.781  10.740  70.810  1.00  0.00    -0.451 A  
HETATM    9  C   UNL     1     -10.334   9.725  69.910  1.00  0.00    -0.291 A  
HETATM   10  C   UNL     1     -11.983  11.502  69.958  1.00  0.00    -0.435 A  
HETATM   11  C   UNL     1     -10.762  10.994  69.509  1.00  0.00    -0.231 A  
ENDROOT
BRANCH   4  12
HETATM   12  C   UNL     1     -11.011   5.501  72.062  1.00  0.00    -0.276 A  
HETATM   13  C   UNL     1     -10.901   3.441  73.373  1.00  0.00    -0.311 A  
HETATM   14  C   UNL     1      -9.796   3.551  71.237  1.00  0.00    -0.205 A  
HETATM   15  C   UNL     1     -10.221   4.876  71.083  1.00  0.00    -0.261 A  
HETATM   16  C   UNL     1     -11.317   4.767  73.222  1.00  0.00    -0.408 A  
HETATM   17  C   UNL     1     -10.148   2.831  72.375  1.00  0.00    -0.234 A  
ENDBRANCH   4  12
TORSDOF 1
ENDMDL
MODEL       70
REMARK 921   NORMALIZED FREE ENERGY PREDICTED BY IDOCK:   -4.93 KCAL/MOL
REMARK 922        TOTAL FREE ENERGY PREDICTED BY IDOCK:   -5.48 KCAL/MOL
REMARK 923 INTER-LIGAND FREE ENERGY PREDICTED BY IDOCK:   -5.23 KCAL/MOL
REMARK 924 INTRA-LIGAND FREE ENERGY PREDICTED BY IDOCK:   -0.24 KCAL/MOL
REMARK 927      BINDING AFFINITY PREDICTED BY RF-SCORE:    0.00 PKD
ROOT
HETATM    1  O   UNL     1      -9.176   4.172  71.417  1.00  0.00    -0.121 OA 
HETATM    2  C   UNL     1      -9.768   4.964  70.695  1.00  0.00    -0.201 C  
HETATM    3  C   UNL     1     -10.421   6.154  71.256  1.00  0.00    -0.274 C  
HETATM    4  C   UNL     1     -11.118   6.975  70.454  1.00  0.00    -0.287 C  
HETATM    5  C   UNL     1      -9.847   4.800  69.241  1.00  0.00    -0.269 A  
HETATM    6  O   UNL     1     -11.257   6.774  69.083  1.00  0.00    -0.236 OA 
HETATM    7  C   UNL     1     -10.586   5.723  68.504  1.00  0.00    -0.229 A  
HETATM    8  C   UNL     1      -9.171   3.753  68.607  1.00  0.00    -0.216 A  
HETATM    9  C   UNL     1     -10.652   5.600  67.115  1.00  0.00    -0.344 A  
HETATM   10  C   UNL     1      -9.229   3.639  67.219  1.00  0.00    -0.215 A  
HETATM   11  C   UNL     1      -9.968   4.561  66.475  1.00  0.00    -0.263 A  
ENDROOT
BRANCH   4  12
HETATM   12  C   UNL     1     -11.754   8.211  70.975  1.00  0.00    -0.295 A  
HETATM   13  C   UNL     1     -12.050  10.637  70.946  1.00  0.00    -0.489 A  
HETATM   14  C   UNL     1     -13.414   9.290  72.402  1.00  0.00    -0.526 A  
HETATM   15  C   UNL     1     -12.761   8.138  71.952  1.00  0.00    -0.361 A  
HETATM   16  C   UNL     1     -11.392   9.485  70.504  1.00  0.00    -0.343 A  
HETATM   17  C   UNL     1     -13.067  10.537  71.889  1.00  0.00    -0.567 A  
ENDBRANCH   4  12
TORSDOF 1
ENDMDL
MODEL       71
REMARK 921   NORMALIZED FREE ENERGY PREDICTED BY IDOCK:   -4.92 KCAL/MOL
REMARK 922        TOTAL FREE ENERGY PREDICTED BY IDOCK:   -5.47 KCAL/MOL
REMARK 923 INTER-LIGAND FREE ENERGY PREDICTED BY IDOCK:   -5.20 KCAL/MOL
REMARK 924 INTRA-LIGAND FREE ENERGY PREDICTED BY IDOCK:   -0.27 KCAL/MOL
REMARK 927      BINDING AFFINITY PREDICTED BY RF-SCORE:    0.00 PKD
ROOT
HETATM    1  O   UNL     1      -9.950   8.939  69.153  1.00  0.00    -0.179 OA 
HETATM    2  C   UNL     1     -10.543   9.999  69.307  1.00  0.00    -0.227 C  
HETATM    3  C   UNL     1     -10.287  11.143  68.422  1.00  0.00    -0.201 C  
HETATM    4  C   UNL     1     -10.901  12.315  68.650  1.00  0.00    -0.236 C  
HETATM    5  C   UNL     1     -11.551  10.195  70.352  1.00  0.00    -0.396 A  
HETATM    6  O   UNL     1     -11.802  12.520  69.692  1.00  0.00    -0.309 OA 
HETATM    7  C   UNL     1     -12.138  11.451  70.487  1.00  0.00    -0.394 A  
HETATM    8  C   UNL     1     -11.934   9.132  71.176  1.00  0.00    -0.374 A  
HETATM    9  C   UNL     1     -13.120  11.650  71.458  1.00  0.00    -0.405 A  
HETATM   10  C   UNL     1     -12.923   9.331  72.138  1.00  0.00    -0.503 A  
HETATM   11  C   UNL     1     -13.516  10.588  72.278  1.00  0.00    -0.140 A  
ENDROOT
BRANCH   4  12
HETATM   12  C   UNL     1     -10.703  13.480  67.752  1.00  0.00    -0.262 A  
HETATM   13  C   UNL     1     -10.201  14.423  65.553  1.00  0.00    -0.386 A  
HETATM   14  C   UNL     1     -10.803  15.889  67.366  1.00  0.00    -0.291 A  
HETATM   15  C   UNL     1     -10.922  14.786  68.220  1.00  0.00    -0.264 A  
HETATM   16  C   UNL     1     -10.312  13.324  66.410  1.00  0.00    -0.286 A  
HETATM   17  C   UNL     1     -10.456  15.705  66.030  1.00  0.00    -0.343 A  
ENDBRANCH   4  12
TORSDOF 1
ENDMDL
MODEL       72
REMARK 921   NORMALIZED FREE ENERGY PREDICTED BY IDOCK:   -4.90 KCAL/MOL
REMARK 922        TOTAL FREE ENERGY PREDICTED BY IDOCK:   -5.44 KCAL/MOL
REMARK 923 INTER-LIGAND FREE ENERGY PREDICTED BY IDOCK:   -5.18 KCAL/MOL
REMARK 924 INTRA-LIGAND FREE ENERGY PREDICTED BY IDOCK:   -0.26 KCAL/MOL
REMARK 927      BINDING AFFINITY PREDICTED BY RF-SCORE:    0.00 PKD
ROOT
HETATM    1  O   UNL     1      -6.459  15.987  66.839  1.00  0.00    -0.295 OA 
HETATM    2  C   UNL     1      -7.634  16.140  67.146  1.00  0.00    -0.202 C  
HETATM    3  C   UNL     1      -8.391  15.061  67.795  1.00  0.00    -0.158 C  
HETATM    4  C   UNL     1      -9.695  15.229  68.065  1.00  0.00    -0.211 C  
HETATM    5  C   UNL     1      -8.353  17.395  66.915  1.00  0.00    -0.260 A  
HETATM    6  O   UNL     1     -10.396  16.397  67.774  1.00  0.00    -0.270 OA 
HETATM    7  C   UNL     1      -9.704  17.462  67.249  1.00  0.00    -0.267 A  
HETATM    8  C   UNL     1      -7.687  18.509  66.396  1.00  0.00    -0.291 A  
HETATM    9  C   UNL     1     -10.400  18.657  67.062  1.00  0.00    -0.445 A  
HETATM   10  C   UNL     1      -8.382  19.704  66.220  1.00  0.00    -0.372 A  
HETATM   11  C   UNL     1      -9.736  19.778  66.554  1.00  0.00    -0.529 A  
ENDROOT
BRANCH   4  12
HETATM   12  C   UNL     1     -10.483  14.181  68.761  1.00  0.00    -0.249 A  
HETATM   13  C   UNL     1     -12.192  13.510  70.375  1.00  0.00    -0.426 A  
HETATM   14  C   UNL     1     -11.130  11.840  69.004  1.00  0.00    -0.301 A  
HETATM   15  C   UNL     1     -10.345  12.830  68.403  1.00  0.00    -0.248 A  
HETATM   16  C   UNL     1     -11.401  14.496  69.779  1.00  0.00    -0.305 A  
HETATM   17  C   UNL     1     -12.062  12.183  69.980  1.00  0.00    -0.352 A  
ENDBRANCH   4  12
TORSDOF 1
ENDMDL
MODEL       73
REMARK 921   NORMALIZED FREE ENERGY PREDICTED BY IDOCK:   -4.89 KCAL/MOL
REMARK 922        TOTAL FREE ENERGY PREDICTED BY IDOCK:   -5.44 KCAL/MOL
REMARK 923 INTER-LIGAND FREE ENERGY PREDICTED BY IDOCK:   -5.16 KCAL/MOL
REMARK 924 INTRA-LIGAND FREE ENERGY PREDICTED BY IDOCK:   -0.28 KCAL/MOL
REMARK 927      BINDING AFFINITY PREDICTED BY RF-SCORE:    0.00 PKD
ROOT
HETATM    1  O   UNL     1     -10.006   6.262  68.182  1.00  0.00    -0.128 OA 
HETATM    2  C   UNL     1     -10.363   7.371  68.556  1.00  0.00    -0.198 C  
HETATM    3  C   UNL     1     -10.407   8.505  67.622  1.00  0.00    -0.317 C  
HETATM    4  C   UNL     1     -10.741   9.726  68.069  1.00  0.00    -0.247 C  
HETATM    5  C   UNL     1     -10.789   7.642  69.932  1.00  0.00    -0.241 A  
HETATM    6  O   UNL     1     -11.071   9.996  69.395  1.00  0.00    -0.232 OA 
HETATM    7  C   UNL     1     -11.130   8.947  70.282  1.00  0.00    -0.228 A  
HETATM    8  C   UNL     1     -10.876   6.604  70.864  1.00  0.00    -0.297 A  
HETATM    9  C   UNL     1     -11.563   9.220  71.579  1.00  0.00    -0.452 A  
HETATM   10  C   UNL     1     -11.320   6.878  72.157  1.00  0.00    -0.302 A  
HETATM   11  C   UNL     1     -11.664   8.184  72.513  1.00  0.00    -0.457 A  
ENDROOT
BRANCH   4  12
HETATM   12  C   UNL     1     -10.841  10.887  67.149  1.00  0.00    -0.337 A  
HETATM   13  C   UNL     1     -11.473  13.203  66.692  1.00  0.00    -0.389 A  
HETATM   14  C   UNL     1     -10.332  11.926  65.000  1.00  0.00    -0.330 A  
HETATM   15  C   UNL     1     -10.304  10.818  65.853  1.00  0.00    -0.302 A  
HETATM   16  C   UNL     1     -11.452  12.092  67.540  1.00  0.00    -0.403 A  
HETATM   17  C   UNL     1     -10.905  13.122  65.425  1.00  0.00    -0.299 A  
ENDBRANCH   4  12
TORSDOF 1
ENDMDL
MODEL       74
REMARK 921   NORMALIZED FREE ENERGY PREDICTED BY IDOCK:   -4.89 KCAL/MOL
REMARK 922        TOTAL FREE ENERGY PREDICTED BY IDOCK:   -5.44 KCAL/MOL
REMARK 923 INTER-LIGAND FREE ENERGY PREDICTED BY IDOCK:   -5.16 KCAL/MOL
REMARK 924 INTRA-LIGAND FREE ENERGY PREDICTED BY IDOCK:   -0.28 KCAL/MOL
REMARK 927      BINDING AFFINITY PREDICTED BY RF-SCORE:    0.00 PKD
ROOT
HETATM    1  O   UNL     1      -8.778   5.190  69.466  1.00  0.00    -0.097 OA 
HETATM    2  C   UNL     1      -9.543   5.594  70.331  1.00  0.00    -0.170 C  
HETATM    3  C   UNL     1     -10.107   6.949  70.268  1.00  0.00    -0.196 C  
HETATM    4  C   UNL     1     -10.893   7.393  71.261  1.00  0.00    -0.238 C  
HETATM    5  C   UNL     1      -9.964   4.764  71.463  1.00  0.00    -0.263 A  
HETATM    6  O   UNL     1     -11.229   6.628  72.375  1.00  0.00    -0.248 OA 
HETATM    7  C   UNL     1     -10.796   5.325  72.429  1.00  0.00    -0.224 A  
HETATM    8  C   UNL     1      -9.559   3.429  71.553  1.00  0.00    -0.233 A  
HETATM    9  C   UNL     1     -11.231   4.543  73.500  1.00  0.00    -0.388 A  
HETATM   10  C   UNL     1     -10.003   2.647  72.618  1.00  0.00    -0.219 A  
HETATM   11  C   UNL     1     -10.838   3.203  73.589  1.00  0.00    -0.311 A  
ENDROOT
BRANCH   4  12
HETATM   12  C   UNL     1     -11.518   8.739  71.211  1.00  0.00    -0.355 A  
HETATM   13  C   UNL     1     -13.122  10.382  72.049  1.00  0.00    -0.521 A  
HETATM   14  C   UNL     1     -11.574  11.008  70.315  1.00  0.00    -0.414 A  
HETATM   15  C   UNL     1     -11.037   9.716  70.325  1.00  0.00    -0.327 A  
HETATM   16  C   UNL     1     -12.590   9.089  72.051  1.00  0.00    -0.464 A  
HETATM   17  C   UNL     1     -12.607  11.344  71.186  1.00  0.00    -0.490 A  
ENDBRANCH   4  12
TORSDOF 1
ENDMDL
MODEL       75
REMARK 921   NORMALIZED FREE ENERGY PREDICTED BY IDOCK:   -4.88 KCAL/MOL
REMARK 922        TOTAL FREE ENERGY PREDICTED BY IDOCK:   -5.43 KCAL/MOL
REMARK 923 INTER-LIGAND FREE ENERGY PREDICTED BY IDOCK:   -5.19 KCAL/MOL
REMARK 924 INTRA-LIGAND FREE ENERGY PREDICTED BY IDOCK:   -0.24 KCAL/MOL
REMARK 927      BINDING AFFINITY PREDICTED BY RF-SCORE:    0.00 PKD
ROOT
HETATM    1  O   UNL     1     -10.753  11.477  68.289  1.00  0.00    -0.192 OA 
HETATM    2  C   UNL     1     -10.993  12.518  68.886  1.00  0.00    -0.227 C  
HETATM    3  C   UNL     1     -10.444  13.799  68.421  1.00  0.00    -0.256 C  
HETATM    4  C   UNL     1     -10.668  14.918  69.127  1.00  0.00    -0.252 C  
HETATM    5  C   UNL     1     -11.849  12.568  70.074  1.00  0.00    -0.363 A  
HETATM    6  O   UNL     1     -11.419  14.950  70.299  1.00  0.00    -0.252 OA 
HETATM    7  C   UNL     1     -12.026  13.790  70.720  1.00  0.00    -0.240 A  
HETATM    8  C   UNL     1     -12.497  11.417  70.530  1.00  0.00    -0.381 A  
HETATM    9  C   UNL     1     -12.859  13.864  71.836  1.00  0.00    -0.411 A  
HETATM   10  C   UNL     1     -13.338  11.495  71.639  1.00  0.00    -0.262 A  
HETATM   11  C   UNL     1     -13.519  12.717  72.290  1.00  0.00    -0.591 A  
ENDROOT
BRANCH   4  12
HETATM   12  C   UNL     1     -10.168  16.238  68.666  1.00  0.00    -0.254 A  
HETATM   13  C   UNL     1      -8.351  17.840  68.339  1.00  0.00    -0.295 A  
HETATM   14  C   UNL     1     -10.553  18.356  67.515  1.00  0.00    -0.447 A  
HETATM   15  C   UNL     1     -11.027  17.137  68.014  1.00  0.00    -0.229 A  
HETATM   16  C   UNL     1      -8.828  16.627  68.844  1.00  0.00    -0.238 A  
HETATM   17  C   UNL     1      -9.213  18.700  67.667  1.00  0.00    -0.300 A  
ENDBRANCH   4  12
TORSDOF 1
ENDMDL
MODEL       76
REMARK 921   NORMALIZED FREE ENERGY PREDICTED BY IDOCK:   -4.87 KCAL/MOL
REMARK 922        TOTAL FREE ENERGY PREDICTED BY IDOCK:   -5.42 KCAL/MOL
REMARK 923 INTER-LIGAND FREE ENERGY PREDICTED BY IDOCK:   -5.14 KCAL/MOL
REMARK 924 INTRA-LIGAND FREE ENERGY PREDICTED BY IDOCK:   -0.27 KCAL/MOL
REMARK 927      BINDING AFFINITY PREDICTED BY RF-SCORE:    0.00 PKD
ROOT
HETATM    1  O   UNL     1      -9.801   9.298  68.635  1.00  0.00    -0.155 OA 
HETATM    2  C   UNL     1     -10.389   8.868  69.619  1.00  0.00    -0.212 C  
HETATM    3  C   UNL     1     -10.149   7.502  70.104  1.00  0.00    -0.195 C  
HETATM    4  C   UNL     1     -10.852   7.030  71.146  1.00  0.00    -0.237 C  
HETATM    5  C   UNL     1     -11.341   9.675  70.386  1.00  0.00    -0.337 A  
HETATM    6  O   UNL     1     -11.812   7.774  71.826  1.00  0.00    -0.270 OA 
HETATM    7  C   UNL     1     -12.003   9.086  71.461  1.00  0.00    -0.344 A  
HETATM    8  C   UNL     1     -11.557  11.017  70.060  1.00  0.00    -0.427 A  
HETATM    9  C   UNL     1     -12.893   9.846  72.221  1.00  0.00    -0.345 A  
HETATM   10  C   UNL     1     -12.438  11.777  70.828  1.00  0.00    -0.405 A  
HETATM   11  C   UNL     1     -13.104  11.192  71.907  1.00  0.00    -0.513 A  
ENDROOT
BRANCH   4  12
HETATM   12  C   UNL     1     -10.606   5.672  71.694  1.00  0.00    -0.301 A  
HETATM   13  C   UNL     1     -10.803   4.024  73.488  1.00  0.00    -0.336 A  
HETATM   14  C   UNL     1      -9.838   3.376  71.380  1.00  0.00    -0.204 A  
HETATM   15  C   UNL     1     -10.014   4.678  70.898  1.00  0.00    -0.273 A  
HETATM   16  C   UNL     1     -10.970   5.326  73.008  1.00  0.00    -0.354 A  
HETATM   17  C   UNL     1     -10.245   3.047  72.670  1.00  0.00    -0.231 A  
ENDBRANCH   4  12
TORSDOF 1
ENDMDL
MODEL       77
REMARK 921   NORMALIZED FREE ENERGY PREDICTED BY IDOCK:   -4.85 KCAL/MOL
REMARK 922        TOTAL FREE ENERGY PREDICTED BY IDOCK:   -5.39 KCAL/MOL
REMARK 923 INTER-LIGAND FREE ENERGY PREDICTED BY IDOCK:   -5.16 KCAL/MOL
REMARK 924 INTRA-LIGAND FREE ENERGY PREDICTED BY IDOCK:   -0.24 KCAL/MOL
REMARK 927      BINDING AFFINITY PREDICTED BY RF-SCORE:    0.00 PKD
ROOT
HETATM    1  O   UNL     1      -9.362   9.499  70.515  1.00  0.00    -0.252 OA 
HETATM    2  C   UNL     1     -10.094   8.523  70.615  1.00  0.00    -0.192 C  
HETATM    3  C   UNL     1      -9.599   7.174  70.305  1.00  0.00    -0.169 C  
HETATM    4  C   UNL     1     -10.437   6.127  70.360  1.00  0.00    -0.230 C  
HETATM    5  C   UNL     1     -11.485   8.621  71.064  1.00  0.00    -0.324 A  
HETATM    6  O   UNL     1     -11.780   6.234  70.713  1.00  0.00    -0.340 OA 
HETATM    7  C   UNL     1     -12.260   7.464  71.097  1.00  0.00    -0.324 A  
HETATM    8  C   UNL     1     -12.012   9.848  71.476  1.00  0.00    -0.473 A  
HETATM    9  C   UNL     1     -13.579   7.531  71.548  1.00  0.00    -0.439 A  
HETATM   10  C   UNL     1     -13.327   9.911  71.936  1.00  0.00    -0.524 A  
HETATM   11  C   UNL     1     -14.108   8.754  71.973  1.00  0.00    -0.508 A  
ENDROOT
BRANCH   4  12
HETATM   12  C   UNL     1      -9.965   4.744  70.099  1.00  0.00    -0.321 A  
HETATM   13  C   UNL     1      -9.397   2.497  70.876  1.00  0.00    -0.215 A  
HETATM   14  C   UNL     1      -9.336   2.991  68.521  1.00  0.00    -0.243 A  
HETATM   15  C   UNL     1      -9.717   4.311  68.786  1.00  0.00    -0.184 A  
HETATM   16  C   UNL     1      -9.769   3.819  71.140  1.00  0.00    -0.245 A  
HETATM   17  C   UNL     1      -9.189   2.082  69.566  1.00  0.00    -0.176 A  
ENDBRANCH   4  12
TORSDOF 1
ENDMDL
MODEL       78
REMARK 921   NORMALIZED FREE ENERGY PREDICTED BY IDOCK:   -4.83 KCAL/MOL
REMARK 922        TOTAL FREE ENERGY PREDICTED BY IDOCK:   -5.37 KCAL/MOL
REMARK 923 INTER-LIGAND FREE ENERGY PREDICTED BY IDOCK:   -5.10 KCAL/MOL
REMARK 924 INTRA-LIGAND FREE ENERGY PREDICTED BY IDOCK:   -0.27 KCAL/MOL
REMARK 927      BINDING AFFINITY PREDICTED BY RF-SCORE:    0.00 PKD
ROOT
HETATM    1  O   UNL     1      -9.319  16.144  68.132  1.00  0.00    -0.198 OA 
HETATM    2  C   UNL     1      -9.913  15.103  68.381  1.00  0.00    -0.222 C  
HETATM    3  C   UNL     1      -9.697  13.897  67.570  1.00  0.00    -0.232 C  
HETATM    4  C   UNL     1     -10.405  12.785  67.823  1.00  0.00    -0.221 C  
HETATM    5  C   UNL     1     -10.848  14.976  69.503  1.00  0.00    -0.272 A  
HETATM    6  O   UNL     1     -11.350  12.692  68.841  1.00  0.00    -0.260 OA 
HETATM    7  C   UNL     1     -11.518  13.768  69.681  1.00  0.00    -0.237 A  
HETATM    8  C   UNL     1     -11.040  16.039  70.389  1.00  0.00    -0.376 A  
HETATM    9  C   UNL     1     -12.392  13.618  70.758  1.00  0.00    -0.446 A  
HETATM   10  C   UNL     1     -11.905  15.884  71.471  1.00  0.00    -0.536 A  
HETATM   11  C   UNL     1     -12.579  14.674  71.655  1.00  0.00    -0.403 A  
ENDROOT
BRANCH   4  12
HETATM   12  C   UNL     1     -10.184  11.534  67.055  1.00  0.00    -0.244 A  
HETATM   13  C   UNL     1      -9.552  10.372  65.000  1.00  0.00    -0.339 A  
HETATM   14  C   UNL     1     -10.031   9.099  66.986  1.00  0.00    -0.294 A  
HETATM   15  C   UNL     1     -10.302  10.283  67.681  1.00  0.00    -0.264 A  
HETATM   16  C   UNL     1      -9.832  11.553  65.694  1.00  0.00    -0.269 A  
HETATM   17  C   UNL     1      -9.643   9.146  65.650  1.00  0.00    -0.287 A  
ENDBRANCH   4  12
TORSDOF 1
ENDMDL
MODEL       79
REMARK 921   NORMALIZED FREE ENERGY PREDICTED BY IDOCK:   -4.82 KCAL/MOL
REMARK 922        TOTAL FREE ENERGY PREDICTED BY IDOCK:   -5.36 KCAL/MOL
REMARK 923 INTER-LIGAND FREE ENERGY PREDICTED BY IDOCK:   -5.08 KCAL/MOL
REMARK 924 INTRA-LIGAND FREE ENERGY PREDICTED BY IDOCK:   -0.28 KCAL/MOL
REMARK 927      BINDING AFFINITY PREDICTED BY RF-SCORE:    0.00 PKD
ROOT
HETATM    1  O   UNL     1     -11.609   9.660  71.646  1.00  0.00    -0.382 OA 
HETATM    2  C   UNL     1     -11.306   9.671  70.460  1.00  0.00    -0.296 C  
HETATM    3  C   UNL     1     -11.535  10.863  69.633  1.00  0.00    -0.377 C  
HETATM    4  C   UNL     1     -11.254  10.830  68.321  1.00  0.00    -0.297 C  
HETATM    5  C   UNL     1     -10.681   8.524  69.795  1.00  0.00    -0.213 A  
HETATM    6  O   UNL     1     -10.731   9.712  67.675  1.00  0.00    -0.267 OA 
HETATM    7  C   UNL     1     -10.417   8.607  68.430  1.00  0.00    -0.176 A  
HETATM    8  C   UNL     1     -10.332   7.384  70.525  1.00  0.00    -0.220 A  
HETATM    9  C   UNL     1      -9.798   7.537  67.783  1.00  0.00    -0.191 A  
HETATM   10  C   UNL     1      -9.703   6.321  69.878  1.00  0.00    -0.191 A  
HETATM   11  C   UNL     1      -9.436   6.398  68.510  1.00  0.00    -0.120 A  
ENDROOT
BRANCH   4  12
HETATM   12  C   UNL     1     -11.429  12.027  67.461  1.00  0.00    -0.403 A  
HETATM   13  C   UNL     1     -11.624  13.065  65.256  1.00  0.00    -0.361 A  
HETATM   14  C   UNL     1     -11.901  14.411  67.233  1.00  0.00    -0.434 A  
HETATM   15  C   UNL     1     -11.668  13.287  68.033  1.00  0.00    -0.394 A  
HETATM   16  C   UNL     1     -11.383  11.945  66.058  1.00  0.00    -0.375 A  
HETATM   17  C   UNL     1     -11.892  14.296  65.845  1.00  0.00    -0.386 A  
ENDBRANCH   4  12
TORSDOF 1
ENDMDL
MODEL       80
REMARK 921   NORMALIZED FREE ENERGY PREDICTED BY IDOCK:   -4.82 KCAL/MOL
REMARK 922        TOTAL FREE ENERGY PREDICTED BY IDOCK:   -5.36 KCAL/MOL
REMARK 923 INTER-LIGAND FREE ENERGY PREDICTED BY IDOCK:   -5.12 KCAL/MOL
REMARK 924 INTRA-LIGAND FREE ENERGY PREDICTED BY IDOCK:   -0.23 KCAL/MOL
REMARK 927      BINDING AFFINITY PREDICTED BY RF-SCORE:    0.00 PKD
ROOT
HETATM    1  O   UNL     1      -5.698  14.981  67.548  1.00  0.00    -0.326 OA 
HETATM    2  C   UNL     1      -6.751  15.604  67.520  1.00  0.00    -0.191 C  
HETATM    3  C   UNL     1      -7.964  15.012  66.939  1.00  0.00    -0.109 C  
HETATM    4  C   UNL     1      -9.091  15.737  66.862  1.00  0.00    -0.235 C  
HETATM    5  C   UNL     1      -6.885  16.954  68.075  1.00  0.00    -0.155 A  
HETATM    6  O   UNL     1      -9.194  17.048  67.321  1.00  0.00    -0.217 OA 
HETATM    7  C   UNL     1      -8.109  17.608  67.953  1.00  0.00    -0.233 A  
HETATM    8  C   UNL     1      -5.813  17.557  68.738  1.00  0.00    -0.172 A  
HETATM    9  C   UNL     1      -8.265  18.882  68.499  1.00  0.00    -0.388 A  
HETATM   10  C   UNL     1      -5.975  18.826  69.293  1.00  0.00    -0.257 A  
HETATM   11  C   UNL     1      -7.199  19.487  69.174  1.00  0.00    -0.382 A  
ENDROOT
BRANCH   4  12
HETATM   12  C   UNL     1     -10.348  15.160  66.324  1.00  0.00    -0.303 A  
HETATM   13  C   UNL     1     -11.939  14.833  64.497  1.00  0.00    -0.451 A  
HETATM   14  C   UNL     1     -12.277  13.688  66.587  1.00  0.00    -0.437 A  
HETATM   15  C   UNL     1     -11.126  14.291  67.106  1.00  0.00    -0.318 A  
HETATM   16  C   UNL     1     -10.794  15.441  65.020  1.00  0.00    -0.462 A  
HETATM   17  C   UNL     1     -12.675  13.949  65.278  1.00  0.00    -0.485 A  
ENDBRANCH   4  12
TORSDOF 1
ENDMDL
MODEL       81
REMARK 921   NORMALIZED FREE ENERGY PREDICTED BY IDOCK:   -4.80 KCAL/MOL
REMARK 922        TOTAL FREE ENERGY PREDICTED BY IDOCK:   -5.34 KCAL/MOL
REMARK 923 INTER-LIGAND FREE ENERGY PREDICTED BY IDOCK:   -5.09 KCAL/MOL
REMARK 924 INTRA-LIGAND FREE ENERGY PREDICTED BY IDOCK:   -0.26 KCAL/MOL
REMARK 927      BINDING AFFINITY PREDICTED BY RF-SCORE:    0.00 PKD
ROOT
HETATM    1  O   UNL     1     -13.120  13.784  65.146  1.00  0.00    -0.762 OA 
HETATM    2  C   UNL     1     -12.059  13.315  65.537  1.00  0.00    -0.435 C  
HETATM    3  C   UNL     1     -11.388  12.242  64.793  1.00  0.00    -0.371 C  
HETATM    4  C   UNL     1     -10.258  11.700  65.275  1.00  0.00    -0.272 C  
HETATM    5  C   UNL     1     -11.380  13.797  66.743  1.00  0.00    -0.345 A  
HETATM    6  O   UNL     1      -9.656  12.107  66.463  1.00  0.00    -0.216 OA 
HETATM    7  C   UNL     1     -10.203  13.170  67.143  1.00  0.00    -0.244 A  
HETATM    8  C   UNL     1     -11.892  14.883  67.459  1.00  0.00    -0.256 A  
HETATM    9  C   UNL     1      -9.526  13.631  68.273  1.00  0.00    -0.213 A  
HETATM   10  C   UNL     1     -11.209  15.349  68.582  1.00  0.00    -0.312 A  
HETATM   11  C   UNL     1     -10.028  14.725  68.986  1.00  0.00    -0.218 A  
ENDROOT
BRANCH   4  12
HETATM   12  C   UNL     1      -9.526  10.645  64.530  1.00  0.00    -0.313 A  
HETATM   13  C   UNL     1      -8.407   8.474  64.445  1.00  0.00    -0.125 A  
HETATM   14  C   UNL     1      -8.695   9.742  62.420  1.00  0.00    -0.237 A  
HETATM   15  C   UNL     1      -9.325  10.759  63.144  1.00  0.00    -0.336 A  
HETATM   16  C   UNL     1      -9.028   9.496  65.169  1.00  0.00    -0.253 A  
HETATM   17  C   UNL     1      -8.249   8.594  63.069  1.00  0.00    -0.179 A  
ENDBRANCH   4  12
TORSDOF 1
ENDMDL
MODEL       82
REMARK 921   NORMALIZED FREE ENERGY PREDICTED BY IDOCK:   -4.76 KCAL/MOL
REMARK 922        TOTAL FREE ENERGY PREDICTED BY IDOCK:   -5.30 KCAL/MOL
REMARK 923 INTER-LIGAND FREE ENERGY PREDICTED BY IDOCK:   -5.02 KCAL/MOL
REMARK 924 INTRA-LIGAND FREE ENERGY PREDICTED BY IDOCK:   -0.28 KCAL/MOL
REMARK 927      BINDING AFFINITY PREDICTED BY RF-SCORE:    0.00 PKD
ROOT
HETATM    1  O   UNL     1      -9.616   8.890  68.456  1.00  0.00    -0.153 OA 
HETATM    2  C   UNL     1     -10.362   9.650  69.059  1.00  0.00    -0.205 C  
HETATM    3  C   UNL     1     -10.405  11.082  68.734  1.00  0.00    -0.217 C  
HETATM    4  C   UNL     1     -11.183  11.908  69.451  1.00  0.00    -0.211 C  
HETATM    5  C   UNL     1     -11.270   9.194  70.116  1.00  0.00    -0.211 A  
HETATM    6  O   UNL     1     -11.987  11.483  70.506  1.00  0.00    -0.359 OA 
HETATM    7  C   UNL     1     -12.046  10.138  70.784  1.00  0.00    -0.343 A  
HETATM    8  C   UNL     1     -11.372   7.834  70.423  1.00  0.00    -0.219 A  
HETATM    9  C   UNL     1     -12.936   9.720  71.774  1.00  0.00    -0.536 A  
HETATM   10  C   UNL     1     -12.270   7.418  71.405  1.00  0.00    -0.374 A  
HETATM   11  C   UNL     1     -13.051   8.360  72.078  1.00  0.00    -0.379 A  
ENDROOT
BRANCH   4  12
HETATM   12  C   UNL     1     -11.288  13.352  69.125  1.00  0.00    -0.333 A  
HETATM   13  C   UNL     1     -10.759  15.264  67.696  1.00  0.00    -0.282 A  
HETATM   14  C   UNL     1     -12.266  15.547  69.551  1.00  0.00    -0.264 A  
HETATM   15  C   UNL     1     -12.108  14.199  69.889  1.00  0.00    -0.405 A  
HETATM   16  C   UNL     1     -10.594  13.919  68.040  1.00  0.00    -0.252 A  
HETATM   17  C   UNL     1     -11.602  16.075  68.447  1.00  0.00    -0.279 A  
ENDBRANCH   4  12
TORSDOF 1
ENDMDL
MODEL       83
REMARK 921   NORMALIZED FREE ENERGY PREDICTED BY IDOCK:   -4.66 KCAL/MOL
REMARK 922        TOTAL FREE ENERGY PREDICTED BY IDOCK:   -5.19 KCAL/MOL
REMARK 923 INTER-LIGAND FREE ENERGY PREDICTED BY IDOCK:   -4.91 KCAL/MOL
REMARK 924 INTRA-LIGAND FREE ENERGY PREDICTED BY IDOCK:   -0.28 KCAL/MOL
REMARK 927      BINDING AFFINITY PREDICTED BY RF-SCORE:    0.00 PKD
ROOT
HETATM    1  O   UNL     1     -11.011  16.354  70.322  1.00  0.00    -0.343 OA 
HETATM    2  C   UNL     1     -10.842  16.037  69.152  1.00  0.00    -0.281 C  
HETATM    3  C   UNL     1     -10.816  14.625  68.748  1.00  0.00    -0.261 C  
HETATM    4  C   UNL     1     -10.565  14.300  67.470  1.00  0.00    -0.261 C  
HETATM    5  C   UNL     1     -10.679  17.025  68.082  1.00  0.00    -0.374 A  
HETATM    6  O   UNL     1     -10.334  15.240  66.469  1.00  0.00    -0.271 OA 
HETATM    7  C   UNL     1     -10.439  16.574  66.786  1.00  0.00    -0.269 A  
HETATM    8  C   UNL     1     -10.791  18.392  68.356  1.00  0.00     0.152 A  
HETATM    9  C   UNL     1     -10.308  17.498  65.749  1.00  0.00    -0.217 A  
HETATM   10  C   UNL     1     -10.671  19.312  67.316  1.00  0.00    -0.594 A  
HETATM   11  C   UNL     1     -10.431  18.865  66.015  1.00  0.00    -0.507 A  
ENDROOT
BRANCH   4  12
HETATM   12  C   UNL     1     -10.575  12.887  67.014  1.00  0.00    -0.261 A  
HETATM   13  C   UNL     1     -10.088  11.181  65.333  1.00  0.00    -0.317 A  
HETATM   14  C   UNL     1     -10.953  10.521  67.480  1.00  0.00    -0.365 A  
HETATM   15  C   UNL     1     -11.002  11.863  67.875  1.00  0.00    -0.270 A  
HETATM   16  C   UNL     1     -10.146  12.521  65.726  1.00  0.00    -0.278 A  
HETATM   17  C   UNL     1     -10.484  10.181  66.215  1.00  0.00    -0.192 A  
ENDBRANCH   4  12
TORSDOF 1
ENDMDL
MODEL       84
REMARK 921   NORMALIZED FREE ENERGY PREDICTED BY IDOCK:   -4.62 KCAL/MOL
REMARK 922        TOTAL FREE ENERGY PREDICTED BY IDOCK:   -5.15 KCAL/MOL
REMARK 923 INTER-LIGAND FREE ENERGY PREDICTED BY IDOCK:   -4.88 KCAL/MOL
REMARK 924 INTRA-LIGAND FREE ENERGY PREDICTED BY IDOCK:   -0.26 KCAL/MOL
REMARK 927      BINDING AFFINITY PREDICTED BY RF-SCORE:    0.00 PKD
ROOT
HETATM    1  O   UNL     1      -7.656   8.573  64.156  1.00  0.00    -0.109 OA 
HETATM    2  C   UNL     1      -8.579   8.924  64.879  1.00  0.00    -0.172 C  
HETATM    3  C   UNL     1      -9.302  10.178  64.626  1.00  0.00    -0.334 C  
HETATM    4  C   UNL     1     -10.269  10.574  65.469  1.00  0.00    -0.256 C  
HETATM    5  C   UNL     1      -9.039   8.124  66.017  1.00  0.00    -0.218 A  
HETATM    6  O   UNL     1     -10.651   9.848  66.594  1.00  0.00    -0.192 OA 
HETATM    7  C   UNL     1     -10.063   8.626  66.817  1.00  0.00    -0.296 A  
HETATM    8  C   UNL     1      -8.479   6.869  66.275  1.00  0.00    -0.131 A  
HETATM    9  C   UNL     1     -10.533   7.868  67.889  1.00  0.00    -0.261 A  
HETATM   10  C   UNL     1      -8.958   6.109  67.340  1.00  0.00    -0.112 A  
HETATM   11  C   UNL     1      -9.984   6.607  68.145  1.00  0.00    -0.156 A  
ENDROOT
BRANCH   4  12
HETATM   12  C   UNL     1     -11.052  11.810  65.222  1.00  0.00    -0.333 A  
HETATM   13  C   UNL     1     -12.172  13.828  66.030  1.00  0.00    -0.495 A  
HETATM   14  C   UNL     1     -12.036  13.410  63.663  1.00  0.00    -0.513 A  
HETATM   15  C   UNL     1     -11.356  12.213  63.912  1.00  0.00    -0.501 A  
HETATM   16  C   UNL     1     -11.499  12.627  66.277  1.00  0.00    -0.415 A  
HETATM   17  C   UNL     1     -12.431  14.223  64.722  1.00  0.00    -0.390 A  
ENDBRANCH   4  12
TORSDOF 1
ENDMDL
MODEL       85
REMARK 921   NORMALIZED FREE ENERGY PREDICTED BY IDOCK:   -4.60 KCAL/MOL
REMARK 922        TOTAL FREE ENERGY PREDICTED BY IDOCK:   -5.13 KCAL/MOL
REMARK 923 INTER-LIGAND FREE ENERGY PREDICTED BY IDOCK:   -4.84 KCAL/MOL
REMARK 924 INTRA-LIGAND FREE ENERGY PREDICTED BY IDOCK:   -0.28 KCAL/MOL
REMARK 927      BINDING AFFINITY PREDICTED BY RF-SCORE:    0.00 PKD
ROOT
HETATM    1  O   UNL     1      -9.203  10.056  66.682  1.00  0.00    -0.145 OA 
HETATM    2  C   UNL     1      -9.851   9.830  67.695  1.00  0.00    -0.165 C  
HETATM    3  C   UNL     1     -10.524  10.917  68.419  1.00  0.00    -0.206 C  
HETATM    4  C   UNL     1     -11.177  10.655  69.562  1.00  0.00    -0.272 C  
HETATM    5  C   UNL     1     -10.022   8.480  68.239  1.00  0.00    -0.211 A  
HETATM    6  O   UNL     1     -11.271   9.382  70.118  1.00  0.00    -0.242 OA 
HETATM    7  C   UNL     1     -10.733   8.323  69.426  1.00  0.00    -0.151 A  
HETATM    8  C   UNL     1      -9.503   7.372  67.562  1.00  0.00    -0.162 A  
HETATM    9  C   UNL     1     -10.930   7.043  69.946  1.00  0.00    -0.296 A  
HETATM   10  C   UNL     1      -9.710   6.094  68.078  1.00  0.00    -0.122 A  
HETATM   11  C   UNL     1     -10.423   5.930  69.267  1.00  0.00    -0.342 A  
ENDROOT
BRANCH   4  12
HETATM   12  C   UNL     1     -11.907  11.718  70.298  1.00  0.00    -0.382 A  
HETATM   13  C   UNL     1     -12.649  14.035  70.527  1.00  0.00    -0.399 A  
HETATM   14  C   UNL     1     -13.398  12.386  72.111  1.00  0.00    -0.508 A  
HETATM   15  C   UNL     1     -12.652  11.406  71.447  1.00  0.00    -0.439 A  
HETATM   16  C   UNL     1     -11.897  13.057  69.869  1.00  0.00    -0.377 A  
HETATM   17  C   UNL     1     -13.406  13.697  71.642  1.00  0.00    -0.424 A  
ENDBRANCH   4  12
TORSDOF 1
ENDMDL
MODEL       86
REMARK 921   NORMALIZED FREE ENERGY PREDICTED BY IDOCK:   -4.57 KCAL/MOL
REMARK 922        TOTAL FREE ENERGY PREDICTED BY IDOCK:   -5.09 KCAL/MOL
REMARK 923 INTER-LIGAND FREE ENERGY PREDICTED BY IDOCK:   -4.81 KCAL/MOL
REMARK 924 INTRA-LIGAND FREE ENERGY PREDICTED BY IDOCK:   -0.28 KCAL/MOL
REMARK 927      BINDING AFFINITY PREDICTED BY RF-SCORE:    0.00 PKD
ROOT
HETATM    1  O   UNL     1     -10.224  13.185  64.743  1.00  0.00    -0.334 OA 
HETATM    2  C   UNL     1     -10.469  12.716  65.847  1.00  0.00    -0.274 C  
HETATM    3  C   UNL     1     -10.330  11.277  66.105  1.00  0.00    -0.300 C  
HETATM    4  C   UNL     1     -10.665  10.777  67.304  1.00  0.00    -0.274 C  
HETATM    5  C   UNL     1     -10.890  13.545  66.981  1.00  0.00    -0.287 A  
HETATM    6  O   UNL     1     -11.139  11.557  68.356  1.00  0.00    -0.201 OA 
HETATM    7  C   UNL     1     -11.198  12.919  68.187  1.00  0.00    -0.270 A  
HETATM    8  C   UNL     1     -10.952  14.936  66.858  1.00  0.00    -0.327 A  
HETATM    9  C   UNL     1     -11.575  13.692  69.286  1.00  0.00    -0.363 A  
HETATM   10  C   UNL     1     -11.318  15.706  67.960  1.00  0.00    -0.324 A  
HETATM   11  C   UNL     1     -11.627  15.085  69.172  1.00  0.00    -0.333 A  
ENDROOT
BRANCH   4  12
HETATM   12  C   UNL     1     -10.496   9.336  67.617  1.00  0.00    -0.325 A  
HETATM   13  C   UNL     1     -10.608   7.461  69.182  1.00  0.00    -0.213 A  
HETATM   14  C   UNL     1     -10.047   7.053  66.877  1.00  0.00    -0.296 A  
HETATM   15  C   UNL     1     -10.144   8.423  66.609  1.00  0.00    -0.358 A  
HETATM   16  C   UNL     1     -10.697   8.831  68.915  1.00  0.00    -0.114 A  
HETATM   17  C   UNL     1     -10.292   6.572  68.161  1.00  0.00    -0.223 A  
ENDBRANCH   4  12
TORSDOF 1
ENDMDL
MODEL       87
REMARK 921   NORMALIZED FREE ENERGY PREDICTED BY IDOCK:   -4.52 KCAL/MOL
REMARK 922        TOTAL FREE ENERGY PREDICTED BY IDOCK:   -5.05 KCAL/MOL
REMARK 923 INTER-LIGAND FREE ENERGY PREDICTED BY IDOCK:   -4.79 KCAL/MOL
REMARK 924 INTRA-LIGAND FREE ENERGY PREDICTED BY IDOCK:   -0.26 KCAL/MOL
REMARK 927      BINDING AFFINITY PREDICTED BY RF-SCORE:    0.00 PKD
ROOT
HETATM    1  O   UNL     1     -11.678  14.524  68.423  1.00  0.00    -0.308 OA 
HETATM    2  C   UNL     1     -11.386  13.342  68.302  1.00  0.00    -0.300 C  
HETATM    3  C   UNL     1     -10.716  12.850  67.091  1.00  0.00    -0.268 C  
HETATM    4  C   UNL     1     -10.463  11.539  66.952  1.00  0.00    -0.235 C  
HETATM    5  C   UNL     1     -11.658  12.350  69.346  1.00  0.00    -0.371 A  
HETATM    6  O   UNL     1     -10.792  10.587  67.914  1.00  0.00    -0.238 OA 
HETATM    7  C   UNL     1     -11.338  11.016  69.100  1.00  0.00    -0.280 A  
HETATM    8  C   UNL     1     -12.200  12.742  70.573  1.00  0.00    -0.389 A  
HETATM    9  C   UNL     1     -11.563  10.061  70.092  1.00  0.00    -0.320 A  
HETATM   10  C   UNL     1     -12.414  11.788  71.566  1.00  0.00    -0.208 A  
HETATM   11  C   UNL     1     -12.095  10.449  71.326  1.00  0.00    -0.461 A  
ENDROOT
BRANCH   4  12
HETATM   12  C   UNL     1      -9.747  11.010  65.764  1.00  0.00    -0.268 A  
HETATM   13  C   UNL     1      -8.112   9.502  64.751  1.00  0.00    -0.130 A  
HETATM   14  C   UNL     1      -9.466  10.907  63.342  1.00  0.00    -0.339 A  
HETATM   15  C   UNL     1     -10.087  11.447  64.473  1.00  0.00    -0.337 A  
HETATM   16  C   UNL     1      -8.727  10.048  65.881  1.00  0.00    -0.154 A  
HETATM   17  C   UNL     1      -8.489   9.925  63.481  1.00  0.00    -0.183 A  
ENDBRANCH   4  12
TORSDOF 1
ENDMDL
MODEL       88
REMARK 921   NORMALIZED FREE ENERGY PREDICTED BY IDOCK:   -4.52 KCAL/MOL
REMARK 922        TOTAL FREE ENERGY PREDICTED BY IDOCK:   -5.04 KCAL/MOL
REMARK 923 INTER-LIGAND FREE ENERGY PREDICTED BY IDOCK:   -4.78 KCAL/MOL
REMARK 924 INTRA-LIGAND FREE ENERGY PREDICTED BY IDOCK:   -0.27 KCAL/MOL
REMARK 927      BINDING AFFINITY PREDICTED BY RF-SCORE:    0.00 PKD
ROOT
HETATM    1  O   UNL     1     -11.103  10.454  69.749  1.00  0.00    -0.254 OA 
HETATM    2  C   UNL     1     -10.819   9.754  68.786  1.00  0.00    -0.188 C  
HETATM    3  C   UNL     1     -10.474  10.355  67.490  1.00  0.00    -0.292 C  
HETATM    4  C   UNL     1     -10.229   9.567  66.432  1.00  0.00    -0.232 C  
HETATM    5  C   UNL     1     -10.779   8.291  68.858  1.00  0.00    -0.089 A  
HETATM    6  O   UNL     1     -10.267   8.176  66.485  1.00  0.00    -0.279 OA 
HETATM    7  C   UNL     1     -10.497   7.573  67.698  1.00  0.00    -0.250 A  
HETATM    8  C   UNL     1     -10.993   7.635  70.073  1.00  0.00    -0.237 A  
HETATM    9  C   UNL     1     -10.427   6.180  67.752  1.00  0.00    -0.290 A  
HETATM   10  C   UNL     1     -10.912   6.244  70.126  1.00  0.00    -0.411 A  
HETATM   11  C   UNL     1     -10.629   5.519  68.967  1.00  0.00    -0.271 A  
ENDROOT
BRANCH   4  12
HETATM   12  C   UNL     1      -9.833  10.135  65.119  1.00  0.00    -0.394 A  
HETATM   13  C   UNL     1      -8.606   9.990  63.010  1.00  0.00    -0.195 A  
HETATM   14  C   UNL     1     -10.075  11.856  63.404  1.00  0.00    -0.464 A  
HETATM   15  C   UNL     1     -10.389  11.344  64.668  1.00  0.00    -0.362 A  
HETATM   16  C   UNL     1      -8.914   9.485  64.277  1.00  0.00    -0.248 A  
HETATM   17  C   UNL     1      -9.194  11.171  62.571  1.00  0.00    -0.317 A  
ENDBRANCH   4  12
TORSDOF 1
ENDMDL
MODEL       89
REMARK 921   NORMALIZED FREE ENERGY PREDICTED BY IDOCK:   -4.51 KCAL/MOL
REMARK 922        TOTAL FREE ENERGY PREDICTED BY IDOCK:   -5.03 KCAL/MOL
REMARK 923 INTER-LIGAND FREE ENERGY PREDICTED BY IDOCK:   -4.75 KCAL/MOL
REMARK 924 INTRA-LIGAND FREE ENERGY PREDICTED BY IDOCK:   -0.28 KCAL/MOL
REMARK 927      BINDING AFFINITY PREDICTED BY RF-SCORE:    0.00 PKD
ROOT
HETATM    1  O   UNL     1      -7.498  12.302  67.101  1.00  0.00    -0.151 OA 
HETATM    2  C   UNL     1      -8.621  12.061  67.526  1.00  0.00    -0.167 C  
HETATM    3  C   UNL     1      -8.819  11.150  68.661  1.00  0.00    -0.155 C  
HETATM    4  C   UNL     1     -10.063  10.852  69.069  1.00  0.00    -0.196 C  
HETATM    5  C   UNL     1      -9.827  12.672  66.960  1.00  0.00    -0.225 A  
HETATM    6  O   UNL     1     -11.211  11.374  68.479  1.00  0.00    -0.207 OA 
HETATM    7  C   UNL     1     -11.067  12.300  67.473  1.00  0.00    -0.275 A  
HETATM    8  C   UNL     1      -9.728  13.628  65.945  1.00  0.00    -0.206 A  
HETATM    9  C   UNL     1     -12.226  12.890  66.966  1.00  0.00    -0.155 A  
HETATM   10  C   UNL     1     -10.886  14.223  65.448  1.00  0.00    -0.348 A  
HETATM   11  C   UNL     1     -12.133  13.855  65.959  1.00  0.00    -0.465 A  
ENDROOT
BRANCH   4  12
HETATM   12  C   UNL     1     -10.303   9.972  70.240  1.00  0.00    -0.301 A  
HETATM   13  C   UNL     1      -9.481   8.533  72.037  1.00  0.00    -0.364 A  
HETATM   14  C   UNL     1     -11.832   9.027  71.892  1.00  0.00    -0.447 A  
HETATM   15  C   UNL     1     -11.601   9.801  70.749  1.00  0.00    -0.417 A  
HETATM   16  C   UNL     1      -9.253   9.299  70.889  1.00  0.00    -0.300 A  
HETATM   17  C   UNL     1     -10.770   8.405  72.542  1.00  0.00    -0.372 A  
ENDBRANCH   4  12
TORSDOF 1
ENDMDL
MODEL       90
REMARK 921   NORMALIZED FREE ENERGY PREDICTED BY IDOCK:   -4.51 KCAL/MOL
REMARK 922        TOTAL FREE ENERGY PREDICTED BY IDOCK:   -5.03 KCAL/MOL
REMARK 923 INTER-LIGAND FREE ENERGY PREDICTED BY IDOCK:   -4.78 KCAL/MOL
REMARK 924 INTRA-LIGAND FREE ENERGY PREDICTED BY IDOCK:   -0.25 KCAL/MOL
REMARK 927      BINDING AFFINITY PREDICTED BY RF-SCORE:    0.00 PKD
ROOT
HETATM    1  O   UNL     1     -10.908  19.546  66.406  1.00  0.00    -0.418 OA 
HETATM    2  C   UNL     1     -10.069  18.717  66.734  1.00  0.00    -0.369 C  
HETATM    3  C   UNL     1     -10.367  17.280  66.681  1.00  0.00    -0.305 C  
HETATM    4  C   UNL     1      -9.454  16.392  67.106  1.00  0.00    -0.231 C  
HETATM    5  C   UNL     1      -8.721  19.089  67.173  1.00  0.00    -0.305 A  
HETATM    6  O   UNL     1      -8.201  16.753  67.595  1.00  0.00    -0.177 OA 
HETATM    7  C   UNL     1      -7.848  18.082  67.576  1.00  0.00    -0.214 A  
HETATM    8  C   UNL     1      -8.315  20.427  67.158  1.00  0.00    -0.382 A  
HETATM    9  C   UNL     1      -6.552  18.412  67.972  1.00  0.00    -0.210 A  
HETATM   10  C   UNL     1      -7.015  20.753  67.543  1.00  0.00    -0.406 A  
HETATM   11  C   UNL     1      -6.136  19.747  67.948  1.00  0.00    -0.240 A  
ENDROOT
BRANCH   4  12
HETATM   12  C   UNL     1      -9.700  14.930  67.026  1.00  0.00    -0.240 A  
HETATM   13  C   UNL     1     -10.361  12.940  65.771  1.00  0.00    -0.297 A  
HETATM   14  C   UNL     1      -9.577  12.711  68.036  1.00  0.00    -0.213 A  
HETATM   15  C   UNL     1      -9.413  14.098  68.121  1.00  0.00    -0.213 A  
HETATM   16  C   UNL     1     -10.204  14.326  65.861  1.00  0.00    -0.338 A  
HETATM   17  C   UNL     1     -10.038  12.132  66.857  1.00  0.00    -0.222 A  
ENDBRANCH   4  12
TORSDOF 1
ENDMDL
MODEL       91
REMARK 921   NORMALIZED FREE ENERGY PREDICTED BY IDOCK:   -4.50 KCAL/MOL
REMARK 922        TOTAL FREE ENERGY PREDICTED BY IDOCK:   -5.03 KCAL/MOL
REMARK 923 INTER-LIGAND FREE ENERGY PREDICTED BY IDOCK:   -4.77 KCAL/MOL
REMARK 924 INTRA-LIGAND FREE ENERGY PREDICTED BY IDOCK:   -0.26 KCAL/MOL
REMARK 927      BINDING AFFINITY PREDICTED BY RF-SCORE:    0.00 PKD
ROOT
HETATM    1  O   UNL     1     -10.757   8.836  67.093  1.00  0.00    -0.271 OA 
HETATM    2  C   UNL     1     -10.476   9.914  67.600  1.00  0.00    -0.244 C  
HETATM    3  C   UNL     1     -11.384  10.557  68.560  1.00  0.00    -0.320 C  
HETATM    4  C   UNL     1     -11.085  11.769  69.054  1.00  0.00    -0.246 C  
HETATM    5  C   UNL     1      -9.225  10.621  67.311  1.00  0.00    -0.155 A  
HETATM    6  O   UNL     1      -9.931  12.473  68.718  1.00  0.00    -0.145 OA 
HETATM    7  C   UNL     1      -9.012  11.868  67.893  1.00  0.00    -0.179 A  
HETATM    8  C   UNL     1      -8.256  10.039  66.489  1.00  0.00    -0.119 A  
HETATM    9  C   UNL     1      -7.816  12.545  67.652  1.00  0.00    -0.162 A  
HETATM   10  C   UNL     1      -7.057  10.712  66.258  1.00  0.00    -0.137 A  
HETATM   11  C   UNL     1      -6.838  11.962  66.840  1.00  0.00    -0.075 A  
ENDROOT
BRANCH   4  12
HETATM   12  C   UNL     1     -11.954  12.431  70.060  1.00  0.00    -0.372 A  
HETATM   13  C   UNL     1     -13.361  12.343  72.056  1.00  0.00    -0.511 A  
HETATM   14  C   UNL     1     -12.896  14.467  71.022  1.00  0.00    -0.423 A  
HETATM   15  C   UNL     1     -12.133  13.823  70.040  1.00  0.00    -0.416 A  
HETATM   16  C   UNL     1     -12.606  11.701  71.070  1.00  0.00    -0.431 A  
HETATM   17  C   UNL     1     -13.497  13.727  72.037  1.00  0.00    -0.559 A  
ENDBRANCH   4  12
TORSDOF 1
ENDMDL
MODEL       92
REMARK 921   NORMALIZED FREE ENERGY PREDICTED BY IDOCK:   -4.49 KCAL/MOL
REMARK 922        TOTAL FREE ENERGY PREDICTED BY IDOCK:   -5.01 KCAL/MOL
REMARK 923 INTER-LIGAND FREE ENERGY PREDICTED BY IDOCK:   -4.73 KCAL/MOL
REMARK 924 INTRA-LIGAND FREE ENERGY PREDICTED BY IDOCK:   -0.28 KCAL/MOL
REMARK 927      BINDING AFFINITY PREDICTED BY RF-SCORE:    0.00 PKD
ROOT
HETATM    1  O   UNL     1      -8.170   7.132  67.215  1.00  0.00    -0.116 OA 
HETATM    2  C   UNL     1      -8.975   8.053  67.269  1.00  0.00    -0.138 C  
HETATM    3  C   UNL     1      -9.732   8.323  68.499  1.00  0.00    -0.165 C  
HETATM    4  C   UNL     1     -10.655   9.297  68.515  1.00  0.00    -0.183 C  
HETATM    5  C   UNL     1      -9.222   8.953  66.139  1.00  0.00    -0.273 A  
HETATM    6  O   UNL     1     -10.943  10.102  67.415  1.00  0.00    -0.292 OA 
HETATM    7  C   UNL     1     -10.194   9.942  66.273  1.00  0.00    -0.211 A  
HETATM    8  C   UNL     1      -8.476   8.836  64.963  1.00  0.00    -0.193 A  
HETATM    9  C   UNL     1     -10.425  10.827  65.219  1.00  0.00    -0.282 A  
HETATM   10  C   UNL     1      -8.701   9.728  63.916  1.00  0.00    -0.236 A  
HETATM   11  C   UNL     1      -9.673  10.722  64.044  1.00  0.00    -0.367 A  
ENDROOT
BRANCH   4  12
HETATM   12  C   UNL     1     -11.408   9.630  69.750  1.00  0.00    -0.159 A  
HETATM   13  C   UNL     1     -12.899  11.098  71.014  1.00  0.00    -0.424 A  
HETATM   14  C   UNL     1     -12.193   9.008  71.976  1.00  0.00    -0.446 A  
HETATM   15  C   UNL     1     -11.434   8.736  70.833  1.00  0.00    -0.330 A  
HETATM   16  C   UNL     1     -12.132  10.829  69.876  1.00  0.00    -0.410 A  
HETATM   17  C   UNL     1     -12.936  10.182  72.060  1.00  0.00    -0.508 A  
ENDBRANCH   4  12
TORSDOF 1
ENDMDL
MODEL       93
REMARK 921   NORMALIZED FREE ENERGY PREDICTED BY IDOCK:   -4.43 KCAL/MOL
REMARK 922        TOTAL FREE ENERGY PREDICTED BY IDOCK:   -4.95 KCAL/MOL
REMARK 923 INTER-LIGAND FREE ENERGY PREDICTED BY IDOCK:   -4.67 KCAL/MOL
REMARK 924 INTRA-LIGAND FREE ENERGY PREDICTED BY IDOCK:   -0.27 KCAL/MOL
REMARK 927      BINDING AFFINITY PREDICTED BY RF-SCORE:    0.00 PKD
ROOT
HETATM    1  O   UNL     1      -9.898  17.693  68.565  1.00  0.00    -0.309 OA 
HETATM    2  C   UNL     1      -9.480  16.669  68.041  1.00  0.00    -0.224 C  
HETATM    3  C   UNL     1     -10.305  15.919  67.085  1.00  0.00    -0.300 C  
HETATM    4  C   UNL     1      -9.850  14.765  66.571  1.00  0.00    -0.272 C  
HETATM    5  C   UNL     1      -8.140  16.138  68.305  1.00  0.00    -0.153 A  
HETATM    6  O   UNL     1      -8.606  14.222  66.884  1.00  0.00    -0.209 OA 
HETATM    7  C   UNL     1      -7.767  14.938  67.704  1.00  0.00    -0.179 A  
HETATM    8  C   UNL     1      -7.248  16.838  69.122  1.00  0.00    -0.214 A  
HETATM    9  C   UNL     1      -6.486  14.429  67.922  1.00  0.00    -0.175 A  
HETATM   10  C   UNL     1      -5.965  16.333  69.329  1.00  0.00    -0.146 A  
HETATM   11  C   UNL     1      -5.585  15.131  68.729  1.00  0.00    -0.090 A  
ENDROOT
BRANCH   4  12
HETATM   12  C   UNL     1     -10.634  14.002  65.568  1.00  0.00    -0.327 A  
HETATM   13  C   UNL     1     -12.382  13.881  63.864  1.00  0.00    -0.323 A  
HETATM   14  C   UNL     1     -11.005  11.953  64.293  1.00  0.00    -0.411 A  
HETATM   15  C   UNL     1     -10.317  12.663  65.283  1.00  0.00    -0.309 A  
HETATM   16  C   UNL     1     -11.699  14.586  64.860  1.00  0.00    -0.402 A  
HETATM   17  C   UNL     1     -12.028  12.567  63.575  1.00  0.00    -0.629 A  
ENDBRANCH   4  12
TORSDOF 1
ENDMDL
MODEL       94
REMARK 921   NORMALIZED FREE ENERGY PREDICTED BY IDOCK:   -4.41 KCAL/MOL
REMARK 922        TOTAL FREE ENERGY PREDICTED BY IDOCK:   -4.93 KCAL/MOL
REMARK 923 INTER-LIGAND FREE ENERGY PREDICTED BY IDOCK:   -4.70 KCAL/MOL
REMARK 924 INTRA-LIGAND FREE ENERGY PREDICTED BY IDOCK:   -0.23 KCAL/MOL
REMARK 927      BINDING AFFINITY PREDICTED BY RF-SCORE:    0.00 PKD
ROOT
HETATM    1  O   UNL     1     -11.008   9.231  68.754  1.00  0.00    -0.138 OA 
HETATM    2  C   UNL     1     -10.609   9.704  67.698  1.00  0.00    -0.275 C  
HETATM    3  C   UNL     1     -10.931  11.088  67.322  1.00  0.00    -0.356 C  
HETATM    4  C   UNL     1     -10.537  11.566  66.131  1.00  0.00    -0.266 C  
HETATM    5  C   UNL     1      -9.777   8.949  66.758  1.00  0.00    -0.282 A  
HETATM    6  O   UNL     1      -9.812  10.819  65.206  1.00  0.00    -0.235 OA 
HETATM    7  C   UNL     1      -9.413   9.551  65.556  1.00  0.00    -0.268 A  
HETATM    8  C   UNL     1      -9.337   7.661  67.077  1.00  0.00    -0.195 A  
HETATM    9  C   UNL     1      -8.598   8.859  64.659  1.00  0.00    -0.169 A  
HETATM   10  C   UNL     1      -8.514   6.976  66.184  1.00  0.00    -0.136 A  
HETATM   11  C   UNL     1      -8.145   7.575  64.978  1.00  0.00    -0.127 A  
ENDROOT
BRANCH   4  12
HETATM   12  C   UNL     1     -10.803  12.971  65.734  1.00  0.00    -0.292 A  
HETATM   13  C   UNL     1     -10.254  15.352  65.804  1.00  0.00    -0.378 A  
HETATM   14  C   UNL     1     -12.039  14.584  64.382  1.00  0.00    -0.492 A  
HETATM   15  C   UNL     1     -11.822  13.272  64.815  1.00  0.00    -0.411 A  
HETATM   16  C   UNL     1     -10.044  14.041  66.242  1.00  0.00    -0.307 A  
HETATM   17  C   UNL     1     -11.246  15.621  64.867  1.00  0.00    -0.376 A  
ENDBRANCH   4  12
TORSDOF 1
ENDMDL
MODEL       95
REMARK 921   NORMALIZED FREE ENERGY PREDICTED BY IDOCK:   -4.25 KCAL/MOL
REMARK 922        TOTAL FREE ENERGY PREDICTED BY IDOCK:   -4.76 KCAL/MOL
REMARK 923 INTER-LIGAND FREE ENERGY PREDICTED BY IDOCK:   -4.48 KCAL/MOL
REMARK 924 INTRA-LIGAND FREE ENERGY PREDICTED BY IDOCK:   -0.28 KCAL/MOL
REMARK 927      BINDING AFFINITY PREDICTED BY RF-SCORE:    0.00 PKD
ROOT
HETATM    1  O   UNL     1      -9.921  14.728  67.430  1.00  0.00    -0.223 OA 
HETATM    2  C   UNL     1     -10.250  13.590  67.124  1.00  0.00    -0.247 C  
HETATM    3  C   UNL     1      -9.972  12.457  68.017  1.00  0.00    -0.207 C  
HETATM    4  C   UNL     1     -10.285  11.210  67.632  1.00  0.00    -0.181 C  
HETATM    5  C   UNL     1     -10.954  13.280  65.876  1.00  0.00    -0.288 A  
HETATM    6  O   UNL     1     -10.885  10.910  66.412  1.00  0.00    -0.230 OA 
HETATM    7  C   UNL     1     -11.244  11.949  65.586  1.00  0.00    -0.306 A  
HETATM    8  C   UNL     1     -11.351  14.305  65.013  1.00  0.00    -0.365 A  
HETATM    9  C   UNL     1     -11.938  11.636  64.417  1.00  0.00    -0.137 A  
HETATM   10  C   UNL     1     -12.054  13.990  63.851  1.00  0.00    -0.350 A  
HETATM   11  C   UNL     1     -12.347  12.658  63.554  1.00  0.00    -0.591 A  
ENDROOT
BRANCH   4  12
HETATM   12  C   UNL     1     -10.062  10.045  68.525  1.00  0.00    -0.187 A  
HETATM   13  C   UNL     1      -9.397   9.100  70.679  1.00  0.00    -0.312 A  
HETATM   14  C   UNL     1     -10.251   7.650  68.957  1.00  0.00    -0.211 A  
HETATM   15  C   UNL     1     -10.395   8.748  68.102  1.00  0.00    -0.266 A  
HETATM   16  C   UNL     1      -9.532  10.194  69.819  1.00  0.00    -0.201 A  
HETATM   17  C   UNL     1      -9.765   7.829  70.250  1.00  0.00    -0.179 A  
ENDBRANCH   4  12
TORSDOF 1
ENDMDL
MODEL       96
REMARK 921   NORMALIZED FREE ENERGY PREDICTED BY IDOCK:   -4.19 KCAL/MOL
REMARK 922        TOTAL FREE ENERGY PREDICTED BY IDOCK:   -4.70 KCAL/MOL
REMARK 923 INTER-LIGAND FREE ENERGY PREDICTED BY IDOCK:   -4.42 KCAL/MOL
REMARK 924 INTRA-LIGAND FREE ENERGY PREDICTED BY IDOCK:   -0.28 KCAL/MOL
REMARK 927      BINDING AFFINITY PREDICTED BY RF-SCORE:    0.00 PKD
ROOT
HETATM    1  O   UNL     1     -10.749   6.329  66.495  1.00  0.00    -0.212 OA 
HETATM    2  C   UNL     1     -10.578   7.012  67.497  1.00  0.00    -0.280 C  
HETATM    3  C   UNL     1     -10.621   6.412  68.837  1.00  0.00    -0.298 C  
HETATM    4  C   UNL     1     -10.494   7.191  69.922  1.00  0.00    -0.223 C  
HETATM    5  C   UNL     1     -10.300   8.450  67.434  1.00  0.00    -0.355 A  
HETATM    6  O   UNL     1     -10.307   8.570  69.861  1.00  0.00    -0.200 OA 
HETATM    7  C   UNL     1     -10.171   9.158  68.626  1.00  0.00    -0.204 A  
HETATM    8  C   UNL     1     -10.141   9.087  66.200  1.00  0.00    -0.242 A  
HETATM    9  C   UNL     1      -9.879  10.522  68.588  1.00  0.00    -0.183 A  
HETATM   10  C   UNL     1      -9.839  10.448  66.165  1.00  0.00    -0.278 A  
HETATM   11  C   UNL     1      -9.707  11.163  67.357  1.00  0.00    -0.191 A  
ENDROOT
BRANCH   4  12
HETATM   12  C   UNL     1     -10.487   6.617  71.291  1.00  0.00    -0.244 A  
HETATM   13  C   UNL     1     -10.436   4.696  72.803  1.00  0.00    -0.261 A  
HETATM   14  C   UNL     1     -10.352   6.925  73.709  1.00  0.00    -0.409 A  
HETATM   15  C   UNL     1     -10.427   7.455  72.416  1.00  0.00    -0.273 A  
HETATM   16  C   UNL     1     -10.519   5.228  71.512  1.00  0.00    -0.279 A  
HETATM   17  C   UNL     1     -10.343   5.546  73.900  1.00  0.00    -0.285 A  
ENDBRANCH   4  12
TORSDOF 1
ENDMDL
MODEL       97
REMARK 921   NORMALIZED FREE ENERGY PREDICTED BY IDOCK:   -4.18 KCAL/MOL
REMARK 922        TOTAL FREE ENERGY PREDICTED BY IDOCK:   -4.69 KCAL/MOL
REMARK 923 INTER-LIGAND FREE ENERGY PREDICTED BY IDOCK:   -4.44 KCAL/MOL
REMARK 924 INTRA-LIGAND FREE ENERGY PREDICTED BY IDOCK:   -0.25 KCAL/MOL
REMARK 927      BINDING AFFINITY PREDICTED BY RF-SCORE:    0.00 PKD
ROOT
HETATM    1  O   UNL     1      -7.216  10.804  68.960  1.00  0.00    -0.078 OA 
HETATM    2  C   UNL     1      -8.382  10.554  69.237  1.00  0.00    -0.137 C  
HETATM    3  C   UNL     1      -8.720   9.475  70.175  1.00  0.00    -0.258 C  
HETATM    4  C   UNL     1     -10.007   9.177  70.415  1.00  0.00    -0.218 C  
HETATM    5  C   UNL     1      -9.506  11.313  68.683  1.00  0.00    -0.179 A  
HETATM    6  O   UNL     1     -11.074   9.851  69.827  1.00  0.00    -0.239 OA 
HETATM    7  C   UNL     1     -10.802  10.925  69.014  1.00  0.00    -0.230 A  
HETATM    8  C   UNL     1      -9.277  12.421  67.862  1.00  0.00    -0.192 A  
HETATM    9  C   UNL     1     -11.886  11.651  68.518  1.00  0.00    -0.357 A  
HETATM   10  C   UNL     1     -10.360  13.152  67.377  1.00  0.00    -0.239 A  
HETATM   11  C   UNL     1     -11.662  12.768  67.706  1.00  0.00    -0.412 A  
ENDROOT
BRANCH   4  12
HETATM   12  C   UNL     1     -10.389   8.125  71.390  1.00  0.00    -0.258 A  
HETATM   13  C   UNL     1     -11.586   6.070  71.958  1.00  0.00    -0.333 A  
HETATM   14  C   UNL     1     -10.139   7.092  73.588  1.00  0.00    -0.389 A  
HETATM   15  C   UNL     1      -9.838   8.115  72.682  1.00  0.00    -0.364 A  
HETATM   16  C   UNL     1     -11.291   7.098  71.057  1.00  0.00    -0.310 A  
HETATM   17  C   UNL     1     -11.002   6.063  73.220  1.00  0.00    -0.244 A  
ENDBRANCH   4  12
TORSDOF 1
ENDMDL
MODEL       98
REMARK 921   NORMALIZED FREE ENERGY PREDICTED BY IDOCK:   -4.17 KCAL/MOL
REMARK 922        TOTAL FREE ENERGY PREDICTED BY IDOCK:   -4.68 KCAL/MOL
REMARK 923 INTER-LIGAND FREE ENERGY PREDICTED BY IDOCK:   -4.43 KCAL/MOL
REMARK 924 INTRA-LIGAND FREE ENERGY PREDICTED BY IDOCK:   -0.25 KCAL/MOL
REMARK 927      BINDING AFFINITY PREDICTED BY RF-SCORE:    0.00 PKD
ROOT
HETATM    1  O   UNL     1      -6.340  15.968  67.466  1.00  0.00    -0.145 OA 
HETATM    2  C   UNL     1      -7.504  15.699  67.200  1.00  0.00    -0.218 C  
HETATM    3  C   UNL     1      -7.992  14.315  67.261  1.00  0.00    -0.191 C  
HETATM    4  C   UNL     1      -9.255  14.035  66.904  1.00  0.00    -0.260 C  
HETATM    5  C   UNL     1      -8.486  16.722  66.830  1.00  0.00    -0.242 A  
HETATM    6  O   UNL     1     -10.165  15.000  66.478  1.00  0.00    -0.262 OA 
HETATM    7  C   UNL     1      -9.776  16.318  66.493  1.00  0.00    -0.263 A  
HETATM    8  C   UNL     1      -8.140  18.076  66.845  1.00  0.00    -0.255 A  
HETATM    9  C   UNL     1     -10.734  17.278  66.165  1.00  0.00    -0.095 A  
HETATM   10  C   UNL     1      -9.101  19.034  66.527  1.00  0.00    -0.348 A  
HETATM   11  C   UNL     1     -10.396  18.635  66.189  1.00  0.00    -0.481 A  
ENDROOT
BRANCH   4  12
HETATM   12  C   UNL     1      -9.798  12.656  66.995  1.00  0.00    -0.225 A  
HETATM   13  C   UNL     1      -9.796  10.309  66.312  1.00  0.00    -0.276 A  
HETATM   14  C   UNL     1     -11.265  11.033  68.077  1.00  0.00    -0.372 A  
HETATM   15  C   UNL     1     -10.792  12.342  67.936  1.00  0.00    -0.253 A  
HETATM   16  C   UNL     1      -9.331  11.620  66.167  1.00  0.00    -0.237 A  
HETATM   17  C   UNL     1     -10.756  10.015  67.274  1.00  0.00    -0.309 A  
ENDBRANCH   4  12
TORSDOF 1
ENDMDL
MODEL       99
REMARK 921   NORMALIZED FREE ENERGY PREDICTED BY IDOCK:   -4.16 KCAL/MOL
REMARK 922        TOTAL FREE ENERGY PREDICTED BY IDOCK:   -4.67 KCAL/MOL
REMARK 923 INTER-LIGAND FREE ENERGY PREDICTED BY IDOCK:   -4.43 KCAL/MOL
REMARK 924 INTRA-LIGAND FREE ENERGY PREDICTED BY IDOCK:   -0.24 KCAL/MOL
REMARK 927      BINDING AFFINITY PREDICTED BY RF-SCORE:    0.00 PKD
ROOT
HETATM    1  O   UNL     1     -12.105  13.582  68.917  1.00  0.00    -0.341 OA 
HETATM    2  C   UNL     1     -11.373  12.603  68.990  1.00  0.00    -0.292 C  
HETATM    3  C   UNL     1     -10.175  12.491  68.146  1.00  0.00    -0.231 C  
HETATM    4  C   UNL     1      -9.423  11.381  68.198  1.00  0.00    -0.181 C  
HETATM    5  C   UNL     1     -11.620  11.501  69.923  1.00  0.00    -0.387 A  
HETATM    6  O   UNL     1      -9.704  10.301  69.031  1.00  0.00    -0.184 OA 
HETATM    7  C   UNL     1     -10.763  10.403  69.901  1.00  0.00    -0.279 A  
HETATM    8  C   UNL     1     -12.677  11.567  70.835  1.00  0.00    -0.372 A  
HETATM    9  C   UNL     1     -10.964   9.355  70.800  1.00  0.00    -0.371 A  
HETATM   10  C   UNL     1     -12.869  10.524  71.740  1.00  0.00    -0.559 A  
HETATM   11  C   UNL     1     -12.014   9.420  71.723  1.00  0.00    -0.452 A  
ENDROOT
BRANCH   4  12
HETATM   12  C   UNL     1      -8.181  11.249  67.395  1.00  0.00    -0.135 A  
HETATM   13  C   UNL     1      -5.845  11.822  66.964  1.00  0.00    -0.145 A  
HETATM   14  C   UNL     1      -6.929  10.155  65.608  1.00  0.00    -0.125 A  
HETATM   15  C   UNL     1      -8.114  10.336  66.330  1.00  0.00    -0.129 A  
HETATM   16  C   UNL     1      -7.032  12.009  67.678  1.00  0.00    -0.118 A  
HETATM   17  C   UNL     1      -5.792  10.888  65.935  1.00  0.00    -0.130 A  
ENDBRANCH   4  12
TORSDOF 1
ENDMDL
MODEL      100
REMARK 921   NORMALIZED FREE ENERGY PREDICTED BY IDOCK:   -4.16 KCAL/MOL
REMARK 922        TOTAL FREE ENERGY PREDICTED BY IDOCK:   -4.66 KCAL/MOL
REMARK 923 INTER-LIGAND FREE ENERGY PREDICTED BY IDOCK:   -4.38 KCAL/MOL
REMARK 924 INTRA-LIGAND FREE ENERGY PREDICTED BY IDOCK:   -0.28 KCAL/MOL
REMARK 927      BINDING AFFINITY PREDICTED BY RF-SCORE:    0.00 PKD
ROOT
HETATM    1  O   UNL     1     -11.724  10.618  71.130  1.00  0.00    -0.305 OA 
HETATM    2  C   UNL     1     -11.361  10.147  70.060  1.00  0.00    -0.287 C  
HETATM    3  C   UNL     1     -10.958   8.738  69.954  1.00  0.00    -0.184 C  
HETATM    4  C   UNL     1     -10.503   8.260  68.785  1.00  0.00    -0.177 C  
HETATM    5  C   UNL     1     -11.323  10.932  68.823  1.00  0.00    -0.357 A  
HETATM    6  O   UNL     1     -10.395   9.029  67.629  1.00  0.00    -0.226 OA 
HETATM    7  C   UNL     1     -10.847  10.327  67.662  1.00  0.00    -0.307 A  
HETATM    8  C   UNL     1     -11.784  12.251  68.806  1.00  0.00    -0.390 A  
HETATM    9  C   UNL     1     -10.828  11.049  66.468  1.00  0.00    -0.269 A  
HETATM   10  C   UNL     1     -11.775  12.967  67.610  1.00  0.00    -0.422 A  
HETATM   11  C   UNL     1     -11.299  12.365  66.443  1.00  0.00    -0.392 A  
ENDROOT
BRANCH   4  12
HETATM   12  C   UNL     1     -10.129   6.832  68.626  1.00  0.00    -0.163 A  
HETATM   13  C   UNL     1     -10.103   4.526  69.438  1.00  0.00    -0.124 A  
HETATM   14  C   UNL     1      -9.216   5.029  67.257  1.00  0.00    -0.127 A  
HETATM   15  C   UNL     1      -9.513   6.383  67.446  1.00  0.00    -0.123 A  
HETATM   16  C   UNL     1     -10.391   5.881  69.629  1.00  0.00    -0.313 A  
HETATM   17  C   UNL     1      -9.524   4.100  68.247  1.00  0.00    -0.213 A  
ENDBRANCH   4  12
TORSDOF 1
ENDMDL
MODEL      101
REMARK 921   NORMALIZED FREE ENERGY PREDICTED BY IDOCK:   -4.15 KCAL/MOL
REMARK 922        TOTAL FREE ENERGY PREDICTED BY IDOCK:   -4.65 KCAL/MOL
REMARK 923 INTER-LIGAND FREE ENERGY PREDICTED BY IDOCK:   -4.38 KCAL/MOL
REMARK 924 INTRA-LIGAND FREE ENERGY PREDICTED BY IDOCK:   -0.27 KCAL/MOL
REMARK 927      BINDING AFFINITY PREDICTED BY RF-SCORE:    0.00 PKD
ROOT
HETATM    1  O   UNL     1      -7.662   9.590  67.470  1.00  0.00    -0.094 OA 
HETATM    2  C   UNL     1      -8.652   9.111  68.008  1.00  0.00    -0.125 C  
HETATM    3  C   UNL     1      -9.541   9.942  68.830  1.00  0.00    -0.160 C  
HETATM    4  C   UNL     1     -10.585   9.382  69.461  1.00  0.00    -0.222 C  
HETATM    5  C   UNL     1      -9.031   7.703  67.854  1.00  0.00    -0.128 A  
HETATM    6  O   UNL     1     -10.898   8.028  69.376  1.00  0.00    -0.199 OA 
HETATM    7  C   UNL     1     -10.146   7.233  68.544  1.00  0.00    -0.172 A  
HETATM    8  C   UNL     1      -8.303   6.861  67.009  1.00  0.00    -0.121 A  
HETATM    9  C   UNL     1     -10.539   5.903  68.391  1.00  0.00    -0.314 A  
HETATM   10  C   UNL     1      -8.704   5.536  66.849  1.00  0.00    -0.112 A  
HETATM   11  C   UNL     1      -9.821   5.058  67.538  1.00  0.00    -0.201 A  
ENDROOT
BRANCH   4  12
HETATM   12  C   UNL     1     -11.532  10.196  70.264  1.00  0.00    -0.381 A  
HETATM   13  C   UNL     1     -13.186  10.407  72.051  1.00  0.00    -0.497 A  
HETATM   14  C   UNL     1     -12.460  12.372  70.867  1.00  0.00    -0.367 A  
HETATM   15  C   UNL     1     -11.620  11.585  70.071  1.00  0.00    -0.364 A  
HETATM   16  C   UNL     1     -12.353   9.620  71.250  1.00  0.00    -0.449 A  
HETATM   17  C   UNL     1     -13.232  11.784  71.865  1.00  0.00    -0.468 A  
ENDBRANCH   4  12
TORSDOF 1
ENDMDL
MODEL      102
REMARK 921   NORMALIZED FREE ENERGY PREDICTED BY IDOCK:   -4.11 KCAL/MOL
REMARK 922        TOTAL FREE ENERGY PREDICTED BY IDOCK:   -4.60 KCAL/MOL
REMARK 923 INTER-LIGAND FREE ENERGY PREDICTED BY IDOCK:   -4.33 KCAL/MOL
REMARK 924 INTRA-LIGAND FREE ENERGY PREDICTED BY IDOCK:   -0.28 KCAL/MOL
REMARK 927      BINDING AFFINITY PREDICTED BY RF-SCORE:    0.00 PKD
ROOT
HETATM    1  O   UNL     1     -11.002   8.051  70.027  1.00  0.00    -0.249 OA 
HETATM    2  C   UNL     1     -10.805   8.954  69.224  1.00  0.00    -0.096 C  
HETATM    3  C   UNL     1     -10.197   8.681  67.915  1.00  0.00    -0.273 C  
HETATM    4  C   UNL     1      -9.932   9.696  67.077  1.00  0.00    -0.206 C  
HETATM    5  C   UNL     1     -11.177  10.345  69.494  1.00  0.00    -0.325 A  
HETATM    6  O   UNL     1     -10.216  11.027  67.369  1.00  0.00    -0.185 OA 
HETATM    7  C   UNL     1     -10.868  11.316  68.544  1.00  0.00    -0.205 A  
HETATM    8  C   UNL     1     -11.853  10.683  70.670  1.00  0.00    -0.463 A  
HETATM    9  C   UNL     1     -11.238  12.642  68.770  1.00  0.00    -0.325 A  
HETATM   10  C   UNL     1     -12.231  12.007  70.889  1.00  0.00    -0.325 A  
HETATM   11  C   UNL     1     -11.925  12.984  69.939  1.00  0.00    -0.381 A  
ENDROOT
BRANCH   4  12
HETATM   12  C   UNL     1      -9.359   9.456  65.729  1.00  0.00    -0.301 A  
HETATM   13  C   UNL     1      -8.264   8.000  64.099  1.00  0.00    -0.060 A  
HETATM   14  C   UNL     1      -8.969  10.205  63.438  1.00  0.00    -0.263 A  
HETATM   15  C   UNL     1      -9.446  10.442  64.732  1.00  0.00    -0.329 A  
HETATM   16  C   UNL     1      -8.733   8.242  65.394  1.00  0.00    -0.147 A  
HETATM   17  C   UNL     1      -8.392   8.978  63.119  1.00  0.00    -0.195 A  
ENDBRANCH   4  12
TORSDOF 1
ENDMDL
MODEL      103
REMARK 921   NORMALIZED FREE ENERGY PREDICTED BY IDOCK:   -4.08 KCAL/MOL
REMARK 922        TOTAL FREE ENERGY PREDICTED BY IDOCK:   -4.58 KCAL/MOL
REMARK 923 INTER-LIGAND FREE ENERGY PREDICTED BY IDOCK:   -4.35 KCAL/MOL
REMARK 924 INTRA-LIGAND FREE ENERGY PREDICTED BY IDOCK:   -0.23 KCAL/MOL
REMARK 927      BINDING AFFINITY PREDICTED BY RF-SCORE:    0.00 PKD
ROOT
HETATM    1  O   UNL     1      -7.379  12.013  68.413  1.00  0.00    -0.083 OA 
HETATM    2  C   UNL     1      -8.531  11.618  68.289  1.00  0.00    -0.160 C  
HETATM    3  C   UNL     1      -8.931  10.292  68.778  1.00  0.00    -0.155 C  
HETATM    4  C   UNL     1     -10.184   9.855  68.575  1.00  0.00    -0.177 C  
HETATM    5  C   UNL     1      -9.583  12.433  67.676  1.00  0.00    -0.193 A  
HETATM    6  O   UNL     1     -11.162  10.602  67.923  1.00  0.00    -0.289 OA 
HETATM    7  C   UNL     1     -10.854  11.883  67.530  1.00  0.00    -0.238 A  
HETATM    8  C   UNL     1      -9.319  13.745  67.274  1.00  0.00    -0.239 A  
HETATM    9  C   UNL     1     -11.877  12.652  66.974  1.00  0.00    -0.415 A  
HETATM   10  C   UNL     1     -10.346  14.516  66.728  1.00  0.00    -0.269 A  
HETATM   11  C   UNL     1     -11.622  13.970  66.580  1.00  0.00    -0.389 A  
ENDROOT
BRANCH   4  12
HETATM   12  C   UNL     1     -10.639   8.540  69.093  1.00  0.00    -0.188 A  
HETATM   13  C   UNL     1     -11.000   6.140  68.809  1.00  0.00    -0.421 A  
HETATM   14  C   UNL     1     -11.438   7.163  70.943  1.00  0.00    -0.333 A  
HETATM   15  C   UNL     1     -11.069   8.409  70.424  1.00  0.00    -0.240 A  
HETATM   16  C   UNL     1     -10.640   7.387  68.289  1.00  0.00    -0.204 A  
HETATM   17  C   UNL     1     -11.390   6.027  70.139  1.00  0.00    -0.351 A  
ENDBRANCH   4  12
TORSDOF 1
ENDMDL
MODEL      104
REMARK 921   NORMALIZED FREE ENERGY PREDICTED BY IDOCK:   -4.07 KCAL/MOL
REMARK 922        TOTAL FREE ENERGY PREDICTED BY IDOCK:   -4.57 KCAL/MOL
REMARK 923 INTER-LIGAND FREE ENERGY PREDICTED BY IDOCK:   -4.29 KCAL/MOL
REMARK 924 INTRA-LIGAND FREE ENERGY PREDICTED BY IDOCK:   -0.28 KCAL/MOL
REMARK 927      BINDING AFFINITY PREDICTED BY RF-SCORE:    0.00 PKD
ROOT
HETATM    1  O   UNL     1      -9.230   9.659  65.090  1.00  0.00    -0.214 OA 
HETATM    2  C   UNL     1      -9.362  10.801  65.512  1.00  0.00    -0.207 C  
HETATM    3  C   UNL     1      -8.505  11.312  66.589  1.00  0.00    -0.168 C  
HETATM    4  C   UNL     1      -8.710  12.545  67.079  1.00  0.00    -0.205 C  
HETATM    5  C   UNL     1     -10.353  11.734  64.967  1.00  0.00    -0.325 A  
HETATM    6  O   UNL     1      -9.704  13.402  66.611  1.00  0.00    -0.260 OA 
HETATM    7  C   UNL     1     -10.469  12.996  65.543  1.00  0.00    -0.285 A  
HETATM    8  C   UNL     1     -11.143  11.369  63.873  1.00  0.00    -0.410 A  
HETATM    9  C   UNL     1     -11.387  13.909  65.021  1.00  0.00    -0.336 A  
HETATM   10  C   UNL     1     -12.052  12.286  63.347  1.00  0.00    -0.615 A  
HETATM   11  C   UNL     1     -12.172  13.554  63.920  1.00  0.00    -0.458 A  
ENDROOT
BRANCH   4  12
HETATM   12  C   UNL     1      -7.837  13.114  68.135  1.00  0.00    -0.145 A  
HETATM   13  C   UNL     1      -6.142  12.853  69.877  1.00  0.00    -0.126 A  
HETATM   14  C   UNL     1      -6.923  15.056  69.300  1.00  0.00    -0.156 A  
HETATM   15  C   UNL     1      -7.791  14.501  68.352  1.00  0.00    -0.135 A  
HETATM   16  C   UNL     1      -7.017  12.300  68.937  1.00  0.00    -0.098 A  
HETATM   17  C   UNL     1      -6.090  14.232  70.052  1.00  0.00    -0.150 A  
ENDBRANCH   4  12
TORSDOF 1
ENDMDL
MODEL      105
REMARK 921   NORMALIZED FREE ENERGY PREDICTED BY IDOCK:   -4.06 KCAL/MOL
REMARK 922        TOTAL FREE ENERGY PREDICTED BY IDOCK:   -4.56 KCAL/MOL
REMARK 923 INTER-LIGAND FREE ENERGY PREDICTED BY IDOCK:   -4.32 KCAL/MOL
REMARK 924 INTRA-LIGAND FREE ENERGY PREDICTED BY IDOCK:   -0.24 KCAL/MOL
REMARK 927      BINDING AFFINITY PREDICTED BY RF-SCORE:    0.00 PKD
ROOT
HETATM    1  O   UNL     1     -11.479  11.747  63.387  1.00  0.00    -0.402 OA 
HETATM    2  C   UNL     1     -11.008  11.389  64.459  1.00  0.00    -0.277 C  
HETATM    3  C   UNL     1     -10.121  10.221  64.541  1.00  0.00    -0.286 C  
HETATM    4  C   UNL     1      -9.668   9.808  65.735  1.00  0.00    -0.273 C  
HETATM    5  C   UNL     1     -11.271  12.099  65.713  1.00  0.00    -0.384 A  
HETATM    6  O   UNL     1      -9.982  10.440  66.936  1.00  0.00    -0.190 OA 
HETATM    7  C   UNL     1     -10.736  11.589  66.894  1.00  0.00    -0.263 A  
HETATM    8  C   UNL     1     -12.021  13.278  65.717  1.00  0.00    -0.463 A  
HETATM    9  C   UNL     1     -10.952  12.265  68.095  1.00  0.00    -0.269 A  
HETATM   10  C   UNL     1     -12.226  13.958  66.917  1.00  0.00    -0.415 A  
HETATM   11  C   UNL     1     -11.691  13.452  68.103  1.00  0.00    -0.397 A  
ENDROOT
BRANCH   4  12
HETATM   12  C   UNL     1      -8.734   8.661  65.855  1.00  0.00    -0.201 A  
HETATM   13  C   UNL     1      -8.264   6.343  66.475  1.00  0.00    -0.113 A  
HETATM   14  C   UNL     1      -6.551   7.662  65.416  1.00  0.00    -0.045 A  
HETATM   15  C   UNL     1      -7.420   8.757  65.369  1.00  0.00    -0.086 A  
HETATM   16  C   UNL     1      -9.128   7.442  66.435  1.00  0.00    -0.196 A  
HETATM   17  C   UNL     1      -6.978   6.452  65.956  1.00  0.00    -0.062 A  
ENDBRANCH   4  12
TORSDOF 1
ENDMDL
MODEL      106
REMARK 921   NORMALIZED FREE ENERGY PREDICTED BY IDOCK:   -4.06 KCAL/MOL
REMARK 922        TOTAL FREE ENERGY PREDICTED BY IDOCK:   -4.55 KCAL/MOL
REMARK 923 INTER-LIGAND FREE ENERGY PREDICTED BY IDOCK:   -4.32 KCAL/MOL
REMARK 924 INTRA-LIGAND FREE ENERGY PREDICTED BY IDOCK:   -0.23 KCAL/MOL
REMARK 927      BINDING AFFINITY PREDICTED BY RF-SCORE:    0.00 PKD
ROOT
HETATM    1  O   UNL     1     -10.210  12.468  63.608  1.00  0.00    -0.411 OA 
HETATM    2  C   UNL     1     -10.001  12.211  64.786  1.00  0.00    -0.200 C  
HETATM    3  C   UNL     1     -10.417  13.138  65.847  1.00  0.00    -0.288 C  
HETATM    4  C   UNL     1     -10.120  12.866  67.127  1.00  0.00    -0.243 C  
HETATM    5  C   UNL     1      -9.353  10.970  65.221  1.00  0.00    -0.245 A  
HETATM    6  O   UNL     1      -9.435  11.723  67.531  1.00  0.00    -0.170 OA 
HETATM    7  C   UNL     1      -9.108  10.785  66.580  1.00  0.00    -0.165 A  
HETATM    8  C   UNL     1      -9.014   9.984  64.291  1.00  0.00    -0.269 A  
HETATM    9  C   UNL     1      -8.517   9.600  67.017  1.00  0.00    -0.124 A  
HETATM   10  C   UNL     1      -8.434   8.795  64.731  1.00  0.00    -0.179 A  
HETATM   11  C   UNL     1      -8.187   8.604  66.092  1.00  0.00    -0.121 A  
ENDROOT
BRANCH   4  12
HETATM   12  C   UNL     1     -10.562  13.755  68.231  1.00  0.00    -0.262 A  
HETATM   13  C   UNL     1     -10.241  15.716  69.655  1.00  0.00    -0.291 A  
HETATM   14  C   UNL     1     -12.256  14.415  69.860  1.00  0.00    -0.394 A  
HETATM   15  C   UNL     1     -11.798  13.545  68.864  1.00  0.00    -0.384 A  
HETATM   16  C   UNL     1      -9.781  14.840  68.666  1.00  0.00    -0.225 A  
HETATM   17  C   UNL     1     -11.483  15.508  70.244  1.00  0.00    -0.352 A  
ENDBRANCH   4  12
TORSDOF 1
ENDMDL
MODEL      107
REMARK 921   NORMALIZED FREE ENERGY PREDICTED BY IDOCK:   -4.06 KCAL/MOL
REMARK 922        TOTAL FREE ENERGY PREDICTED BY IDOCK:   -4.55 KCAL/MOL
REMARK 923 INTER-LIGAND FREE ENERGY PREDICTED BY IDOCK:   -4.30 KCAL/MOL
REMARK 924 INTRA-LIGAND FREE ENERGY PREDICTED BY IDOCK:   -0.25 KCAL/MOL
REMARK 927      BINDING AFFINITY PREDICTED BY RF-SCORE:    0.00 PKD
ROOT
HETATM    1  O   UNL     1     -10.625  18.409  67.821  1.00  0.00    -0.409 OA 
HETATM    2  C   UNL     1      -9.806  17.599  67.407  1.00  0.00    -0.305 C  
HETATM    3  C   UNL     1     -10.238  16.364  66.738  1.00  0.00    -0.285 C  
HETATM    4  C   UNL     1      -9.325  15.460  66.349  1.00  0.00    -0.299 C  
HETATM    5  C   UNL     1      -8.361  17.806  67.525  1.00  0.00    -0.227 A  
HETATM    6  O   UNL     1      -7.954  15.625  66.532  1.00  0.00    -0.223 OA 
HETATM    7  C   UNL     1      -7.503  16.806  67.072  1.00  0.00    -0.201 A  
HETATM    8  C   UNL     1      -7.856  18.997  68.055  1.00  0.00    -0.319 A  
HETATM    9  C   UNL     1      -6.123  16.996  67.150  1.00  0.00    -0.199 A  
HETATM   10  C   UNL     1      -6.477  19.189  68.122  1.00  0.00    -0.249 A  
HETATM   11  C   UNL     1      -5.612  18.191  67.669  1.00  0.00    -0.150 A  
ENDROOT
BRANCH   4  12
HETATM   12  C   UNL     1      -9.718  14.222  65.630  1.00  0.00    -0.238 A  
HETATM   13  C   UNL     1      -9.744  11.787  65.426  1.00  0.00    -0.242 A  
HETATM   14  C   UNL     1     -10.968  13.126  63.844  1.00  0.00    -0.308 A  
HETATM   15  C   UNL     1     -10.537  14.289  64.491  1.00  0.00    -0.232 A  
HETATM   16  C   UNL     1      -9.307  12.950  66.066  1.00  0.00    -0.036 A  
HETATM   17  C   UNL     1     -10.583  11.875  64.320  1.00  0.00    -0.381 A  
ENDBRANCH   4  12
TORSDOF 1
ENDMDL
MODEL      108
REMARK 921   NORMALIZED FREE ENERGY PREDICTED BY IDOCK:   -4.05 KCAL/MOL
REMARK 922        TOTAL FREE ENERGY PREDICTED BY IDOCK:   -4.55 KCAL/MOL
REMARK 923 INTER-LIGAND FREE ENERGY PREDICTED BY IDOCK:   -4.28 KCAL/MOL
REMARK 924 INTRA-LIGAND FREE ENERGY PREDICTED BY IDOCK:   -0.27 KCAL/MOL
REMARK 927      BINDING AFFINITY PREDICTED BY RF-SCORE:    0.00 PKD
ROOT
HETATM    1  O   UNL     1     -10.615  11.967  66.232  1.00  0.00    -0.237 OA 
HETATM    2  C   UNL     1     -10.202  11.262  67.144  1.00  0.00    -0.201 C  
HETATM    3  C   UNL     1     -11.077  10.886  68.263  1.00  0.00    -0.324 C  
HETATM    4  C   UNL     1     -10.584  10.165  69.283  1.00  0.00    -0.230 C  
HETATM    5  C   UNL     1      -8.837  10.731  67.175  1.00  0.00    -0.135 A  
HETATM    6  O   UNL     1      -9.264   9.727  69.347  1.00  0.00    -0.178 OA 
HETATM    7  C   UNL     1      -8.437   9.980  68.278  1.00  0.00    -0.111 A  
HETATM    8  C   UNL     1      -7.966  10.952  66.105  1.00  0.00    -0.155 A  
HETATM    9  C   UNL     1      -7.150   9.442  68.314  1.00  0.00    -0.076 A  
HETATM   10  C   UNL     1      -6.684  10.404  66.138  1.00  0.00    -0.117 A  
HETATM   11  C   UNL     1      -6.278   9.650  67.241  1.00  0.00    -0.067 A  
ENDROOT
BRANCH   4  12
HETATM   12  C   UNL     1     -11.447   9.727  70.409  1.00  0.00    -0.347 A  
HETATM   13  C   UNL     1     -11.894   8.263  72.314  1.00  0.00    -0.451 A  
HETATM   14  C   UNL     1     -13.410  10.066  71.820  1.00  0.00    -0.492 A  
HETATM   15  C   UNL     1     -12.624  10.428  70.720  1.00  0.00    -0.462 A  
HETATM   16  C   UNL     1     -11.114   8.621  71.210  1.00  0.00    -0.336 A  
HETATM   17  C   UNL     1     -13.037   8.992  72.624  1.00  0.00    -0.358 A  
ENDBRANCH   4  12
TORSDOF 1
ENDMDL
MODEL      109
REMARK 921   NORMALIZED FREE ENERGY PREDICTED BY IDOCK:   -4.05 KCAL/MOL
REMARK 922        TOTAL FREE ENERGY PREDICTED BY IDOCK:   -4.55 KCAL/MOL
REMARK 923 INTER-LIGAND FREE ENERGY PREDICTED BY IDOCK:   -4.29 KCAL/MOL
REMARK 924 INTRA-LIGAND FREE ENERGY PREDICTED BY IDOCK:   -0.26 KCAL/MOL
REMARK 927      BINDING AFFINITY PREDICTED BY RF-SCORE:    0.00 PKD
ROOT
HETATM    1  O   UNL     1     -10.750  11.594  65.929  1.00  0.00    -0.263 OA 
HETATM    2  C   UNL     1     -10.390  10.509  66.367  1.00  0.00    -0.221 C  
HETATM    3  C   UNL     1     -10.810  10.056  67.700  1.00  0.00    -0.336 C  
HETATM    4  C   UNL     1     -10.352   8.891  68.185  1.00  0.00    -0.212 C  
HETATM    5  C   UNL     1      -9.549   9.586  65.599  1.00  0.00    -0.346 A  
HETATM    6  O   UNL     1      -9.490   8.052  67.483  1.00  0.00    -0.141 OA 
HETATM    7  C   UNL     1      -9.146   8.395  66.197  1.00  0.00    -0.189 A  
HETATM    8  C   UNL     1      -9.185   9.887  64.283  1.00  0.00    -0.317 A  
HETATM    9  C   UNL     1      -8.367   7.491  65.473  1.00  0.00    -0.137 A  
HETATM   10  C   UNL     1      -8.417   8.978  63.558  1.00  0.00    -0.173 A  
HETATM   11  C   UNL     1      -8.010   7.781  64.152  1.00  0.00    -0.113 A  
ENDROOT
BRANCH   4  12
HETATM   12  C   UNL     1     -10.788   8.378  69.508  1.00  0.00    -0.126 A  
HETATM   13  C   UNL     1     -11.299   8.727  71.872  1.00  0.00    -0.431 A  
HETATM   14  C   UNL     1     -11.684   6.568  70.879  1.00  0.00    -0.416 A  
HETATM   15  C   UNL     1     -11.208   7.046  69.653  1.00  0.00    -0.222 A  
HETATM   16  C   UNL     1     -10.816   9.200  70.649  1.00  0.00    -0.321 A  
HETATM   17  C   UNL     1     -11.742   7.413  71.984  1.00  0.00    -0.325 A  
ENDBRANCH   4  12
TORSDOF 1
ENDMDL
MODEL      110
REMARK 921   NORMALIZED FREE ENERGY PREDICTED BY IDOCK:   -4.04 KCAL/MOL
REMARK 922        TOTAL FREE ENERGY PREDICTED BY IDOCK:   -4.54 KCAL/MOL
REMARK 923 INTER-LIGAND FREE ENERGY PREDICTED BY IDOCK:   -4.25 KCAL/MOL
REMARK 924 INTRA-LIGAND FREE ENERGY PREDICTED BY IDOCK:   -0.28 KCAL/MOL
REMARK 927      BINDING AFFINITY PREDICTED BY RF-SCORE:    0.00 PKD
ROOT
HETATM    1  O   UNL     1     -10.508   7.626  67.542  1.00  0.00    -0.233 OA 
HETATM    2  C   UNL     1     -10.121   8.450  66.724  1.00  0.00    -0.303 C  
HETATM    3  C   UNL     1     -10.653   9.819  66.721  1.00  0.00    -0.208 C  
HETATM    4  C   UNL     1     -10.261  10.687  65.776  1.00  0.00    -0.252 C  
HETATM    5  C   UNL     1      -9.097   8.146  65.720  1.00  0.00    -0.139 A  
HETATM    6  O   UNL     1      -9.345  10.371  64.775  1.00  0.00    -0.206 OA 
HETATM    7  C   UNL     1      -8.755   9.130  64.796  1.00  0.00    -0.176 A  
HETATM    8  C   UNL     1      -8.461   6.901  65.711  1.00  0.00    -0.150 A  
HETATM    9  C   UNL     1      -7.763   8.869  63.849  1.00  0.00    -0.129 A  
HETATM   10  C   UNL     1      -7.463   6.647  64.771  1.00  0.00    -0.095 A  
HETATM   11  C   UNL     1      -7.115   7.630  63.843  1.00  0.00    -0.066 A  
ENDROOT
BRANCH   4  12
HETATM   12  C   UNL     1     -10.741  12.092  65.766  1.00  0.00    -0.319 A  
HETATM   13  C   UNL     1     -12.084  13.898  66.720  1.00  0.00    -0.476 A  
HETATM   14  C   UNL     1     -10.631  14.354  64.856  1.00  0.00    -0.456 A  
HETATM   15  C   UNL     1     -10.236  13.012  64.833  1.00  0.00    -0.304 A  
HETATM   16  C   UNL     1     -11.695  12.555  66.690  1.00  0.00    -0.453 A  
HETATM   17  C   UNL     1     -11.545  14.798  65.809  1.00  0.00    -0.290 A  
ENDBRANCH   4  12
TORSDOF 1
ENDMDL
MODEL      111
REMARK 921   NORMALIZED FREE ENERGY PREDICTED BY IDOCK:   -4.03 KCAL/MOL
REMARK 922        TOTAL FREE ENERGY PREDICTED BY IDOCK:   -4.53 KCAL/MOL
REMARK 923 INTER-LIGAND FREE ENERGY PREDICTED BY IDOCK:   -4.29 KCAL/MOL
REMARK 924 INTRA-LIGAND FREE ENERGY PREDICTED BY IDOCK:   -0.23 KCAL/MOL
REMARK 927      BINDING AFFINITY PREDICTED BY RF-SCORE:    0.00 PKD
ROOT
HETATM    1  O   UNL     1     -10.826   7.556  71.668  1.00  0.00    -0.219 OA 
HETATM    2  C   UNL     1     -10.758   7.895  70.494  1.00  0.00    -0.233 C  
HETATM    3  C   UNL     1     -10.291   6.958  69.463  1.00  0.00    -0.224 C  
HETATM    4  C   UNL     1     -10.164   7.371  68.193  1.00  0.00    -0.187 C  
HETATM    5  C   UNL     1     -11.154   9.229  70.032  1.00  0.00    -0.228 A  
HETATM    6  O   UNL     1     -10.468   8.663  67.770  1.00  0.00    -0.235 OA 
HETATM    7  C   UNL     1     -10.994   9.544  68.685  1.00  0.00    -0.072 A  
HETATM    8  C   UNL     1     -11.706  10.153  70.924  1.00  0.00    -0.468 A  
HETATM    9  C   UNL     1     -11.390  10.799  68.220  1.00  0.00    -0.376 A  
HETATM   10  C   UNL     1     -12.111  11.401  70.455  1.00  0.00    -0.487 A  
HETATM   11  C   UNL     1     -11.954  11.723  69.106  1.00  0.00    -0.356 A  
ENDROOT
BRANCH   4  12
HETATM   12  C   UNL     1      -9.738   6.442  67.116  1.00  0.00    -0.170 A  
HETATM   13  C   UNL     1     -10.192   4.588  65.589  1.00  0.00    -0.275 A  
HETATM   14  C   UNL     1      -8.093   5.758  65.447  1.00  0.00    -0.131 A  
HETATM   15  C   UNL     1      -8.480   6.585  66.508  1.00  0.00    -0.120 A  
HETATM   16  C   UNL     1     -10.573   5.409  66.654  1.00  0.00    -0.359 A  
HETATM   17  C   UNL     1      -8.955   4.770  64.979  1.00  0.00    -0.153 A  
ENDBRANCH   4  12
TORSDOF 1
ENDMDL
MODEL      112
REMARK 921   NORMALIZED FREE ENERGY PREDICTED BY IDOCK:   -4.02 KCAL/MOL
REMARK 922        TOTAL FREE ENERGY PREDICTED BY IDOCK:   -4.51 KCAL/MOL
REMARK 923 INTER-LIGAND FREE ENERGY PREDICTED BY IDOCK:   -4.28 KCAL/MOL
REMARK 924 INTRA-LIGAND FREE ENERGY PREDICTED BY IDOCK:   -0.24 KCAL/MOL
REMARK 927      BINDING AFFINITY PREDICTED BY RF-SCORE:    0.00 PKD
ROOT
HETATM    1  O   UNL     1      -7.573  10.043  68.306  1.00  0.00    -0.082 OA 
HETATM    2  C   UNL     1      -8.456  10.707  67.780  1.00  0.00    -0.116 C  
HETATM    3  C   UNL     1      -9.200  11.717  68.546  1.00  0.00    -0.163 C  
HETATM    4  C   UNL     1     -10.207  12.388  67.966  1.00  0.00    -0.219 C  
HETATM    5  C   UNL     1      -8.817  10.564  66.367  1.00  0.00    -0.165 A  
HETATM    6  O   UNL     1     -10.598  12.194  66.643  1.00  0.00    -0.226 OA 
HETATM    7  C   UNL     1      -9.870  11.325  65.866  1.00  0.00    -0.232 A  
HETATM    8  C   UNL     1      -8.096   9.701  65.535  1.00  0.00    -0.122 A  
HETATM    9  C   UNL     1     -10.211  11.223  64.516  1.00  0.00    -0.370 A  
HETATM   10  C   UNL     1      -8.432   9.610  64.185  1.00  0.00    -0.186 A  
HETATM   11  C   UNL     1      -9.487  10.371  63.677  1.00  0.00    -0.353 A  
ENDROOT
BRANCH   4  12
HETATM   12  C   UNL     1     -10.951  13.447  68.692  1.00  0.00    -0.288 A  
HETATM   13  C   UNL     1     -11.552  15.793  69.023  1.00  0.00    -0.406 A  
HETATM   14  C   UNL     1     -12.620  14.094  70.353  1.00  0.00    -0.397 A  
HETATM   15  C   UNL     1     -11.863  13.110  69.706  1.00  0.00    -0.386 A  
HETATM   16  C   UNL     1     -10.790  14.810  68.385  1.00  0.00    -0.248 A  
HETATM   17  C   UNL     1     -12.473  15.433  70.001  1.00  0.00    -0.316 A  
ENDBRANCH   4  12
TORSDOF 1
ENDMDL
MODEL      113
REMARK 921   NORMALIZED FREE ENERGY PREDICTED BY IDOCK:   -3.98 KCAL/MOL
REMARK 922        TOTAL FREE ENERGY PREDICTED BY IDOCK:   -4.47 KCAL/MOL
REMARK 923 INTER-LIGAND FREE ENERGY PREDICTED BY IDOCK:   -4.24 KCAL/MOL
REMARK 924 INTRA-LIGAND FREE ENERGY PREDICTED BY IDOCK:   -0.23 KCAL/MOL
REMARK 927      BINDING AFFINITY PREDICTED BY RF-SCORE:    0.00 PKD
ROOT
HETATM    1  O   UNL     1     -12.782  14.358  66.862  1.00  0.00    -0.012 OA 
HETATM    2  C   UNL     1     -11.738  13.847  67.244  1.00  0.00    -0.386 C  
HETATM    3  C   UNL     1     -11.731  12.511  67.856  1.00  0.00    -0.416 C  
HETATM    4  C   UNL     1     -10.583  11.997  68.325  1.00  0.00    -0.212 C  
HETATM    5  C   UNL     1     -10.437  14.506  67.101  1.00  0.00    -0.267 A  
HETATM    6  O   UNL     1      -9.360  12.659  68.257  1.00  0.00    -0.209 OA 
HETATM    7  C   UNL     1      -9.307  13.872  67.612  1.00  0.00    -0.205 A  
HETATM    8  C   UNL     1     -10.333  15.733  66.440  1.00  0.00    -0.306 A  
HETATM    9  C   UNL     1      -8.055  14.470  67.462  1.00  0.00    -0.204 A  
HETATM   10  C   UNL     1      -9.080  16.324  66.282  1.00  0.00    -0.366 A  
HETATM   11  C   UNL     1      -7.943  15.693  66.791  1.00  0.00    -0.246 A  
ENDROOT
BRANCH   4  12
HETATM   12  C   UNL     1     -10.527  10.633  68.909  1.00  0.00    -0.232 A  
HETATM   13  C   UNL     1     -10.530   9.132  70.838  1.00  0.00    -0.347 A  
HETATM   14  C   UNL     1     -10.525   8.210  68.615  1.00  0.00    -0.195 A  
HETATM   15  C   UNL     1     -10.511   9.502  68.077  1.00  0.00    -0.279 A  
HETATM   16  C   UNL     1     -10.507  10.422  70.299  1.00  0.00    -0.110 A  
HETATM   17  C   UNL     1     -10.548   8.027  69.995  1.00  0.00    -0.242 A  
ENDBRANCH   4  12
TORSDOF 1
ENDMDL
MODEL      114
REMARK 921   NORMALIZED FREE ENERGY PREDICTED BY IDOCK:   -3.97 KCAL/MOL
REMARK 922        TOTAL FREE ENERGY PREDICTED BY IDOCK:   -4.46 KCAL/MOL
REMARK 923 INTER-LIGAND FREE ENERGY PREDICTED BY IDOCK:   -4.20 KCAL/MOL
REMARK 924 INTRA-LIGAND FREE ENERGY PREDICTED BY IDOCK:   -0.27 KCAL/MOL
REMARK 927      BINDING AFFINITY PREDICTED BY RF-SCORE:    0.00 PKD
ROOT
HETATM    1  O   UNL     1     -11.323   6.928  66.706  1.00  0.00    -0.181 OA 
HETATM    2  C   UNL     1     -10.832   6.162  67.525  1.00  0.00    -0.332 C  
HETATM    3  C   UNL     1     -10.924   6.436  68.965  1.00  0.00    -0.410 C  
HETATM    4  C   UNL     1     -10.323   5.615  69.841  1.00  0.00    -0.277 C  
HETATM    5  C   UNL     1     -10.149   4.925  67.138  1.00  0.00    -0.228 A  
HETATM    6  O   UNL     1      -9.608   4.480  69.465  1.00  0.00    -0.161 OA 
HETATM    7  C   UNL     1      -9.575   4.139  68.134  1.00  0.00    -0.134 A  
HETATM    8  C   UNL     1     -10.101   4.531  65.797  1.00  0.00    -0.274 A  
HETATM    9  C   UNL     1      -8.943   2.943  67.789  1.00  0.00    -0.195 A  
HETATM   10  C   UNL     1      -9.479   3.331  65.456  1.00  0.00    -0.107 A  
HETATM   11  C   UNL     1      -8.902   2.538  66.451  1.00  0.00    -0.136 A  
ENDROOT
BRANCH   4  12
HETATM   12  C   UNL     1     -10.431   5.832  71.306  1.00  0.00    -0.295 A  
HETATM   13  C   UNL     1     -10.550   4.972  73.591  1.00  0.00    -0.321 A  
HETATM   14  C   UNL     1     -10.458   7.349  73.218  1.00  0.00    -0.424 A  
HETATM   15  C   UNL     1     -10.424   7.133  71.836  1.00  0.00    -0.220 A  
HETATM   16  C   UNL     1     -10.525   4.759  72.209  1.00  0.00    -0.255 A  
HETATM   17  C   UNL     1     -10.508   6.268  74.094  1.00  0.00    -0.250 A  
ENDBRANCH   4  12
TORSDOF 1
ENDMDL
MODEL      115
REMARK 921   NORMALIZED FREE ENERGY PREDICTED BY IDOCK:   -3.94 KCAL/MOL
REMARK 922        TOTAL FREE ENERGY PREDICTED BY IDOCK:   -4.43 KCAL/MOL
REMARK 923 INTER-LIGAND FREE ENERGY PREDICTED BY IDOCK:   -4.16 KCAL/MOL
REMARK 924 INTRA-LIGAND FREE ENERGY PREDICTED BY IDOCK:   -0.27 KCAL/MOL
REMARK 927      BINDING AFFINITY PREDICTED BY RF-SCORE:    0.00 PKD
ROOT
HETATM    1  O   UNL     1      -9.967   7.170  68.022  1.00  0.00    -0.148 OA 
HETATM    2  C   UNL     1      -9.765   7.985  67.131  1.00  0.00    -0.195 C  
HETATM    3  C   UNL     1     -10.482   9.268  67.104  1.00  0.00    -0.319 C  
HETATM    4  C   UNL     1     -10.292  10.118  66.084  1.00  0.00    -0.167 C  
HETATM    5  C   UNL     1      -8.795   7.757  66.057  1.00  0.00    -0.189 A  
HETATM    6  O   UNL     1      -9.426   9.865  65.023  1.00  0.00    -0.243 OA 
HETATM    7  C   UNL     1      -8.669   8.718  65.056  1.00  0.00    -0.148 A  
HETATM    8  C   UNL     1      -7.994   6.611  66.056  1.00  0.00    -0.112 A  
HETATM    9  C   UNL     1      -7.731   8.532  64.039  1.00  0.00    -0.137 A  
HETATM   10  C   UNL     1      -7.051   6.434  65.045  1.00  0.00    -0.060 A  
HETATM   11  C   UNL     1      -6.919   7.393  64.039  1.00  0.00    -0.058 A  
ENDROOT
BRANCH   4  12
HETATM   12  C   UNL     1     -10.962  11.442  66.044  1.00  0.00    -0.286 A  
HETATM   13  C   UNL     1     -11.963  13.294  64.802  1.00  0.00    -0.431 A  
HETATM   14  C   UNL     1     -12.027  13.305  67.208  1.00  0.00    -0.393 A  
HETATM   15  C   UNL     1     -11.335  12.089  67.234  1.00  0.00    -0.394 A  
HETATM   16  C   UNL     1     -11.264  12.084  64.829  1.00  0.00    -0.373 A  
HETATM   17  C   UNL     1     -12.352  13.900  65.992  1.00  0.00    -0.511 A  
ENDBRANCH   4  12
TORSDOF 1
ENDMDL
MODEL      116
REMARK 921   NORMALIZED FREE ENERGY PREDICTED BY IDOCK:   -3.93 KCAL/MOL
REMARK 922        TOTAL FREE ENERGY PREDICTED BY IDOCK:   -4.42 KCAL/MOL
REMARK 923 INTER-LIGAND FREE ENERGY PREDICTED BY IDOCK:   -4.14 KCAL/MOL
REMARK 924 INTRA-LIGAND FREE ENERGY PREDICTED BY IDOCK:   -0.28 KCAL/MOL
REMARK 927      BINDING AFFINITY PREDICTED BY RF-SCORE:    0.00 PKD
ROOT
HETATM    1  O   UNL     1     -12.160   8.048  70.926  1.00  0.00    -0.263 OA 
HETATM    2  C   UNL     1     -11.405   7.089  70.830  1.00  0.00    -0.298 C  
HETATM    3  C   UNL     1     -11.150   6.456  69.529  1.00  0.00    -0.460 C  
HETATM    4  C   UNL     1     -10.368   5.367  69.457  1.00  0.00    -0.280 C  
HETATM    5  C   UNL     1     -10.693   6.526  71.980  1.00  0.00    -0.253 A  
HETATM    6  O   UNL     1      -9.754   4.788  70.564  1.00  0.00    -0.176 OA 
HETATM    7  C   UNL     1      -9.893   5.402  71.786  1.00  0.00    -0.174 A  
HETATM    8  C   UNL     1     -10.794   7.125  73.239  1.00  0.00    -0.378 A  
HETATM    9  C   UNL     1      -9.186   4.867  72.864  1.00  0.00    -0.141 A  
HETATM   10  C   UNL     1     -10.077   6.596  74.311  1.00  0.00    -0.378 A  
HETATM   11  C   UNL     1      -9.274   5.469  74.123  1.00  0.00    -0.126 A  
ENDROOT
BRANCH   4  12
HETATM   12  C   UNL     1     -10.050   4.726  68.156  1.00  0.00    -0.105 A  
HETATM   13  C   UNL     1      -9.164   2.857  66.855  1.00  0.00    -0.161 A  
HETATM   14  C   UNL     1     -10.188   4.716  65.719  1.00  0.00    -0.283 A  
HETATM   15  C   UNL     1     -10.422   5.341  66.949  1.00  0.00    -0.313 A  
HETATM   16  C   UNL     1      -9.391   3.486  68.082  1.00  0.00    -0.236 A  
HETATM   17  C   UNL     1      -9.571   3.468  65.674  1.00  0.00    -0.117 A  
ENDBRANCH   4  12
TORSDOF 1
ENDMDL
MODEL      117
REMARK 921   NORMALIZED FREE ENERGY PREDICTED BY IDOCK:   -3.93 KCAL/MOL
REMARK 922        TOTAL FREE ENERGY PREDICTED BY IDOCK:   -4.42 KCAL/MOL
REMARK 923 INTER-LIGAND FREE ENERGY PREDICTED BY IDOCK:   -4.14 KCAL/MOL
REMARK 924 INTRA-LIGAND FREE ENERGY PREDICTED BY IDOCK:   -0.28 KCAL/MOL
REMARK 927      BINDING AFFINITY PREDICTED BY RF-SCORE:    0.00 PKD
ROOT
HETATM    1  O   UNL     1      -6.755  11.336  69.132  1.00  0.00    -0.079 OA 
HETATM    2  C   UNL     1      -7.882  11.098  68.719  1.00  0.00    -0.142 C  
HETATM    3  C   UNL     1      -8.553  12.011  67.784  1.00  0.00    -0.157 C  
HETATM    4  C   UNL     1      -9.813  11.762  67.395  1.00  0.00    -0.178 C  
HETATM    5  C   UNL     1      -8.625   9.894  69.102  1.00  0.00    -0.157 A  
HETATM    6  O   UNL     1     -10.545  10.657  67.821  1.00  0.00    -0.201 OA 
HETATM    7  C   UNL     1      -9.924   9.731  68.625  1.00  0.00    -0.167 A  
HETATM    8  C   UNL     1      -8.029   8.919  69.906  1.00  0.00    -0.108 A  
HETATM    9  C   UNL     1     -10.638   8.579  68.955  1.00  0.00    -0.173 A  
HETATM   10  C   UNL     1      -8.741   7.764  70.226  1.00  0.00    -0.143 A  
HETATM   11  C   UNL     1     -10.043   7.594  69.750  1.00  0.00    -0.196 A  
ENDROOT
BRANCH   4  12
HETATM   12  C   UNL     1     -10.508  12.636  66.416  1.00  0.00    -0.267 A  
HETATM   13  C   UNL     1     -12.496  13.248  65.132  1.00  0.00    -0.525 A  
HETATM   14  C   UNL     1     -10.534  14.639  65.021  1.00  0.00    -0.447 A  
HETATM   15  C   UNL     1      -9.867  13.771  65.892  1.00  0.00    -0.279 A  
HETATM   16  C   UNL     1     -11.825  12.377  65.996  1.00  0.00    -0.459 A  
HETATM   17  C   UNL     1     -11.853  14.384  64.652  1.00  0.00    -0.460 A  
ENDBRANCH   4  12
TORSDOF 1
ENDMDL
MODEL      118
REMARK 921   NORMALIZED FREE ENERGY PREDICTED BY IDOCK:   -3.92 KCAL/MOL
REMARK 922        TOTAL FREE ENERGY PREDICTED BY IDOCK:   -4.41 KCAL/MOL
REMARK 923 INTER-LIGAND FREE ENERGY PREDICTED BY IDOCK:   -4.13 KCAL/MOL
REMARK 924 INTRA-LIGAND FREE ENERGY PREDICTED BY IDOCK:   -0.28 KCAL/MOL
REMARK 927      BINDING AFFINITY PREDICTED BY RF-SCORE:    0.00 PKD
ROOT
HETATM    1  O   UNL     1     -10.502   8.264  70.042  1.00  0.00    -0.221 OA 
HETATM    2  C   UNL     1     -10.261   8.224  68.843  1.00  0.00    -0.210 C  
HETATM    3  C   UNL     1     -10.372   9.430  68.011  1.00  0.00    -0.267 C  
HETATM    4  C   UNL     1     -10.165   9.350  66.687  1.00  0.00    -0.249 C  
HETATM    5  C   UNL     1      -9.829   7.000  68.164  1.00  0.00    -0.151 A  
HETATM    6  O   UNL     1      -9.830   8.167  66.032  1.00  0.00    -0.104 OA 
HETATM    7  C   UNL     1      -9.627   7.036  66.786  1.00  0.00    -0.171 A  
HETATM    8  C   UNL     1      -9.599   5.829  68.892  1.00  0.00    -0.163 A  
HETATM    9  C   UNL     1      -9.190   5.887  66.125  1.00  0.00    -0.164 A  
HETATM   10  C   UNL     1      -9.151   4.686  68.230  1.00  0.00    -0.151 A  
HETATM   11  C   UNL     1      -8.946   4.716  66.849  1.00  0.00    -0.113 A  
ENDROOT
BRANCH   4  12
HETATM   12  C   UNL     1     -10.223  10.553  65.819  1.00  0.00    -0.310 A  
HETATM   13  C   UNL     1      -9.947  11.635  63.645  1.00  0.00    -0.406 A  
HETATM   14  C   UNL     1     -10.830  12.895  65.497  1.00  0.00    -0.298 A  
HETATM   15  C   UNL     1     -10.708  11.771  66.322  1.00  0.00    -0.312 A  
HETATM   16  C   UNL     1      -9.817  10.516  64.473  1.00  0.00    -0.401 A  
HETATM   17  C   UNL     1     -10.462  12.822  64.156  1.00  0.00    -0.437 A  
ENDBRANCH   4  12
TORSDOF 1
ENDMDL
MODEL      119
REMARK 921   NORMALIZED FREE ENERGY PREDICTED BY IDOCK:   -3.88 KCAL/MOL
REMARK 922        TOTAL FREE ENERGY PREDICTED BY IDOCK:   -4.37 KCAL/MOL
REMARK 923 INTER-LIGAND FREE ENERGY PREDICTED BY IDOCK:   -4.10 KCAL/MOL
REMARK 924 INTRA-LIGAND FREE ENERGY PREDICTED BY IDOCK:   -0.27 KCAL/MOL
REMARK 927      BINDING AFFINITY PREDICTED BY RF-SCORE:    0.00 PKD
ROOT
HETATM    1  O   UNL     1     -10.246   4.721  66.503  1.00  0.00    -0.233 OA 
HETATM    2  C   UNL     1     -10.163   5.322  67.566  1.00  0.00    -0.178 C  
HETATM    3  C   UNL     1     -10.520   6.744  67.660  1.00  0.00    -0.287 C  
HETATM    4  C   UNL     1     -10.360   7.397  68.821  1.00  0.00    -0.199 C  
HETATM    5  C   UNL     1      -9.732   4.673  68.808  1.00  0.00    -0.230 A  
HETATM    6  O   UNL     1      -9.877   6.797  69.981  1.00  0.00    -0.169 OA 
HETATM    7  C   UNL     1      -9.618   5.447  69.960  1.00  0.00    -0.169 A  
HETATM    8  C   UNL     1      -9.470   3.300  68.837  1.00  0.00    -0.191 A  
HETATM    9  C   UNL     1      -9.235   4.843  71.159  1.00  0.00    -0.191 A  
HETATM   10  C   UNL     1      -9.099   2.698  70.038  1.00  0.00    -0.187 A  
HETATM   11  C   UNL     1      -8.983   3.468  71.197  1.00  0.00    -0.158 A  
ENDROOT
BRANCH   4  12
HETATM   12  C   UNL     1     -10.751   8.822  68.968  1.00  0.00    -0.134 A  
HETATM   13  C   UNL     1     -11.164  11.034  68.014  1.00  0.00    -0.372 A  
HETATM   14  C   UNL     1     -11.619  10.641  70.344  1.00  0.00    -0.441 A  
HETATM   15  C   UNL     1     -11.185   9.318  70.208  1.00  0.00    -0.267 A  
HETATM   16  C   UNL     1     -10.722   9.714  67.881  1.00  0.00    -0.302 A  
HETATM   17  C   UNL     1     -11.621  11.494  69.244  1.00  0.00    -0.388 A  
ENDBRANCH   4  12
TORSDOF 1
ENDMDL
MODEL      120
REMARK 921   NORMALIZED FREE ENERGY PREDICTED BY IDOCK:   -3.88 KCAL/MOL
REMARK 922        TOTAL FREE ENERGY PREDICTED BY IDOCK:   -4.36 KCAL/MOL
REMARK 923 INTER-LIGAND FREE ENERGY PREDICTED BY IDOCK:   -4.13 KCAL/MOL
REMARK 924 INTRA-LIGAND FREE ENERGY PREDICTED BY IDOCK:   -0.23 KCAL/MOL
REMARK 927      BINDING AFFINITY PREDICTED BY RF-SCORE:    0.00 PKD
ROOT
HETATM    1  O   UNL     1      -9.202   9.373  64.502  1.00  0.00    -0.216 OA 
HETATM    2  C   UNL     1      -9.572   9.723  65.616  1.00  0.00    -0.263 C  
HETATM    3  C   UNL     1      -9.787  11.142  65.929  1.00  0.00    -0.275 C  
HETATM    4  C   UNL     1     -10.131  11.507  67.174  1.00  0.00    -0.197 C  
HETATM    5  C   UNL     1      -9.846   8.768  66.693  1.00  0.00    -0.335 A  
HETATM    6  O   UNL     1     -10.315  10.603  68.216  1.00  0.00    -0.164 OA 
HETATM    7  C   UNL     1     -10.213   9.259  67.944  1.00  0.00    -0.214 A  
HETATM    8  C   UNL     1      -9.767   7.392  66.458  1.00  0.00    -0.225 A  
HETATM    9  C   UNL     1     -10.504   8.366  68.975  1.00  0.00    -0.216 A  
HETATM   10  C   UNL     1     -10.069   6.502  67.487  1.00  0.00    -0.193 A  
HETATM   11  C   UNL     1     -10.438   6.988  68.743  1.00  0.00    -0.222 A  
ENDROOT
BRANCH   4  12
HETATM   12  C   UNL     1     -10.401  12.926  67.518  1.00  0.00    -0.223 A  
HETATM   13  C   UNL     1      -9.644  15.122  68.278  1.00  0.00    -0.211 A  
HETATM   14  C   UNL     1     -11.929  14.829  67.581  1.00  0.00    -0.244 A  
HETATM   15  C   UNL     1     -11.679  13.476  67.323  1.00  0.00    -0.423 A  
HETATM   16  C   UNL     1      -9.397  13.769  68.028  1.00  0.00    -0.199 A  
HETATM   17  C   UNL     1     -10.908  15.653  68.045  1.00  0.00    -0.308 A  
ENDBRANCH   4  12
TORSDOF 1
ENDMDL
MODEL      121
REMARK 921   NORMALIZED FREE ENERGY PREDICTED BY IDOCK:   -3.85 KCAL/MOL
REMARK 922        TOTAL FREE ENERGY PREDICTED BY IDOCK:   -4.33 KCAL/MOL
REMARK 923 INTER-LIGAND FREE ENERGY PREDICTED BY IDOCK:   -4.06 KCAL/MOL
REMARK 924 INTRA-LIGAND FREE ENERGY PREDICTED BY IDOCK:   -0.27 KCAL/MOL
REMARK 927      BINDING AFFINITY PREDICTED BY RF-SCORE:    0.00 PKD
ROOT
HETATM    1  O   UNL     1      -9.451  12.094  68.268  1.00  0.00    -0.202 OA 
HETATM    2  C   UNL     1      -9.747  11.696  67.149  1.00  0.00    -0.181 C  
HETATM    3  C   UNL     1      -9.065  10.540  66.553  1.00  0.00    -0.175 C  
HETATM    4  C   UNL     1      -9.363  10.161  65.301  1.00  0.00    -0.224 C  
HETATM    5  C   UNL     1     -10.803  12.318  66.345  1.00  0.00    -0.299 A  
HETATM    6  O   UNL     1     -10.312  10.802  64.509  1.00  0.00    -0.345 OA 
HETATM    7  C   UNL     1     -11.037  11.832  65.061  1.00  0.00    -0.284 A  
HETATM    8  C   UNL     1     -11.574  13.359  66.869  1.00  0.00    -0.404 A  
HETATM    9  C   UNL     1     -12.056  12.392  64.288  1.00  0.00    -0.516 A  
HETATM   10  C   UNL     1     -12.598  13.910  66.100  1.00  0.00    -0.426 A  
HETATM   11  C   UNL     1     -12.839  13.426  64.812  1.00  0.00    -0.222 A  
ENDROOT
BRANCH   4  12
HETATM   12  C   UNL     1      -8.728   8.971  64.680  1.00  0.00    -0.169 A  
HETATM   13  C   UNL     1      -7.834   7.798  62.731  1.00  0.00    -0.135 A  
HETATM   14  C   UNL     1      -7.657   6.790  64.909  1.00  0.00    -0.102 A  
HETATM   15  C   UNL     1      -8.316   7.888  65.473  1.00  0.00    -0.152 A  
HETATM   16  C   UNL     1      -8.500   8.891  63.295  1.00  0.00    -0.155 A  
HETATM   17  C   UNL     1      -7.405   6.752  63.540  1.00  0.00    -0.073 A  
ENDBRANCH   4  12
TORSDOF 1
ENDMDL
MODEL      122
REMARK 921   NORMALIZED FREE ENERGY PREDICTED BY IDOCK:   -3.84 KCAL/MOL
REMARK 922        TOTAL FREE ENERGY PREDICTED BY IDOCK:   -4.32 KCAL/MOL
REMARK 923 INTER-LIGAND FREE ENERGY PREDICTED BY IDOCK:   -4.09 KCAL/MOL
REMARK 924 INTRA-LIGAND FREE ENERGY PREDICTED BY IDOCK:   -0.24 KCAL/MOL
REMARK 927      BINDING AFFINITY PREDICTED BY RF-SCORE:    0.00 PKD
ROOT
HETATM    1  O   UNL     1      -8.510   8.147  74.168  1.00  0.00    -0.262 OA 
HETATM    2  C   UNL     1      -9.086   7.859  73.127  1.00  0.00    -0.260 C  
HETATM    3  C   UNL     1      -9.542   8.905  72.202  1.00  0.00    -0.210 C  
HETATM    4  C   UNL     1     -10.226   8.569  71.097  1.00  0.00    -0.214 C  
HETATM    5  C   UNL     1      -9.336   6.473  72.720  1.00  0.00    -0.146 A  
HETATM    6  O   UNL     1     -10.531   7.254  70.752  1.00  0.00    -0.210 OA 
HETATM    7  C   UNL     1     -10.044   6.240  71.543  1.00  0.00    -0.190 A  
HETATM    8  C   UNL     1      -8.849   5.411  73.486  1.00  0.00    -0.119 A  
HETATM    9  C   UNL     1     -10.270   4.929  71.124  1.00  0.00    -0.261 A  
HETATM   10  C   UNL     1      -9.066   4.101  73.060  1.00  0.00    -0.123 A  
HETATM   11  C   UNL     1      -9.775   3.861  71.880  1.00  0.00    -0.239 A  
ENDROOT
BRANCH   4  12
HETATM   12  C   UNL     1     -10.665   9.593  70.116  1.00  0.00    -0.321 A  
HETATM   13  C   UNL     1     -10.509  10.652  67.918  1.00  0.00    -0.243 A  
HETATM   14  C   UNL     1     -12.207  11.370  69.466  1.00  0.00    -0.303 A  
HETATM   15  C   UNL     1     -11.742  10.445  70.408  1.00  0.00    -0.419 A  
HETATM   16  C   UNL     1     -10.040   9.735  68.864  1.00  0.00    -0.194 A  
HETATM   17  C   UNL     1     -11.599  11.462  68.217  1.00  0.00    -0.376 A  
ENDBRANCH   4  12
TORSDOF 1
ENDMDL
MODEL      123
REMARK 921   NORMALIZED FREE ENERGY PREDICTED BY IDOCK:   -3.83 KCAL/MOL
REMARK 922        TOTAL FREE ENERGY PREDICTED BY IDOCK:   -4.31 KCAL/MOL
REMARK 923 INTER-LIGAND FREE ENERGY PREDICTED BY IDOCK:   -4.03 KCAL/MOL
REMARK 924 INTRA-LIGAND FREE ENERGY PREDICTED BY IDOCK:   -0.28 KCAL/MOL
REMARK 927      BINDING AFFINITY PREDICTED BY RF-SCORE:    0.00 PKD
ROOT
HETATM    1  O   UNL     1      -8.227  11.767  66.791  1.00  0.00    -0.167 OA 
HETATM    2  C   UNL     1      -8.770  10.817  67.338  1.00  0.00    -0.126 C  
HETATM    3  C   UNL     1      -9.742  11.023  68.421  1.00  0.00    -0.181 C  
HETATM    4  C   UNL     1     -10.277   9.965  69.049  1.00  0.00    -0.200 C  
HETATM    5  C   UNL     1      -8.515   9.428  66.946  1.00  0.00    -0.128 A  
HETATM    6  O   UNL     1      -9.974   8.645  68.725  1.00  0.00    -0.172 OA 
HETATM    7  C   UNL     1      -9.140   8.407  67.659  1.00  0.00    -0.135 A  
HETATM    8  C   UNL     1      -7.684   9.139  65.860  1.00  0.00    -0.095 A  
HETATM    9  C   UNL     1      -8.931   7.079  67.284  1.00  0.00    -0.119 A  
HETATM   10  C   UNL     1      -7.486   7.812  65.480  1.00  0.00    -0.076 A  
HETATM   11  C   UNL     1      -8.110   6.785  66.191  1.00  0.00    -0.115 A  
ENDROOT
BRANCH   4  12
HETATM   12  C   UNL     1     -11.296  10.131  70.116  1.00  0.00    -0.372 A  
HETATM   13  C   UNL     1     -12.885  11.514  71.356  1.00  0.00    -0.489 A  
HETATM   14  C   UNL     1     -12.736   9.158  71.830  1.00  0.00    -0.464 A  
HETATM   15  C   UNL     1     -11.729   9.027  70.867  1.00  0.00    -0.327 A  
HETATM   16  C   UNL     1     -11.873  11.382  70.401  1.00  0.00    -0.428 A  
HETATM   17  C   UNL     1     -13.322  10.399  72.064  1.00  0.00    -0.440 A  
ENDBRANCH   4  12
TORSDOF 1
ENDMDL
MODEL      124
REMARK 921   NORMALIZED FREE ENERGY PREDICTED BY IDOCK:   -3.82 KCAL/MOL
REMARK 922        TOTAL FREE ENERGY PREDICTED BY IDOCK:   -4.30 KCAL/MOL
REMARK 923 INTER-LIGAND FREE ENERGY PREDICTED BY IDOCK:   -4.07 KCAL/MOL
REMARK 924 INTRA-LIGAND FREE ENERGY PREDICTED BY IDOCK:   -0.23 KCAL/MOL
REMARK 927      BINDING AFFINITY PREDICTED BY RF-SCORE:    0.00 PKD
ROOT
HETATM    1  O   UNL     1      -9.785   7.939  72.645  1.00  0.00    -0.193 OA 
HETATM    2  C   UNL     1      -9.956   8.078  71.441  1.00  0.00    -0.178 C  
HETATM    3  C   UNL     1     -10.079   9.415  70.845  1.00  0.00    -0.366 C  
HETATM    4  C   UNL     1     -10.330   9.542  69.532  1.00  0.00    -0.217 C  
HETATM    5  C   UNL     1     -10.025   6.943  70.517  1.00  0.00    -0.194 A  
HETATM    6  O   UNL     1     -10.472   8.458  68.669  1.00  0.00    -0.208 OA 
HETATM    7  C   UNL     1     -10.274   7.192  69.169  1.00  0.00    -0.194 A  
HETATM    8  C   UNL     1      -9.817   5.640  70.978  1.00  0.00    -0.231 A  
HETATM    9  C   UNL     1     -10.317   6.127  68.269  1.00  0.00    -0.239 A  
HETATM   10  C   UNL     1      -9.850   4.578  70.075  1.00  0.00    -0.296 A  
HETATM   11  C   UNL     1     -10.098   4.822  68.722  1.00  0.00    -0.128 A  
ENDROOT
BRANCH   4  12
HETATM   12  C   UNL     1     -10.416  10.875  68.885  1.00  0.00    -0.228 A  
HETATM   13  C   UNL     1      -9.420  12.685  67.579  1.00  0.00    -0.186 A  
HETATM   14  C   UNL     1     -11.740  12.811  68.208  1.00  0.00    -0.388 A  
HETATM   15  C   UNL     1     -11.628  11.584  68.872  1.00  0.00    -0.384 A  
HETATM   16  C   UNL     1      -9.308  11.464  68.250  1.00  0.00    -0.187 A  
HETATM   17  C   UNL     1     -10.639  13.353  67.551  1.00  0.00    -0.255 A  
ENDBRANCH   4  12
TORSDOF 1
ENDMDL
MODEL      125
REMARK 921   NORMALIZED FREE ENERGY PREDICTED BY IDOCK:   -3.79 KCAL/MOL
REMARK 922        TOTAL FREE ENERGY PREDICTED BY IDOCK:   -4.27 KCAL/MOL
REMARK 923 INTER-LIGAND FREE ENERGY PREDICTED BY IDOCK:   -3.99 KCAL/MOL
REMARK 924 INTRA-LIGAND FREE ENERGY PREDICTED BY IDOCK:   -0.28 KCAL/MOL
REMARK 927      BINDING AFFINITY PREDICTED BY RF-SCORE:    0.00 PKD
ROOT
HETATM    1  O   UNL     1      -8.225   8.172  64.851  1.00  0.00    -0.150 OA 
HETATM    2  C   UNL     1      -8.877   8.091  65.883  1.00  0.00    -0.153 C  
HETATM    3  C   UNL     1      -9.439   9.291  66.518  1.00  0.00    -0.259 C  
HETATM    4  C   UNL     1     -10.097   9.185  67.683  1.00  0.00    -0.220 C  
HETATM    5  C   UNL     1      -9.163   6.811  66.538  1.00  0.00    -0.190 A  
HETATM    6  O   UNL     1     -10.300   7.976  68.343  1.00  0.00    -0.204 OA 
HETATM    7  C   UNL     1      -9.870   6.819  67.738  1.00  0.00    -0.126 A  
HETATM    8  C   UNL     1      -8.757   5.609  65.953  1.00  0.00    -0.147 A  
HETATM    9  C   UNL     1     -10.176   5.610  68.364  1.00  0.00    -0.247 A  
HETATM   10  C   UNL     1      -9.073   4.402  66.574  1.00  0.00    -0.123 A  
HETATM   11  C   UNL     1      -9.782   4.403  67.777  1.00  0.00    -0.191 A  
ENDROOT
BRANCH   4  12
HETATM   12  C   UNL     1     -10.717  10.367  68.332  1.00  0.00    -0.263 A  
HETATM   13  C   UNL     1     -11.468  12.692  68.267  1.00  0.00    -0.356 A  
HETATM   14  C   UNL     1     -11.892  11.360  70.227  1.00  0.00    -0.438 A  
HETATM   15  C   UNL     1     -11.246  10.272  69.630  1.00  0.00    -0.322 A  
HETATM   16  C   UNL     1     -10.815  11.607  67.676  1.00  0.00    -0.273 A  
HETATM   17  C   UNL     1     -12.014  12.565  69.540  1.00  0.00    -0.329 A  
ENDBRANCH   4  12
TORSDOF 1
ENDMDL
MODEL      126
REMARK 921   NORMALIZED FREE ENERGY PREDICTED BY IDOCK:   -3.78 KCAL/MOL
REMARK 922        TOTAL FREE ENERGY PREDICTED BY IDOCK:   -4.26 KCAL/MOL
REMARK 923 INTER-LIGAND FREE ENERGY PREDICTED BY IDOCK:   -3.98 KCAL/MOL
REMARK 924 INTRA-LIGAND FREE ENERGY PREDICTED BY IDOCK:   -0.28 KCAL/MOL
REMARK 927      BINDING AFFINITY PREDICTED BY RF-SCORE:    0.00 PKD
ROOT
HETATM    1  O   UNL     1     -10.803   7.671  67.126  1.00  0.00    -0.317 OA 
HETATM    2  C   UNL     1     -10.360   8.662  67.691  1.00  0.00    -0.254 C  
HETATM    3  C   UNL     1     -10.862  10.004  67.365  1.00  0.00    -0.313 C  
HETATM    4  C   UNL     1     -10.317  11.082  67.951  1.00  0.00    -0.186 C  
HETATM    5  C   UNL     1      -9.332   8.585  68.733  1.00  0.00    -0.143 A  
HETATM    6  O   UNL     1      -9.286  11.010  68.884  1.00  0.00    -0.190 OA 
HETATM    7  C   UNL     1      -8.850   9.770  69.285  1.00  0.00    -0.169 A  
HETATM    8  C   UNL     1      -8.869   7.345  69.181  1.00  0.00    -0.136 A  
HETATM    9  C   UNL     1      -7.891   9.717  70.297  1.00  0.00    -0.193 A  
HETATM   10  C   UNL     1      -7.919   7.294  70.200  1.00  0.00    -0.112 A  
HETATM   11  C   UNL     1      -7.432   8.479  70.757  1.00  0.00    -0.072 A  
ENDROOT
BRANCH   4  12
HETATM   12  C   UNL     1     -10.826  12.450  67.681  1.00  0.00    -0.258 A  
HETATM   13  C   UNL     1     -10.937  14.833  68.216  1.00  0.00    -0.264 A  
HETATM   14  C   UNL     1     -12.059  14.001  66.255  1.00  0.00    -0.482 A  
HETATM   15  C   UNL     1     -11.628  12.704  66.556  1.00  0.00    -0.441 A  
HETATM   16  C   UNL     1     -10.515  13.535  68.520  1.00  0.00    -0.250 A  
HETATM   17  C   UNL     1     -11.702  15.066  67.078  1.00  0.00    -0.199 A  
ENDBRANCH   4  12
TORSDOF 1
ENDMDL
MODEL      127
REMARK 921   NORMALIZED FREE ENERGY PREDICTED BY IDOCK:   -3.74 KCAL/MOL
REMARK 922        TOTAL FREE ENERGY PREDICTED BY IDOCK:   -4.22 KCAL/MOL
REMARK 923 INTER-LIGAND FREE ENERGY PREDICTED BY IDOCK:   -3.99 KCAL/MOL
REMARK 924 INTRA-LIGAND FREE ENERGY PREDICTED BY IDOCK:   -0.23 KCAL/MOL
REMARK 927      BINDING AFFINITY PREDICTED BY RF-SCORE:    0.00 PKD
ROOT
HETATM    1  O   UNL     1      -8.108   8.025  71.400  1.00  0.00    -0.095 OA 
HETATM    2  C   UNL     1      -9.026   7.328  70.989  1.00  0.00    -0.149 C  
HETATM    3  C   UNL     1      -8.759   6.087  70.249  1.00  0.00    -0.143 C  
HETATM    4  C   UNL     1      -9.781   5.372  69.753  1.00  0.00    -0.184 C  
HETATM    5  C   UNL     1     -10.435   7.659  71.221  1.00  0.00    -0.223 A  
HETATM    6  O   UNL     1     -11.117   5.731  69.908  1.00  0.00    -0.360 OA 
HETATM    7  C   UNL     1     -11.414   6.835  70.671  1.00  0.00    -0.351 A  
HETATM    8  C   UNL     1     -10.784   8.765  72.002  1.00  0.00    -0.417 A  
HETATM    9  C   UNL     1     -12.761   7.118  70.903  1.00  0.00    -0.225 A  
HETATM   10  C   UNL     1     -12.130   9.039  72.241  1.00  0.00    -0.358 A  
HETATM   11  C   UNL     1     -13.116   8.216  71.693  1.00  0.00    -0.358 A  
ENDROOT
BRANCH   4  12
HETATM   12  C   UNL     1      -9.554   4.091  69.039  1.00  0.00    -0.223 A  
HETATM   13  C   UNL     1      -9.249   2.820  66.973  1.00  0.00    -0.158 A  
HETATM   14  C   UNL     1      -9.046   1.704  69.096  1.00  0.00    -0.161 A  
HETATM   15  C   UNL     1      -9.327   2.905  69.756  1.00  0.00    -0.207 A  
HETATM   16  C   UNL     1      -9.538   4.017  67.634  1.00  0.00    -0.210 A  
HETATM   17  C   UNL     1      -8.994   1.666  67.705  1.00  0.00    -0.163 A  
ENDBRANCH   4  12
TORSDOF 1
ENDMDL
MODEL      128
REMARK 921   NORMALIZED FREE ENERGY PREDICTED BY IDOCK:   -3.68 KCAL/MOL
REMARK 922        TOTAL FREE ENERGY PREDICTED BY IDOCK:   -4.15 KCAL/MOL
REMARK 923 INTER-LIGAND FREE ENERGY PREDICTED BY IDOCK:   -3.89 KCAL/MOL
REMARK 924 INTRA-LIGAND FREE ENERGY PREDICTED BY IDOCK:   -0.27 KCAL/MOL
REMARK 927      BINDING AFFINITY PREDICTED BY RF-SCORE:    0.00 PKD
ROOT
HETATM    1  O   UNL     1      -9.369  10.764  66.981  1.00  0.00    -0.155 OA 
HETATM    2  C   UNL     1      -9.809  10.124  67.927  1.00  0.00    -0.151 C  
HETATM    3  C   UNL     1      -9.458   8.709  68.110  1.00  0.00    -0.152 C  
HETATM    4  C   UNL     1     -10.002   8.011  69.118  1.00  0.00    -0.188 C  
HETATM    5  C   UNL     1     -10.683  10.717  68.944  1.00  0.00    -0.254 A  
HETATM    6  O   UNL     1     -10.894   8.557  70.038  1.00  0.00    -0.237 OA 
HETATM    7  C   UNL     1     -11.178   9.900  69.957  1.00  0.00    -0.276 A  
HETATM    8  C   UNL     1     -10.988  12.080  68.909  1.00  0.00    -0.277 A  
HETATM    9  C   UNL     1     -11.989  10.450  70.950  1.00  0.00    -0.478 A  
HETATM   10  C   UNL     1     -11.790  12.630  69.907  1.00  0.00    -0.364 A  
HETATM   11  C   UNL     1     -12.288  11.816  70.927  1.00  0.00    -0.420 A  
ENDROOT
BRANCH   4  12
HETATM   12  C   UNL     1      -9.639   6.592  69.363  1.00  0.00    -0.148 A  
HETATM   13  C   UNL     1      -9.062   4.363  68.544  1.00  0.00    -0.168 A  
HETATM   14  C   UNL     1      -9.016   4.809  70.909  1.00  0.00    -0.160 A  
HETATM   15  C   UNL     1      -9.424   6.126  70.670  1.00  0.00    -0.185 A  
HETATM   16  C   UNL     1      -9.478   5.676  68.308  1.00  0.00    -0.132 A  
HETATM   17  C   UNL     1      -8.822   3.933  69.845  1.00  0.00    -0.143 A  
ENDBRANCH   4  12
TORSDOF 1
ENDMDL
MODEL      129
REMARK 921   NORMALIZED FREE ENERGY PREDICTED BY IDOCK:   -3.67 KCAL/MOL
REMARK 922        TOTAL FREE ENERGY PREDICTED BY IDOCK:   -4.15 KCAL/MOL
REMARK 923 INTER-LIGAND FREE ENERGY PREDICTED BY IDOCK:   -3.87 KCAL/MOL
REMARK 924 INTRA-LIGAND FREE ENERGY PREDICTED BY IDOCK:   -0.28 KCAL/MOL
REMARK 927      BINDING AFFINITY PREDICTED BY RF-SCORE:    0.00 PKD
ROOT
HETATM    1  O   UNL     1      -9.916  10.421  63.830  1.00  0.00    -0.315 OA 
HETATM    2  C   UNL     1      -9.837  10.916  64.947  1.00  0.00    -0.284 C  
HETATM    3  C   UNL     1      -8.813  10.468  65.901  1.00  0.00    -0.180 C  
HETATM    4  C   UNL     1      -8.786  10.980  67.142  1.00  0.00    -0.140 C  
HETATM    5  C   UNL     1     -10.726  11.989  65.399  1.00  0.00    -0.330 A  
HETATM    6  O   UNL     1      -9.682  11.945  67.594  1.00  0.00    -0.179 OA 
HETATM    7  C   UNL     1     -10.598  12.457  66.705  1.00  0.00    -0.226 A  
HETATM    8  C   UNL     1     -11.663  12.549  64.526  1.00  0.00    -0.423 A  
HETATM    9  C   UNL     1     -11.416  13.497  67.147  1.00  0.00    -0.368 A  
HETATM   10  C   UNL     1     -12.472  13.596  64.966  1.00  0.00    -0.454 A  
HETATM   11  C   UNL     1     -12.347  14.069  66.274  1.00  0.00    -0.482 A  
ENDROOT
BRANCH   4  12
HETATM   12  C   UNL     1      -7.741  10.586  68.119  1.00  0.00    -0.096 A  
HETATM   13  C   UNL     1      -6.022   9.034  68.901  1.00  0.00    -0.044 A  
HETATM   14  C   UNL     1      -6.360  11.116  70.061  1.00  0.00    -0.147 A  
HETATM   15  C   UNL     1      -7.389  11.446  69.172  1.00  0.00    -0.081 A  
HETATM   16  C   UNL     1      -7.056   9.361  68.019  1.00  0.00    -0.081 A  
HETATM   17  C   UNL     1      -5.668   9.916  69.916  1.00  0.00    -0.042 A  
ENDBRANCH   4  12
TORSDOF 1
ENDMDL
MODEL      130
REMARK 921   NORMALIZED FREE ENERGY PREDICTED BY IDOCK:   -3.65 KCAL/MOL
REMARK 922        TOTAL FREE ENERGY PREDICTED BY IDOCK:   -4.12 KCAL/MOL
REMARK 923 INTER-LIGAND FREE ENERGY PREDICTED BY IDOCK:   -3.85 KCAL/MOL
REMARK 924 INTRA-LIGAND FREE ENERGY PREDICTED BY IDOCK:   -0.27 KCAL/MOL
REMARK 927      BINDING AFFINITY PREDICTED BY RF-SCORE:    0.00 PKD
ROOT
HETATM    1  O   UNL     1     -12.005   7.330  70.880  1.00  0.00    -0.316 OA 
HETATM    2  C   UNL     1     -11.295   6.357  70.665  1.00  0.00    -0.357 C  
HETATM    3  C   UNL     1     -10.852   6.031  69.302  1.00  0.00    -0.428 C  
HETATM    4  C   UNL     1     -10.126   4.923  69.082  1.00  0.00    -0.159 C  
HETATM    5  C   UNL     1     -10.820   5.474  71.734  1.00  0.00    -0.277 A  
HETATM    6  O   UNL     1      -9.742   4.044  70.091  1.00  0.00    -0.196 OA 
HETATM    7  C   UNL     1     -10.057   4.360  71.391  1.00  0.00    -0.140 A  
HETATM    8  C   UNL     1     -11.106   5.763  73.071  1.00  0.00    -0.305 A  
HETATM    9  C   UNL     1      -9.573   3.522  72.396  1.00  0.00    -0.198 A  
HETATM   10  C   UNL     1     -10.612   4.930  74.074  1.00  0.00    -0.350 A  
HETATM   11  C   UNL     1      -9.846   3.812  73.737  1.00  0.00    -0.151 A  
ENDROOT
BRANCH   4  12
HETATM   12  C   UNL     1      -9.623   4.584  67.727  1.00  0.00    -0.208 A  
HETATM   13  C   UNL     1      -9.878   4.562  65.297  1.00  0.00    -0.182 A  
HETATM   14  C   UNL     1      -7.830   3.771  66.284  1.00  0.00    -0.089 A  
HETATM   15  C   UNL     1      -8.342   4.034  67.560  1.00  0.00    -0.098 A  
HETATM   16  C   UNL     1     -10.391   4.815  66.572  1.00  0.00    -0.284 A  
HETATM   17  C   UNL     1      -8.594   4.048  65.153  1.00  0.00    -0.114 A  
ENDBRANCH   4  12
TORSDOF 1
ENDMDL
MODEL      131
REMARK 921   NORMALIZED FREE ENERGY PREDICTED BY IDOCK:   -3.62 KCAL/MOL
REMARK 922        TOTAL FREE ENERGY PREDICTED BY IDOCK:   -4.09 KCAL/MOL
REMARK 923 INTER-LIGAND FREE ENERGY PREDICTED BY IDOCK:   -3.86 KCAL/MOL
REMARK 924 INTRA-LIGAND FREE ENERGY PREDICTED BY IDOCK:   -0.23 KCAL/MOL
REMARK 927      BINDING AFFINITY PREDICTED BY RF-SCORE:    0.00 PKD
ROOT
HETATM    1  O   UNL     1     -10.909   4.836  65.746  1.00  0.00    -0.295 OA 
HETATM    2  C   UNL     1     -10.360   5.132  66.799  1.00  0.00    -0.261 C  
HETATM    3  C   UNL     1     -10.964   6.107  67.718  1.00  0.00    -0.400 C  
HETATM    4  C   UNL     1     -10.313   6.463  68.836  1.00  0.00    -0.201 C  
HETATM    5  C   UNL     1      -9.095   4.529  67.227  1.00  0.00    -0.138 A  
HETATM    6  O   UNL     1      -9.074   5.946  69.202  1.00  0.00    -0.121 OA 
HETATM    7  C   UNL     1      -8.516   4.964  68.417  1.00  0.00    -0.094 A  
HETATM    8  C   UNL     1      -8.499   3.519  66.467  1.00  0.00    -0.108 A  
HETATM    9  C   UNL     1      -7.326   4.384  68.855  1.00  0.00    -0.056 A  
HETATM   10  C   UNL     1      -7.315   2.933  66.913  1.00  0.00    -0.069 A  
HETATM   11  C   UNL     1      -6.730   3.364  68.105  1.00  0.00    -0.045 A  
ENDROOT
BRANCH   4  12
HETATM   12  C   UNL     1     -10.911   7.411  69.811  1.00  0.00    -0.246 A  
HETATM   13  C   UNL     1     -12.347   7.876  71.733  1.00  0.00    -0.352 A  
HETATM   14  C   UNL     1     -11.040   9.653  70.767  1.00  0.00    -0.403 A  
HETATM   15  C   UNL     1     -10.535   8.764  69.812  1.00  0.00    -0.222 A  
HETATM   16  C   UNL     1     -11.848   6.992  70.772  1.00  0.00    -0.401 A  
HETATM   17  C   UNL     1     -11.936   9.205  71.735  1.00  0.00    -0.449 A  
ENDBRANCH   4  12
TORSDOF 1
ENDMDL
MODEL      132
REMARK 921   NORMALIZED FREE ENERGY PREDICTED BY IDOCK:   -3.62 KCAL/MOL
REMARK 922        TOTAL FREE ENERGY PREDICTED BY IDOCK:   -4.09 KCAL/MOL
REMARK 923 INTER-LIGAND FREE ENERGY PREDICTED BY IDOCK:   -3.86 KCAL/MOL
REMARK 924 INTRA-LIGAND FREE ENERGY PREDICTED BY IDOCK:   -0.23 KCAL/MOL
REMARK 927      BINDING AFFINITY PREDICTED BY RF-SCORE:    0.00 PKD
ROOT
HETATM    1  O   UNL     1      -9.286  10.104  69.289  1.00  0.00    -0.185 OA 
HETATM    2  C   UNL     1      -9.843   9.023  69.425  1.00  0.00    -0.183 C  
HETATM    3  C   UNL     1      -9.444   7.861  68.620  1.00  0.00    -0.149 C  
HETATM    4  C   UNL     1     -10.111   6.703  68.740  1.00  0.00    -0.158 C  
HETATM    5  C   UNL     1     -10.916   8.805  70.399  1.00  0.00    -0.262 A  
HETATM    6  O   UNL     1     -11.182   6.520  69.612  1.00  0.00    -0.337 OA 
HETATM    7  C   UNL     1     -11.529   7.555  70.448  1.00  0.00    -0.198 A  
HETATM    8  C   UNL     1     -11.294   9.824  71.278  1.00  0.00    -0.445 A  
HETATM    9  C   UNL     1     -12.534   7.318  71.387  1.00  0.00    -0.418 A  
HETATM   10  C   UNL     1     -12.290   9.581  72.222  1.00  0.00    -0.235 A  
HETATM   11  C   UNL     1     -12.908   8.330  72.277  1.00  0.00    -0.313 A  
ENDROOT
BRANCH   4  12
HETATM   12  C   UNL     1      -9.709   5.495  67.978  1.00  0.00    -0.159 A  
HETATM   13  C   UNL     1      -8.402   3.440  67.763  1.00  0.00    -0.095 A  
HETATM   14  C   UNL     1     -10.005   4.013  66.061  1.00  0.00    -0.138 A  
HETATM   15  C   UNL     1     -10.328   5.183  66.756  1.00  0.00    -0.306 A  
HETATM   16  C   UNL     1      -8.720   4.615  68.452  1.00  0.00    -0.111 A  
HETATM   17  C   UNL     1      -9.052   3.135  66.572  1.00  0.00    -0.170 A  
ENDBRANCH   4  12
TORSDOF 1
ENDMDL
MODEL      133
REMARK 921   NORMALIZED FREE ENERGY PREDICTED BY IDOCK:   -3.60 KCAL/MOL
REMARK 922        TOTAL FREE ENERGY PREDICTED BY IDOCK:   -4.07 KCAL/MOL
REMARK 923 INTER-LIGAND FREE ENERGY PREDICTED BY IDOCK:   -3.83 KCAL/MOL
REMARK 924 INTRA-LIGAND FREE ENERGY PREDICTED BY IDOCK:   -0.25 KCAL/MOL
REMARK 927      BINDING AFFINITY PREDICTED BY RF-SCORE:    0.00 PKD
ROOT
HETATM    1  O   UNL     1     -11.079   7.887  73.076  1.00  0.00    -0.402 OA 
HETATM    2  C   UNL     1     -10.675   7.332  72.063  1.00  0.00    -0.211 C  
HETATM    3  C   UNL     1     -10.345   8.106  70.858  1.00  0.00    -0.218 C  
HETATM    4  C   UNL     1      -9.965   7.471  69.739  1.00  0.00    -0.186 C  
HETATM    5  C   UNL     1     -10.473   5.883  71.983  1.00  0.00    -0.259 A  
HETATM    6  O   UNL     1      -9.847   6.086  69.644  1.00  0.00    -0.154 OA 
HETATM    7  C   UNL     1     -10.059   5.332  70.773  1.00  0.00    -0.224 A  
HETATM    8  C   UNL     1     -10.664   5.078  73.110  1.00  0.00    -0.314 A  
HETATM    9  C   UNL     1      -9.834   3.957  70.684  1.00  0.00    -0.193 A  
HETATM   10  C   UNL     1     -10.428   3.707  73.022  1.00  0.00    -0.253 A  
HETATM   11  C   UNL     1     -10.013   3.148  71.811  1.00  0.00    -0.192 A  
ENDROOT
BRANCH   4  12
HETATM   12  C   UNL     1      -9.579   8.219  68.516  1.00  0.00    -0.154 A  
HETATM   13  C   UNL     1      -9.899   8.766  66.156  1.00  0.00    -0.297 A  
HETATM   14  C   UNL     1      -8.238   9.948  67.435  1.00  0.00    -0.118 A  
HETATM   15  C   UNL     1      -8.565   9.189  68.564  1.00  0.00    -0.129 A  
HETATM   16  C   UNL     1     -10.219   8.003  67.283  1.00  0.00    -0.345 A  
HETATM   17  C   UNL     1      -8.915   9.745  66.236  1.00  0.00    -0.180 A  
ENDBRANCH   4  12
TORSDOF 1
ENDMDL
MODEL      134
REMARK 921   NORMALIZED FREE ENERGY PREDICTED BY IDOCK:   -3.56 KCAL/MOL
REMARK 922        TOTAL FREE ENERGY PREDICTED BY IDOCK:   -4.03 KCAL/MOL
REMARK 923 INTER-LIGAND FREE ENERGY PREDICTED BY IDOCK:   -3.76 KCAL/MOL
REMARK 924 INTRA-LIGAND FREE ENERGY PREDICTED BY IDOCK:   -0.27 KCAL/MOL
REMARK 927      BINDING AFFINITY PREDICTED BY RF-SCORE:    0.00 PKD
ROOT
HETATM    1  O   UNL     1      -8.811   7.573  65.337  1.00  0.00    -0.059 OA 
HETATM    2  C   UNL     1      -9.164   6.895  66.293  1.00  0.00    -0.120 C  
HETATM    3  C   UNL     1      -9.738   7.520  67.492  1.00  0.00    -0.190 C  
HETATM    4  C   UNL     1     -10.058   6.763  68.552  1.00  0.00    -0.162 C  
HETATM    5  C   UNL     1      -9.064   5.433  66.303  1.00  0.00    -0.144 A  
HETATM    6  O   UNL     1      -9.890   5.381  68.588  1.00  0.00    -0.130 OA 
HETATM    7  C   UNL     1      -9.441   4.746  67.454  1.00  0.00    -0.146 A  
HETATM    8  C   UNL     1      -8.625   4.744  65.169  1.00  0.00    -0.140 A  
HETATM    9  C   UNL     1      -9.379   3.352  67.475  1.00  0.00    -0.248 A  
HETATM   10  C   UNL     1      -8.575   3.351  65.188  1.00  0.00    -0.112 A  
HETATM   11  C   UNL     1      -8.952   2.657  66.339  1.00  0.00    -0.147 A  
ENDROOT
BRANCH   4  12
HETATM   12  C   UNL     1     -10.682   7.351  69.764  1.00  0.00    -0.252 A  
HETATM   13  C   UNL     1     -10.954   9.193  71.348  1.00  0.00    -0.414 A  
HETATM   14  C   UNL     1     -12.331   7.230  71.560  1.00  0.00    -0.397 A  
HETATM   15  C   UNL     1     -11.689   6.658  70.456  1.00  0.00    -0.453 A  
HETATM   16  C   UNL     1     -10.308   8.616  70.250  1.00  0.00    -0.217 A  
HETATM   17  C   UNL     1     -11.972   8.503  71.996  1.00  0.00    -0.427 A  
ENDBRANCH   4  12
TORSDOF 1
ENDMDL
MODEL      135
REMARK 921   NORMALIZED FREE ENERGY PREDICTED BY IDOCK:   -3.55 KCAL/MOL
REMARK 922        TOTAL FREE ENERGY PREDICTED BY IDOCK:   -4.01 KCAL/MOL
REMARK 923 INTER-LIGAND FREE ENERGY PREDICTED BY IDOCK:   -3.73 KCAL/MOL
REMARK 924 INTRA-LIGAND FREE ENERGY PREDICTED BY IDOCK:   -0.28 KCAL/MOL
REMARK 927      BINDING AFFINITY PREDICTED BY RF-SCORE:    0.00 PKD
ROOT
HETATM    1  O   UNL     1     -11.961  11.283  68.360  1.00  0.00    -0.555 OA 
HETATM    2  C   UNL     1     -10.919  11.904  68.195  1.00  0.00    -0.227 C  
HETATM    3  C   UNL     1     -10.935  13.348  67.928  1.00  0.00    -0.276 C  
HETATM    4  C   UNL     1      -9.785  13.996  67.687  1.00  0.00    -0.228 C  
HETATM    5  C   UNL     1      -9.600  11.269  68.273  1.00  0.00    -0.193 A  
HETATM    6  O   UNL     1      -8.539  13.375  67.685  1.00  0.00    -0.167 OA 
HETATM    7  C   UNL     1      -8.470  12.043  68.020  1.00  0.00    -0.168 A  
HETATM    8  C   UNL     1      -9.482   9.921  68.623  1.00  0.00    -0.153 A  
HETATM    9  C   UNL     1      -7.204  11.465  68.116  1.00  0.00    -0.082 A  
HETATM   10  C   UNL     1      -8.216   9.348  68.729  1.00  0.00    -0.108 A  
HETATM   11  C   UNL     1      -7.079  10.119  68.477  1.00  0.00    -0.074 A  
ENDROOT
BRANCH   4  12
HETATM   12  C   UNL     1      -9.755  15.463  67.457  1.00  0.00    -0.208 A  
HETATM   13  C   UNL     1      -8.601  17.488  66.721  1.00  0.00    -0.276 A  
HETATM   14  C   UNL     1     -10.909  17.613  67.394  1.00  0.00    -0.178 A  
HETATM   15  C   UNL     1     -10.905  16.241  67.670  1.00  0.00    -0.293 A  
HETATM   16  C   UNL     1      -8.596  16.119  67.005  1.00  0.00    -0.233 A  
HETATM   17  C   UNL     1      -9.761  18.232  66.907  1.00  0.00    -0.317 A  
ENDBRANCH   4  12
TORSDOF 1
ENDMDL
MODEL      136
REMARK 921   NORMALIZED FREE ENERGY PREDICTED BY IDOCK:   -3.54 KCAL/MOL
REMARK 922        TOTAL FREE ENERGY PREDICTED BY IDOCK:   -4.01 KCAL/MOL
REMARK 923 INTER-LIGAND FREE ENERGY PREDICTED BY IDOCK:   -3.74 KCAL/MOL
REMARK 924 INTRA-LIGAND FREE ENERGY PREDICTED BY IDOCK:   -0.27 KCAL/MOL
REMARK 927      BINDING AFFINITY PREDICTED BY RF-SCORE:    0.00 PKD
ROOT
HETATM    1  O   UNL     1      -8.859  15.838  68.226  1.00  0.00    -0.175 OA 
HETATM    2  C   UNL     1      -9.289  14.821  67.697  1.00  0.00    -0.195 C  
HETATM    3  C   UNL     1      -9.032  13.499  68.285  1.00  0.00    -0.180 C  
HETATM    4  C   UNL     1      -9.459  12.394  67.654  1.00  0.00    -0.190 C  
HETATM    5  C   UNL     1     -10.095  14.847  66.474  1.00  0.00    -0.279 A  
HETATM    6  O   UNL     1     -10.159  12.417  66.451  1.00  0.00    -0.227 OA 
HETATM    7  C   UNL     1     -10.498  13.637  65.914  1.00  0.00    -0.296 A  
HETATM    8  C   UNL     1     -10.475  16.064  65.901  1.00  0.00    -0.373 A  
HETATM    9  C   UNL     1     -11.290  13.640  64.765  1.00  0.00    -0.365 A  
HETATM   10  C   UNL     1     -11.275  16.065  64.759  1.00  0.00    -0.348 A  
HETATM   11  C   UNL     1     -11.682  14.855  64.193  1.00  0.00    -0.144 A  
ENDROOT
BRANCH   4  12
HETATM   12  C   UNL     1      -9.259  11.043  68.238  1.00  0.00    -0.165 A  
HETATM   13  C   UNL     1      -9.952   8.718  68.530  1.00  0.00    -0.200 A  
HETATM   14  C   UNL     1      -7.882   9.472  69.499  1.00  0.00    -0.103 A  
HETATM   15  C   UNL     1      -8.114  10.758  68.999  1.00  0.00    -0.140 A  
HETATM   16  C   UNL     1     -10.187  10.005  68.039  1.00  0.00    -0.216 A  
HETATM   17  C   UNL     1      -8.795   8.450  69.252  1.00  0.00    -0.142 A  
ENDBRANCH   4  12
TORSDOF 1
ENDMDL
MODEL      137
REMARK 921   NORMALIZED FREE ENERGY PREDICTED BY IDOCK:   -3.53 KCAL/MOL
REMARK 922        TOTAL FREE ENERGY PREDICTED BY IDOCK:   -4.00 KCAL/MOL
REMARK 923 INTER-LIGAND FREE ENERGY PREDICTED BY IDOCK:   -3.76 KCAL/MOL
REMARK 924 INTRA-LIGAND FREE ENERGY PREDICTED BY IDOCK:   -0.23 KCAL/MOL
REMARK 927      BINDING AFFINITY PREDICTED BY RF-SCORE:    0.00 PKD
ROOT
HETATM    1  O   UNL     1      -8.685   9.539  64.908  1.00  0.00    -0.165 OA 
HETATM    2  C   UNL     1      -9.295  10.310  65.638  1.00  0.00    -0.192 C  
HETATM    3  C   UNL     1      -9.558  11.694  65.223  1.00  0.00    -0.220 C  
HETATM    4  C   UNL     1     -10.173  12.539  66.065  1.00  0.00    -0.251 C  
HETATM    5  C   UNL     1      -9.821   9.909  66.946  1.00  0.00    -0.252 A  
HETATM    6  O   UNL     1     -10.604  12.176  67.339  1.00  0.00    -0.219 OA 
HETATM    7  C   UNL     1     -10.459  10.867  67.731  1.00  0.00    -0.203 A  
HETATM    8  C   UNL     1      -9.708   8.585  67.380  1.00  0.00    -0.222 A  
HETATM    9  C   UNL     1     -10.990  10.499  68.968  1.00  0.00    -0.289 A  
HETATM   10  C   UNL     1     -10.249   8.218  68.612  1.00  0.00    -0.223 A  
HETATM   11  C   UNL     1     -10.890   9.174  69.403  1.00  0.00    -0.165 A  
ENDROOT
BRANCH   4  12
HETATM   12  C   UNL     1     -10.497  13.932  65.666  1.00  0.00    -0.320 A  
HETATM   13  C   UNL     1      -9.863  16.275  65.382  1.00  0.00    -0.005 A  
HETATM   14  C   UNL     1     -12.032  15.533  64.646  1.00  0.00    -0.114 A  
HETATM   15  C   UNL     1     -11.740  14.237  65.088  1.00  0.00    -0.368 A  
HETATM   16  C   UNL     1      -9.577  14.982  65.830  1.00  0.00    -0.356 A  
HETATM   17  C   UNL     1     -11.088  16.547  64.782  1.00  0.00    -0.197 A  
ENDBRANCH   4  12
TORSDOF 1
ENDMDL
MODEL      138
REMARK 921   NORMALIZED FREE ENERGY PREDICTED BY IDOCK:   -3.52 KCAL/MOL
REMARK 922        TOTAL FREE ENERGY PREDICTED BY IDOCK:   -3.98 KCAL/MOL
REMARK 923 INTER-LIGAND FREE ENERGY PREDICTED BY IDOCK:   -3.71 KCAL/MOL
REMARK 924 INTRA-LIGAND FREE ENERGY PREDICTED BY IDOCK:   -0.27 KCAL/MOL
REMARK 927      BINDING AFFINITY PREDICTED BY RF-SCORE:    0.00 PKD
ROOT
HETATM    1  O   UNL     1     -12.276  14.576  67.307  1.00  0.00    -0.347 OA 
HETATM    2  C   UNL     1     -11.079  14.350  67.186  1.00  0.00    -0.312 C  
HETATM    3  C   UNL     1     -10.564  12.975  67.214  1.00  0.00    -0.247 C  
HETATM    4  C   UNL     1      -9.241  12.755  67.144  1.00  0.00    -0.219 C  
HETATM    5  C   UNL     1     -10.090  15.414  66.985  1.00  0.00    -0.249 A  
HETATM    6  O   UNL     1      -8.298  13.773  67.030  1.00  0.00    -0.176 OA 
HETATM    7  C   UNL     1      -8.743  15.068  66.910  1.00  0.00    -0.256 A  
HETATM    8  C   UNL     1     -10.498  16.743  66.845  1.00  0.00    -0.269 A  
HETATM    9  C   UNL     1      -7.789  16.062  66.692  1.00  0.00    -0.266 A  
HETATM   10  C   UNL     1      -9.544  17.733  66.616  1.00  0.00    -0.311 A  
HETATM   11  C   UNL     1      -8.192  17.393  66.538  1.00  0.00    -0.311 A  
ENDROOT
BRANCH   4  12
HETATM   12  C   UNL     1      -8.685  11.378  67.123  1.00  0.00    -0.155 A  
HETATM   13  C   UNL     1      -8.780   9.025  67.778  1.00  0.00    -0.125 A  
HETATM   14  C   UNL     1      -7.068   9.768  66.257  1.00  0.00    -0.095 A  
HETATM   15  C   UNL     1      -7.561  11.075  66.337  1.00  0.00    -0.135 A  
HETATM   16  C   UNL     1      -9.266  10.333  67.863  1.00  0.00    -0.143 A  
HETATM   17  C   UNL     1      -7.686   8.742  66.967  1.00  0.00    -0.095 A  
ENDBRANCH   4  12
TORSDOF 1
ENDMDL
MODEL      139
REMARK 921   NORMALIZED FREE ENERGY PREDICTED BY IDOCK:   -3.51 KCAL/MOL
REMARK 922        TOTAL FREE ENERGY PREDICTED BY IDOCK:   -3.98 KCAL/MOL
REMARK 923 INTER-LIGAND FREE ENERGY PREDICTED BY IDOCK:   -3.74 KCAL/MOL
REMARK 924 INTRA-LIGAND FREE ENERGY PREDICTED BY IDOCK:   -0.23 KCAL/MOL
REMARK 927      BINDING AFFINITY PREDICTED BY RF-SCORE:    0.00 PKD
ROOT
HETATM    1  O   UNL     1     -10.784  11.073  66.303  1.00  0.00    -0.260 OA 
HETATM    2  C   UNL     1     -10.225  10.702  67.327  1.00  0.00    -0.208 C  
HETATM    3  C   UNL     1     -10.863   9.731  68.226  1.00  0.00    -0.256 C  
HETATM    4  C   UNL     1     -10.259   9.387  69.375  1.00  0.00    -0.207 C  
HETATM    5  C   UNL     1      -8.891  11.172  67.714  1.00  0.00    -0.135 A  
HETATM    6  O   UNL     1      -9.026   9.895  69.777  1.00  0.00    -0.207 OA 
HETATM    7  C   UNL     1      -8.354  10.736  68.922  1.00  0.00    -0.147 A  
HETATM    8  C   UNL     1      -8.166  12.018  66.870  1.00  0.00    -0.146 A  
HETATM    9  C   UNL     1      -7.075  11.150  69.296  1.00  0.00    -0.123 A  
HETATM   10  C   UNL     1      -6.884  12.421  67.240  1.00  0.00    -0.127 A  
HETATM   11  C   UNL     1      -6.339  11.987  68.451  1.00  0.00    -0.053 A  
ENDROOT
BRANCH   4  12
HETATM   12  C   UNL     1     -10.850   8.376  70.287  1.00  0.00    -0.244 A  
HETATM   13  C   UNL     1     -12.231   7.786  72.215  1.00  0.00    -0.298 A  
HETATM   14  C   UNL     1     -11.278   6.042  70.858  1.00  0.00    -0.335 A  
HETATM   15  C   UNL     1     -10.671   7.005  70.043  1.00  0.00    -0.267 A  
HETATM   16  C   UNL     1     -11.617   8.746  71.406  1.00  0.00    -0.366 A  
HETATM   17  C   UNL     1     -12.068   6.434  71.935  1.00  0.00    -0.362 A  
ENDBRANCH   4  12
TORSDOF 1
ENDMDL
MODEL      140
REMARK 921   NORMALIZED FREE ENERGY PREDICTED BY IDOCK:   -3.50 KCAL/MOL
REMARK 922        TOTAL FREE ENERGY PREDICTED BY IDOCK:   -3.96 KCAL/MOL
REMARK 923 INTER-LIGAND FREE ENERGY PREDICTED BY IDOCK:   -3.68 KCAL/MOL
REMARK 924 INTRA-LIGAND FREE ENERGY PREDICTED BY IDOCK:   -0.28 KCAL/MOL
REMARK 927      BINDING AFFINITY PREDICTED BY RF-SCORE:    0.00 PKD
ROOT
HETATM    1  O   UNL     1      -7.186   8.850  68.109  1.00  0.00    -0.077 OA 
HETATM    2  C   UNL     1      -7.892   8.298  68.942  1.00  0.00    -0.111 C  
HETATM    3  C   UNL     1      -9.039   8.994  69.540  1.00  0.00    -0.151 C  
HETATM    4  C   UNL     1      -9.761   8.391  70.499  1.00  0.00    -0.173 C  
HETATM    5  C   UNL     1      -7.664   6.918  69.381  1.00  0.00    -0.105 A  
HETATM    6  O   UNL     1      -9.494   7.108  70.969  1.00  0.00    -0.159 OA 
HETATM    7  C   UNL     1      -8.486   6.388  70.373  1.00  0.00    -0.131 A  
HETATM    8  C   UNL     1      -6.659   6.144  68.794  1.00  0.00    -0.055 A  
HETATM    9  C   UNL     1      -8.303   5.068  70.785  1.00  0.00    -0.107 A  
HETATM   10  C   UNL     1      -6.485   4.822  69.200  1.00  0.00    -0.039 A  
HETATM   11  C   UNL     1      -7.306   4.285  70.194  1.00  0.00    -0.046 A  
ENDROOT
BRANCH   4  12
HETATM   12  C   UNL     1     -10.954   9.043  71.095  1.00  0.00    -0.371 A  
HETATM   13  C   UNL     1     -12.627  10.825  71.119  1.00  0.00    -0.532 A  
HETATM   14  C   UNL     1     -12.793   9.017  72.699  1.00  0.00    -0.315 A  
HETATM   15  C   UNL     1     -11.630   8.446  72.171  1.00  0.00    -0.442 A  
HETATM   16  C   UNL     1     -11.459  10.259  70.599  1.00  0.00    -0.435 A  
HETATM   17  C   UNL     1     -13.298  10.198  72.163  1.00  0.00    -0.431 A  
ENDBRANCH   4  12
TORSDOF 1
ENDMDL
MODEL      141
REMARK 921   NORMALIZED FREE ENERGY PREDICTED BY IDOCK:   -3.48 KCAL/MOL
REMARK 922        TOTAL FREE ENERGY PREDICTED BY IDOCK:   -3.94 KCAL/MOL
REMARK 923 INTER-LIGAND FREE ENERGY PREDICTED BY IDOCK:   -3.70 KCAL/MOL
REMARK 924 INTRA-LIGAND FREE ENERGY PREDICTED BY IDOCK:   -0.24 KCAL/MOL
REMARK 927      BINDING AFFINITY PREDICTED BY RF-SCORE:    0.00 PKD
ROOT
HETATM    1  O   UNL     1     -10.429   6.683  67.919  1.00  0.00    -0.175 OA 
HETATM    2  C   UNL     1     -10.189   7.560  68.739  1.00  0.00    -0.197 C  
HETATM    3  C   UNL     1      -9.271   8.662  68.419  1.00  0.00    -0.138 C  
HETATM    4  C   UNL     1      -8.974   9.577  69.354  1.00  0.00    -0.172 C  
HETATM    5  C   UNL     1     -10.806   7.589  70.067  1.00  0.00    -0.260 A  
HETATM    6  O   UNL     1      -9.503   9.559  70.642  1.00  0.00    -0.257 OA 
HETATM    7  C   UNL     1     -10.435   8.598  70.954  1.00  0.00    -0.214 A  
HETATM    8  C   UNL     1     -11.768   6.640  70.423  1.00  0.00    -0.446 A  
HETATM    9  C   UNL     1     -11.031   8.659  72.214  1.00  0.00    -0.392 A  
HETATM   10  C   UNL     1     -12.370   6.710  71.679  1.00  0.00    -0.382 A  
HETATM   11  C   UNL     1     -12.003   7.719  72.572  1.00  0.00    -0.304 A  
ENDROOT
BRANCH   4  12
HETATM   12  C   UNL     1      -8.087  10.730  69.056  1.00  0.00    -0.140 A  
HETATM   13  C   UNL     1      -7.576  12.764  67.801  1.00  0.00    -0.141 A  
HETATM   14  C   UNL     1      -6.122  12.074  69.591  1.00  0.00    -0.129 A  
HETATM   15  C   UNL     1      -6.930  10.955  69.819  1.00  0.00    -0.121 A  
HETATM   16  C   UNL     1      -8.377  11.640  68.024  1.00  0.00    -0.148 A  
HETATM   17  C   UNL     1      -6.453  12.985  68.591  1.00  0.00    -0.087 A  
ENDBRANCH   4  12
TORSDOF 1
ENDMDL
MODEL      142
REMARK 921   NORMALIZED FREE ENERGY PREDICTED BY IDOCK:   -3.41 KCAL/MOL
REMARK 922        TOTAL FREE ENERGY PREDICTED BY IDOCK:   -3.86 KCAL/MOL
REMARK 923 INTER-LIGAND FREE ENERGY PREDICTED BY IDOCK:   -3.63 KCAL/MOL
REMARK 924 INTRA-LIGAND FREE ENERGY PREDICTED BY IDOCK:   -0.23 KCAL/MOL
REMARK 927      BINDING AFFINITY PREDICTED BY RF-SCORE:    0.00 PKD
ROOT
HETATM    1  O   UNL     1      -7.109  15.158  66.841  1.00  0.00    -0.148 OA 
HETATM    2  C   UNL     1      -8.092  14.531  67.214  1.00  0.00    -0.196 C  
HETATM    3  C   UNL     1      -8.130  13.064  67.128  1.00  0.00    -0.114 C  
HETATM    4  C   UNL     1      -9.242  12.403  67.483  1.00  0.00    -0.183 C  
HETATM    5  C   UNL     1      -9.274  15.182  67.785  1.00  0.00    -0.180 A  
HETATM    6  O   UNL     1     -10.392  13.031  67.954  1.00  0.00    -0.221 OA 
HETATM    7  C   UNL     1     -10.367  14.393  68.135  1.00  0.00    -0.231 A  
HETATM    8  C   UNL     1      -9.288  16.563  68.000  1.00  0.00    -0.218 A  
HETATM    9  C   UNL     1     -11.492  14.990  68.706  1.00  0.00    -0.337 A  
HETATM   10  C   UNL     1     -10.408  17.156  68.580  1.00  0.00    -0.359 A  
HETATM   11  C   UNL     1     -11.507  16.370  68.934  1.00  0.00    -0.216 A  
ENDROOT
BRANCH   4  12
HETATM   12  C   UNL     1      -9.303  10.920  67.453  1.00  0.00    -0.166 A  
HETATM   13  C   UNL     1      -9.920   8.828  66.348  1.00  0.00    -0.346 A  
HETATM   14  C   UNL     1      -8.703   8.762  68.425  1.00  0.00    -0.135 A  
HETATM   15  C   UNL     1      -8.710  10.161  68.475  1.00  0.00    -0.123 A  
HETATM   16  C   UNL     1      -9.933  10.225  66.405  1.00  0.00    -0.287 A  
HETATM   17  C   UNL     1      -9.296   8.098  67.354  1.00  0.00    -0.171 A  
ENDBRANCH   4  12
TORSDOF 1
ENDMDL
MODEL      143
REMARK 921   NORMALIZED FREE ENERGY PREDICTED BY IDOCK:   -3.37 KCAL/MOL
REMARK 922        TOTAL FREE ENERGY PREDICTED BY IDOCK:   -3.83 KCAL/MOL
REMARK 923 INTER-LIGAND FREE ENERGY PREDICTED BY IDOCK:   -3.56 KCAL/MOL
REMARK 924 INTRA-LIGAND FREE ENERGY PREDICTED BY IDOCK:   -0.26 KCAL/MOL
REMARK 927      BINDING AFFINITY PREDICTED BY RF-SCORE:    0.00 PKD
ROOT
HETATM    1  O   UNL     1     -10.481   7.995  71.883  1.00  0.00    -0.212 OA 
HETATM    2  C   UNL     1      -9.985   8.539  70.905  1.00  0.00    -0.191 C  
HETATM    3  C   UNL     1     -10.676   9.641  70.223  1.00  0.00    -0.335 C  
HETATM    4  C   UNL     1     -10.144  10.180  69.114  1.00  0.00    -0.213 C  
HETATM    5  C   UNL     1      -8.678   8.154  70.365  1.00  0.00    -0.136 A  
HETATM    6  O   UNL     1      -8.938   9.760  68.559  1.00  0.00    -0.122 OA 
HETATM    7  C   UNL     1      -8.215   8.793  69.217  1.00  0.00    -0.108 A  
HETATM    8  C   UNL     1      -7.903   7.186  71.009  1.00  0.00    -0.095 A  
HETATM    9  C   UNL     1      -6.961   8.461  68.703  1.00  0.00    -0.068 A  
HETATM   10  C   UNL     1      -6.646   6.863  70.499  1.00  0.00    -0.052 A  
HETATM   11  C   UNL     1      -6.176   7.501  69.349  1.00  0.00    -0.031 A  
ENDROOT
BRANCH   4  12
HETATM   12  C   UNL     1     -10.789  11.324  68.423  1.00  0.00    -0.248 A  
HETATM   13  C   UNL     1     -11.462  12.481  66.378  1.00  0.00    -0.418 A  
HETATM   14  C   UNL     1     -12.111  13.374  68.517  1.00  0.00    -0.283 A  
HETATM   15  C   UNL     1     -11.443  12.326  69.159  1.00  0.00    -0.352 A  
HETATM   16  C   UNL     1     -10.787  11.440  67.021  1.00  0.00    -0.331 A  
HETATM   17  C   UNL     1     -12.132  13.443  67.126  1.00  0.00    -0.367 A  
ENDBRANCH   4  12
TORSDOF 1
ENDMDL
MODEL      144
REMARK 921   NORMALIZED FREE ENERGY PREDICTED BY IDOCK:   -3.34 KCAL/MOL
REMARK 922        TOTAL FREE ENERGY PREDICTED BY IDOCK:   -3.80 KCAL/MOL
REMARK 923 INTER-LIGAND FREE ENERGY PREDICTED BY IDOCK:   -3.52 KCAL/MOL
REMARK 924 INTRA-LIGAND FREE ENERGY PREDICTED BY IDOCK:   -0.28 KCAL/MOL
REMARK 927      BINDING AFFINITY PREDICTED BY RF-SCORE:    0.00 PKD
ROOT
HETATM    1  O   UNL     1      -8.758   8.318  66.664  1.00  0.00    -0.126 OA 
HETATM    2  C   UNL     1      -9.263   8.504  67.764  1.00  0.00    -0.135 C  
HETATM    3  C   UNL     1      -8.972   7.607  68.890  1.00  0.00    -0.137 C  
HETATM    4  C   UNL     1      -9.587   7.793  70.069  1.00  0.00    -0.161 C  
HETATM    5  C   UNL     1     -10.162   9.628  68.040  1.00  0.00    -0.235 A  
HETATM    6  O   UNL     1     -10.500   8.817  70.306  1.00  0.00    -0.196 OA 
HETATM    7  C   UNL     1     -10.732   9.732  69.306  1.00  0.00    -0.224 A  
HETATM    8  C   UNL     1     -10.416  10.590  67.058  1.00  0.00    -0.304 A  
HETATM    9  C   UNL     1     -11.569  10.810  69.598  1.00  0.00    -0.388 A  
HETATM   10  C   UNL     1     -11.244  11.672  67.355  1.00  0.00    -0.358 A  
HETATM   11  C   UNL     1     -11.818  11.782  68.623  1.00  0.00    -0.369 A  
ENDROOT
BRANCH   4  12
HETATM   12  C   UNL     1      -9.285   6.936  71.243  1.00  0.00    -0.157 A  
HETATM   13  C   UNL     1      -9.564   6.373  73.605  1.00  0.00    -0.178 A  
HETATM   14  C   UNL     1      -8.255   4.935  72.187  1.00  0.00    -0.115 A  
HETATM   15  C   UNL     1      -8.491   5.786  71.102  1.00  0.00    -0.128 A  
HETATM   16  C   UNL     1      -9.792   7.227  72.522  1.00  0.00    -0.195 A  
HETATM   17  C   UNL     1      -8.803   5.222  73.434  1.00  0.00    -0.113 A  
ENDBRANCH   4  12
TORSDOF 1
ENDMDL
MODEL      145
REMARK 921   NORMALIZED FREE ENERGY PREDICTED BY IDOCK:   -3.33 KCAL/MOL
REMARK 922        TOTAL FREE ENERGY PREDICTED BY IDOCK:   -3.78 KCAL/MOL
REMARK 923 INTER-LIGAND FREE ENERGY PREDICTED BY IDOCK:   -3.52 KCAL/MOL
REMARK 924 INTRA-LIGAND FREE ENERGY PREDICTED BY IDOCK:   -0.27 KCAL/MOL
REMARK 927      BINDING AFFINITY PREDICTED BY RF-SCORE:    0.00 PKD
ROOT
HETATM    1  O   UNL     1      -9.908   5.644  66.196  1.00  0.00    -0.149 OA 
HETATM    2  C   UNL     1      -9.840   6.718  66.779  1.00  0.00    -0.178 C  
HETATM    3  C   UNL     1     -10.147   7.975  66.082  1.00  0.00     0.137 C  
HETATM    4  C   UNL     1     -10.005   9.146  66.723  1.00  0.00    -0.254 C  
HETATM    5  C   UNL     1      -9.479   6.828  68.195  1.00  0.00    -0.120 A  
HETATM    6  O   UNL     1      -9.587   9.251  68.047  1.00  0.00    -0.140 OA 
HETATM    7  C   UNL     1      -9.377   8.096  68.762  1.00  0.00    -0.143 A  
HETATM    8  C   UNL     1      -9.270   5.679  68.964  1.00  0.00    -0.141 A  
HETATM    9  C   UNL     1      -9.061   8.221  70.115  1.00  0.00    -0.147 A  
HETATM   10  C   UNL     1      -8.965   5.806  70.319  1.00  0.00    -0.149 A  
HETATM   11  C   UNL     1      -8.862   7.075  70.893  1.00  0.00    -0.148 A  
ENDROOT
BRANCH   4  12
HETATM   12  C   UNL     1     -10.347  10.433  66.068  1.00  0.00    -0.262 A  
HETATM   13  C   UNL     1     -11.129  12.747  66.181  1.00  0.00    -0.322 A  
HETATM   14  C   UNL     1     -10.383  11.845  64.077  1.00  0.00    -0.403 A  
HETATM   15  C   UNL     1     -10.127  10.615  64.693  1.00  0.00    -0.417 A  
HETATM   16  C   UNL     1     -10.880  11.514  66.793  1.00  0.00    -0.330 A  
HETATM   17  C   UNL     1     -10.871  12.913  64.824  1.00  0.00    -0.350 A  
ENDBRANCH   4  12
TORSDOF 1
ENDMDL
MODEL      146
REMARK 921   NORMALIZED FREE ENERGY PREDICTED BY IDOCK:   -3.32 KCAL/MOL
REMARK 922        TOTAL FREE ENERGY PREDICTED BY IDOCK:   -3.77 KCAL/MOL
REMARK 923 INTER-LIGAND FREE ENERGY PREDICTED BY IDOCK:   -3.49 KCAL/MOL
REMARK 924 INTRA-LIGAND FREE ENERGY PREDICTED BY IDOCK:   -0.28 KCAL/MOL
REMARK 927      BINDING AFFINITY PREDICTED BY RF-SCORE:    0.00 PKD
ROOT
HETATM    1  O   UNL     1      -9.409   8.009  70.224  1.00  0.00    -0.158 OA 
HETATM    2  C   UNL     1      -9.384   8.616  69.161  1.00  0.00    -0.153 C  
HETATM    3  C   UNL     1     -10.060   9.912  69.015  1.00  0.00    -0.199 C  
HETATM    4  C   UNL     1     -10.073  10.529  67.823  1.00  0.00    -0.175 C  
HETATM    5  C   UNL     1      -8.670   8.116  67.983  1.00  0.00    -0.128 A  
HETATM    6  O   UNL     1      -9.458  10.013  66.685  1.00  0.00    -0.161 OA 
HETATM    7  C   UNL     1      -8.738   8.848  66.800  1.00  0.00    -0.119 A  
HETATM    8  C   UNL     1      -7.913   6.943  68.057  1.00  0.00    -0.115 A  
HETATM    9  C   UNL     1      -8.043   8.403  65.675  1.00  0.00    -0.125 A  
HETATM   10  C   UNL     1      -7.211   6.506  66.935  1.00  0.00    -0.078 A  
HETATM   11  C   UNL     1      -7.275   7.236  65.746  1.00  0.00    -0.070 A  
ENDROOT
BRANCH   4  12
HETATM   12  C   UNL     1     -10.707  11.859  67.646  1.00  0.00    -0.253 A  
HETATM   13  C   UNL     1     -11.786  13.851  68.564  1.00  0.00    -0.401 A  
HETATM   14  C   UNL     1     -11.289  13.746  66.211  1.00  0.00    -0.329 A  
HETATM   15  C   UNL     1     -10.754  12.464  66.380  1.00  0.00    -0.277 A  
HETATM   16  C   UNL     1     -11.260  12.566  68.729  1.00  0.00    -0.318 A  
HETATM   17  C   UNL     1     -11.792  14.444  67.306  1.00  0.00    -0.434 A  
ENDBRANCH   4  12
TORSDOF 1
ENDMDL
MODEL      147
REMARK 921   NORMALIZED FREE ENERGY PREDICTED BY IDOCK:   -3.28 KCAL/MOL
REMARK 922        TOTAL FREE ENERGY PREDICTED BY IDOCK:   -3.73 KCAL/MOL
REMARK 923 INTER-LIGAND FREE ENERGY PREDICTED BY IDOCK:   -3.46 KCAL/MOL
REMARK 924 INTRA-LIGAND FREE ENERGY PREDICTED BY IDOCK:   -0.27 KCAL/MOL
REMARK 927      BINDING AFFINITY PREDICTED BY RF-SCORE:    0.00 PKD
ROOT
HETATM    1  O   UNL     1     -11.011   5.553  70.306  1.00  0.00    -0.269 OA 
HETATM    2  C   UNL     1     -10.288   6.088  69.476  1.00  0.00    -0.233 C  
HETATM    3  C   UNL     1     -10.677   7.354  68.841  1.00  0.00    -0.152 C  
HETATM    4  C   UNL     1      -9.900   7.890  67.887  1.00  0.00    -0.165 C  
HETATM    5  C   UNL     1      -8.993   5.529  69.078  1.00  0.00    -0.118 A  
HETATM    6  O   UNL     1      -8.706   7.316  67.456  1.00  0.00    -0.121 OA 
HETATM    7  C   UNL     1      -8.261   6.179  68.088  1.00  0.00    -0.114 A  
HETATM    8  C   UNL     1      -8.494   4.382  69.703  1.00  0.00    -0.089 A  
HETATM    9  C   UNL     1      -7.013   5.678  67.714  1.00  0.00    -0.066 A  
HETATM   10  C   UNL     1      -7.242   3.890  69.336  1.00  0.00    -0.046 A  
HETATM   11  C   UNL     1      -6.503   4.538  68.344  1.00  0.00    -0.038 A  
ENDROOT
BRANCH   4  12
HETATM   12  C   UNL     1     -10.235   9.190  67.253  1.00  0.00    -0.319 A  
HETATM   13  C   UNL     1     -10.209  10.701  65.333  1.00  0.00    -0.341 A  
HETATM   14  C   UNL     1     -11.379  11.345  67.335  1.00  0.00    -0.359 A  
HETATM   15  C   UNL     1     -11.000  10.144  67.945  1.00  0.00    -0.335 A  
HETATM   16  C   UNL     1      -9.823   9.506  65.946  1.00  0.00    -0.360 A  
HETATM   17  C   UNL     1     -10.995  11.616  66.025  1.00  0.00    -0.338 A  
ENDBRANCH   4  12
TORSDOF 1
ENDMDL
MODEL      148
REMARK 921   NORMALIZED FREE ENERGY PREDICTED BY IDOCK:   -3.26 KCAL/MOL
REMARK 922        TOTAL FREE ENERGY PREDICTED BY IDOCK:   -3.71 KCAL/MOL
REMARK 923 INTER-LIGAND FREE ENERGY PREDICTED BY IDOCK:   -3.47 KCAL/MOL
REMARK 924 INTRA-LIGAND FREE ENERGY PREDICTED BY IDOCK:   -0.24 KCAL/MOL
REMARK 927      BINDING AFFINITY PREDICTED BY RF-SCORE:    0.00 PKD
ROOT
HETATM    1  O   UNL     1     -10.479   9.886  69.787  1.00  0.00    -0.224 OA 
HETATM    2  C   UNL     1     -10.305   9.704  68.589  1.00  0.00    -0.203 C  
HETATM    3  C   UNL     1     -10.091   8.352  68.054  1.00  0.00    -0.245 C  
HETATM    4  C   UNL     1      -9.838   8.183  66.746  1.00  0.00    -0.259 C  
HETATM    5  C   UNL     1     -10.318  10.798  67.613  1.00  0.00    -0.236 A  
HETATM    6  O   UNL     1      -9.776   9.234  65.834  1.00  0.00    -0.265 OA 
HETATM    7  C   UNL     1     -10.059  10.504  66.277  1.00  0.00    -0.232 A  
HETATM    8  C   UNL     1     -10.615  12.103  68.016  1.00  0.00    -0.232 A  
HETATM    9  C   UNL     1     -10.094  11.527  65.328  1.00  0.00    -0.314 A  
HETATM   10  C   UNL     1     -10.660  13.121  67.065  1.00  0.00    -0.259 A  
HETATM   11  C   UNL     1     -10.401  12.833  65.723  1.00  0.00    -0.297 A  
ENDROOT
BRANCH   4  12
HETATM   12  C   UNL     1      -9.662   6.831  66.160  1.00  0.00     0.041 A  
HETATM   13  C   UNL     1     -10.531   4.617  65.595  1.00  0.00    -0.260 A  
HETATM   14  C   UNL     1      -8.313   5.238  64.895  1.00  0.00    -0.144 A  
HETATM   15  C   UNL     1      -8.467   6.486  65.509  1.00  0.00    -0.139 A  
HETATM   16  C   UNL     1     -10.679   5.861  66.216  1.00  0.00    -0.041 A  
HETATM   17  C   UNL     1      -9.351   4.310  64.927  1.00  0.00    -0.165 A  
ENDBRANCH   4  12
TORSDOF 1
ENDMDL
MODEL      149
REMARK 921   NORMALIZED FREE ENERGY PREDICTED BY IDOCK:   -3.22 KCAL/MOL
REMARK 922        TOTAL FREE ENERGY PREDICTED BY IDOCK:   -3.67 KCAL/MOL
REMARK 923 INTER-LIGAND FREE ENERGY PREDICTED BY IDOCK:   -3.40 KCAL/MOL
REMARK 924 INTRA-LIGAND FREE ENERGY PREDICTED BY IDOCK:   -0.28 KCAL/MOL
REMARK 927      BINDING AFFINITY PREDICTED BY RF-SCORE:    0.00 PKD
ROOT
HETATM    1  O   UNL     1      -8.607   8.115  71.281  1.00  0.00    -0.121 OA 
HETATM    2  C   UNL     1      -9.098   8.699  70.324  1.00  0.00    -0.162 C  
HETATM    3  C   UNL     1      -8.461   8.649  69.001  1.00  0.00    -0.124 C  
HETATM    4  C   UNL     1      -8.983   9.348  67.981  1.00  0.00    -0.127 C  
HETATM    5  C   UNL     1     -10.349   9.456  70.418  1.00  0.00    -0.318 A  
HETATM    6  O   UNL     1     -10.130  10.130  68.093  1.00  0.00    -0.145 OA 
HETATM    7  C   UNL     1     -10.808  10.132  69.289  1.00  0.00    -0.235 A  
HETATM    8  C   UNL     1     -11.079   9.475  71.610  1.00  0.00    -0.336 A  
HETATM    9  C   UNL     1     -12.010  10.836  69.351  1.00  0.00    -0.353 A  
HETATM   10  C   UNL     1     -12.286  10.171  71.666  1.00  0.00    -0.422 A  
HETATM   11  C   UNL     1     -12.751  10.849  70.537  1.00  0.00    -0.363 A  
ENDROOT
BRANCH   4  12
HETATM   12  C   UNL     1      -8.395   9.288  66.620  1.00  0.00    -0.122 A  
HETATM   13  C   UNL     1      -8.084  10.223  64.383  1.00  0.00    -0.149 A  
HETATM   14  C   UNL     1      -6.876   8.241  65.021  1.00  0.00    -0.067 A  
HETATM   15  C   UNL     1      -7.489   8.271  66.279  1.00  0.00    -0.079 A  
HETATM   16  C   UNL     1      -8.702  10.246  65.637  1.00  0.00    -0.176 A  
HETATM   17  C   UNL     1      -7.165   9.225  64.079  1.00  0.00    -0.098 A  
ENDBRANCH   4  12
TORSDOF 1
ENDMDL
MODEL      150
REMARK 921   NORMALIZED FREE ENERGY PREDICTED BY IDOCK:   -3.20 KCAL/MOL
REMARK 922        TOTAL FREE ENERGY PREDICTED BY IDOCK:   -3.64 KCAL/MOL
REMARK 923 INTER-LIGAND FREE ENERGY PREDICTED BY IDOCK:   -3.38 KCAL/MOL
REMARK 924 INTRA-LIGAND FREE ENERGY PREDICTED BY IDOCK:   -0.26 KCAL/MOL
REMARK 927      BINDING AFFINITY PREDICTED BY RF-SCORE:    0.00 PKD
ROOT
HETATM    1  O   UNL     1      -7.268  11.210  69.385  1.00  0.00    -0.123 OA 
HETATM    2  C   UNL     1      -8.054  10.828  68.528  1.00  0.00    -0.133 C  
HETATM    3  C   UNL     1      -8.271   9.396  68.287  1.00  0.00    -0.118 C  
HETATM    4  C   UNL     1      -9.090   9.001  67.299  1.00  0.00    -0.133 C  
HETATM    5  C   UNL     1      -8.841  11.755  67.709  1.00  0.00    -0.163 A  
HETATM    6  O   UNL     1      -9.778   9.885  66.471  1.00  0.00    -0.182 OA 
HETATM    7  C   UNL     1      -9.673  11.232  66.721  1.00  0.00    -0.193 A  
HETATM    8  C   UNL     1      -8.776  13.133  67.937  1.00  0.00    -0.192 A  
HETATM    9  C   UNL     1     -10.451  12.096  65.949  1.00  0.00    -0.288 A  
HETATM   10  C   UNL     1      -9.563  13.992  67.171  1.00  0.00    -0.245 A  
HETATM   11  C   UNL     1     -10.399  13.474  66.180  1.00  0.00    -0.296 A  
ENDROOT
BRANCH   4  12
HETATM   12  C   UNL     1      -9.370   7.564  67.053  1.00  0.00    -0.186 A  
HETATM   13  C   UNL     1      -8.612   5.259  66.758  1.00  0.00    -0.106 A  
HETATM   14  C   UNL     1     -10.971   5.737  66.807  1.00  0.00    -0.239 A  
HETATM   15  C   UNL     1     -10.693   7.099  66.972  1.00  0.00    -0.420 A  
HETATM   16  C   UNL     1      -8.336   6.620  66.914  1.00  0.00    -0.114 A  
HETATM   17  C   UNL     1      -9.930   4.817  66.714  1.00  0.00    -0.253 A  
ENDBRANCH   4  12
TORSDOF 1
ENDMDL
MODEL      151
REMARK 921   NORMALIZED FREE ENERGY PREDICTED BY IDOCK:   -3.15 KCAL/MOL
REMARK 922        TOTAL FREE ENERGY PREDICTED BY IDOCK:   -3.59 KCAL/MOL
REMARK 923 INTER-LIGAND FREE ENERGY PREDICTED BY IDOCK:   -3.36 KCAL/MOL
REMARK 924 INTRA-LIGAND FREE ENERGY PREDICTED BY IDOCK:   -0.23 KCAL/MOL
REMARK 927      BINDING AFFINITY PREDICTED BY RF-SCORE:    0.00 PKD
ROOT
HETATM    1  O   UNL     1     -10.806   8.847  71.336  1.00  0.00    -0.256 OA 
HETATM    2  C   UNL     1     -10.739   9.482  70.292  1.00  0.00    -0.265 C  
HETATM    3  C   UNL     1     -10.796  10.950  70.295  1.00  0.00     0.061 C  
HETATM    4  C   UNL     1     -10.785  11.622  69.133  1.00  0.00    -0.145 C  
HETATM    5  C   UNL     1     -10.578   8.838  68.985  1.00  0.00    -0.191 A  
HETATM    6  O   UNL     1     -10.709  11.002  67.888  1.00  0.00    -0.191 OA 
HETATM    7  C   UNL     1     -10.564   9.636  67.844  1.00  0.00    -0.255 A  
HETATM    8  C   UNL     1     -10.414   7.452  68.893  1.00  0.00    -0.213 A  
HETATM    9  C   UNL     1     -10.384   9.044  66.593  1.00  0.00    -0.289 A  
HETATM   10  C   UNL     1     -10.223   6.865  67.644  1.00  0.00    -0.235 A  
HETATM   11  C   UNL     1     -10.207   7.660  66.496  1.00  0.00    -0.178 A  
ENDROOT
BRANCH   4  12
HETATM   12  C   UNL     1     -10.795  13.106  69.096  1.00  0.00    -0.139 A  
HETATM   13  C   UNL     1      -9.627  15.247  68.939  1.00  0.00    -0.220 A  
HETATM   14  C   UNL     1     -12.033  15.206  68.986  1.00  0.00    -0.295 A  
HETATM   15  C   UNL     1     -12.010  13.811  69.088  1.00  0.00    -0.403 A  
HETATM   16  C   UNL     1      -9.605  13.854  69.049  1.00  0.00     0.128 A  
HETATM   17  C   UNL     1     -10.842  15.922  68.898  1.00  0.00    -0.274 A  
ENDBRANCH   4  12
TORSDOF 1
ENDMDL
MODEL      152
REMARK 921   NORMALIZED FREE ENERGY PREDICTED BY IDOCK:   -3.12 KCAL/MOL
REMARK 922        TOTAL FREE ENERGY PREDICTED BY IDOCK:   -3.57 KCAL/MOL
REMARK 923 INTER-LIGAND FREE ENERGY PREDICTED BY IDOCK:   -3.32 KCAL/MOL
REMARK 924 INTRA-LIGAND FREE ENERGY PREDICTED BY IDOCK:   -0.25 KCAL/MOL
REMARK 927      BINDING AFFINITY PREDICTED BY RF-SCORE:    0.00 PKD
ROOT
HETATM    1  O   UNL     1     -12.792   6.971  71.185  1.00  0.00    -0.374 OA 
HETATM    2  C   UNL     1     -11.591   6.897  70.962  1.00  0.00    -0.328 C  
HETATM    3  C   UNL     1     -11.067   7.024  69.595  1.00  0.00    -0.254 C  
HETATM    4  C   UNL     1      -9.752   6.875  69.367  1.00  0.00    -0.157 C  
HETATM    5  C   UNL     1     -10.601   6.702  72.025  1.00  0.00    -0.236 A  
HETATM    6  O   UNL     1      -8.823   6.614  70.371  1.00  0.00    -0.149 OA 
HETATM    7  C   UNL     1      -9.259   6.577  71.674  1.00  0.00    -0.143 A  
HETATM    8  C   UNL     1     -10.997   6.672  73.366  1.00  0.00    -0.182 A  
HETATM    9  C   UNL     1      -8.298   6.419  72.673  1.00  0.00    -0.122 A  
HETATM   10  C   UNL     1     -10.034   6.525  74.363  1.00  0.00    -0.374 A  
HETATM   11  C   UNL     1      -8.687   6.400  74.017  1.00  0.00    -0.140 A  
ENDROOT
BRANCH   4  12
HETATM   12  C   UNL     1      -9.179   7.041  68.008  1.00  0.00    -0.129 A  
HETATM   13  C   UNL     1      -7.958   6.161  66.082  1.00  0.00    -0.108 A  
HETATM   14  C   UNL     1      -8.910   8.370  65.978  1.00  0.00    -0.202 A  
HETATM   15  C   UNL     1      -9.389   8.227  67.285  1.00  0.00    -0.181 A  
HETATM   16  C   UNL     1      -8.429   6.024  67.391  1.00  0.00    -0.104 A  
HETATM   17  C   UNL     1      -8.207   7.331  65.373  1.00  0.00    -0.137 A  
ENDBRANCH   4  12
TORSDOF 1
ENDMDL
MODEL      153
REMARK 921   NORMALIZED FREE ENERGY PREDICTED BY IDOCK:   -3.05 KCAL/MOL
REMARK 922        TOTAL FREE ENERGY PREDICTED BY IDOCK:   -3.48 KCAL/MOL
REMARK 923 INTER-LIGAND FREE ENERGY PREDICTED BY IDOCK:   -3.25 KCAL/MOL
REMARK 924 INTRA-LIGAND FREE ENERGY PREDICTED BY IDOCK:   -0.23 KCAL/MOL
REMARK 927      BINDING AFFINITY PREDICTED BY RF-SCORE:    0.00 PKD
ROOT
HETATM    1  O   UNL     1      -6.599   6.914  66.141  1.00  0.00    -0.049 OA 
HETATM    2  C   UNL     1      -7.801   6.848  66.364  1.00  0.00    -0.103 C  
HETATM    3  C   UNL     1      -8.470   7.852  67.201  1.00  0.00    -0.117 C  
HETATM    4  C   UNL     1      -9.776   7.724  67.484  1.00  0.00    -0.158 C  
HETATM    5  C   UNL     1      -8.651   5.793  65.804  1.00  0.00    -0.149 A  
HETATM    6  O   UNL     1     -10.565   6.677  67.013  1.00  0.00    -0.261 OA 
HETATM    7  C   UNL     1      -9.999   5.766  66.153  1.00  0.00    -0.019 A  
HETATM    8  C   UNL     1      -8.122   4.853  64.915  1.00  0.00    -0.112 A  
HETATM    9  C   UNL     1     -10.831   4.787  65.609  1.00  0.00    -0.117 A  
HETATM   10  C   UNL     1      -8.957   3.882  64.365  1.00  0.00    -0.128 A  
HETATM   11  C   UNL     1     -10.310   3.850  64.711  1.00  0.00    -0.184 A  
ENDROOT
BRANCH   4  12
HETATM   12  C   UNL     1     -10.498   8.742  68.288  1.00  0.00    -0.236 A  
HETATM   13  C   UNL     1     -11.392   9.542  70.417  1.00  0.00    -0.318 A  
HETATM   14  C   UNL     1     -11.531  10.946  68.467  1.00  0.00    -0.380 A  
HETATM   15  C   UNL     1     -10.908   9.952  67.704  1.00  0.00    -0.318 A  
HETATM   16  C   UNL     1     -10.779   8.546  69.652  1.00  0.00    -0.200 A  
HETATM   17  C   UNL     1     -11.759  10.746  69.826  1.00  0.00    -0.399 A  
ENDBRANCH   4  12
TORSDOF 1
ENDMDL
MODEL      154
REMARK 921   NORMALIZED FREE ENERGY PREDICTED BY IDOCK:   -3.02 KCAL/MOL
REMARK 922        TOTAL FREE ENERGY PREDICTED BY IDOCK:   -3.46 KCAL/MOL
REMARK 923 INTER-LIGAND FREE ENERGY PREDICTED BY IDOCK:   -3.18 KCAL/MOL
REMARK 924 INTRA-LIGAND FREE ENERGY PREDICTED BY IDOCK:   -0.28 KCAL/MOL
REMARK 927      BINDING AFFINITY PREDICTED BY RF-SCORE:    0.00 PKD
ROOT
HETATM    1  O   UNL     1     -13.005   7.702  70.929  1.00  0.00    -0.121 OA 
HETATM    2  C   UNL     1     -11.898   7.285  71.244  1.00  0.00    -0.307 C  
HETATM    3  C   UNL     1     -11.751   6.056  72.035  1.00  0.00    -0.315 C  
HETATM    4  C   UNL     1     -10.531   5.652  72.422  1.00  0.00    -0.211 C  
HETATM    5  C   UNL     1     -10.658   7.955  70.842  1.00  0.00    -0.227 A  
HETATM    6  O   UNL     1      -9.359   6.335  72.104  1.00  0.00    -0.151 OA 
HETATM    7  C   UNL     1      -9.445   7.439  71.290  1.00  0.00    -0.154 A  
HETATM    8  C   UNL     1     -10.696   9.073  70.004  1.00  0.00    -0.247 A  
HETATM    9  C   UNL     1      -8.252   8.046  70.896  1.00  0.00    -0.103 A  
HETATM   10  C   UNL     1      -9.503   9.672  69.604  1.00  0.00    -0.226 A  
HETATM   11  C   UNL     1      -8.283   9.158  70.049  1.00  0.00    -0.146 A  
ENDROOT
BRANCH   4  12
HETATM   12  C   UNL     1     -10.337   4.393  73.184  1.00  0.00    -0.232 A  
HETATM   13  C   UNL     1     -11.159   2.240  73.998  1.00  0.00    -0.230 A  
HETATM   14  C   UNL     1      -8.876   2.876  74.418  1.00  0.00    -0.086 A  
HETATM   15  C   UNL     1      -9.090   4.089  73.755  1.00  0.00    -0.094 A  
HETATM   16  C   UNL     1     -11.374   3.457  73.344  1.00  0.00    -0.201 A  
HETATM   17  C   UNL     1      -9.907   1.946  74.527  1.00  0.00    -0.131 A  
ENDBRANCH   4  12
TORSDOF 1
ENDMDL
MODEL      155
REMARK 921   NORMALIZED FREE ENERGY PREDICTED BY IDOCK:   -2.99 KCAL/MOL
REMARK 922        TOTAL FREE ENERGY PREDICTED BY IDOCK:   -3.42 KCAL/MOL
REMARK 923 INTER-LIGAND FREE ENERGY PREDICTED BY IDOCK:   -3.14 KCAL/MOL
REMARK 924 INTRA-LIGAND FREE ENERGY PREDICTED BY IDOCK:   -0.28 KCAL/MOL
REMARK 927      BINDING AFFINITY PREDICTED BY RF-SCORE:    0.00 PKD
ROOT
HETATM    1  O   UNL     1      -6.247  17.229  68.811  1.00  0.00    -0.162 OA 
HETATM    2  C   UNL     1      -6.895  16.227  68.539  1.00  0.00    -0.137 C  
HETATM    3  C   UNL     1      -8.005  16.282  67.579  1.00  0.00    -0.171 C  
HETATM    4  C   UNL     1      -8.742  15.185  67.344  1.00  0.00    -0.190 C  
HETATM    5  C   UNL     1      -6.602  14.915  69.123  1.00  0.00    -0.117 A  
HETATM    6  O   UNL     1      -8.509  13.957  67.959  1.00  0.00    -0.153 OA 
HETATM    7  C   UNL     1      -7.424  13.839  68.795  1.00  0.00    -0.098 A  
HETATM    8  C   UNL     1      -5.501  14.745  69.968  1.00  0.00    -0.108 A  
HETATM    9  C   UNL     1      -7.145  12.576  69.319  1.00  0.00     0.091 A  
HETATM   10  C   UNL     1      -5.219  13.479  70.481  1.00  0.00    -0.118 A  
HETATM   11  C   UNL     1      -6.039  12.397  70.156  1.00  0.00    -0.102 A  
ENDROOT
BRANCH   4  12
HETATM   12  C   UNL     1      -9.842  15.189  66.348  1.00  0.00    -0.300 A  
HETATM   13  C   UNL     1     -11.150  16.309  64.613  1.00  0.00    -0.259 A  
HETATM   14  C   UNL     1     -11.587  13.998  65.125  1.00  0.00    -0.344 A  
HETATM   15  C   UNL     1     -10.591  14.026  66.108  1.00  0.00    -0.290 A  
HETATM   16  C   UNL     1     -10.162  16.338  65.602  1.00  0.00    -0.368 A  
HETATM   17  C   UNL     1     -11.856  15.136  64.369  1.00  0.00    -0.314 A  
ENDBRANCH   4  12
TORSDOF 1
ENDMDL
MODEL      156
REMARK 921   NORMALIZED FREE ENERGY PREDICTED BY IDOCK:   -2.87 KCAL/MOL
REMARK 922        TOTAL FREE ENERGY PREDICTED BY IDOCK:   -3.30 KCAL/MOL
REMARK 923 INTER-LIGAND FREE ENERGY PREDICTED BY IDOCK:   -3.06 KCAL/MOL
REMARK 924 INTRA-LIGAND FREE ENERGY PREDICTED BY IDOCK:   -0.24 KCAL/MOL
REMARK 927      BINDING AFFINITY PREDICTED BY RF-SCORE:    0.00 PKD
ROOT
HETATM    1  O   UNL     1      -5.919  11.970  69.800  1.00  0.00    -0.108 OA 
HETATM    2  C   UNL     1      -6.886  11.788  69.072  1.00  0.00    -0.106 C  
HETATM    3  C   UNL     1      -7.546  10.476  69.008  1.00  0.00    -0.117 C  
HETATM    4  C   UNL     1      -8.565  10.282  68.156  1.00  0.00    -0.119 C  
HETATM    5  C   UNL     1      -7.464  12.850  68.244  1.00  0.00    -0.125 A  
HETATM    6  O   UNL     1      -9.062  11.273  67.314  1.00  0.00    -0.153 OA 
HETATM    7  C   UNL     1      -8.533  12.538  67.408  1.00  0.00    -0.181 A  
HETATM    8  C   UNL     1      -6.967  14.154  68.317  1.00  0.00    -0.106 A  
HETATM    9  C   UNL     1      -9.114  13.542  66.632  1.00  0.00    -0.182 A  
HETATM   10  C   UNL     1      -7.556  15.157  67.549  1.00  0.00    -0.216 A  
HETATM   11  C   UNL     1      -8.629  14.851  66.709  1.00  0.00    -0.256 A  
ENDROOT
BRANCH   4  12
HETATM   12  C   UNL     1      -9.286   8.986  68.095  1.00  0.00    -0.141 A  
HETATM   13  C   UNL     1     -10.683   7.266  69.127  1.00  0.00    -0.201 A  
HETATM   14  C   UNL     1     -10.077   7.070  66.805  1.00  0.00    -0.270 A  
HETATM   15  C   UNL     1      -9.346   8.260  66.894  1.00  0.00    -0.222 A  
HETATM   16  C   UNL     1      -9.944   8.450  69.216  1.00  0.00    -0.195 A  
HETATM   17  C   UNL     1     -10.756   6.582  67.918  1.00  0.00    -0.357 A  
ENDBRANCH   4  12
TORSDOF 1
ENDMDL
MODEL      157
REMARK 921   NORMALIZED FREE ENERGY PREDICTED BY IDOCK:   -2.84 KCAL/MOL
REMARK 922        TOTAL FREE ENERGY PREDICTED BY IDOCK:   -3.26 KCAL/MOL
REMARK 923 INTER-LIGAND FREE ENERGY PREDICTED BY IDOCK:   -3.00 KCAL/MOL
REMARK 924 INTRA-LIGAND FREE ENERGY PREDICTED BY IDOCK:   -0.27 KCAL/MOL
REMARK 927      BINDING AFFINITY PREDICTED BY RF-SCORE:    0.00 PKD
ROOT
HETATM    1  O   UNL     1      -7.910  10.891  69.816  1.00  0.00     0.005 OA 
HETATM    2  C   UNL     1      -8.291  11.498  68.824  1.00  0.00    -0.069 C  
HETATM    3  C   UNL     1      -8.041  12.939  68.678  1.00  0.00    -0.007 C  
HETATM    4  C   UNL     1      -8.524  13.596  67.612  1.00  0.00    -0.183 C  
HETATM    5  C   UNL     1      -8.992  10.842  67.717  1.00  0.00    -0.137 A  
HETATM    6  O   UNL     1      -9.257  12.984  66.599  1.00  0.00    -0.245 OA 
HETATM    7  C   UNL     1      -9.435  11.622  66.651  1.00  0.00    -0.201 A  
HETATM    8  C   UNL     1      -9.185   9.457  67.721  1.00  0.00    -0.141 A  
HETATM    9  C   UNL     1     -10.081  11.012  65.575  1.00  0.00    -0.316 A  
HETATM   10  C   UNL     1      -9.820   8.849  66.639  1.00  0.00    -0.332 A  
HETATM   11  C   UNL     1     -10.266   9.626  65.568  1.00  0.00    -0.016 A  
ENDROOT
BRANCH   4  12
HETATM   12  C   UNL     1      -8.254  15.041  67.406  1.00  0.00    -0.215 A  
HETATM   13  C   UNL     1      -6.807  16.998  67.632  1.00  0.00    -0.158 A  
HETATM   14  C   UNL     1      -8.886  17.189  66.433  1.00  0.00    -0.288 A  
HETATM   15  C   UNL     1      -9.160  15.841  66.691  1.00  0.00    -0.298 A  
HETATM   16  C   UNL     1      -7.087  15.654  67.896  1.00  0.00    -0.153 A  
HETATM   17  C   UNL     1      -7.703  17.763  66.892  1.00  0.00    -0.242 A  
ENDBRANCH   4  12
TORSDOF 1
ENDMDL
MODEL      158
REMARK 921   NORMALIZED FREE ENERGY PREDICTED BY IDOCK:   -2.83 KCAL/MOL
REMARK 922        TOTAL FREE ENERGY PREDICTED BY IDOCK:   -3.26 KCAL/MOL
REMARK 923 INTER-LIGAND FREE ENERGY PREDICTED BY IDOCK:   -3.00 KCAL/MOL
REMARK 924 INTRA-LIGAND FREE ENERGY PREDICTED BY IDOCK:   -0.26 KCAL/MOL
REMARK 927      BINDING AFFINITY PREDICTED BY RF-SCORE:    0.00 PKD
ROOT
HETATM    1  O   UNL     1     -10.890   9.136  67.064  1.00  0.00    -0.182 OA 
HETATM    2  C   UNL     1     -10.054  10.029  67.099  1.00  0.00    -0.212 C  
HETATM    3  C   UNL     1     -10.446  11.420  67.361  1.00  0.00    -0.239 C  
HETATM    4  C   UNL     1      -9.520  12.392  67.332  1.00  0.00    -0.186 C  
HETATM    5  C   UNL     1      -8.622   9.779  66.908  1.00  0.00    -0.128 A  
HETATM    6  O   UNL     1      -8.171  12.161  67.074  1.00  0.00    -0.173 OA 
HETATM    7  C   UNL     1      -7.748  10.863  66.913  1.00  0.00    -0.135 A  
HETATM    8  C   UNL     1      -8.145   8.474  66.754  1.00  0.00    -0.098 A  
HETATM    9  C   UNL     1      -6.379  10.644  66.761  1.00  0.00    -0.084 A  
HETATM   10  C   UNL     1      -6.775   8.256  66.613  1.00  0.00    -0.064 A  
HETATM   11  C   UNL     1      -5.894   9.340  66.617  1.00  0.00    -0.055 A  
ENDROOT
BRANCH   4  12
HETATM   12  C   UNL     1      -9.869  13.803  67.636  1.00  0.00    -0.234 A  
HETATM   13  C   UNL     1     -11.284  15.770  67.319  1.00  0.00    -0.140 A  
HETATM   14  C   UNL     1      -9.527  15.822  68.964  1.00  0.00    -0.247 A  
HETATM   15  C   UNL     1      -9.166  14.515  68.621  1.00  0.00    -0.192 A  
HETATM   16  C   UNL     1     -10.916  14.467  66.972  1.00  0.00    -0.312 A  
HETATM   17  C   UNL     1     -10.595  16.444  68.322  1.00  0.00    -0.318 A  
ENDBRANCH   4  12
TORSDOF 1
ENDMDL
MODEL      159
REMARK 921   NORMALIZED FREE ENERGY PREDICTED BY IDOCK:   -2.70 KCAL/MOL
REMARK 922        TOTAL FREE ENERGY PREDICTED BY IDOCK:   -3.12 KCAL/MOL
REMARK 923 INTER-LIGAND FREE ENERGY PREDICTED BY IDOCK:   -2.87 KCAL/MOL
REMARK 924 INTRA-LIGAND FREE ENERGY PREDICTED BY IDOCK:   -0.26 KCAL/MOL
REMARK 927      BINDING AFFINITY PREDICTED BY RF-SCORE:    0.00 PKD
ROOT
HETATM    1  O   UNL     1     -10.286  10.461  65.830  1.00  0.00    -0.245 OA 
HETATM    2  C   UNL     1      -9.617   9.840  66.646  1.00  0.00    -0.187 C  
HETATM    3  C   UNL     1     -10.244   8.880  67.564  1.00  0.00    -0.309 C  
HETATM    4  C   UNL     1      -9.500   8.258  68.492  1.00  0.00    -0.146 C  
HETATM    5  C   UNL     1      -8.162   9.989  66.750  1.00  0.00    -0.121 A  
HETATM    6  O   UNL     1      -8.130   8.460  68.639  1.00  0.00    -0.118 OA 
HETATM    7  C   UNL     1      -7.488   9.281  67.742  1.00  0.00    -0.088 A  
HETATM    8  C   UNL     1      -7.467  10.803  65.852  1.00  0.00    -0.099 A  
HETATM    9  C   UNL     1      -6.100   9.387  67.841  1.00  0.00    -0.053 A  
HETATM   10  C   UNL     1      -6.079  10.899  65.945  1.00  0.00    -0.103 A  
HETATM   11  C   UNL     1      -5.398  10.191  66.938  1.00  0.00    -0.041 A  
ENDROOT
BRANCH   4  12
HETATM   12  C   UNL     1     -10.088   7.248  69.407  1.00  0.00    -0.183 A  
HETATM   13  C   UNL     1     -10.009   5.078  70.529  1.00  0.00    -0.312 A  
HETATM   14  C   UNL     1     -11.793   6.614  71.035  1.00  0.00    -0.427 A  
HETATM   15  C   UNL     1     -11.265   7.531  70.119  1.00  0.00    -0.213 A  
HETATM   16  C   UNL     1      -9.488   5.992  69.609  1.00  0.00    -0.167 A  
HETATM   17  C   UNL     1     -11.156   5.394  71.249  1.00  0.00    -0.053 A  
ENDBRANCH   4  12
TORSDOF 1
ENDMDL
MODEL      160
REMARK 921   NORMALIZED FREE ENERGY PREDICTED BY IDOCK:   -2.63 KCAL/MOL
REMARK 922        TOTAL FREE ENERGY PREDICTED BY IDOCK:   -3.05 KCAL/MOL
REMARK 923 INTER-LIGAND FREE ENERGY PREDICTED BY IDOCK:   -2.81 KCAL/MOL
REMARK 924 INTRA-LIGAND FREE ENERGY PREDICTED BY IDOCK:   -0.24 KCAL/MOL
REMARK 927      BINDING AFFINITY PREDICTED BY RF-SCORE:    0.00 PKD
ROOT
HETATM    1  O   UNL     1     -12.266   6.695  70.539  1.00  0.00    -0.364 OA 
HETATM    2  C   UNL     1     -11.147   6.239  70.340  1.00  0.00    -0.352 C  
HETATM    3  C   UNL     1     -10.324   5.748  71.453  1.00  0.00    -0.279 C  
HETATM    4  C   UNL     1      -9.076   5.311  71.220  1.00  0.00    -0.144 C  
HETATM    5  C   UNL     1     -10.565   6.129  69.000  1.00  0.00    -0.341 A  
HETATM    6  O   UNL     1      -8.497   5.280  69.954  1.00  0.00    -0.096 OA 
HETATM    7  C   UNL     1      -9.265   5.646  68.873  1.00  0.00    -0.119 A  
HETATM    8  C   UNL     1     -11.314   6.477  67.872  1.00  0.00    -0.096 A  
HETATM    9  C   UNL     1      -8.703   5.508  67.604  1.00  0.00    -0.107 A  
HETATM   10  C   UNL     1     -10.754   6.328  66.604  1.00  0.00    -0.286 A  
HETATM   11  C   UNL     1      -9.451   5.844  66.471  1.00  0.00    -0.171 A  
ENDROOT
BRANCH   4  12
HETATM   12  C   UNL     1      -8.230   4.765  72.311  1.00  0.00    -0.115 A  
HETATM   13  C   UNL     1      -6.308   4.932  73.811  1.00  0.00    -0.060 A  
HETATM   14  C   UNL     1      -7.841   3.091  74.043  1.00  0.00    -0.064 A  
HETATM   15  C   UNL     1      -8.594   3.580  72.970  1.00  0.00    -0.086 A  
HETATM   16  C   UNL     1      -7.056   5.415  72.734  1.00  0.00    -0.088 A  
HETATM   17  C   UNL     1      -6.706   3.775  74.472  1.00  0.00    -0.042 A  
ENDBRANCH   4  12
TORSDOF 1
ENDMDL
MODEL      161
REMARK 921   NORMALIZED FREE ENERGY PREDICTED BY IDOCK:   -2.60 KCAL/MOL
REMARK 922        TOTAL FREE ENERGY PREDICTED BY IDOCK:   -3.01 KCAL/MOL
REMARK 923 INTER-LIGAND FREE ENERGY PREDICTED BY IDOCK:   -2.78 KCAL/MOL
REMARK 924 INTRA-LIGAND FREE ENERGY PREDICTED BY IDOCK:   -0.23 KCAL/MOL
REMARK 927      BINDING AFFINITY PREDICTED BY RF-SCORE:    0.00 PKD
ROOT
HETATM    1  O   UNL     1      -6.417   4.580  67.826  1.00  0.00    -0.042 OA 
HETATM    2  C   UNL     1      -7.377   4.940  67.158  1.00  0.00    -0.082 C  
HETATM    3  C   UNL     1      -7.854   6.329  67.210  1.00  0.00    -0.108 C  
HETATM    4  C   UNL     1      -8.948   6.686  66.518  1.00  0.00    -0.145 C  
HETATM    5  C   UNL     1      -8.095   4.036  66.256  1.00  0.00    -0.098 A  
HETATM    6  O   UNL     1      -9.674   5.805  65.721  1.00  0.00    -0.024 OA 
HETATM    7  C   UNL     1      -9.210   4.519  65.574  1.00  0.00    -0.152 A  
HETATM    8  C   UNL     1      -7.651   2.725  66.065  1.00  0.00    -0.076 A  
HETATM    9  C   UNL     1      -9.891   3.682  64.689  1.00  0.00    -0.181 A  
HETATM   10  C   UNL     1      -8.327   1.894  65.172  1.00  0.00    -0.085 A  
HETATM   11  C   UNL     1      -9.444   2.373  64.485  1.00  0.00    -0.128 A  
ENDROOT
BRANCH   4  12
HETATM   12  C   UNL     1      -9.435   8.088  66.509  1.00  0.00    -0.278 A  
HETATM   13  C   UNL     1     -10.911   9.843  67.354  1.00  0.00    -0.293 A  
HETATM   14  C   UNL     1      -9.220  10.391  65.730  1.00  0.00    -0.210 A  
HETATM   15  C   UNL     1      -8.814   9.053  65.698  1.00  0.00    -0.224 A  
HETATM   16  C   UNL     1     -10.510   8.505  67.314  1.00  0.00    -0.366 A  
HETATM   17  C   UNL     1     -10.259  10.788  66.568  1.00  0.00    -0.287 A  
ENDBRANCH   4  12
TORSDOF 1
ENDMDL
MODEL      162
REMARK 921   NORMALIZED FREE ENERGY PREDICTED BY IDOCK:   -2.58 KCAL/MOL
REMARK 922        TOTAL FREE ENERGY PREDICTED BY IDOCK:   -3.00 KCAL/MOL
REMARK 923 INTER-LIGAND FREE ENERGY PREDICTED BY IDOCK:   -2.77 KCAL/MOL
REMARK 924 INTRA-LIGAND FREE ENERGY PREDICTED BY IDOCK:   -0.23 KCAL/MOL
REMARK 927      BINDING AFFINITY PREDICTED BY RF-SCORE:    0.00 PKD
ROOT
HETATM    1  O   UNL     1      -7.017   6.496  72.276  1.00  0.00    -0.071 OA 
HETATM    2  C   UNL     1      -7.881   6.365  71.419  1.00  0.00    -0.104 C  
HETATM    3  C   UNL     1      -7.578   5.725  70.132  1.00  0.00    -0.086 C  
HETATM    4  C   UNL     1      -8.524   5.649  69.183  1.00  0.00    -0.102 C  
HETATM    5  C   UNL     1      -9.264   6.806  71.618  1.00  0.00    -0.144 A  
HETATM    6  O   UNL     1      -9.817   6.140  69.347  1.00  0.00    -0.150 OA 
HETATM    7  C   UNL     1     -10.169   6.664  70.569  1.00  0.00    -0.189 A  
HETATM    8  C   UNL     1      -9.670   7.333  72.848  1.00  0.00    -0.212 A  
HETATM    9  C   UNL     1     -11.497   7.053  70.747  1.00  0.00    -0.360 A  
HETATM   10  C   UNL     1     -11.000   7.711  73.028  1.00  0.00    -0.457 A  
HETATM   11  C   UNL     1     -11.912   7.570  71.979  1.00  0.00    -0.330 A  
ENDROOT
BRANCH   4  12
HETATM   12  C   UNL     1      -8.270   4.971  67.888  1.00  0.00    -0.097 A  
HETATM   13  C   UNL     1      -8.164   2.949  66.519  1.00  0.00    -0.088 A  
HETATM   14  C   UNL     1      -7.800   5.097  65.496  1.00  0.00    -0.092 A  
HETATM   15  C   UNL     1      -7.976   5.720  66.736  1.00  0.00    -0.102 A  
HETATM   16  C   UNL     1      -8.331   3.572  67.759  1.00  0.00    -0.097 A  
HETATM   17  C   UNL     1      -7.907   3.713  65.386  1.00  0.00    -0.086 A  
ENDBRANCH   4  12
TORSDOF 1
ENDMDL
MODEL      163
REMARK 921   NORMALIZED FREE ENERGY PREDICTED BY IDOCK:   -2.40 KCAL/MOL
REMARK 922        TOTAL FREE ENERGY PREDICTED BY IDOCK:   -2.80 KCAL/MOL
REMARK 923 INTER-LIGAND FREE ENERGY PREDICTED BY IDOCK:   -2.55 KCAL/MOL
REMARK 924 INTRA-LIGAND FREE ENERGY PREDICTED BY IDOCK:   -0.25 KCAL/MOL
REMARK 927      BINDING AFFINITY PREDICTED BY RF-SCORE:    0.00 PKD
ROOT
HETATM    1  O   UNL     1      -8.141  16.950  68.004  1.00  0.00    -0.185 OA 
HETATM    2  C   UNL     1      -8.451  15.774  68.144  1.00  0.00    -0.162 C  
HETATM    3  C   UNL     1      -7.477  14.702  67.897  1.00  0.00    -0.158 C  
HETATM    4  C   UNL     1      -7.856  13.418  67.996  1.00  0.00    -0.148 C  
HETATM    5  C   UNL     1      -9.785  15.355  68.583  1.00  0.00    -0.210 A  
HETATM    6  O   UNL     1      -9.147  13.023  68.338  1.00  0.00    -0.191 OA 
HETATM    7  C   UNL     1     -10.064  13.993  68.665  1.00  0.00    -0.217 A  
HETATM    8  C   UNL     1     -10.745  16.307  68.938  1.00  0.00    -0.300 A  
HETATM    9  C   UNL     1     -11.320  13.574  69.107  1.00  0.00    -0.333 A  
HETATM   10  C   UNL     1     -11.995  15.885  69.390  1.00  0.00    -0.268 A  
HETATM   11  C   UNL     1     -12.281  14.521  69.475  1.00  0.00    -0.306 A  
ENDROOT
BRANCH   4  12
HETATM   12  C   UNL     1      -6.891  12.308  67.799  1.00  0.00    -0.109 A  
HETATM   13  C   UNL     1      -5.847  10.226  68.542  1.00  0.00    -0.040 A  
HETATM   14  C   UNL     1      -5.279  11.138  66.387  1.00  0.00    -0.125 A  
HETATM   15  C   UNL     1      -6.143  12.215  66.613  1.00  0.00     0.308 A  
HETATM   16  C   UNL     1      -6.703  11.308  68.769  1.00  0.00    -0.070 A  
HETATM   17  C   UNL     1      -5.142  10.137  67.346  1.00  0.00    -0.037 A  
ENDBRANCH   4  12
TORSDOF 1
ENDMDL
MODEL      164
REMARK 921   NORMALIZED FREE ENERGY PREDICTED BY IDOCK:   -2.40 KCAL/MOL
REMARK 922        TOTAL FREE ENERGY PREDICTED BY IDOCK:   -2.80 KCAL/MOL
REMARK 923 INTER-LIGAND FREE ENERGY PREDICTED BY IDOCK:   -2.57 KCAL/MOL
REMARK 924 INTRA-LIGAND FREE ENERGY PREDICTED BY IDOCK:   -0.23 KCAL/MOL
REMARK 927      BINDING AFFINITY PREDICTED BY RF-SCORE:    0.00 PKD
ROOT
HETATM    1  O   UNL     1      -9.645   8.250  70.515  1.00  0.00    -0.165 OA 
HETATM    2  C   UNL     1      -9.373   7.863  69.386  1.00  0.00    -0.152 C  
HETATM    3  C   UNL     1      -8.909   6.490  69.149  1.00  0.00    -0.128 C  
HETATM    4  C   UNL     1      -8.556   6.108  67.911  1.00  0.00    -0.114 C  
HETATM    5  C   UNL     1      -9.509   8.720  68.204  1.00  0.00    -0.152 A  
HETATM    6  O   UNL     1      -8.614   6.948  66.802  1.00  0.00    -0.114 OA 
HETATM    7  C   UNL     1      -9.127   8.213  66.964  1.00  0.00    -0.143 A  
HETATM    8  C   UNL     1     -10.038  10.008  68.320  1.00  0.00    -0.182 A  
HETATM    9  C   UNL     1      -9.275   9.002  65.823  1.00  0.00    -0.293 A  
HETATM   10  C   UNL     1     -10.195  10.791  67.177  1.00  0.00    -0.255 A  
HETATM   11  C   UNL     1      -9.814  10.288  65.931  1.00  0.00    -0.298 A  
ENDROOT
BRANCH   4  12
HETATM   12  C   UNL     1      -8.127   4.716  67.623  1.00  0.00    -0.100 A  
HETATM   13  C   UNL     1      -6.376   3.028  67.375  1.00  0.00    -0.036 A  
HETATM   14  C   UNL     1      -8.688   2.378  67.204  1.00  0.00    -0.140 A  
HETATM   15  C   UNL     1      -9.078   3.706  67.410  1.00  0.00    -0.186 A  
HETATM   16  C   UNL     1      -6.768   4.356  67.573  1.00  0.00    -0.047 A  
HETATM   17  C   UNL     1      -7.337   2.038  67.200  1.00  0.00    -0.059 A  
ENDBRANCH   4  12
TORSDOF 1
ENDMDL
MODEL      165
REMARK 921   NORMALIZED FREE ENERGY PREDICTED BY IDOCK:   -2.40 KCAL/MOL
REMARK 922        TOTAL FREE ENERGY PREDICTED BY IDOCK:   -2.79 KCAL/MOL
REMARK 923 INTER-LIGAND FREE ENERGY PREDICTED BY IDOCK:   -2.56 KCAL/MOL
REMARK 924 INTRA-LIGAND FREE ENERGY PREDICTED BY IDOCK:   -0.23 KCAL/MOL
REMARK 927      BINDING AFFINITY PREDICTED BY RF-SCORE:    0.00 PKD
ROOT
HETATM    1  O   UNL     1      -6.199   4.802  66.196  1.00  0.00    -0.033 OA 
HETATM    2  C   UNL     1      -7.379   5.032  66.428  1.00  0.00    -0.085 C  
HETATM    3  C   UNL     1      -7.777   5.839  67.589  1.00  0.00    -0.097 C  
HETATM    4  C   UNL     1      -9.078   6.024  67.860  1.00  0.00    -0.117 C  
HETATM    5  C   UNL     1      -8.462   4.546  65.569  1.00  0.00    -0.121 A  
HETATM    6  O   UNL     1     -10.107   5.497  67.084  1.00  0.00    -0.151 OA 
HETATM    7  C   UNL     1      -9.778   4.812  65.938  1.00  0.00    -0.193 A  
HETATM    8  C   UNL     1      -8.174   3.856  64.387  1.00  0.00    -0.090 A  
HETATM    9  C   UNL     1     -10.823   4.382  65.119  1.00  0.00    -0.100 A  
HETATM   10  C   UNL     1      -9.219   3.438  63.565  1.00  0.00    -0.098 A  
HETATM   11  C   UNL     1     -10.541   3.701  63.930  1.00  0.00    -0.285 A  
ENDROOT
BRANCH   4  12
HETATM   12  C   UNL     1      -9.520   6.871  68.997  1.00  0.00    -0.137 A  
HETATM   13  C   UNL     1     -10.276   9.014  69.898  1.00  0.00    -0.214 A  
HETATM   14  C   UNL     1     -10.182   7.086  71.336  1.00  0.00    -0.208 A  
HETATM   15  C   UNL     1      -9.703   6.313  70.273  1.00  0.00    -0.189 A  
HETATM   16  C   UNL     1      -9.788   8.243  68.839  1.00  0.00    -0.183 A  
HETATM   17  C   UNL     1     -10.481   8.432  71.144  1.00  0.00    -0.263 A  
ENDBRANCH   4  12
TORSDOF 1
ENDMDL
MODEL      166
REMARK 921   NORMALIZED FREE ENERGY PREDICTED BY IDOCK:   -1.91 KCAL/MOL
REMARK 922        TOTAL FREE ENERGY PREDICTED BY IDOCK:   -2.28 KCAL/MOL
REMARK 923 INTER-LIGAND FREE ENERGY PREDICTED BY IDOCK:   -2.00 KCAL/MOL
REMARK 924 INTRA-LIGAND FREE ENERGY PREDICTED BY IDOCK:   -0.28 KCAL/MOL
REMARK 927      BINDING AFFINITY PREDICTED BY RF-SCORE:    0.00 PKD
ROOT
HETATM    1  O   UNL     1      -9.293  10.534  69.926  1.00  0.00    -0.009 OA 
HETATM    2  C   UNL     1      -8.793   9.753  69.127  1.00  0.00    -0.160 C  
HETATM    3  C   UNL     1      -8.848  10.013  67.682  1.00  0.00    -0.121 C  
HETATM    4  C   UNL     1      -8.349   9.112  66.822  1.00  0.00    -0.123 C  
HETATM    5  C   UNL     1      -8.093   8.536  69.545  1.00  0.00    -0.111 A  
HETATM    6  O   UNL     1      -7.752   7.918  67.219  1.00  0.00    -0.101 OA 
HETATM    7  C   UNL     1      -7.599   7.679  68.565  1.00  0.00    -0.110 A  
HETATM    8  C   UNL     1      -7.902   8.258  70.902  1.00  0.00    -0.091 A  
HETATM    9  C   UNL     1      -6.906   6.528  68.942  1.00  0.00    -0.069 A  
HETATM   10  C   UNL     1      -7.200   7.114  71.276  1.00  0.00    -0.074 A  
HETATM   11  C   UNL     1      -6.702   6.251  70.298  1.00  0.00    -0.053 A  
ENDROOT
BRANCH   4  12
HETATM   12  C   UNL     1      -8.345   9.358  65.358  1.00  0.00    -0.143 A  
HETATM   13  C   UNL     1      -7.961   8.603  63.065  1.00  0.00    -0.161 A  
HETATM   14  C   UNL     1      -8.884  10.792  63.457  1.00  0.00    -0.150 A  
HETATM   15  C   UNL     1      -8.820  10.573  64.838  1.00  0.00    -0.207 A  
HETATM   16  C   UNL     1      -7.890   8.390  64.444  1.00  0.00    -0.141 A  
HETATM   17  C   UNL     1      -8.467   9.801  62.572  1.00  0.00    -0.179 A  
ENDBRANCH   4  12
TORSDOF 1
ENDMDL
MODEL      167
REMARK 921   NORMALIZED FREE ENERGY PREDICTED BY IDOCK:   -1.86 KCAL/MOL
REMARK 922        TOTAL FREE ENERGY PREDICTED BY IDOCK:   -2.23 KCAL/MOL
REMARK 923 INTER-LIGAND FREE ENERGY PREDICTED BY IDOCK:   -1.99 KCAL/MOL
REMARK 924 INTRA-LIGAND FREE ENERGY PREDICTED BY IDOCK:   -0.25 KCAL/MOL
REMARK 927      BINDING AFFINITY PREDICTED BY RF-SCORE:    0.00 PKD
ROOT
HETATM    1  O   UNL     1      -5.693   8.034  70.906  1.00  0.00    -0.033 OA 
HETATM    2  C   UNL     1      -6.650   7.850  70.166  1.00  0.00    -0.037 C  
HETATM    3  C   UNL     1      -6.558   8.138  68.728  1.00  0.00    -0.053 C  
HETATM    4  C   UNL     1      -7.639   7.989  67.946  1.00  0.00    -0.112 C  
HETATM    5  C   UNL     1      -7.927   7.315  70.644  1.00  0.00    -0.099 A  
HETATM    6  O   UNL     1      -8.875   7.554  68.419  1.00  0.00    -0.127 OA 
HETATM    7  C   UNL     1      -8.979   7.187  69.740  1.00  0.00    -0.142 A  
HETATM    8  C   UNL     1      -8.075   6.916  71.976  1.00  0.00    -0.099 A  
HETATM    9  C   UNL     1     -10.195   6.654  70.169  1.00  0.00    -0.215 A  
HETATM   10  C   UNL     1      -9.287   6.375  72.400  1.00  0.00    -0.140 A  
HETATM   11  C   UNL     1     -10.345   6.243  71.498  1.00  0.00    -0.243 A  
ENDROOT
BRANCH   4  12
HETATM   12  C   UNL     1      -7.575   8.227  66.483  1.00  0.00    -0.092 A  
HETATM   13  C   UNL     1      -7.910   7.480  64.179  1.00  0.00    -0.130 A  
HETATM   14  C   UNL     1      -7.200   9.740  64.604  1.00  0.00    -0.131 A  
HETATM   15  C   UNL     1      -7.200   9.484  65.980  1.00  0.00    -0.093 A  
HETATM   16  C   UNL     1      -7.901   7.223  65.554  1.00  0.00    -0.115 A  
HETATM   17  C   UNL     1      -7.568   8.742  63.706  1.00  0.00    -0.124 A  
ENDBRANCH   4  12
TORSDOF 1
ENDMDL
MODEL      168
REMARK 921   NORMALIZED FREE ENERGY PREDICTED BY IDOCK:   -1.27 KCAL/MOL
REMARK 922        TOTAL FREE ENERGY PREDICTED BY IDOCK:   -1.61 KCAL/MOL
REMARK 923 INTER-LIGAND FREE ENERGY PREDICTED BY IDOCK:   -1.36 KCAL/MOL
REMARK 924 INTRA-LIGAND FREE ENERGY PREDICTED BY IDOCK:   -0.25 KCAL/MOL
REMARK 927      BINDING AFFINITY PREDICTED BY RF-SCORE:    0.00 PKD
ROOT
HETATM    1  O   UNL     1     -10.389  16.716  69.424  1.00  0.00    -0.300 OA 
HETATM    2  C   UNL     1     -10.013  15.839  68.657  1.00  0.00    -0.208 C  
HETATM    3  C   UNL     1      -9.224  14.699  69.142  1.00  0.00    -0.039 C  
HETATM    4  C   UNL     1      -8.769  13.783  68.272  1.00  0.00    -0.179 C  
HETATM    5  C   UNL     1     -10.338  15.848  67.228  1.00  0.00    -0.293 A  
HETATM    6  O   UNL     1      -9.014  13.836  66.902  1.00  0.00    -0.237 OA 
HETATM    7  C   UNL     1      -9.825  14.836  66.420  1.00  0.00    -0.280 A  
HETATM    8  C   UNL     1     -11.169  16.838  66.696  1.00  0.00     0.464 A  
HETATM    9  C   UNL     1     -10.144  14.812  65.062  1.00  0.00    -0.308 A  
HETATM   10  C   UNL     1     -11.495  16.805  65.341  1.00  0.00     0.666 A  
HETATM   11  C   UNL     1     -10.984  15.793  64.526  1.00  0.00    -0.209 A  
ENDROOT
BRANCH   4  12
HETATM   12  C   UNL     1      -8.007  12.594  68.728  1.00  0.00     0.068 A  
HETATM   13  C   UNL     1      -6.073  11.591  69.838  1.00  0.00    -0.141 A  
HETATM   14  C   UNL     1      -7.860  10.180  69.056  1.00  0.00    -0.107 A  
HETATM   15  C   UNL     1      -8.538  11.303  68.571  1.00  0.00    -0.156 A  
HETATM   16  C   UNL     1      -6.748  12.712  69.344  1.00  0.00    -0.022 A  
HETATM   17  C   UNL     1      -6.634  10.326  69.701  1.00  0.00    -0.077 A  
ENDBRANCH   4  12
TORSDOF 1
ENDMDL
MODEL      169
REMARK 921   NORMALIZED FREE ENERGY PREDICTED BY IDOCK:   -1.27 KCAL/MOL
REMARK 922        TOTAL FREE ENERGY PREDICTED BY IDOCK:   -1.61 KCAL/MOL
REMARK 923 INTER-LIGAND FREE ENERGY PREDICTED BY IDOCK:   -1.37 KCAL/MOL
REMARK 924 INTRA-LIGAND FREE ENERGY PREDICTED BY IDOCK:   -0.24 KCAL/MOL
REMARK 927      BINDING AFFINITY PREDICTED BY RF-SCORE:    0.00 PKD
ROOT
HETATM    1  O   UNL     1      -6.815  17.138  66.250  1.00  0.00    -0.243 OA 
HETATM    2  C   UNL     1      -7.059  16.423  67.213  1.00  0.00    -0.181 C  
HETATM    3  C   UNL     1      -7.853  15.196  67.060  1.00  0.00    -0.197 C  
HETATM    4  C   UNL     1      -8.162  14.462  68.140  1.00  0.00    -0.149 C  
HETATM    5  C   UNL     1      -6.566  16.718  68.561  1.00  0.00    -0.161 A  
HETATM    6  O   UNL     1      -7.757  14.787  69.432  1.00  0.00    -0.158 OA 
HETATM    7  C   UNL     1      -6.937  15.876  69.607  1.00  0.00    -0.147 A  
HETATM    8  C   UNL     1      -5.719  17.807  68.783  1.00  0.00    -0.176 A  
HETATM    9  C   UNL     1      -6.457  16.125  70.893  1.00  0.00     1.239 A  
HETATM   10  C   UNL     1      -5.232  18.047  70.067  1.00  0.00    -0.219 A  
HETATM   11  C   UNL     1      -5.599  17.206  71.120  1.00  0.00     0.310 A  
ENDROOT
BRANCH   4  12
HETATM   12  C   UNL     1      -8.924  13.193  68.022  1.00  0.00    -0.195 A  
HETATM   13  C   UNL     1      -9.059  10.758  68.188  1.00  0.00    -0.151 A  
HETATM   14  C   UNL     1     -11.038  12.026  67.666  1.00  0.00    -0.319 A  
HETATM   15  C   UNL     1     -10.295  13.210  67.716  1.00  0.00    -0.230 A  
HETATM   16  C   UNL     1      -8.316  11.942  68.228  1.00  0.00    -0.159 A  
HETATM   17  C   UNL     1     -10.422  10.802  67.916  1.00  0.00    -0.233 A  
ENDBRANCH   4  12
TORSDOF 1
ENDMDL
MODEL      170
REMARK 921   NORMALIZED FREE ENERGY PREDICTED BY IDOCK:   -0.29 KCAL/MOL
REMARK 922        TOTAL FREE ENERGY PREDICTED BY IDOCK:   -0.56 KCAL/MOL
REMARK 923 INTER-LIGAND FREE ENERGY PREDICTED BY IDOCK:   -0.29 KCAL/MOL
REMARK 924 INTRA-LIGAND FREE ENERGY PREDICTED BY IDOCK:   -0.28 KCAL/MOL
REMARK 927      BINDING AFFINITY PREDICTED BY RF-SCORE:    0.00 PKD
ROOT
HETATM    1  O   UNL     1      -9.354   9.896  72.436  1.00  0.00     2.349 OA 
HETATM    2  C   UNL     1      -9.527   8.942  71.689  1.00  0.00    -0.281 C  
HETATM    3  C   UNL     1      -8.420   8.394  70.894  1.00  0.00    -0.158 C  
HETATM    4  C   UNL     1      -8.648   7.388  70.035  1.00  0.00    -0.140 C  
HETATM    5  C   UNL     1     -10.824   8.272  71.552  1.00  0.00    -0.308 A  
HETATM    6  O   UNL     1      -9.898   6.804  69.850  1.00  0.00    -0.164 OA 
HETATM    7  C   UNL     1     -10.942   7.226  70.639  1.00  0.00    -0.256 A  
HETATM    8  C   UNL     1     -11.909   8.659  72.343  1.00  0.00    -0.402 A  
HETATM    9  C   UNL     1     -12.160   6.558  70.513  1.00  0.00    -0.226 A  
HETATM   10  C   UNL     1     -13.122   7.982  72.223  1.00  0.00    -0.149 A  
HETATM   11  C   UNL     1     -13.246   6.933  71.310  1.00  0.00    -0.237 A  
ENDROOT
BRANCH   4  12
HETATM   12  C   UNL     1      -7.547   6.777  69.248  1.00  0.00    -0.096 A  
HETATM   13  C   UNL     1      -5.168   6.364  68.865  1.00  0.00    -0.008 A  
HETATM   14  C   UNL     1      -6.803   5.296  67.456  1.00  0.00    -0.060 A  
HETATM   15  C   UNL     1      -7.830   5.931  68.164  1.00  0.00    -0.105 A  
HETATM   16  C   UNL     1      -6.196   7.004  69.565  1.00  0.00    -0.034 A  
HETATM   17  C   UNL     1      -5.474   5.503  67.816  1.00  0.00    -0.012 A  
ENDBRANCH   4  12
TORSDOF 1
ENDMDL
MODEL      171
REMARK 921   NORMALIZED FREE ENERGY PREDICTED BY IDOCK:    1.60 KCAL/MOL
REMARK 922        TOTAL FREE ENERGY PREDICTED BY IDOCK:    1.43 KCAL/MOL
REMARK 923 INTER-LIGAND FREE ENERGY PREDICTED BY IDOCK:    1.67 KCAL/MOL
REMARK 924 INTRA-LIGAND FREE ENERGY PREDICTED BY IDOCK:   -0.24 KCAL/MOL
REMARK 927      BINDING AFFINITY PREDICTED BY RF-SCORE:    0.00 PKD
ROOT
HETATM    1  O   UNL     1      -7.971  17.425  68.205  1.00  0.00    -0.233 OA 
HETATM    2  C   UNL     1      -8.488  16.370  68.548  1.00  0.00    -0.211 C  
HETATM    3  C   UNL     1      -8.094  15.098  67.926  1.00  0.00    -0.144 C  
HETATM    4  C   UNL     1      -8.720  13.963  68.273  1.00  0.00    -0.183 C  
HETATM    5  C   UNL     1      -9.505  16.294  69.601  1.00  0.00     0.061 A  
HETATM    6  O   UNL     1      -9.740  13.905  69.219  1.00  0.00     0.127 OA 
HETATM    7  C   UNL     1     -10.077  15.057  69.889  1.00  0.00    -0.044 A  
HETATM    8  C   UNL     1      -9.869  17.438  70.318  1.00  0.00     1.663 A  
HETATM    9  C   UNL     1     -11.026  14.959  70.907  1.00  0.00    -0.074 A  
HETATM   10  C   UNL     1     -10.810  17.335  71.341  1.00  0.00     1.746 A  
HETATM   11  C   UNL     1     -11.387  16.098  71.635  1.00  0.00    -0.243 A  
ENDROOT
BRANCH   4  12
HETATM   12  C   UNL     1      -8.319  12.653  67.701  1.00  0.00    -0.174 A  
HETATM   13  C   UNL     1      -6.744  10.792  67.519  1.00  0.00    -0.073 A  
HETATM   14  C   UNL     1      -8.849  10.686  66.356  1.00  0.00    -0.164 A  
HETATM   15  C   UNL     1      -9.187  11.951  66.848  1.00  0.00    -0.193 A  
HETATM   16  C   UNL     1      -7.080  12.060  68.002  1.00  0.00    -0.086 A  
HETATM   17  C   UNL     1      -7.634  10.102  66.703  1.00  0.00    -0.107 A  
ENDBRANCH   4  12
TORSDOF 1
ENDMDL
MODEL      172
REMARK 921   NORMALIZED FREE ENERGY PREDICTED BY IDOCK:    3.43 KCAL/MOL
REMARK 922        TOTAL FREE ENERGY PREDICTED BY IDOCK:    3.37 KCAL/MOL
REMARK 923 INTER-LIGAND FREE ENERGY PREDICTED BY IDOCK:    3.62 KCAL/MOL
REMARK 924 INTRA-LIGAND FREE ENERGY PREDICTED BY IDOCK:   -0.26 KCAL/MOL
REMARK 927      BINDING AFFINITY PREDICTED BY RF-SCORE:    0.00 PKD
ROOT
HETATM    1  O   UNL     1     -12.876   9.721  68.465  1.00  0.00     2.896 OA 
HETATM    2  C   UNL     1     -11.959  10.461  68.796  1.00  0.00     0.215 C  
HETATM    3  C   UNL     1     -12.193  11.594  69.702  1.00  0.00    -0.271 C  
HETATM    4  C   UNL     1     -11.186  12.430  70.000  1.00  0.00     0.267 C  
HETATM    5  C   UNL     1     -10.580  10.263  68.341  1.00  0.00    -0.247 A  
HETATM    6  O   UNL     1      -9.893  12.283  69.504  1.00  0.00     0.658 OA 
HETATM    7  C   UNL     1      -9.611  11.186  68.726  1.00  0.00    -0.172 A  
HETATM    8  C   UNL     1     -10.244   9.154  67.559  1.00  0.00    -0.304 A  
HETATM    9  C   UNL     1      -8.287  11.000  68.326  1.00  0.00    -0.133 A  
HETATM   10  C   UNL     1      -8.919   8.965  67.169  1.00  0.00    -0.141 A  
HETATM   11  C   UNL     1      -7.942   9.887  67.553  1.00  0.00    -0.106 A  
ENDROOT
BRANCH   4  12
HETATM   12  C   UNL     1     -11.372  13.558  70.947  1.00  0.00     1.010 A  
HETATM   13  C   UNL     1     -11.112  15.916  71.538  1.00  0.00    -0.099 A  
HETATM   14  C   UNL     1     -12.320  14.446  73.013  1.00  0.00    -0.194 A  
HETATM   15  C   UNL     1     -12.081  13.375  72.145  1.00  0.00     0.885 A  
HETATM   16  C   UNL     1     -10.867  14.843  70.676  1.00  0.00    -0.045 A  
HETATM   17  C   UNL     1     -11.847  15.718  72.702  1.00  0.00    -0.596 A  
ENDBRANCH   4  12
TORSDOF 1
ENDMDL
MODEL      173
REMARK 921   NORMALIZED FREE ENERGY PREDICTED BY IDOCK:    4.08 KCAL/MOL
REMARK 922        TOTAL FREE ENERGY PREDICTED BY IDOCK:    4.05 KCAL/MOL
REMARK 923 INTER-LIGAND FREE ENERGY PREDICTED BY IDOCK:    4.31 KCAL/MOL
REMARK 924 INTRA-LIGAND FREE ENERGY PREDICTED BY IDOCK:   -0.25 KCAL/MOL
REMARK 927      BINDING AFFINITY PREDICTED BY RF-SCORE:    0.00 PKD
ROOT
HETATM    1  O   UNL     1     -11.775   6.179  67.209  1.00  0.00     0.462 OA 
HETATM    2  C   UNL     1     -11.213   6.723  68.150  1.00  0.00    -0.061 C  
HETATM    3  C   UNL     1      -9.864   7.285  68.001  1.00  0.00    -0.167 C  
HETATM    4  C   UNL     1      -9.242   7.821  69.064  1.00  0.00    -0.143 C  
HETATM    5  C   UNL     1     -11.841   6.873  69.466  1.00  0.00     0.100 A  
HETATM    6  O   UNL     1      -9.811   7.892  70.332  1.00  0.00    -0.183 OA 
HETATM    7  C   UNL     1     -11.106   7.459  70.494  1.00  0.00    -0.261 A  
HETATM    8  C   UNL     1     -13.160   6.459  69.673  1.00  0.00     4.621 A  
HETATM    9  C   UNL     1     -11.695   7.636  71.747  1.00  0.00    -0.319 A  
HETATM   10  C   UNL     1     -13.750   6.646  70.922  1.00  0.00     0.815 A  
HETATM   11  C   UNL     1     -13.019   7.235  71.956  1.00  0.00    -0.196 A  
ENDROOT
BRANCH   4  12
HETATM   12  C   UNL     1      -7.898   8.439  68.943  1.00  0.00    -0.113 A  
HETATM   13  C   UNL     1      -6.331   9.946  67.825  1.00  0.00    -0.055 A  
HETATM   14  C   UNL     1      -5.657   8.811  69.839  1.00  0.00    -0.028 A  
HETATM   15  C   UNL     1      -6.906   8.183  69.904  1.00  0.00    -0.044 A  
HETATM   16  C   UNL     1      -7.574   9.310  67.887  1.00  0.00    -0.084 A  
HETATM   17  C   UNL     1      -5.376   9.703  68.806  1.00  0.00    -0.036 A  
ENDBRANCH   4  12
TORSDOF 1
ENDMDL
MODEL      174
REMARK 921   NORMALIZED FREE ENERGY PREDICTED BY IDOCK:    9.98 KCAL/MOL
REMARK 922        TOTAL FREE ENERGY PREDICTED BY IDOCK:   10.30 KCAL/MOL
REMARK 923 INTER-LIGAND FREE ENERGY PREDICTED BY IDOCK:   10.55 KCAL/MOL
REMARK 924 INTRA-LIGAND FREE ENERGY PREDICTED BY IDOCK:   -0.25 KCAL/MOL
REMARK 927      BINDING AFFINITY PREDICTED BY RF-SCORE:    0.00 PKD
ROOT
HETATM    1  O   UNL     1     -11.845   5.313  69.302  1.00  0.00     2.530 OA 
HETATM    2  C   UNL     1     -11.354   5.948  70.225  1.00  0.00    -0.162 C  
HETATM    3  C   UNL     1      -9.963   6.418  70.162  1.00  0.00    -0.201 C  
HETATM    4  C   UNL     1      -9.425   7.058  71.212  1.00  0.00    -0.164 C  
HETATM    5  C   UNL     1     -12.108   6.302  71.430  1.00  0.00    -0.136 A  
HETATM    6  O   UNL     1     -10.122   7.325  72.388  1.00  0.00    -0.177 OA 
HETATM    7  C   UNL     1     -11.452   6.983  72.453  1.00  0.00    -0.261 A  
HETATM    8  C   UNL     1     -13.466   5.986  71.535  1.00  0.00     1.342 A  
HETATM    9  C   UNL     1     -12.160   7.353  73.597  1.00  0.00     2.438 A  
HETATM   10  C   UNL     1     -14.173   6.367  72.674  1.00  0.00     0.766 A  
HETATM   11  C   UNL     1     -13.521   7.050  73.703  1.00  0.00     4.861 A  
ENDROOT
BRANCH   4  12
HETATM   12  C   UNL     1      -8.039   7.587  71.170  1.00  0.00    -0.100 A  
HETATM   13  C   UNL     1      -6.434   9.401  71.495  1.00  0.00     0.042 A  
HETATM   14  C   UNL     1      -5.645   7.214  70.871  1.00  0.00    -0.027 A  
HETATM   15  C   UNL     1      -6.963   6.743  70.850  1.00  0.00    -0.067 A  
HETATM   16  C   UNL     1      -7.750   8.932  71.464  1.00  0.00    -0.097 A  
HETATM   17  C   UNL     1      -5.381   8.539  71.207  1.00  0.00    -0.033 A  
ENDBRANCH   4  12
TORSDOF 1
ENDMDL
