MODEL        1
REMARK 921   NORMALIZED FREE ENERGY PREDICTED BY IDOCK:   -8.04 KCAL/MOL
REMARK 922        TOTAL FREE ENERGY PREDICTED BY IDOCK:  -10.55 KCAL/MOL
REMARK 923 INTER-LIGAND FREE ENERGY PREDICTED BY IDOCK:   -9.93 KCAL/MOL
REMARK 924 INTRA-LIGAND FREE ENERGY PREDICTED BY IDOCK:   -0.62 KCAL/MOL
REMARK 927      BINDING AFFINITY PREDICTED BY RF-SCORE:    0.00 PKD
ROOT
HETATM    1  F   UNL     1     -10.276   7.729  69.237  1.00  0.00    -0.189 F  
HETATM    2  C   UNL     1     -11.025   7.393  70.325  1.00  0.00    -0.255 C  
HETATM    3  C   UNL     1     -11.814   8.542  70.896  1.00  0.00    -0.243 A  
HETATM    4  F   UNL     1     -11.816   6.359  69.925  1.00  0.00    -0.474 F  
HETATM    5  F   UNL     1     -10.149   6.867  71.226  1.00  0.00    -0.189 F  
HETATM    6  C   UNL     1     -11.721   9.821  70.320  1.00  0.00    -0.253 A  
HETATM    7  C   UNL     1     -12.391  10.944  70.835  1.00  0.00    -0.400 A  
HETATM    8  C   UNL     1     -12.645   8.361  72.003  1.00  0.00    -0.400 A  
HETATM    9  C   UNL     1     -13.217  10.712  71.946  1.00  0.00    -0.528 A  
HETATM   10  C   UNL     1     -13.350   9.441  72.520  1.00  0.00    -0.420 A  
ENDROOT
BRANCH   7  11
HETATM   11  N   UNL     1     -12.274  12.187  70.208  1.00  0.00    -0.299 NA 
HETATM   12  C   UNL     1     -11.849  13.539  68.162  1.00  0.00    -0.365 C  
HETATM   13  C   UNL     1     -11.500  12.251  68.944  1.00  0.00    -0.304 C  
HETATM   14  N   UNL     1     -11.680  14.802  68.919  1.00  0.00    -0.300 NA 
HETATM   15  C   UNL     1     -12.473  14.669  70.168  1.00  0.00    -0.317 C  
HETATM   16  C   UNL     1     -12.162  13.412  71.024  1.00  0.00    -0.224 C  
BRANCH  14  17
HETATM   17  C   UNL     1     -10.266  15.098  69.228  1.00  0.00    -0.251 C  
BRANCH  17  18
HETATM   18  C   UNL     1      -9.364  15.200  67.985  1.00  0.00    -0.187 C  
BRANCH  18  19
HETATM   19  N   UNL     1      -9.820  16.218  67.075  1.00  0.00    -0.239 N  
HETATM   20  C   UNL     1     -10.272  15.981  65.761  1.00  0.00    -0.377 C  
HETATM   21  O   UNL     1     -10.359  14.910  65.186  1.00  0.00    -0.382 OA 
HETATM   22  N   UNL     1     -10.595  17.236  65.221  1.00  0.00    -0.657 NA 
HETATM   23  C   UNL     1     -10.327  18.218  66.170  1.00  0.00    -0.398 A  
HETATM   24  C   UNL     1     -10.483  19.580  66.079  1.00  0.00    -0.611 A  
HETATM   25  C   UNL     1     -10.116  20.331  67.202  1.00  0.00    -0.556 A  
HETATM   26  C   UNL     1      -9.605  19.708  68.361  1.00  0.00    -0.468 A  
HETATM   27  C   UNL     1      -9.458  18.318  68.429  1.00  0.00    -0.336 A  
HETATM   28  C   UNL     1      -9.833  17.596  67.317  1.00  0.00    -0.303 A  
ENDBRANCH  18  19
ENDBRANCH  17  18
ENDBRANCH  14  17
ENDBRANCH   7  11
TORSDOF 4
ENDMDL
MODEL        2
REMARK 921   NORMALIZED FREE ENERGY PREDICTED BY IDOCK:   -8.02 KCAL/MOL
REMARK 922        TOTAL FREE ENERGY PREDICTED BY IDOCK:  -10.51 KCAL/MOL
REMARK 923 INTER-LIGAND FREE ENERGY PREDICTED BY IDOCK:   -9.58 KCAL/MOL
REMARK 924 INTRA-LIGAND FREE ENERGY PREDICTED BY IDOCK:   -0.94 KCAL/MOL
REMARK 927      BINDING AFFINITY PREDICTED BY RF-SCORE:    0.00 PKD
ROOT
HETATM    1  F   UNL     1     -11.920   9.613  70.148  1.00  0.00    -0.244 F  
HETATM    2  C   UNL     1     -12.804   9.976  71.120  1.00  0.00    -0.385 C  
HETATM    3  C   UNL     1     -12.903  11.466  71.325  1.00  0.00    -0.481 A  
HETATM    4  F   UNL     1     -13.993   9.414  70.769  1.00  0.00    -0.304 F  
HETATM    5  F   UNL     1     -12.400   9.324  72.246  1.00  0.00    -0.425 F  
HETATM    6  C   UNL     1     -12.110  12.339  70.560  1.00  0.00    -0.371 A  
HETATM    7  C   UNL     1     -12.118  13.733  70.737  1.00  0.00    -0.319 A  
HETATM    8  C   UNL     1     -13.775  12.002  72.273  1.00  0.00    -0.035 A  
HETATM    9  C   UNL     1     -13.013  14.227  71.699  1.00  0.00    -0.420 A  
HETATM   10  C   UNL     1     -13.836  13.379  72.453  1.00  0.00    -0.665 A  
ENDROOT
BRANCH   7  11
HETATM   11  N   UNL     1     -11.321  14.553  69.934  1.00  0.00    -0.256 NA 
HETATM   12  C   UNL     1     -10.600  16.825  69.217  1.00  0.00    -0.336 C  
HETATM   13  C   UNL     1     -11.775  15.947  69.709  1.00  0.00    -0.318 C  
HETATM   14  N   UNL     1      -9.900  16.323  68.011  1.00  0.00    -0.233 NA 
HETATM   15  C   UNL     1      -9.479  14.929  68.301  1.00  0.00    -0.210 C  
HETATM   16  C   UNL     1     -10.608  13.977  68.776  1.00  0.00    -0.251 C  
BRANCH  14  17
HETATM   17  C   UNL     1     -10.744  16.372  66.800  1.00  0.00    -0.180 C  
BRANCH  17  18
HETATM   18  C   UNL     1     -10.039  15.869  65.527  1.00  0.00    -0.320 C  
BRANCH  18  19
HETATM   19  N   UNL     1     -10.819  14.872  64.840  1.00  0.00    -0.410 N  
HETATM   20  C   UNL     1     -11.982  15.135  64.090  1.00  0.00    -0.170 C  
HETATM   21  O   UNL     1     -12.512  16.215  63.892  1.00  0.00    -0.824 OA 
HETATM   22  N   UNL     1     -12.437  13.894  63.616  1.00  0.00    -0.805 NA 
HETATM   23  C   UNL     1     -11.588  12.895  64.082  1.00  0.00    -0.398 A  
HETATM   24  C   UNL     1     -11.648  11.538  63.877  1.00  0.00    -0.305 A  
HETATM   25  C   UNL     1     -10.653  10.765  64.487  1.00  0.00    -0.258 A  
HETATM   26  C   UNL     1      -9.647  11.363  65.277  1.00  0.00    -0.256 A  
HETATM   27  C   UNL     1      -9.608  12.748  65.470  1.00  0.00    -0.001 A  
HETATM   28  C   UNL     1     -10.590  13.492  64.854  1.00  0.00    -0.397 A  
ENDBRANCH  18  19
ENDBRANCH  17  18
ENDBRANCH  14  17
ENDBRANCH   7  11
TORSDOF 4
ENDMDL
MODEL        3
REMARK 921   NORMALIZED FREE ENERGY PREDICTED BY IDOCK:   -7.95 KCAL/MOL
REMARK 922        TOTAL FREE ENERGY PREDICTED BY IDOCK:  -10.43 KCAL/MOL
REMARK 923 INTER-LIGAND FREE ENERGY PREDICTED BY IDOCK:  -10.21 KCAL/MOL
REMARK 924 INTRA-LIGAND FREE ENERGY PREDICTED BY IDOCK:   -0.22 KCAL/MOL
REMARK 927      BINDING AFFINITY PREDICTED BY RF-SCORE:    0.00 PKD
ROOT
HETATM    1  F   UNL     1     -12.289  16.683  72.080  1.00  0.00    -0.374 F  
HETATM    2  C   UNL     1     -12.941  15.669  72.717  1.00  0.00    -0.480 C  
HETATM    3  C   UNL     1     -12.818  14.338  72.022  1.00  0.00    -0.428 A  
HETATM    4  F   UNL     1     -12.445  15.649  73.984  1.00  0.00    -0.513 F  
HETATM    5  F   UNL     1     -14.236  16.079  72.828  1.00  0.00    -0.651 F  
HETATM    6  C   UNL     1     -12.099  14.231  70.819  1.00  0.00    -0.418 A  
HETATM    7  C   UNL     1     -11.989  13.030  70.098  1.00  0.00    -0.303 A  
HETATM    8  C   UNL     1     -13.417  13.195  72.554  1.00  0.00    -0.579 A  
HETATM    9  C   UNL     1     -12.603  11.907  70.673  1.00  0.00    -0.269 A  
HETATM   10  C   UNL     1     -13.302  11.982  71.885  1.00  0.00    -0.408 A  
ENDROOT
BRANCH   7  11
HETATM   11  N   UNL     1     -11.244  12.980  68.917  1.00  0.00    -0.266 NA 
HETATM   12  C   UNL     1      -9.106  13.354  67.698  1.00  0.00    -0.203 C  
HETATM   13  C   UNL     1     -10.049  13.852  68.819  1.00  0.00    -0.157 C  
HETATM   14  N   UNL     1      -9.735  13.212  66.363  1.00  0.00    -0.267 NA 
HETATM   15  C   UNL     1     -10.922  12.335  66.533  1.00  0.00    -0.279 C  
HETATM   16  C   UNL     1     -11.930  12.783  67.624  1.00  0.00    -0.273 C  
BRANCH  14  17
HETATM   17  C   UNL     1     -10.125  14.509  65.774  1.00  0.00    -0.342 C  
BRANCH  17  18
HETATM   18  C   UNL     1      -9.088  15.627  65.985  1.00  0.00    -0.311 C  
BRANCH  18  19
HETATM   19  N   UNL     1      -9.693  16.933  65.954  1.00  0.00    -0.224 N  
HETATM   20  C   UNL     1     -10.743  17.314  65.095  1.00  0.00     0.064 C  
HETATM   21  O   UNL     1     -11.309  16.628  64.260  1.00  0.00    -1.116 OA 
HETATM   22  N   UNL     1     -11.013  18.663  65.373  1.00  0.00    -0.377 NA 
HETATM   23  C   UNL     1     -10.138  19.104  66.361  1.00  0.00    -0.419 A  
HETATM   24  C   UNL     1     -10.032  20.346  66.939  1.00  0.00    -0.549 A  
HETATM   25  C   UNL     1      -9.037  20.505  67.910  1.00  0.00    -0.173 A  
HETATM   26  C   UNL     1      -8.187  19.435  68.265  1.00  0.00    -0.372 A  
HETATM   27  C   UNL     1      -8.316  18.179  67.663  1.00  0.00    -0.244 A  
HETATM   28  C   UNL     1      -9.306  18.040  66.716  1.00  0.00    -0.284 A  
ENDBRANCH  18  19
ENDBRANCH  17  18
ENDBRANCH  14  17
ENDBRANCH   7  11
TORSDOF 4
ENDMDL
MODEL        4
REMARK 921   NORMALIZED FREE ENERGY PREDICTED BY IDOCK:   -7.90 KCAL/MOL
REMARK 922        TOTAL FREE ENERGY PREDICTED BY IDOCK:  -10.37 KCAL/MOL
REMARK 923 INTER-LIGAND FREE ENERGY PREDICTED BY IDOCK:   -9.41 KCAL/MOL
REMARK 924 INTRA-LIGAND FREE ENERGY PREDICTED BY IDOCK:   -0.96 KCAL/MOL
REMARK 927      BINDING AFFINITY PREDICTED BY RF-SCORE:    0.00 PKD
ROOT
HETATM    1  F   UNL     1     -12.406  16.030  70.446  1.00  0.00    -0.380 F  
HETATM    2  C   UNL     1     -13.088  15.354  71.413  1.00  0.00    -0.488 C  
HETATM    3  C   UNL     1     -12.923  13.858  71.340  1.00  0.00    -0.430 A  
HETATM    4  F   UNL     1     -12.663  15.873  72.598  1.00  0.00    -0.416 F  
HETATM    5  F   UNL     1     -14.388  15.739  71.282  1.00  0.00    -0.464 F  
HETATM    6  C   UNL     1     -12.138  13.281  70.327  1.00  0.00    -0.405 A  
HETATM    7  C   UNL     1     -11.984  11.893  70.174  1.00  0.00    -0.332 A  
HETATM    8  C   UNL     1     -13.545  13.023  72.269  1.00  0.00    -0.643 A  
HETATM    9  C   UNL     1     -12.625  11.093  71.133  1.00  0.00    -0.513 A  
HETATM   10  C   UNL     1     -13.390  11.645  72.170  1.00  0.00    -0.310 A  
ENDROOT
BRANCH   7  11
HETATM   11  N   UNL     1     -11.176  11.378  69.158  1.00  0.00    -0.250 NA 
HETATM   12  C   UNL     1      -9.321  11.665  67.523  1.00  0.00    -0.168 C  
HETATM   13  C   UNL     1     -10.501  12.344  68.259  1.00  0.00    -0.225 C  
HETATM   14  N   UNL     1      -9.671  10.437  66.770  1.00  0.00    -0.175 NA 
HETATM   15  C   UNL     1     -10.344   9.520  67.724  1.00  0.00    -0.239 C  
HETATM   16  C   UNL     1     -11.556  10.120  68.484  1.00  0.00     0.087 C  
BRANCH  14  17
HETATM   17  C   UNL     1     -10.540  10.709  65.607  1.00  0.00    -0.105 C  
BRANCH  17  18
HETATM   18  C   UNL     1      -9.956  11.734  64.618  1.00  0.00    -0.243 C  
BRANCH  18  19
HETATM   19  N   UNL     1     -10.798  12.894  64.488  1.00  0.00    -0.340 N  
HETATM   20  C   UNL     1     -12.033  12.922  63.810  1.00  0.00    -0.512 C  
HETATM   21  O   UNL     1     -12.589  11.999  63.238  1.00  0.00    -0.613 OA 
HETATM   22  N   UNL     1     -12.507  14.240  63.903  1.00  0.00    -0.804 NA 
HETATM   23  C   UNL     1     -11.577  15.005  64.600  1.00  0.00    -0.386 A  
HETATM   24  C   UNL     1     -11.616  16.340  64.923  1.00  0.00     0.112 A  
HETATM   25  C   UNL     1     -10.520  16.849  65.628  1.00  0.00    -0.252 A  
HETATM   26  C   UNL     1      -9.431  16.022  65.979  1.00  0.00    -0.384 A  
HETATM   27  C   UNL     1      -9.416  14.665  65.641  1.00  0.00    -0.099 A  
HETATM   28  C   UNL     1     -10.508  14.181  64.954  1.00  0.00    -0.438 A  
ENDBRANCH  18  19
ENDBRANCH  17  18
ENDBRANCH  14  17
ENDBRANCH   7  11
TORSDOF 4
ENDMDL
MODEL        5
REMARK 921   NORMALIZED FREE ENERGY PREDICTED BY IDOCK:   -7.90 KCAL/MOL
REMARK 922        TOTAL FREE ENERGY PREDICTED BY IDOCK:  -10.37 KCAL/MOL
REMARK 923 INTER-LIGAND FREE ENERGY PREDICTED BY IDOCK:   -9.90 KCAL/MOL
REMARK 924 INTRA-LIGAND FREE ENERGY PREDICTED BY IDOCK:   -0.47 KCAL/MOL
REMARK 927      BINDING AFFINITY PREDICTED BY RF-SCORE:    0.00 PKD
ROOT
HETATM    1  F   UNL     1     -11.521  19.392  67.299  1.00  0.00    -0.456 F  
HETATM    2  C   UNL     1     -10.232  19.784  67.094  1.00  0.00    -0.444 C  
HETATM    3  C   UNL     1      -9.292  18.646  66.791  1.00  0.00    -0.312 A  
HETATM    4  F   UNL     1     -10.280  20.707  66.095  1.00  0.00    -0.437 F  
HETATM    5  F   UNL     1      -9.873  20.467  68.218  1.00  0.00    -0.423 F  
HETATM    6  C   UNL     1      -9.768  17.324  66.760  1.00  0.00    -0.285 A  
HETATM    7  C   UNL     1      -8.935  16.216  66.533  1.00  0.00    -0.287 A  
HETATM    8  C   UNL     1      -7.939  18.882  66.542  1.00  0.00    -0.289 A  
HETATM    9  C   UNL     1      -7.584  16.501  66.283  1.00  0.00    -0.157 A  
HETATM   10  C   UNL     1      -7.090  17.813  66.280  1.00  0.00    -0.329 A  
ENDROOT
BRANCH   7  11
HETATM   11  N   UNL     1      -9.469  14.925  66.494  1.00  0.00    -0.267 NA 
HETATM   12  C   UNL     1     -11.139  13.308  65.605  1.00  0.00    -0.282 C  
HETATM   13  C   UNL     1     -10.867  14.772  66.024  1.00  0.00    -0.318 C  
HETATM   14  N   UNL     1     -10.843  12.290  66.642  1.00  0.00    -0.249 NA 
HETATM   15  C   UNL     1      -9.438  12.503  67.070  1.00  0.00    -0.217 C  
HETATM   16  C   UNL     1      -9.091  13.943  67.530  1.00  0.00    -0.201 C  
BRANCH  14  17
HETATM   17  C   UNL     1     -11.759  12.372  67.799  1.00  0.00    -0.350 C  
BRANCH  17  18
HETATM   18  C   UNL     1     -11.184  11.768  69.093  1.00  0.00    -0.264 C  
BRANCH  18  19
HETATM   19  N   UNL     1     -12.023  12.043  70.231  1.00  0.00    -0.345 N  
HETATM   20  C   UNL     1     -12.647  11.063  71.028  1.00  0.00    -0.411 C  
HETATM   21  O   UNL     1     -12.583   9.851  70.904  1.00  0.00    -0.318 OA 
HETATM   22  N   UNL     1     -13.382  11.754  72.003  1.00  0.00    -0.438 NA 
HETATM   23  C   UNL     1     -13.232  13.122  71.796  1.00  0.00    -0.403 A  
HETATM   24  C   UNL     1     -13.772  14.172  72.498  1.00  0.00    -0.626 A  
HETATM   25  C   UNL     1     -13.454  15.459  72.048  1.00  0.00    -0.564 A  
HETATM   26  C   UNL     1     -12.624  15.654  70.923  1.00  0.00    -0.503 A  
HETATM   27  C   UNL     1     -12.085  14.567  70.226  1.00  0.00    -0.386 A  
HETATM   28  C   UNL     1     -12.402  13.309  70.689  1.00  0.00    -0.339 A  
ENDBRANCH  18  19
ENDBRANCH  17  18
ENDBRANCH  14  17
ENDBRANCH   7  11
TORSDOF 4
ENDMDL
MODEL        6
REMARK 921   NORMALIZED FREE ENERGY PREDICTED BY IDOCK:   -7.86 KCAL/MOL
REMARK 922        TOTAL FREE ENERGY PREDICTED BY IDOCK:  -10.32 KCAL/MOL
REMARK 923 INTER-LIGAND FREE ENERGY PREDICTED BY IDOCK:   -9.78 KCAL/MOL
REMARK 924 INTRA-LIGAND FREE ENERGY PREDICTED BY IDOCK:   -0.54 KCAL/MOL
REMARK 927      BINDING AFFINITY PREDICTED BY RF-SCORE:    0.00 PKD
ROOT
HETATM    1  F   UNL     1     -14.257   9.280  71.123  1.00  0.00    -0.379 F  
HETATM    2  C   UNL     1     -13.335   8.649  71.904  1.00  0.00    -0.382 C  
HETATM    3  C   UNL     1     -11.909   8.919  71.501  1.00  0.00    -0.402 A  
HETATM    4  F   UNL     1     -13.604   9.038  73.181  1.00  0.00    -0.404 F  
HETATM    5  F   UNL     1     -13.649   7.324  71.844  1.00  0.00    -0.368 F  
HETATM    6  C   UNL     1     -11.631   9.741  70.395  1.00  0.00    -0.327 A  
HETATM    7  C   UNL     1     -10.326   9.993  69.938  1.00  0.00    -0.272 A  
HETATM    8  C   UNL     1     -10.846   8.359  72.210  1.00  0.00    -0.422 A  
HETATM    9  C   UNL     1      -9.289   9.411  70.684  1.00  0.00    -0.314 A  
HETATM   10  C   UNL     1      -9.540   8.612  71.807  1.00  0.00    -0.360 A  
ENDROOT
BRANCH   7  11
HETATM   11  N   UNL     1     -10.109  10.834  68.844  1.00  0.00    -0.197 NA 
HETATM   12  C   UNL     1      -8.558  11.883  67.204  1.00  0.00    -0.172 C  
HETATM   13  C   UNL     1      -8.743  11.379  68.655  1.00  0.00    -0.121 C  
HETATM   14  N   UNL     1      -9.562  12.874  66.748  1.00  0.00    -0.240 NA 
HETATM   15  C   UNL     1     -10.900  12.269  66.969  1.00  0.00    -0.250 C  
HETATM   16  C   UNL     1     -11.173  11.762  68.409  1.00  0.00    -0.251 C  
BRANCH  14  17
HETATM   17  C   UNL     1      -9.451  14.166  67.454  1.00  0.00    -0.220 C  
BRANCH  17  18
HETATM   18  C   UNL     1     -10.775  14.945  67.543  1.00  0.00    -0.276 C  
BRANCH  18  19
HETATM   19  N   UNL     1     -10.741  16.151  66.756  1.00  0.00    -0.282 N  
HETATM   20  C   UNL     1     -10.966  16.213  65.366  1.00  0.00    -0.227 C  
HETATM   21  O   UNL     1     -11.225  15.291  64.613  1.00  0.00    -0.396 OA 
HETATM   22  N   UNL     1     -10.816  17.560  65.001  1.00  0.00    -0.754 NA 
HETATM   23  C   UNL     1     -10.487  18.301  66.132  1.00  0.00    -0.383 A  
HETATM   24  C   UNL     1     -10.243  19.648  66.249  1.00  0.00    -0.598 A  
HETATM   25  C   UNL     1      -9.918  20.119  67.525  1.00  0.00    -0.571 A  
HETATM   26  C   UNL     1      -9.843  19.243  68.629  1.00  0.00    -0.500 A  
HETATM   27  C   UNL     1     -10.098  17.875  68.485  1.00  0.00    -0.392 A  
HETATM   28  C   UNL     1     -10.425  17.431  67.222  1.00  0.00    -0.321 A  
ENDBRANCH  18  19
ENDBRANCH  17  18
ENDBRANCH  14  17
ENDBRANCH   7  11
TORSDOF 4
ENDMDL
MODEL        7
REMARK 921   NORMALIZED FREE ENERGY PREDICTED BY IDOCK:   -7.84 KCAL/MOL
REMARK 922        TOTAL FREE ENERGY PREDICTED BY IDOCK:  -10.29 KCAL/MOL
REMARK 923 INTER-LIGAND FREE ENERGY PREDICTED BY IDOCK:   -9.64 KCAL/MOL
REMARK 924 INTRA-LIGAND FREE ENERGY PREDICTED BY IDOCK:   -0.65 KCAL/MOL
REMARK 927      BINDING AFFINITY PREDICTED BY RF-SCORE:    0.00 PKD
ROOT
HETATM    1  F   UNL     1      -9.079   9.523  67.566  1.00  0.00    -0.128 F  
HETATM    2  C   UNL     1      -9.390   9.533  66.239  1.00  0.00    -0.188 C  
HETATM    3  C   UNL     1      -9.758  10.895  65.712  1.00  0.00    -0.270 A  
HETATM    4  F   UNL     1      -8.313   8.996  65.602  1.00  0.00    -0.110 F  
HETATM    5  F   UNL     1     -10.400   8.630  66.091  1.00  0.00    -0.360 F  
HETATM    6  C   UNL     1      -9.777  12.006  66.573  1.00  0.00    -0.230 A  
HETATM    7  C   UNL     1     -10.159  13.292  66.156  1.00  0.00    -0.293 A  
HETATM    8  C   UNL     1     -10.088  11.078  64.368  1.00  0.00    -0.393 A  
HETATM    9  C   UNL     1     -10.479  13.429  64.796  1.00  0.00    -0.419 A  
HETATM   10  C   UNL     1     -10.438  12.343  63.910  1.00  0.00    -0.469 A  
ENDROOT
BRANCH   7  11
HETATM   11  N   UNL     1     -10.140  14.362  67.053  1.00  0.00    -0.253 NA 
HETATM   12  C   UNL     1      -8.960  15.704  68.786  1.00  0.00    -0.205 C  
HETATM   13  C   UNL     1      -9.183  14.297  68.184  1.00  0.00    -0.202 C  
HETATM   14  N   UNL     1     -10.192  16.410  69.212  1.00  0.00    -0.266 NA 
HETATM   15  C   UNL     1     -11.105  16.435  68.040  1.00  0.00    -0.292 C  
HETATM   16  C   UNL     1     -11.399  15.056  67.394  1.00  0.00    -0.332 C  
BRANCH  14  17
HETATM   17  C   UNL     1     -10.847  15.767  70.369  1.00  0.00    -0.329 C  
BRANCH  17  18
HETATM   18  C   UNL     1     -12.368  15.590  70.207  1.00  0.00    -0.396 C  
BRANCH  18  19
HETATM   19  N   UNL     1     -12.871  14.513  71.020  1.00  0.00    -0.334 N  
HETATM   20  C   UNL     1     -13.643  14.677  72.187  1.00  0.00    -0.414 C  
HETATM   21  O   UNL     1     -14.013  15.723  72.694  1.00  0.00    -0.580 OA 
HETATM   22  N   UNL     1     -13.900  13.387  72.678  1.00  0.00    -0.745 NA 
HETATM   23  C   UNL     1     -13.283  12.457  71.845  1.00  0.00    -0.382 A  
HETATM   24  C   UNL     1     -13.260  11.087  71.939  1.00  0.00    -0.503 A  
HETATM   25  C   UNL     1     -12.540  10.401  70.954  1.00  0.00    -0.478 A  
HETATM   26  C   UNL     1     -11.870  11.096  69.924  1.00  0.00    -0.439 A  
HETATM   27  C   UNL     1     -11.911  12.492  69.849  1.00  0.00    -0.373 A  
HETATM   28  C   UNL     1     -12.631  13.149  70.823  1.00  0.00    -0.260 A  
ENDBRANCH  18  19
ENDBRANCH  17  18
ENDBRANCH  14  17
ENDBRANCH   7  11
TORSDOF 4
ENDMDL
MODEL        8
REMARK 921   NORMALIZED FREE ENERGY PREDICTED BY IDOCK:   -7.63 KCAL/MOL
REMARK 922        TOTAL FREE ENERGY PREDICTED BY IDOCK:  -10.04 KCAL/MOL
REMARK 923 INTER-LIGAND FREE ENERGY PREDICTED BY IDOCK:   -9.42 KCAL/MOL
REMARK 924 INTRA-LIGAND FREE ENERGY PREDICTED BY IDOCK:   -0.62 KCAL/MOL
REMARK 927      BINDING AFFINITY PREDICTED BY RF-SCORE:    0.00 PKD
ROOT
HETATM    1  F   UNL     1     -12.510  16.582  72.445  1.00  0.00    -0.461 F  
HETATM    2  C   UNL     1     -13.003  15.390  72.884  1.00  0.00    -0.470 C  
HETATM    3  C   UNL     1     -12.742  14.242  71.944  1.00  0.00    -0.419 A  
HETATM    4  F   UNL     1     -12.458  15.194  74.116  1.00  0.00    -0.599 F  
HETATM    5  F   UNL     1     -14.333  15.597  73.092  1.00  0.00    -0.394 F  
HETATM    6  C   UNL     1     -12.064  14.460  70.732  1.00  0.00    -0.408 A  
HETATM    7  C   UNL     1     -11.833  13.443  69.790  1.00  0.00    -0.326 A  
HETATM    8  C   UNL     1     -13.170  12.950  72.254  1.00  0.00    -0.519 A  
HETATM    9  C   UNL     1     -12.278  12.161  70.147  1.00  0.00    -0.308 A  
HETATM   10  C   UNL     1     -12.930  11.912  71.362  1.00  0.00    -0.385 A  
ENDROOT
BRANCH   7  11
HETATM   11  N   UNL     1     -11.136  13.716  68.610  1.00  0.00    -0.260 NA 
HETATM   12  C   UNL     1      -9.229  13.259  67.078  1.00  0.00    -0.237 C  
HETATM   13  C   UNL     1      -9.708  13.320  68.547  1.00  0.00    -0.145 C  
HETATM   14  N   UNL     1      -9.442  14.498  66.293  1.00  0.00    -0.295 NA 
HETATM   15  C   UNL     1     -10.883  14.839  66.402  1.00  0.00    -0.322 C  
HETATM   16  C   UNL     1     -11.435  14.945  67.848  1.00  0.00    -0.340 C  
BRANCH  14  17
HETATM   17  C   UNL     1      -8.604  15.621  66.760  1.00  0.00    -0.274 C  
BRANCH  17  18
HETATM   18  C   UNL     1      -8.942  16.970  66.099  1.00  0.00    -0.208 C  
BRANCH  18  19
HETATM   19  N   UNL     1      -8.557  18.083  66.928  1.00  0.00    -0.243 N  
HETATM   20  C   UNL     1      -9.151  18.413  68.162  1.00  0.00    -0.309 C  
HETATM   21  O   UNL     1     -10.059  17.831  68.730  1.00  0.00    -0.358 OA 
HETATM   22  N   UNL     1      -8.500  19.570  68.619  1.00  0.00    -0.354 NA 
HETATM   23  C   UNL     1      -7.547  19.952  67.679  1.00  0.00    -0.289 A  
HETATM   24  C   UNL     1      -6.683  21.020  67.701  1.00  0.00    -0.399 A  
HETATM   25  C   UNL     1      -5.834  21.165  66.598  1.00  0.00    -0.334 A  
HETATM   26  C   UNL     1      -5.877  20.255  65.520  1.00  0.00    -0.219 A  
HETATM   27  C   UNL     1      -6.765  19.174  65.522  1.00  0.00    -0.300 A  
HETATM   28  C   UNL     1      -7.586  19.043  66.620  1.00  0.00    -0.243 A  
ENDBRANCH  18  19
ENDBRANCH  17  18
ENDBRANCH  14  17
ENDBRANCH   7  11
TORSDOF 4
ENDMDL
MODEL        9
REMARK 921   NORMALIZED FREE ENERGY PREDICTED BY IDOCK:   -7.62 KCAL/MOL
REMARK 922        TOTAL FREE ENERGY PREDICTED BY IDOCK:  -10.02 KCAL/MOL
REMARK 923 INTER-LIGAND FREE ENERGY PREDICTED BY IDOCK:   -9.34 KCAL/MOL
REMARK 924 INTRA-LIGAND FREE ENERGY PREDICTED BY IDOCK:   -0.68 KCAL/MOL
REMARK 927      BINDING AFFINITY PREDICTED BY RF-SCORE:    0.00 PKD
ROOT
HETATM    1  F   UNL     1     -11.901   9.979  70.006  1.00  0.00    -0.277 F  
HETATM    2  C   UNL     1     -12.614  10.391  71.093  1.00  0.00    -0.410 C  
HETATM    3  C   UNL     1     -12.738  11.888  71.206  1.00  0.00    -0.401 A  
HETATM    4  F   UNL     1     -13.821   9.768  71.001  1.00  0.00    -0.399 F  
HETATM    5  F   UNL     1     -11.989   9.840  72.171  1.00  0.00    -0.415 F  
HETATM    6  C   UNL     1     -12.131  12.723  70.251  1.00  0.00    -0.373 A  
HETATM    7  C   UNL     1     -12.167  14.125  70.327  1.00  0.00    -0.349 A  
HETATM    8  C   UNL     1     -13.451  12.470  72.255  1.00  0.00    -0.490 A  
HETATM    9  C   UNL     1     -12.898  14.665  71.397  1.00  0.00    -0.400 A  
HETATM   10  C   UNL     1     -13.537  13.854  72.345  1.00  0.00    -0.676 A  
ENDROOT
BRANCH   7  11
HETATM   11  N   UNL     1     -11.561  14.904  69.339  1.00  0.00    -0.291 NA 
HETATM   12  C   UNL     1     -10.940  15.263  66.955  1.00  0.00    -0.324 C  
HETATM   13  C   UNL     1     -11.151  14.227  68.084  1.00  0.00    -0.258 C  
HETATM   14  N   UNL     1      -9.988  16.355  67.271  1.00  0.00    -0.253 NA 
HETATM   15  C   UNL     1     -10.452  16.983  68.534  1.00  0.00    -0.373 C  
HETATM   16  C   UNL     1     -10.663  16.011  69.725  1.00  0.00    -0.331 C  
BRANCH  14  17
HETATM   17  C   UNL     1      -8.597  15.878  67.407  1.00  0.00    -0.172 C  
BRANCH  17  18
HETATM   18  C   UNL     1      -7.559  16.772  66.704  1.00  0.00    -0.276 C  
BRANCH  18  19
HETATM   19  N   UNL     1      -7.409  18.041  67.368  1.00  0.00    -0.203 N  
HETATM   20  C   UNL     1      -7.905  19.268  66.884  1.00  0.00    -0.257 C  
HETATM   21  O   UNL     1      -8.532  19.464  65.857  1.00  0.00    -0.433 OA 
HETATM   22  N   UNL     1      -7.522  20.246  67.815  1.00  0.00    -0.294 NA 
HETATM   23  C   UNL     1      -6.791  19.638  68.832  1.00  0.00    -0.342 A  
HETATM   24  C   UNL     1      -6.213  20.202  69.944  1.00  0.00    -0.380 A  
HETATM   25  C   UNL     1      -5.519  19.338  70.798  1.00  0.00    -0.247 A  
HETATM   26  C   UNL     1      -5.420  17.958  70.517  1.00  0.00    -0.245 A  
HETATM   27  C   UNL     1      -6.018  17.408  69.378  1.00  0.00    -0.237 A  
HETATM   28  C   UNL     1      -6.704  18.273  68.554  1.00  0.00    -0.238 A  
ENDBRANCH  18  19
ENDBRANCH  17  18
ENDBRANCH  14  17
ENDBRANCH   7  11
TORSDOF 4
ENDMDL
MODEL       10
REMARK 921   NORMALIZED FREE ENERGY PREDICTED BY IDOCK:   -7.61 KCAL/MOL
REMARK 922        TOTAL FREE ENERGY PREDICTED BY IDOCK:  -10.01 KCAL/MOL
REMARK 923 INTER-LIGAND FREE ENERGY PREDICTED BY IDOCK:   -9.50 KCAL/MOL
REMARK 924 INTRA-LIGAND FREE ENERGY PREDICTED BY IDOCK:   -0.51 KCAL/MOL
REMARK 927      BINDING AFFINITY PREDICTED BY RF-SCORE:    0.00 PKD
ROOT
HETATM    1  F   UNL     1      -6.050  18.479  68.881  1.00  0.00    -0.197 F  
HETATM    2  C   UNL     1      -6.995  19.458  68.807  1.00  0.00    -0.333 C  
HETATM    3  C   UNL     1      -8.344  18.966  68.349  1.00  0.00    -0.382 A  
HETATM    4  F   UNL     1      -7.035  20.029  70.042  1.00  0.00    -0.378 F  
HETATM    5  F   UNL     1      -6.479  20.405  67.974  1.00  0.00    -0.270 F  
HETATM    6  C   UNL     1      -8.530  17.611  68.026  1.00  0.00    -0.244 A  
HETATM    7  C   UNL     1      -9.748  17.099  67.546  1.00  0.00    -0.256 A  
HETATM    8  C   UNL     1      -9.425  19.842  68.236  1.00  0.00    -0.440 A  
HETATM    9  C   UNL     1     -10.807  18.015  67.451  1.00  0.00    -0.236 A  
HETATM   10  C   UNL     1     -10.654  19.365  67.796  1.00  0.00    -0.538 A  
ENDROOT
BRANCH   7  11
HETATM   11  N   UNL     1      -9.879  15.738  67.258  1.00  0.00    -0.228 NA 
HETATM   12  C   UNL     1     -10.880  13.908  65.900  1.00  0.00    -0.287 C  
HETATM   13  C   UNL     1     -11.098  15.303  66.534  1.00  0.00    -0.271 C  
HETATM   14  N   UNL     1     -10.449  12.848  66.842  1.00  0.00    -0.245 NA 
HETATM   15  C   UNL     1      -9.234  13.349  67.533  1.00  0.00    -0.219 C  
HETATM   16  C   UNL     1      -9.380  14.734  68.218  1.00  0.00    -0.199 C  
BRANCH  14  17
HETATM   17  C   UNL     1     -11.497  12.493  67.820  1.00  0.00    -0.321 C  
BRANCH  17  18
HETATM   18  C   UNL     1     -10.951  11.901  69.132  1.00  0.00    -0.198 C  
BRANCH  18  19
HETATM   19  N   UNL     1     -11.900  12.020  70.209  1.00  0.00    -0.314 N  
HETATM   20  C   UNL     1     -12.476  10.935  70.899  1.00  0.00    -0.408 C  
HETATM   21  O   UNL     1     -12.275   9.746  70.717  1.00  0.00    -0.286 OA 
HETATM   22  N   UNL     1     -13.354  11.487  71.845  1.00  0.00    -0.404 NA 
HETATM   23  C   UNL     1     -13.334  12.874  71.723  1.00  0.00    -0.359 A  
HETATM   24  C   UNL     1     -14.034  13.819  72.432  1.00  0.00    -0.651 A  
HETATM   25  C   UNL     1     -13.820  15.156  72.079  1.00  0.00    -0.608 A  
HETATM   26  C   UNL     1     -12.930  15.502  71.039  1.00  0.00    -0.550 A  
HETATM   27  C   UNL     1     -12.227  14.521  70.333  1.00  0.00    -0.394 A  
HETATM   28  C   UNL     1     -12.445  13.211  70.700  1.00  0.00    -0.286 A  
ENDBRANCH  18  19
ENDBRANCH  17  18
ENDBRANCH  14  17
ENDBRANCH   7  11
TORSDOF 4
ENDMDL
MODEL       11
REMARK 921   NORMALIZED FREE ENERGY PREDICTED BY IDOCK:   -7.53 KCAL/MOL
REMARK 922        TOTAL FREE ENERGY PREDICTED BY IDOCK:   -9.91 KCAL/MOL
REMARK 923 INTER-LIGAND FREE ENERGY PREDICTED BY IDOCK:   -9.35 KCAL/MOL
REMARK 924 INTRA-LIGAND FREE ENERGY PREDICTED BY IDOCK:   -0.57 KCAL/MOL
REMARK 927      BINDING AFFINITY PREDICTED BY RF-SCORE:    0.00 PKD
ROOT
HETATM    1  F   UNL     1     -14.117   9.062  71.090  1.00  0.00    -0.409 F  
HETATM    2  C   UNL     1     -13.020   8.630  71.774  1.00  0.00    -0.359 C  
HETATM    3  C   UNL     1     -11.714   9.073  71.168  1.00  0.00    -0.366 A  
HETATM    4  F   UNL     1     -13.183   9.069  73.052  1.00  0.00    -0.464 F  
HETATM    5  F   UNL     1     -13.132   7.273  71.828  1.00  0.00    -0.347 F  
HETATM    6  C   UNL     1     -11.704   9.844  69.992  1.00  0.00    -0.186 A  
HETATM    7  C   UNL     1     -10.521  10.246  69.351  1.00  0.00    -0.236 A  
HETATM    8  C   UNL     1     -10.497   8.727  71.757  1.00  0.00    -0.417 A  
HETATM    9  C   UNL     1      -9.322   9.878  69.981  1.00  0.00    -0.232 A  
HETATM   10  C   UNL     1      -9.306   9.135  71.169  1.00  0.00    -0.313 A  
ENDROOT
BRANCH   7  11
HETATM   11  N   UNL     1     -10.574  11.027  68.194  1.00  0.00    -0.180 NA 
HETATM   12  C   UNL     1      -9.531  11.818  66.076  1.00  0.00    -0.230 C  
HETATM   13  C   UNL     1      -9.289  11.374  67.538  1.00  0.00    -0.164 C  
HETATM   14  N   UNL     1     -10.499  12.929  65.906  1.00  0.00    -0.274 NA 
HETATM   15  C   UNL     1     -11.753  12.520  66.587  1.00  0.00    -0.387 C  
HETATM   16  C   UNL     1     -11.597  12.084  68.068  1.00  0.00    -0.342 C  
BRANCH  14  17
HETATM   17  C   UNL     1     -10.001  14.207  66.454  1.00  0.00    -0.293 C  
BRANCH  17  18
HETATM   18  C   UNL     1     -11.072  15.310  66.536  1.00  0.00    -0.271 C  
BRANCH  18  19
HETATM   19  N   UNL     1     -10.723  16.325  67.496  1.00  0.00    -0.316 N  
HETATM   20  C   UNL     1     -10.609  16.116  68.885  1.00  0.00    -0.275 C  
HETATM   21  O   UNL     1     -10.773  15.074  69.496  1.00  0.00    -0.242 OA 
HETATM   22  N   UNL     1     -10.279  17.359  69.447  1.00  0.00    -0.202 NA 
HETATM   23  C   UNL     1     -10.214  18.310  68.433  1.00  0.00    -0.380 A  
HETATM   24  C   UNL     1      -9.932  19.652  68.516  1.00  0.00    -0.542 A  
HETATM   25  C   UNL     1      -9.951  20.374  67.317  1.00  0.00    -0.564 A  
HETATM   26  C   UNL     1     -10.252  19.743  66.091  1.00  0.00    -0.618 A  
HETATM   27  C   UNL     1     -10.534  18.374  66.032  1.00  0.00    -0.400 A  
HETATM   28  C   UNL     1     -10.503  17.679  67.221  1.00  0.00    -0.338 A  
ENDBRANCH  18  19
ENDBRANCH  17  18
ENDBRANCH  14  17
ENDBRANCH   7  11
TORSDOF 4
ENDMDL
MODEL       12
REMARK 921   NORMALIZED FREE ENERGY PREDICTED BY IDOCK:   -7.51 KCAL/MOL
REMARK 922        TOTAL FREE ENERGY PREDICTED BY IDOCK:   -9.89 KCAL/MOL
REMARK 923 INTER-LIGAND FREE ENERGY PREDICTED BY IDOCK:   -9.19 KCAL/MOL
REMARK 924 INTRA-LIGAND FREE ENERGY PREDICTED BY IDOCK:   -0.70 KCAL/MOL
REMARK 927      BINDING AFFINITY PREDICTED BY RF-SCORE:    0.00 PKD
ROOT
HETATM    1  F   UNL     1      -9.756   6.971  71.502  1.00  0.00    -0.165 F  
HETATM    2  C   UNL     1     -10.856   7.262  72.251  1.00  0.00    -0.238 C  
HETATM    3  C   UNL     1     -11.586   8.502  71.802  1.00  0.00    -0.380 A  
HETATM    4  F   UNL     1     -11.638   6.149  72.211  1.00  0.00    -0.300 F  
HETATM    5  F   UNL     1     -10.410   7.360  73.535  1.00  0.00    -0.306 F  
HETATM    6  C   UNL     1     -11.105   9.250  70.714  1.00  0.00    -0.349 A  
HETATM    7  C   UNL     1     -11.710  10.441  70.277  1.00  0.00    -0.321 A  
HETATM    8  C   UNL     1     -12.742   8.929  72.456  1.00  0.00    -0.382 A  
HETATM    9  C   UNL     1     -12.872  10.830  70.963  1.00  0.00    -0.480 A  
HETATM   10  C   UNL     1     -13.387  10.084  72.032  1.00  0.00    -0.513 A  
ENDROOT
BRANCH   7  11
HETATM   11  N   UNL     1     -11.198  11.133  69.177  1.00  0.00    -0.240 NA 
HETATM   12  C   UNL     1      -9.341  11.572  67.578  1.00  0.00    -0.166 C  
HETATM   13  C   UNL     1      -9.724  11.199  69.030  1.00  0.00    -0.096 C  
HETATM   14  N   UNL     1      -9.954  12.820  67.065  1.00  0.00    -0.228 NA 
HETATM   15  C   UNL     1     -11.422  12.690  67.246  1.00  0.00    -0.342 C  
HETATM   16  C   UNL     1     -11.888  12.342  68.685  1.00  0.00    -0.302 C  
BRANCH  14  17
HETATM   17  C   UNL     1      -9.449  14.027  67.751  1.00  0.00    -0.209 C  
BRANCH  17  18
HETATM   18  C   UNL     1      -8.680  14.992  66.832  1.00  0.00    -0.256 C  
BRANCH  18  19
HETATM   19  N   UNL     1      -9.497  16.104  66.418  1.00  0.00    -0.272 N  
HETATM   20  C   UNL     1     -10.418  16.075  65.353  1.00  0.00    -0.392 C  
HETATM   21  O   UNL     1     -10.682  15.135  64.622  1.00  0.00    -0.366 OA 
HETATM   22  N   UNL     1     -10.977  17.361  65.277  1.00  0.00    -0.462 NA 
HETATM   23  C   UNL     1     -10.397  18.163  66.256  1.00  0.00    -0.397 A  
HETATM   24  C   UNL     1     -10.630  19.485  66.546  1.00  0.00    -0.579 A  
HETATM   25  C   UNL     1      -9.881  20.041  67.590  1.00  0.00    -0.548 A  
HETATM   26  C   UNL     1      -8.932  19.271  68.296  1.00  0.00    -0.381 A  
HETATM   27  C   UNL     1      -8.715  17.926  67.982  1.00  0.00    -0.256 A  
HETATM   28  C   UNL     1      -9.468  17.394  66.958  1.00  0.00    -0.266 A  
ENDBRANCH  18  19
ENDBRANCH  17  18
ENDBRANCH  14  17
ENDBRANCH   7  11
TORSDOF 4
ENDMDL
MODEL       13
REMARK 921   NORMALIZED FREE ENERGY PREDICTED BY IDOCK:   -7.50 KCAL/MOL
REMARK 922        TOTAL FREE ENERGY PREDICTED BY IDOCK:   -9.88 KCAL/MOL
REMARK 923 INTER-LIGAND FREE ENERGY PREDICTED BY IDOCK:   -9.05 KCAL/MOL
REMARK 924 INTRA-LIGAND FREE ENERGY PREDICTED BY IDOCK:   -0.83 KCAL/MOL
REMARK 927      BINDING AFFINITY PREDICTED BY RF-SCORE:    0.00 PKD
ROOT
HETATM    1  F   UNL     1     -13.540  12.878  72.470  1.00  0.00    -0.615 F  
HETATM    2  C   UNL     1     -13.220  14.202  72.521  1.00  0.00    -0.502 C  
HETATM    3  C   UNL     1     -12.365  14.664  71.370  1.00  0.00    -0.411 A  
HETATM    4  F   UNL     1     -14.405  14.867  72.596  1.00  0.00    -0.496 F  
HETATM    5  F   UNL     1     -12.610  14.387  73.726  1.00  0.00    -0.548 F  
HETATM    6  C   UNL     1     -11.956  13.752  70.381  1.00  0.00    -0.385 A  
HETATM    7  C   UNL     1     -11.119  14.108  69.310  1.00  0.00    -0.250 A  
HETATM    8  C   UNL     1     -11.963  15.996  71.266  1.00  0.00    -0.475 A  
HETATM    9  C   UNL     1     -10.743  15.459  69.245  1.00  0.00    -0.251 A  
HETATM   10  C   UNL     1     -11.161  16.393  70.202  1.00  0.00    -0.260 A  
ENDROOT
BRANCH   7  11
HETATM   11  N   UNL     1     -10.760  13.162  68.347  1.00  0.00    -0.247 NA 
HETATM   12  C   UNL     1     -11.233  11.972  66.212  1.00  0.00    -0.342 C  
HETATM   13  C   UNL     1     -11.836  12.619  67.482  1.00  0.00    -0.334 C  
HETATM   14  N   UNL     1     -10.212  10.926  66.462  1.00  0.00    -0.225 NA 
HETATM   15  C   UNL     1      -9.174  11.532  67.334  1.00  0.00    -0.166 C  
HETATM   16  C   UNL     1      -9.698  12.180  68.642  1.00  0.00    -0.081 C  
BRANCH  14  17
HETATM   17  C   UNL     1     -10.778   9.715  67.089  1.00  0.00    -0.188 C  
BRANCH  17  18
HETATM   18  C   UNL     1      -9.718   8.733  67.620  1.00  0.00    -0.169 C  
BRANCH  18  19
HETATM   19  N   UNL     1     -10.285   7.772  68.530  1.00  0.00    -0.200 N  
HETATM   20  C   UNL     1     -10.592   6.436  68.204  1.00  0.00    -0.255 C  
HETATM   21  O   UNL     1     -10.432   5.876  67.133  1.00  0.00    -0.209 OA 
HETATM   22  N   UNL     1     -11.143   5.862  69.361  1.00  0.00    -0.357 NA 
HETATM   23  C   UNL     1     -11.193   6.827  70.363  1.00  0.00    -0.328 A  
HETATM   24  C   UNL     1     -11.658   6.719  71.651  1.00  0.00    -0.336 A  
HETATM   25  C   UNL     1     -11.595   7.873  72.441  1.00  0.00    -0.436 A  
HETATM   26  C   UNL     1     -11.083   9.083  71.924  1.00  0.00    -0.433 A  
HETATM   27  C   UNL     1     -10.614   9.166  70.609  1.00  0.00    -0.305 A  
HETATM   28  C   UNL     1     -10.676   8.018  69.850  1.00  0.00    -0.242 A  
ENDBRANCH  18  19
ENDBRANCH  17  18
ENDBRANCH  14  17
ENDBRANCH   7  11
TORSDOF 4
ENDMDL
MODEL       14
REMARK 921   NORMALIZED FREE ENERGY PREDICTED BY IDOCK:   -7.44 KCAL/MOL
REMARK 922        TOTAL FREE ENERGY PREDICTED BY IDOCK:   -9.81 KCAL/MOL
REMARK 923 INTER-LIGAND FREE ENERGY PREDICTED BY IDOCK:   -9.47 KCAL/MOL
REMARK 924 INTRA-LIGAND FREE ENERGY PREDICTED BY IDOCK:   -0.34 KCAL/MOL
REMARK 927      BINDING AFFINITY PREDICTED BY RF-SCORE:    0.00 PKD
ROOT
HETATM    1  F   UNL     1     -11.515  19.695  66.673  1.00  0.00    -0.337 F  
HETATM    2  C   UNL     1     -10.163  19.756  66.510  1.00  0.00    -0.492 C  
HETATM    3  C   UNL     1      -9.492  18.407  66.498  1.00  0.00    -0.317 A  
HETATM    4  F   UNL     1      -9.959  20.456  65.361  1.00  0.00    -0.446 F  
HETATM    5  F   UNL     1      -9.708  20.552  67.519  1.00  0.00    -0.513 F  
HETATM    6  C   UNL     1     -10.253  17.237  66.664  1.00  0.00    -0.319 A  
HETATM    7  C   UNL     1      -9.682  15.954  66.711  1.00  0.00    -0.238 A  
HETATM    8  C   UNL     1      -8.112  18.296  66.325  1.00  0.00    -0.254 A  
HETATM    9  C   UNL     1      -8.291  15.890  66.530  1.00  0.00    -0.330 A  
HETATM   10  C   UNL     1      -7.515  17.041  66.333  1.00  0.00    -0.336 A  
ENDROOT
BRANCH   7  11
HETATM   11  N   UNL     1     -10.491  14.824  66.860  1.00  0.00    -0.274 NA 
HETATM   12  C   UNL     1     -11.774  13.267  68.318  1.00  0.00    -0.353 C  
HETATM   13  C   UNL     1     -10.527  14.174  68.192  1.00  0.00    -0.244 C  
HETATM   14  N   UNL     1     -11.919  12.244  67.255  1.00  0.00    -0.559 NA 
HETATM   15  C   UNL     1     -11.870  12.959  65.955  1.00  0.00    -0.424 C  
HETATM   16  C   UNL     1     -10.633  13.870  65.741  1.00  0.00    -0.297 C  
BRANCH  14  17
HETATM   17  C   UNL     1     -10.873  11.203  67.318  1.00  0.00    -0.274 C  
BRANCH  17  18
HETATM   18  C   UNL     1     -10.166  11.112  68.683  1.00  0.00    -0.205 C  
BRANCH  18  19
HETATM   19  N   UNL     1     -10.575   9.945  69.421  1.00  0.00    -0.215 N  
HETATM   20  C   UNL     1     -10.075   8.643  69.213  1.00  0.00    -0.202 C  
HETATM   21  O   UNL     1      -9.234   8.290  68.405  1.00  0.00    -0.136 OA 
HETATM   22  N   UNL     1     -10.752   7.810  70.118  1.00  0.00    -0.238 NA 
HETATM   23  C   UNL     1     -11.658   8.576  70.846  1.00  0.00    -0.263 A  
HETATM   24  C   UNL     1     -12.533   8.186  71.830  1.00  0.00    -0.368 A  
HETATM   25  C   UNL     1     -13.343   9.183  72.383  1.00  0.00    -0.527 A  
HETATM   26  C   UNL     1     -13.260  10.520  71.937  1.00  0.00    -0.526 A  
HETATM   27  C   UNL     1     -12.360  10.893  70.934  1.00  0.00    -0.501 A  
HETATM   28  C   UNL     1     -11.564   9.899  70.408  1.00  0.00    -0.282 A  
ENDBRANCH  18  19
ENDBRANCH  17  18
ENDBRANCH  14  17
ENDBRANCH   7  11
TORSDOF 4
ENDMDL
MODEL       15
REMARK 921   NORMALIZED FREE ENERGY PREDICTED BY IDOCK:   -7.43 KCAL/MOL
REMARK 922        TOTAL FREE ENERGY PREDICTED BY IDOCK:   -9.79 KCAL/MOL
REMARK 923 INTER-LIGAND FREE ENERGY PREDICTED BY IDOCK:   -9.26 KCAL/MOL
REMARK 924 INTRA-LIGAND FREE ENERGY PREDICTED BY IDOCK:   -0.53 KCAL/MOL
REMARK 927      BINDING AFFINITY PREDICTED BY RF-SCORE:    0.00 PKD
ROOT
HETATM    1  F   UNL     1     -13.181  10.296  72.320  1.00  0.00    -0.513 F  
HETATM    2  C   UNL     1     -12.398   9.358  71.717  1.00  0.00    -0.394 C  
HETATM    3  C   UNL     1     -11.657   9.871  70.510  1.00  0.00    -0.386 A  
HETATM    4  F   UNL     1     -11.565   8.891  72.687  1.00  0.00    -0.377 F  
HETATM    5  F   UNL     1     -13.233   8.324  71.412  1.00  0.00    -0.320 F  
HETATM    6  C   UNL     1     -11.823  11.202  70.090  1.00  0.00    -0.449 A  
HETATM    7  C   UNL     1     -11.200  11.727  68.946  1.00  0.00    -0.253 A  
HETATM    8  C   UNL     1     -10.801   9.038  69.788  1.00  0.00    -0.215 A  
HETATM    9  C   UNL     1     -10.346  10.855  68.254  1.00  0.00    -0.194 A  
HETATM   10  C   UNL     1     -10.141   9.532  68.669  1.00  0.00    -0.198 A  
ENDROOT
BRANCH   7  11
HETATM   11  N   UNL     1     -11.388  13.065  68.588  1.00  0.00    -0.270 NA 
HETATM   12  C   UNL     1     -11.334  14.866  66.871  1.00  0.00    -0.337 C  
HETATM   13  C   UNL     1     -10.680  13.561  67.383  1.00  0.00    -0.263 C  
HETATM   14  N   UNL     1     -11.443  15.953  67.874  1.00  0.00    -0.252 NA 
HETATM   15  C   UNL     1     -12.153  15.389  69.050  1.00  0.00    -0.226 C  
HETATM   16  C   UNL     1     -11.541  14.091  69.639  1.00  0.00    -0.289 C  
BRANCH  14  17
HETATM   17  C   UNL     1     -10.128  16.497  68.271  1.00  0.00    -0.259 C  
BRANCH  17  18
HETATM   18  C   UNL     1     -10.146  18.002  68.590  1.00  0.00    -0.394 C  
BRANCH  18  19
HETATM   19  N   UNL     1      -9.372  18.761  67.642  1.00  0.00    -0.289 N  
HETATM   20  C   UNL     1      -9.686  18.903  66.276  1.00  0.00    -0.344 C  
HETATM   21  O   UNL     1     -10.638  18.433  65.678  1.00  0.00    -0.622 OA 
HETATM   22  N   UNL     1      -8.669  19.693  65.716  1.00  0.00    -0.367 NA 
HETATM   23  C   UNL     1      -7.744  20.007  66.707  1.00  0.00    -0.304 A  
HETATM   24  C   UNL     1      -6.590  20.748  66.618  1.00  0.00    -0.340 A  
HETATM   25  C   UNL     1      -5.841  20.889  67.791  1.00  0.00    -0.353 A  
HETATM   26  C   UNL     1      -6.257  20.289  68.999  1.00  0.00    -0.366 A  
HETATM   27  C   UNL     1      -7.437  19.540  69.065  1.00  0.00    -0.380 A  
HETATM   28  C   UNL     1      -8.166  19.420  67.902  1.00  0.00    -0.306 A  
ENDBRANCH  18  19
ENDBRANCH  17  18
ENDBRANCH  14  17
ENDBRANCH   7  11
TORSDOF 4
ENDMDL
MODEL       16
REMARK 921   NORMALIZED FREE ENERGY PREDICTED BY IDOCK:   -7.43 KCAL/MOL
REMARK 922        TOTAL FREE ENERGY PREDICTED BY IDOCK:   -9.79 KCAL/MOL
REMARK 923 INTER-LIGAND FREE ENERGY PREDICTED BY IDOCK:   -9.59 KCAL/MOL
REMARK 924 INTRA-LIGAND FREE ENERGY PREDICTED BY IDOCK:   -0.20 KCAL/MOL
REMARK 927      BINDING AFFINITY PREDICTED BY RF-SCORE:    0.00 PKD
ROOT
HETATM    1  F   UNL     1     -12.537  16.362  72.074  1.00  0.00    -0.473 F  
HETATM    2  C   UNL     1     -13.072  15.251  72.655  1.00  0.00    -0.427 C  
HETATM    3  C   UNL     1     -12.854  13.988  71.863  1.00  0.00    -0.421 A  
HETATM    4  F   UNL     1     -12.532  15.189  73.903  1.00  0.00    -0.530 F  
HETATM    5  F   UNL     1     -14.394  15.530  72.832  1.00  0.00    -0.523 F  
HETATM    6  C   UNL     1     -12.170  14.030  70.636  1.00  0.00    -0.442 A  
HETATM    7  C   UNL     1     -11.978  12.898  69.827  1.00  0.00    -0.296 A  
HETATM    8  C   UNL     1     -13.327  12.760  72.329  1.00  0.00    -0.563 A  
HETATM    9  C   UNL     1     -12.468  11.685  70.337  1.00  0.00    -0.304 A  
HETATM   10  C   UNL     1     -13.127  11.612  71.572  1.00  0.00    -0.405 A  
ENDROOT
BRANCH   7  11
HETATM   11  N   UNL     1     -11.274  12.998  68.624  1.00  0.00    -0.260 NA 
HETATM   12  C   UNL     1      -9.133  12.865  67.361  1.00  0.00    -0.197 C  
HETATM   13  C   UNL     1      -9.812  13.237  68.700  1.00  0.00    -0.091 C  
HETATM   14  N   UNL     1      -9.691  13.536  66.163  1.00  0.00    -0.277 NA 
HETATM   15  C   UNL     1     -11.150  13.262  66.151  1.00  0.00    -0.285 C  
HETATM   16  C   UNL     1     -11.909  13.633  67.452  1.00  0.00    -0.393 C  
BRANCH  14  17
HETATM   17  C   UNL     1      -9.434  14.991  66.153  1.00  0.00    -0.313 C  
BRANCH  17  18
HETATM   18  C   UNL     1      -8.255  15.422  67.043  1.00  0.00    -0.236 C  
BRANCH  18  19
HETATM   19  N   UNL     1      -7.931  16.814  66.865  1.00  0.00    -0.190 N  
HETATM   20  C   UNL     1      -6.667  17.304  66.479  1.00  0.00    -0.251 C  
HETATM   21  O   UNL     1      -5.663  16.659  66.229  1.00  0.00    -0.228 OA 
HETATM   22  N   UNL     1      -6.778  18.703  66.448  1.00  0.00    -0.197 NA 
HETATM   23  C   UNL     1      -8.068  19.063  66.828  1.00  0.00    -0.269 A  
HETATM   24  C   UNL     1      -8.622  20.314  66.947  1.00  0.00    -0.370 A  
HETATM   25  C   UNL     1      -9.956  20.373  67.367  1.00  0.00    -0.556 A  
HETATM   26  C   UNL     1     -10.682  19.197  67.656  1.00  0.00    -0.514 A  
HETATM   27  C   UNL     1     -10.095  17.935  67.525  1.00  0.00    -0.343 A  
HETATM   28  C   UNL     1      -8.784  17.896  67.102  1.00  0.00    -0.243 A  
ENDBRANCH  18  19
ENDBRANCH  17  18
ENDBRANCH  14  17
ENDBRANCH   7  11
TORSDOF 4
ENDMDL
MODEL       17
REMARK 921   NORMALIZED FREE ENERGY PREDICTED BY IDOCK:   -7.40 KCAL/MOL
REMARK 922        TOTAL FREE ENERGY PREDICTED BY IDOCK:   -9.76 KCAL/MOL
REMARK 923 INTER-LIGAND FREE ENERGY PREDICTED BY IDOCK:   -9.11 KCAL/MOL
REMARK 924 INTRA-LIGAND FREE ENERGY PREDICTED BY IDOCK:   -0.65 KCAL/MOL
REMARK 927      BINDING AFFINITY PREDICTED BY RF-SCORE:    0.00 PKD
ROOT
HETATM    1  F   UNL     1     -11.888   8.746  70.418  1.00  0.00    -0.234 F  
HETATM    2  C   UNL     1     -12.526   9.490  71.365  1.00  0.00    -0.362 C  
HETATM    3  C   UNL     1     -12.549  10.966  71.063  1.00  0.00    -0.517 A  
HETATM    4  F   UNL     1     -13.773   8.957  71.476  1.00  0.00    -0.378 F  
HETATM    5  F   UNL     1     -11.893   9.211  72.539  1.00  0.00    -0.369 F  
HETATM    6  C   UNL     1     -11.929  11.461  69.902  1.00  0.00    -0.434 A  
HETATM    7  C   UNL     1     -11.872  12.829  69.588  1.00  0.00    -0.317 A  
HETATM    8  C   UNL     1     -13.177  11.864  71.926  1.00  0.00    -0.467 A  
HETATM    9  C   UNL     1     -12.521  13.694  70.483  1.00  0.00    -0.394 A  
HETATM   10  C   UNL     1     -13.170  13.223  71.633  1.00  0.00    -0.446 A  
ENDROOT
BRANCH   7  11
HETATM   11  N   UNL     1     -11.259  13.260  68.409  1.00  0.00    -0.263 NA 
HETATM   12  C   UNL     1      -9.445  13.045  66.718  1.00  0.00    -0.250 C  
HETATM   13  C   UNL     1      -9.830  12.916  68.211  1.00  0.00    -0.228 C  
HETATM   14  N   UNL     1      -9.735  14.362  66.103  1.00  0.00    -0.311 NA 
HETATM   15  C   UNL     1     -11.173  14.646  66.342  1.00  0.00    -0.336 C  
HETATM   16  C   UNL     1     -11.632  14.563  67.822  1.00  0.00    -0.365 C  
BRANCH  14  17
HETATM   17  C   UNL     1      -8.892  15.445  66.651  1.00  0.00    -0.295 C  
BRANCH  17  18
HETATM   18  C   UNL     1      -9.226  16.839  66.091  1.00  0.00    -0.249 C  
BRANCH  18  19
HETATM   19  N   UNL     1      -8.760  17.890  66.959  1.00  0.00    -0.239 N  
HETATM   20  C   UNL     1      -9.334  18.223  68.202  1.00  0.00    -0.296 C  
HETATM   21  O   UNL     1     -10.288  17.694  68.747  1.00  0.00    -0.362 OA 
HETATM   22  N   UNL     1      -8.597  19.308  68.701  1.00  0.00    -0.364 NA 
HETATM   23  C   UNL     1      -7.611  19.647  67.778  1.00  0.00    -0.278 A  
HETATM   24  C   UNL     1      -6.667  20.643  67.840  1.00  0.00    -0.348 A  
HETATM   25  C   UNL     1      -5.803  20.759  66.746  1.00  0.00    -0.260 A  
HETATM   26  C   UNL     1      -5.911  19.893  65.636  1.00  0.00    -0.209 A  
HETATM   27  C   UNL     1      -6.880  18.885  65.598  1.00  0.00    -0.292 A  
HETATM   28  C   UNL     1      -7.716  18.781  66.688  1.00  0.00    -0.248 A  
ENDBRANCH  18  19
ENDBRANCH  17  18
ENDBRANCH  14  17
ENDBRANCH   7  11
TORSDOF 4
ENDMDL
MODEL       18
REMARK 921   NORMALIZED FREE ENERGY PREDICTED BY IDOCK:   -7.38 KCAL/MOL
REMARK 922        TOTAL FREE ENERGY PREDICTED BY IDOCK:   -9.72 KCAL/MOL
REMARK 923 INTER-LIGAND FREE ENERGY PREDICTED BY IDOCK:   -9.17 KCAL/MOL
REMARK 924 INTRA-LIGAND FREE ENERGY PREDICTED BY IDOCK:   -0.56 KCAL/MOL
REMARK 927      BINDING AFFINITY PREDICTED BY RF-SCORE:    0.00 PKD
ROOT
HETATM    1  F   UNL     1     -11.908  10.739  71.181  1.00  0.00    -0.409 F  
HETATM    2  C   UNL     1     -11.371   9.498  71.007  1.00  0.00    -0.352 C  
HETATM    3  C   UNL     1     -10.893   9.235  69.603  1.00  0.00    -0.228 A  
HETATM    4  F   UNL     1     -10.376   9.393  71.930  1.00  0.00    -0.402 F  
HETATM    5  F   UNL     1     -12.338   8.622  71.398  1.00  0.00    -0.303 F  
HETATM    6  C   UNL     1     -11.038  10.219  68.610  1.00  0.00    -0.290 A  
HETATM    7  C   UNL     1     -10.659  10.018  67.272  1.00  0.00    -0.257 A  
HETATM    8  C   UNL     1     -10.303   8.017  69.264  1.00  0.00    -0.224 A  
HETATM    9  C   UNL     1     -10.068   8.780  66.978  1.00  0.00    -0.335 A  
HETATM   10  C   UNL     1      -9.885   7.793  67.957  1.00  0.00    -0.192 A  
ENDROOT
BRANCH   7  11
HETATM   11  N   UNL     1     -10.811  11.041  66.332  1.00  0.00    -0.232 NA 
HETATM   12  C   UNL     1     -10.046  12.205  64.269  1.00  0.00    -0.290 C  
HETATM   13  C   UNL     1      -9.620  11.427  65.537  1.00  0.00    -0.228 C  
HETATM   14  N   UNL     1     -10.895  13.395  64.514  1.00  0.00    -0.387 NA 
HETATM   15  C   UNL     1     -12.060  12.940  65.315  1.00  0.00    -0.453 C  
HETATM   16  C   UNL     1     -11.714  12.173  66.619  1.00  0.00    -0.313 C  
BRANCH  14  17
HETATM   17  C   UNL     1     -10.172  14.477  65.213  1.00  0.00    -0.402 C  
BRANCH  17  18
HETATM   18  C   UNL     1     -11.090  15.566  65.796  1.00  0.00    -0.217 C  
BRANCH  18  19
HETATM   19  N   UNL     1     -10.446  16.301  66.854  1.00  0.00    -0.309 N  
HETATM   20  C   UNL     1      -9.989  15.739  68.063  1.00  0.00    -0.222 C  
HETATM   21  O   UNL     1     -10.051  14.572  68.411  1.00  0.00    -0.227 OA 
HETATM   22  N   UNL     1      -9.453  16.796  68.813  1.00  0.00    -0.253 NA 
HETATM   23  C   UNL     1      -9.596  17.979  68.094  1.00  0.00    -0.301 A  
HETATM   24  C   UNL     1      -9.224  19.256  68.436  1.00  0.00    -0.409 A  
HETATM   25  C   UNL     1      -9.509  20.264  67.509  1.00  0.00    -0.539 A  
HETATM   26  C   UNL     1     -10.154  19.971  66.288  1.00  0.00    -0.603 A  
HETATM   27  C   UNL     1     -10.521  18.661  65.961  1.00  0.00    -0.456 A  
HETATM   28  C   UNL     1     -10.225  17.681  66.883  1.00  0.00    -0.334 A  
ENDBRANCH  18  19
ENDBRANCH  17  18
ENDBRANCH  14  17
ENDBRANCH   7  11
TORSDOF 4
ENDMDL
MODEL       19
REMARK 921   NORMALIZED FREE ENERGY PREDICTED BY IDOCK:   -7.37 KCAL/MOL
REMARK 922        TOTAL FREE ENERGY PREDICTED BY IDOCK:   -9.71 KCAL/MOL
REMARK 923 INTER-LIGAND FREE ENERGY PREDICTED BY IDOCK:   -9.08 KCAL/MOL
REMARK 924 INTRA-LIGAND FREE ENERGY PREDICTED BY IDOCK:   -0.63 KCAL/MOL
REMARK 927      BINDING AFFINITY PREDICTED BY RF-SCORE:    0.00 PKD
ROOT
HETATM    1  F   UNL     1      -9.385   8.203  69.857  1.00  0.00    -0.155 F  
HETATM    2  C   UNL     1     -10.288   8.069  70.868  1.00  0.00    -0.200 C  
HETATM    3  C   UNL     1     -11.263   9.213  70.968  1.00  0.00    -0.380 A  
HETATM    4  F   UNL     1     -10.902   6.871  70.661  1.00  0.00    -0.236 F  
HETATM    5  F   UNL     1      -9.549   7.918  72.003  1.00  0.00    -0.184 F  
HETATM    6  C   UNL     1     -11.176  10.296  70.076  1.00  0.00    -0.376 A  
HETATM    7  C   UNL     1     -12.022  11.416  70.148  1.00  0.00    -0.377 A  
HETATM    8  C   UNL     1     -12.262   9.220  71.942  1.00  0.00    -0.448 A  
HETATM    9  C   UNL     1     -13.013  11.377  71.141  1.00  0.00    -0.349 A  
HETATM   10  C   UNL     1     -13.139  10.295  72.022  1.00  0.00    -0.529 A  
ENDROOT
BRANCH   7  11
HETATM   11  N   UNL     1     -11.901  12.455  69.222  1.00  0.00    -0.313 NA 
HETATM   12  C   UNL     1     -11.892  13.253  66.864  1.00  0.00    -0.392 C  
HETATM   13  C   UNL     1     -11.537  12.098  67.829  1.00  0.00    -0.342 C  
HETATM   14  N   UNL     1     -11.307  14.570  67.214  1.00  0.00    -0.336 NA 
HETATM   15  C   UNL     1     -11.704  14.862  68.615  1.00  0.00    -0.330 C  
HETATM   16  C   UNL     1     -11.357  13.760  69.650  1.00  0.00    -0.178 C  
BRANCH  14  17
HETATM   17  C   UNL     1      -9.837  14.597  67.072  1.00  0.00    -0.244 C  
BRANCH  17  18
HETATM   18  C   UNL     1      -9.339  15.477  65.912  1.00  0.00    -0.319 C  
BRANCH  18  19
HETATM   19  N   UNL     1      -8.667  16.659  66.386  1.00  0.00    -0.284 N  
HETATM   20  C   UNL     1      -7.334  16.699  66.844  1.00  0.00    -0.225 C  
HETATM   21  O   UNL     1      -6.542  15.775  66.910  1.00  0.00    -0.276 OA 
HETATM   22  N   UNL     1      -7.088  18.026  67.232  1.00  0.00    -0.187 NA 
HETATM   23  C   UNL     1      -8.246  18.774  67.038  1.00  0.00    -0.264 A  
HETATM   24  C   UNL     1      -8.471  20.107  67.284  1.00  0.00    -0.403 A  
HETATM   25  C   UNL     1      -9.753  20.590  67.002  1.00  0.00    -0.548 A  
HETATM   26  C   UNL     1     -10.759  19.738  66.495  1.00  0.00    -0.508 A  
HETATM   27  C   UNL     1     -10.504  18.385  66.252  1.00  0.00    -0.421 A  
HETATM   28  C   UNL     1      -9.234  17.929  66.528  1.00  0.00    -0.273 A  
ENDBRANCH  18  19
ENDBRANCH  17  18
ENDBRANCH  14  17
ENDBRANCH   7  11
TORSDOF 4
ENDMDL
MODEL       20
REMARK 921   NORMALIZED FREE ENERGY PREDICTED BY IDOCK:   -7.36 KCAL/MOL
REMARK 922        TOTAL FREE ENERGY PREDICTED BY IDOCK:   -9.70 KCAL/MOL
REMARK 923 INTER-LIGAND FREE ENERGY PREDICTED BY IDOCK:   -9.06 KCAL/MOL
REMARK 924 INTRA-LIGAND FREE ENERGY PREDICTED BY IDOCK:   -0.64 KCAL/MOL
REMARK 927      BINDING AFFINITY PREDICTED BY RF-SCORE:    0.00 PKD
ROOT
HETATM    1  F   UNL     1     -12.934   8.976  72.764  1.00  0.00    -0.467 F  
HETATM    2  C   UNL     1     -12.178   7.984  72.215  1.00  0.00    -0.318 C  
HETATM    3  C   UNL     1     -11.487   8.383  70.937  1.00  0.00    -0.295 A  
HETATM    4  F   UNL     1     -11.306   7.601  73.187  1.00  0.00    -0.406 F  
HETATM    5  F   UNL     1     -13.026   6.932  72.038  1.00  0.00    -0.351 F  
HETATM    6  C   UNL     1     -11.668   9.673  70.408  1.00  0.00    -0.266 A  
HETATM    7  C   UNL     1     -11.092  10.091  69.196  1.00  0.00    -0.190 A  
HETATM    8  C   UNL     1     -10.662   7.485  70.258  1.00  0.00    -0.247 A  
HETATM    9  C   UNL     1     -10.268   9.155  68.550  1.00  0.00    -0.223 A  
HETATM   10  C   UNL     1     -10.049   7.873  69.073  1.00  0.00    -0.204 A  
ENDROOT
BRANCH   7  11
HETATM   11  N   UNL     1     -11.292  11.392  68.729  1.00  0.00    -0.243 NA 
HETATM   12  C   UNL     1     -11.166  13.067  66.892  1.00  0.00    -0.295 C  
HETATM   13  C   UNL     1     -10.513  11.825  67.544  1.00  0.00    -0.202 C  
HETATM   14  N   UNL     1     -11.379  14.218  67.802  1.00  0.00    -0.291 NA 
HETATM   15  C   UNL     1     -12.156  13.716  68.963  1.00  0.00    -0.309 C  
HETATM   16  C   UNL     1     -11.551  12.485  69.688  1.00  0.00    -0.253 C  
BRANCH  14  17
HETATM   17  C   UNL     1     -10.113  14.834  68.249  1.00  0.00    -0.221 C  
BRANCH  17  18
HETATM   18  C   UNL     1      -9.230  15.351  67.099  1.00  0.00    -0.213 C  
BRANCH  18  19
HETATM   19  N   UNL     1      -9.794  16.521  66.476  1.00  0.00    -0.263 N  
HETATM   20  C   UNL     1     -10.602  16.509  65.322  1.00  0.00    -0.253 C  
HETATM   21  O   UNL     1     -10.960  15.540  64.674  1.00  0.00    -0.409 OA 
HETATM   22  N   UNL     1     -10.913  17.849  65.042  1.00  0.00    -0.649 NA 
HETATM   23  C   UNL     1     -10.294  18.662  65.986  1.00  0.00    -0.399 A  
HETATM   24  C   UNL     1     -10.314  20.031  66.101  1.00  0.00    -0.570 A  
HETATM   25  C   UNL     1      -9.579  20.584  67.156  1.00  0.00    -0.570 A  
HETATM   26  C   UNL     1      -8.852  19.765  68.047  1.00  0.00    -0.360 A  
HETATM   27  C   UNL     1      -8.850  18.373  67.909  1.00  0.00    -0.293 A  
HETATM   28  C   UNL     1      -9.586  17.847  66.870  1.00  0.00    -0.300 A  
ENDBRANCH  18  19
ENDBRANCH  17  18
ENDBRANCH  14  17
ENDBRANCH   7  11
TORSDOF 4
ENDMDL
MODEL       21
REMARK 921   NORMALIZED FREE ENERGY PREDICTED BY IDOCK:   -7.32 KCAL/MOL
REMARK 922        TOTAL FREE ENERGY PREDICTED BY IDOCK:   -9.65 KCAL/MOL
REMARK 923 INTER-LIGAND FREE ENERGY PREDICTED BY IDOCK:   -8.73 KCAL/MOL
REMARK 924 INTRA-LIGAND FREE ENERGY PREDICTED BY IDOCK:   -0.92 KCAL/MOL
REMARK 927      BINDING AFFINITY PREDICTED BY RF-SCORE:    0.00 PKD
ROOT
HETATM    1  F   UNL     1      -9.957   7.722  69.712  1.00  0.00    -0.180 F  
HETATM    2  C   UNL     1     -10.964   7.481  70.598  1.00  0.00    -0.249 C  
HETATM    3  C   UNL     1     -11.749   8.711  70.974  1.00  0.00    -0.319 A  
HETATM    4  F   UNL     1     -11.737   6.517  70.028  1.00  0.00    -0.421 F  
HETATM    5  F   UNL     1     -10.371   6.895  71.676  1.00  0.00    -0.200 F  
HETATM    6  C   UNL     1     -11.405   9.963  70.435  1.00  0.00    -0.376 A  
HETATM    7  C   UNL     1     -12.064  11.153  70.782  1.00  0.00    -0.357 A  
HETATM    8  C   UNL     1     -12.824   8.631  71.861  1.00  0.00    -0.411 A  
HETATM    9  C   UNL     1     -13.140  11.024  71.674  1.00  0.00    -0.543 A  
HETATM   10  C   UNL     1     -13.522   9.783  72.203  1.00  0.00    -0.491 A  
ENDROOT
BRANCH   7  11
HETATM   11  N   UNL     1     -11.690  12.367  70.200  1.00  0.00    -0.247 NA 
HETATM   12  C   UNL     1     -12.096  14.792  69.817  1.00  0.00    -0.319 C  
HETATM   13  C   UNL     1     -12.739  13.401  70.027  1.00  0.00     0.106 C  
HETATM   14  N   UNL     1     -11.121  14.875  68.704  1.00  0.00    -0.251 NA 
HETATM   15  C   UNL     1     -10.107  13.815  68.935  1.00  0.00    -0.066 C  
HETATM   16  C   UNL     1     -10.672  12.383  69.129  1.00  0.00    -0.034 C  
BRANCH  14  17
HETATM   17  C   UNL     1     -11.752  14.713  67.379  1.00  0.00    -0.390 C  
BRANCH  17  18
HETATM   18  C   UNL     1     -10.789  14.927  66.198  1.00  0.00    -0.327 C  
BRANCH  18  19
HETATM   19  N   UNL     1     -11.016  13.975  65.142  1.00  0.00    -0.334 N  
HETATM   20  C   UNL     1     -11.954  14.134  64.101  1.00  0.00    -0.393 C  
HETATM   21  O   UNL     1     -12.705  15.076  63.914  1.00  0.00    -0.775 OA 
HETATM   22  N   UNL     1     -11.869  12.977  63.311  1.00  0.00    -0.490 NA 
HETATM   23  C   UNL     1     -10.922  12.120  63.865  1.00  0.00    -0.402 A  
HETATM   24  C   UNL     1     -10.516  10.880  63.437  1.00  0.00    -0.220 A  
HETATM   25  C   UNL     1      -9.543  10.236  64.210  1.00  0.00    -0.375 A  
HETATM   26  C   UNL     1      -9.018  10.839  65.373  1.00  0.00    -0.211 A  
HETATM   27  C   UNL     1      -9.448  12.104  65.787  1.00  0.00    -0.156 A  
HETATM   28  C   UNL     1     -10.399  12.726  65.009  1.00  0.00    -0.303 A  
ENDBRANCH  18  19
ENDBRANCH  17  18
ENDBRANCH  14  17
ENDBRANCH   7  11
TORSDOF 4
ENDMDL
MODEL       22
REMARK 921   NORMALIZED FREE ENERGY PREDICTED BY IDOCK:   -7.32 KCAL/MOL
REMARK 922        TOTAL FREE ENERGY PREDICTED BY IDOCK:   -9.65 KCAL/MOL
REMARK 923 INTER-LIGAND FREE ENERGY PREDICTED BY IDOCK:   -9.05 KCAL/MOL
REMARK 924 INTRA-LIGAND FREE ENERGY PREDICTED BY IDOCK:   -0.60 KCAL/MOL
REMARK 927      BINDING AFFINITY PREDICTED BY RF-SCORE:    0.00 PKD
ROOT
HETATM    1  F   UNL     1      -6.305  18.308  69.475  1.00  0.00    -0.243 F  
HETATM    2  C   UNL     1      -6.719  19.404  68.779  1.00  0.00    -0.303 C  
HETATM    3  C   UNL     1      -8.107  19.271  68.208  1.00  0.00    -0.367 A  
HETATM    4  F   UNL     1      -6.601  20.454  69.636  1.00  0.00    -0.336 F  
HETATM    5  F   UNL     1      -5.778  19.602  67.813  1.00  0.00    -0.188 F  
HETATM    6  C   UNL     1      -8.841  18.087  68.399  1.00  0.00    -0.300 A  
HETATM    7  C   UNL     1     -10.118  17.882  67.851  1.00  0.00    -0.349 A  
HETATM    8  C   UNL     1      -8.685  20.312  67.480  1.00  0.00    -0.401 A  
HETATM    9  C   UNL     1     -10.660  18.957  67.130  1.00  0.00    -0.531 A  
HETATM   10  C   UNL     1      -9.960  20.158  66.950  1.00  0.00    -0.600 A  
ENDROOT
BRANCH   7  11
HETATM   11  N   UNL     1     -10.808  16.691  68.091  1.00  0.00    -0.349 NA 
HETATM   12  C   UNL     1     -11.912  15.119  69.674  1.00  0.00    -0.329 C  
HETATM   13  C   UNL     1     -10.763  16.134  69.465  1.00  0.00    -0.313 C  
HETATM   14  N   UNL     1     -11.967  14.016  68.686  1.00  0.00    -0.362 NA 
HETATM   15  C   UNL     1     -12.005  14.640  67.339  1.00  0.00    -0.279 C  
HETATM   16  C   UNL     1     -10.868  15.653  67.042  1.00  0.00    -0.294 C  
BRANCH  14  17
HETATM   17  C   UNL     1     -10.821  13.090  68.799  1.00  0.00    -0.244 C  
BRANCH  17  18
HETATM   18  C   UNL     1     -11.136  11.650  68.355  1.00  0.00    -0.234 C  
BRANCH  18  19
HETATM   19  N   UNL     1     -10.809  10.691  69.378  1.00  0.00    -0.230 N  
HETATM   20  C   UNL     1      -9.581  10.006  69.478  1.00  0.00    -0.230 C  
HETATM   21  O   UNL     1      -8.611  10.106  68.747  1.00  0.00    -0.119 OA 
HETATM   22  N   UNL     1      -9.690   9.158  70.592  1.00  0.00    -0.235 NA 
HETATM   23  C   UNL     1     -10.959   9.303  71.146  1.00  0.00    -0.339 A  
HETATM   24  C   UNL     1     -11.509   8.671  72.236  1.00  0.00    -0.423 A  
HETATM   25  C   UNL     1     -12.827   9.010  72.559  1.00  0.00    -0.408 A  
HETATM   26  C   UNL     1     -13.548   9.951  71.792  1.00  0.00    -0.363 A  
HETATM   27  C   UNL     1     -12.965  10.581  70.688  1.00  0.00    -0.362 A  
HETATM   28  C   UNL     1     -11.664  10.241  70.390  1.00  0.00    -0.319 A  
ENDBRANCH  18  19
ENDBRANCH  17  18
ENDBRANCH  14  17
ENDBRANCH   7  11
TORSDOF 4
ENDMDL
MODEL       23
REMARK 921   NORMALIZED FREE ENERGY PREDICTED BY IDOCK:   -7.32 KCAL/MOL
REMARK 922        TOTAL FREE ENERGY PREDICTED BY IDOCK:   -9.65 KCAL/MOL
REMARK 923 INTER-LIGAND FREE ENERGY PREDICTED BY IDOCK:   -9.05 KCAL/MOL
REMARK 924 INTRA-LIGAND FREE ENERGY PREDICTED BY IDOCK:   -0.60 KCAL/MOL
REMARK 927      BINDING AFFINITY PREDICTED BY RF-SCORE:    0.00 PKD
ROOT
HETATM    1  F   UNL     1     -11.907   8.855  70.359  1.00  0.00    -0.245 F  
HETATM    2  C   UNL     1     -12.514   9.592  71.332  1.00  0.00    -0.373 C  
HETATM    3  C   UNL     1     -12.540  11.071  71.046  1.00  0.00    -0.512 A  
HETATM    4  F   UNL     1     -13.759   9.063  71.476  1.00  0.00    -0.376 F  
HETATM    5  F   UNL     1     -11.848   9.299  72.484  1.00  0.00    -0.330 F  
HETATM    6  C   UNL     1     -11.953  11.575  69.872  1.00  0.00    -0.426 A  
HETATM    7  C   UNL     1     -11.900  12.946  69.570  1.00  0.00    -0.320 A  
HETATM    8  C   UNL     1     -13.139  11.963  71.937  1.00  0.00    -0.474 A  
HETATM    9  C   UNL     1     -12.518  13.805  70.493  1.00  0.00    -0.409 A  
HETATM   10  C   UNL     1     -13.135  13.324  71.656  1.00  0.00    -0.453 A  
ENDROOT
BRANCH   7  11
HETATM   11  N   UNL     1     -11.320  13.387  68.378  1.00  0.00    -0.273 NA 
HETATM   12  C   UNL     1      -9.295  13.852  67.007  1.00  0.00    -0.251 C  
HETATM   13  C   UNL     1      -9.911  13.846  68.426  1.00  0.00    -0.233 C  
HETATM   14  N   UNL     1     -10.045  14.636  65.997  1.00  0.00    -0.295 NA 
HETATM   15  C   UNL     1     -11.442  14.131  66.005  1.00  0.00    -0.342 C  
HETATM   16  C   UNL     1     -12.139  14.119  67.391  1.00  0.00    -0.344 C  
BRANCH  14  17
HETATM   17  C   UNL     1     -10.015  16.088  66.265  1.00  0.00    -0.310 C  
BRANCH  17  18
HETATM   18  C   UNL     1      -8.652  16.747  65.981  1.00  0.00    -0.178 C  
BRANCH  18  19
HETATM   19  N   UNL     1      -8.452  17.928  66.779  1.00  0.00    -0.241 N  
HETATM   20  C   UNL     1      -9.110  19.158  66.578  1.00  0.00    -0.341 C  
HETATM   21  O   UNL     1      -9.941  19.427  65.728  1.00  0.00    -0.429 OA 
HETATM   22  N   UNL     1      -8.610  20.039  67.551  1.00  0.00    -0.332 NA 
HETATM   23  C   UNL     1      -7.654  19.373  68.313  1.00  0.00    -0.310 A  
HETATM   24  C   UNL     1      -6.902  19.839  69.364  1.00  0.00    -0.364 A  
HETATM   25  C   UNL     1      -5.999  18.938  69.939  1.00  0.00    -0.266 A  
HETATM   26  C   UNL     1      -5.872  17.620  69.449  1.00  0.00    -0.227 A  
HETATM   27  C   UNL     1      -6.650  17.170  68.378  1.00  0.00    -0.164 A  
HETATM   28  C   UNL     1      -7.540  18.068  67.831  1.00  0.00    -0.231 A  
ENDBRANCH  18  19
ENDBRANCH  17  18
ENDBRANCH  14  17
ENDBRANCH   7  11
TORSDOF 4
ENDMDL
MODEL       24
REMARK 921   NORMALIZED FREE ENERGY PREDICTED BY IDOCK:   -7.31 KCAL/MOL
REMARK 922        TOTAL FREE ENERGY PREDICTED BY IDOCK:   -9.64 KCAL/MOL
REMARK 923 INTER-LIGAND FREE ENERGY PREDICTED BY IDOCK:   -8.94 KCAL/MOL
REMARK 924 INTRA-LIGAND FREE ENERGY PREDICTED BY IDOCK:   -0.70 KCAL/MOL
REMARK 927      BINDING AFFINITY PREDICTED BY RF-SCORE:    0.00 PKD
ROOT
HETATM    1  F   UNL     1     -12.285  13.796  67.280  1.00  0.00    -0.406 F  
HETATM    2  C   UNL     1     -12.237  13.834  65.918  1.00  0.00    -0.466 C  
HETATM    3  C   UNL     1     -11.471  12.691  65.306  1.00  0.00    -0.368 A  
HETATM    4  F   UNL     1     -13.532  13.883  65.503  1.00  0.00    -0.421 F  
HETATM    5  F   UNL     1     -11.699  15.046  65.604  1.00  0.00    -0.340 F  
HETATM    6  C   UNL     1     -10.871  11.721  66.127  1.00  0.00    -0.336 A  
HETATM    7  C   UNL     1     -10.102  10.659  65.621  1.00  0.00    -0.272 A  
HETATM    8  C   UNL     1     -11.342  12.576  63.921  1.00  0.00    -0.504 A  
HETATM    9  C   UNL     1     -10.003  10.582  64.223  1.00  0.00    -0.398 A  
HETATM   10  C   UNL     1     -10.617  11.520  63.382  1.00  0.00    -0.460 A  
ENDROOT
BRANCH   7  11
HETATM   11  N   UNL     1      -9.545   9.714  66.485  1.00  0.00    -0.182 NA 
HETATM   12  C   UNL     1      -9.517   7.415  67.439  1.00  0.00    -0.141 C  
HETATM   13  C   UNL     1     -10.392   8.566  66.889  1.00  0.00    -0.297 C  
HETATM   14  N   UNL     1      -8.611   7.787  68.551  1.00  0.00    -0.128 NA 
HETATM   15  C   UNL     1      -7.799   8.939  68.084  1.00  0.00    -0.101 C  
HETATM   16  C   UNL     1      -8.607  10.147  67.541  1.00  0.00    -0.118 C  
BRANCH  14  17
HETATM   17  C   UNL     1      -9.340   8.131  69.789  1.00  0.00    -0.159 C  
BRANCH  17  18
HETATM   18  C   UNL     1     -10.799   7.642  69.810  1.00  0.00    -0.217 C  
BRANCH  18  19
HETATM   19  N   UNL     1     -11.610   8.414  70.717  1.00  0.00    -0.265 N  
HETATM   20  C   UNL     1     -12.329   7.883  71.806  1.00  0.00    -0.320 C  
HETATM   21  O   UNL     1     -12.385   6.719  72.165  1.00  0.00    -0.283 OA 
HETATM   22  N   UNL     1     -12.995   8.964  72.406  1.00  0.00    -0.419 NA 
HETATM   23  C   UNL     1     -12.710  10.123  71.690  1.00  0.00    -0.447 A  
HETATM   24  C   UNL     1     -13.144  11.408  71.906  1.00  0.00    -0.505 A  
HETATM   25  C   UNL     1     -12.700  12.382  71.005  1.00  0.00    -0.315 A  
HETATM   26  C   UNL     1     -11.851  12.046  69.928  1.00  0.00    -0.405 A  
HETATM   27  C   UNL     1     -11.421  10.730  69.730  1.00  0.00    -0.386 A  
HETATM   28  C   UNL     1     -11.862   9.787  70.632  1.00  0.00    -0.281 A  
ENDBRANCH  18  19
ENDBRANCH  17  18
ENDBRANCH  14  17
ENDBRANCH   7  11
TORSDOF 4
ENDMDL
MODEL       25
REMARK 921   NORMALIZED FREE ENERGY PREDICTED BY IDOCK:   -7.30 KCAL/MOL
REMARK 922        TOTAL FREE ENERGY PREDICTED BY IDOCK:   -9.63 KCAL/MOL
REMARK 923 INTER-LIGAND FREE ENERGY PREDICTED BY IDOCK:   -8.92 KCAL/MOL
REMARK 924 INTRA-LIGAND FREE ENERGY PREDICTED BY IDOCK:   -0.71 KCAL/MOL
REMARK 927      BINDING AFFINITY PREDICTED BY RF-SCORE:    0.00 PKD
ROOT
HETATM    1  F   UNL     1     -11.790  17.091  72.583  1.00  0.00    -0.509 F  
HETATM    2  C   UNL     1     -12.265  15.814  72.551  1.00  0.00    -0.472 C  
HETATM    3  C   UNL     1     -12.040  15.115  71.236  1.00  0.00    -0.399 A  
HETATM    4  F   UNL     1     -11.674  15.173  73.596  1.00  0.00    -0.512 F  
HETATM    5  F   UNL     1     -13.587  15.907  72.870  1.00  0.00    -0.546 F  
HETATM    6  C   UNL     1     -11.409  15.788  70.176  1.00  0.00    -0.361 A  
HETATM    7  C   UNL     1     -11.214  15.210  68.910  1.00  0.00    -0.283 A  
HETATM    8  C   UNL     1     -12.456  13.796  71.046  1.00  0.00    -0.458 A  
HETATM    9  C   UNL     1     -11.645  13.881  68.766  1.00  0.00    -0.370 A  
HETATM   10  C   UNL     1     -12.250  13.179  69.818  1.00  0.00    -0.266 A  
ENDROOT
BRANCH   7  11
HETATM   11  N   UNL     1     -10.563  15.921  67.899  1.00  0.00    -0.291 NA 
HETATM   12  C   UNL     1      -8.808  16.048  66.139  1.00  0.00    -0.331 C  
HETATM   13  C   UNL     1      -9.191  15.494  67.531  1.00  0.00    -0.198 C  
HETATM   14  N   UNL     1      -8.935  17.518  65.987  1.00  0.00    -0.523 NA 
HETATM   15  C   UNL     1     -10.323  17.875  66.375  1.00  0.00    -0.365 C  
HETATM   16  C   UNL     1     -10.775  17.377  67.773  1.00  0.00    -0.332 C  
BRANCH  14  17
HETATM   17  C   UNL     1      -7.957  18.262  66.806  1.00  0.00    -0.244 C  
BRANCH  17  18
HETATM   18  C   UNL     1      -6.545  17.650  66.801  1.00  0.00    -0.191 C  
BRANCH  18  19
HETATM   19  N   UNL     1      -6.052  17.430  68.137  1.00  0.00    -0.156 N  
HETATM   20  C   UNL     1      -5.685  16.176  68.664  1.00  0.00    -0.105 C  
HETATM   21  O   UNL     1      -5.712  15.095  68.101  1.00  0.00    -0.114 OA 
HETATM   22  N   UNL     1      -5.287  16.405  69.990  1.00  0.00    -0.159 NA 
HETATM   23  C   UNL     1      -5.427  17.760  70.276  1.00  0.00    -0.251 A  
HETATM   24  C   UNL     1      -5.165  18.434  71.444  1.00  0.00    -0.213 A  
HETATM   25  C   UNL     1      -5.416  19.810  71.445  1.00  0.00    -0.366 A  
HETATM   26  C   UNL     1      -5.919  20.461  70.298  1.00  0.00    -0.343 A  
HETATM   27  C   UNL     1      -6.176  19.752  69.120  1.00  0.00    -0.339 A  
HETATM   28  C   UNL     1      -5.915  18.400  69.135  1.00  0.00    -0.228 A  
ENDBRANCH  18  19
ENDBRANCH  17  18
ENDBRANCH  14  17
ENDBRANCH   7  11
TORSDOF 4
ENDMDL
MODEL       26
REMARK 921   NORMALIZED FREE ENERGY PREDICTED BY IDOCK:   -7.29 KCAL/MOL
REMARK 922        TOTAL FREE ENERGY PREDICTED BY IDOCK:   -9.61 KCAL/MOL
REMARK 923 INTER-LIGAND FREE ENERGY PREDICTED BY IDOCK:   -9.16 KCAL/MOL
REMARK 924 INTRA-LIGAND FREE ENERGY PREDICTED BY IDOCK:   -0.45 KCAL/MOL
REMARK 927      BINDING AFFINITY PREDICTED BY RF-SCORE:    0.00 PKD
ROOT
HETATM    1  F   UNL     1     -11.408  19.643  66.960  1.00  0.00    -0.510 F  
HETATM    2  C   UNL     1     -10.067  19.669  66.719  1.00  0.00    -0.424 C  
HETATM    3  C   UNL     1      -9.431  18.304  66.676  1.00  0.00    -0.308 A  
HETATM    4  F   UNL     1      -9.913  20.357  65.555  1.00  0.00    -0.491 F  
HETATM    5  F   UNL     1      -9.533  20.458  67.693  1.00  0.00    -0.456 F  
HETATM    6  C   UNL     1     -10.210  17.154  66.895  1.00  0.00    -0.315 A  
HETATM    7  C   UNL     1      -9.670  15.857  66.917  1.00  0.00    -0.230 A  
HETATM    8  C   UNL     1      -8.067  18.156  66.424  1.00  0.00    -0.291 A  
HETATM    9  C   UNL     1      -8.294  15.757  66.656  1.00  0.00    -0.319 A  
HETATM   10  C   UNL     1      -7.502  16.886  66.405  1.00  0.00    -0.323 A  
ENDROOT
BRANCH   7  11
HETATM   11  N   UNL     1     -10.497  14.749  67.121  1.00  0.00    -0.263 NA 
HETATM   12  C   UNL     1     -11.920  13.368  68.625  1.00  0.00    -0.327 C  
HETATM   13  C   UNL     1     -10.660  14.259  68.511  1.00  0.00    -0.257 C  
HETATM   14  N   UNL     1     -11.973  12.227  67.680  1.00  0.00    -0.512 NA 
HETATM   15  C   UNL     1     -11.798  12.785  66.315  1.00  0.00    -0.423 C  
HETATM   16  C   UNL     1     -10.541  13.671  66.113  1.00  0.00    -0.291 C  
BRANCH  14  17
HETATM   17  C   UNL     1     -10.944  11.205  67.961  1.00  0.00    -0.252 C  
BRANCH  17  18
HETATM   18  C   UNL     1     -10.546  11.113  69.445  1.00  0.00    -0.134 C  
BRANCH  18  19
HETATM   19  N   UNL     1     -11.301  10.104  70.141  1.00  0.00    -0.282 N  
HETATM   20  C   UNL     1     -12.367  10.362  71.026  1.00  0.00    -0.387 C  
HETATM   21  O   UNL     1     -12.826  11.447  71.342  1.00  0.00    -0.413 OA 
HETATM   22  N   UNL     1     -12.802   9.114  71.497  1.00  0.00    -0.334 NA 
HETATM   23  C   UNL     1     -12.010   8.118  70.934  1.00  0.00    -0.183 A  
HETATM   24  C   UNL     1     -12.067   6.756  71.112  1.00  0.00    -0.422 A  
HETATM   25  C   UNL     1     -11.123   5.992  70.417  1.00  0.00    -0.399 A  
HETATM   26  C   UNL     1     -10.161   6.602  69.584  1.00  0.00    -0.213 A  
HETATM   27  C   UNL     1     -10.125   7.990  69.418  1.00  0.00    -0.197 A  
HETATM   28  C   UNL     1     -11.067   8.725  70.103  1.00  0.00    -0.202 A  
ENDBRANCH  18  19
ENDBRANCH  17  18
ENDBRANCH  14  17
ENDBRANCH   7  11
TORSDOF 4
ENDMDL
MODEL       27
REMARK 921   NORMALIZED FREE ENERGY PREDICTED BY IDOCK:   -7.19 KCAL/MOL
REMARK 922        TOTAL FREE ENERGY PREDICTED BY IDOCK:   -9.49 KCAL/MOL
REMARK 923 INTER-LIGAND FREE ENERGY PREDICTED BY IDOCK:   -8.79 KCAL/MOL
REMARK 924 INTRA-LIGAND FREE ENERGY PREDICTED BY IDOCK:   -0.70 KCAL/MOL
REMARK 927      BINDING AFFINITY PREDICTED BY RF-SCORE:    0.00 PKD
ROOT
HETATM    1  F   UNL     1     -11.757   8.339  72.465  1.00  0.00    -0.385 F  
HETATM    2  C   UNL     1     -11.667   7.091  71.925  1.00  0.00    -0.296 C  
HETATM    3  C   UNL     1     -11.194   7.080  70.495  1.00  0.00    -0.335 A  
HETATM    4  F   UNL     1     -10.849   6.387  72.755  1.00  0.00    -0.221 F  
HETATM    5  F   UNL     1     -12.906   6.540  72.065  1.00  0.00    -0.377 F  
HETATM    6  C   UNL     1     -10.909   8.288  69.835  1.00  0.00    -0.213 A  
HETATM    7  C   UNL     1     -10.513   8.350  68.488  1.00  0.00    -0.164 A  
HETATM    8  C   UNL     1     -11.034   5.879  69.802  1.00  0.00    -0.452 A  
HETATM    9  C   UNL     1     -10.362   7.117  67.833  1.00  0.00    -0.248 A  
HETATM   10  C   UNL     1     -10.611   5.898  68.478  1.00  0.00    -0.317 A  
ENDROOT
BRANCH   7  11
HETATM   11  N   UNL     1     -10.225   9.579  67.890  1.00  0.00    -0.192 NA 
HETATM   12  C   UNL     1     -10.121  12.063  68.009  1.00  0.00    -0.198 C  
HETATM   13  C   UNL     1     -10.874  10.788  68.454  1.00  0.00    -0.232 C  
HETATM   14  N   UNL     1      -9.955  12.219  66.544  1.00  0.00    -0.215 NA 
HETATM   15  C   UNL     1      -9.308  10.979  66.046  1.00  0.00    -0.201 C  
HETATM   16  C   UNL     1     -10.020   9.655  66.430  1.00  0.00    -0.255 C  
BRANCH  14  17
HETATM   17  C   UNL     1     -11.236  12.455  65.847  1.00  0.00    -0.336 C  
BRANCH  17  18
HETATM   18  C   UNL     1     -12.065  13.610  66.439  1.00  0.00    -0.433 C  
BRANCH  18  19
HETATM   19  N   UNL     1     -11.606  14.892  65.972  1.00  0.00    -0.283 N  
HETATM   20  C   UNL     1     -11.761  15.374  64.657  1.00  0.00    -0.267 C  
HETATM   21  O   UNL     1     -12.298  14.813  63.717  1.00  0.00    -0.697 OA 
HETATM   22  N   UNL     1     -11.156  16.641  64.625  1.00  0.00    -0.853 NA 
HETATM   23  C   UNL     1     -10.625  16.919  65.881  1.00  0.00    -0.233 A  
HETATM   24  C   UNL     1      -9.942  18.031  66.310  1.00  0.00    -0.338 A  
HETATM   25  C   UNL     1      -9.510  18.029  67.641  1.00  0.00    -0.264 A  
HETATM   26  C   UNL     1      -9.763  16.929  68.488  1.00  0.00    -0.264 A  
HETATM   27  C   UNL     1     -10.462  15.808  68.028  1.00  0.00    -0.270 A  
HETATM   28  C   UNL     1     -10.887  15.832  66.718  1.00  0.00    -0.254 A  
ENDBRANCH  18  19
ENDBRANCH  17  18
ENDBRANCH  14  17
ENDBRANCH   7  11
TORSDOF 4
ENDMDL
MODEL       28
REMARK 921   NORMALIZED FREE ENERGY PREDICTED BY IDOCK:   -7.18 KCAL/MOL
REMARK 922        TOTAL FREE ENERGY PREDICTED BY IDOCK:   -9.48 KCAL/MOL
REMARK 923 INTER-LIGAND FREE ENERGY PREDICTED BY IDOCK:   -8.65 KCAL/MOL
REMARK 924 INTRA-LIGAND FREE ENERGY PREDICTED BY IDOCK:   -0.83 KCAL/MOL
REMARK 927      BINDING AFFINITY PREDICTED BY RF-SCORE:    0.00 PKD
ROOT
HETATM    1  F   UNL     1     -11.927   8.664  72.496  1.00  0.00    -0.425 F  
HETATM    2  C   UNL     1     -11.998   7.442  71.896  1.00  0.00    -0.302 C  
HETATM    3  C   UNL     1     -11.365   7.400  70.529  1.00  0.00    -0.295 A  
HETATM    4  F   UNL     1     -11.427   6.567  72.768  1.00  0.00    -0.275 F  
HETATM    5  F   UNL     1     -13.323   7.126  71.863  1.00  0.00    -0.359 F  
HETATM    6  C   UNL     1     -10.791   8.559  69.979  1.00  0.00    -0.225 A  
HETATM    7  C   UNL     1     -10.230   8.597  68.691  1.00  0.00    -0.194 A  
HETATM    8  C   UNL     1     -11.341   6.217  69.788  1.00  0.00    -0.506 A  
HETATM    9  C   UNL     1     -10.225   7.385  67.984  1.00  0.00    -0.234 A  
HETATM   10  C   UNL     1     -10.765   6.209  68.523  1.00  0.00    -0.365 A  
ENDROOT
BRANCH   7  11
HETATM   11  N   UNL     1      -9.657   9.775  68.204  1.00  0.00    -0.142 NA 
HETATM   12  C   UNL     1      -7.800  11.432  68.209  1.00  0.00    -0.132 C  
HETATM   13  C   UNL     1      -8.648  10.452  69.054  1.00  0.00    -0.157 C  
HETATM   14  N   UNL     1      -8.573  12.440  67.446  1.00  0.00    -0.172 NA 
HETATM   15  C   UNL     1      -9.563  11.698  66.625  1.00  0.00    -0.204 C  
HETATM   16  C   UNL     1     -10.472  10.712  67.405  1.00  0.00    -0.235 C  
BRANCH  14  17
HETATM   17  C   UNL     1      -9.251  13.420  68.320  1.00  0.00    -0.198 C  
BRANCH  17  18
HETATM   18  C   UNL     1     -10.696  13.738  67.897  1.00  0.00    -0.247 C  
BRANCH  18  19
HETATM   19  N   UNL     1     -11.490  14.199  69.007  1.00  0.00    -0.265 N  
HETATM   20  C   UNL     1     -11.754  15.552  69.302  1.00  0.00    -0.365 C  
HETATM   21  O   UNL     1     -11.377  16.535  68.688  1.00  0.00    -0.344 OA 
HETATM   22  N   UNL     1     -12.537  15.557  70.467  1.00  0.00    -0.435 NA 
HETATM   23  C   UNL     1     -12.729  14.245  70.888  1.00  0.00    -0.357 A  
HETATM   24  C   UNL     1     -13.421  13.773  71.977  1.00  0.00    -0.559 A  
HETATM   25  C   UNL     1     -13.434  12.386  72.161  1.00  0.00    -0.481 A  
HETATM   26  C   UNL     1     -12.761  11.525  71.267  1.00  0.00    -0.469 A  
HETATM   27  C   UNL     1     -12.065  12.030  70.164  1.00  0.00    -0.377 A  
HETATM   28  C   UNL     1     -12.070  13.397  69.995  1.00  0.00    -0.334 A  
ENDBRANCH  18  19
ENDBRANCH  17  18
ENDBRANCH  14  17
ENDBRANCH   7  11
TORSDOF 4
ENDMDL
MODEL       29
REMARK 921   NORMALIZED FREE ENERGY PREDICTED BY IDOCK:   -7.18 KCAL/MOL
REMARK 922        TOTAL FREE ENERGY PREDICTED BY IDOCK:   -9.48 KCAL/MOL
REMARK 923 INTER-LIGAND FREE ENERGY PREDICTED BY IDOCK:   -8.85 KCAL/MOL
REMARK 924 INTRA-LIGAND FREE ENERGY PREDICTED BY IDOCK:   -0.63 KCAL/MOL
REMARK 927      BINDING AFFINITY PREDICTED BY RF-SCORE:    0.00 PKD
ROOT
HETATM    1  F   UNL     1     -12.390  16.557  72.479  1.00  0.00    -0.494 F  
HETATM    2  C   UNL     1     -12.882  15.317  72.759  1.00  0.00    -0.413 C  
HETATM    3  C   UNL     1     -12.533  14.278  71.726  1.00  0.00    -0.396 A  
HETATM    4  F   UNL     1     -12.414  15.005  73.999  1.00  0.00    -0.591 F  
HETATM    5  F   UNL     1     -14.228  15.479  72.897  1.00  0.00    -0.549 F  
HETATM    6  C   UNL     1     -11.782  14.631  70.592  1.00  0.00    -0.339 A  
HETATM    7  C   UNL     1     -11.466  13.722  69.569  1.00  0.00    -0.267 A  
HETATM    8  C   UNL     1     -12.949  12.954  71.873  1.00  0.00    -0.405 A  
HETATM    9  C   UNL     1     -11.902  12.401  69.761  1.00  0.00    -0.387 A  
HETATM   10  C   UNL     1     -12.627  12.017  70.898  1.00  0.00    -0.347 A  
ENDROOT
BRANCH   7  11
HETATM   11  N   UNL     1     -10.700  14.127  68.473  1.00  0.00    -0.247 NA 
HETATM   12  C   UNL     1      -8.541  14.129  67.233  1.00  0.00    -0.218 C  
HETATM   13  C   UNL     1      -9.224  14.112  68.621  1.00  0.00    -0.146 C  
HETATM   14  N   UNL     1      -8.946  15.245  66.345  1.00  0.00    -0.304 NA 
HETATM   15  C   UNL     1     -10.427  15.204  66.245  1.00  0.00    -0.307 C  
HETATM   16  C   UNL     1     -11.188  15.211  67.597  1.00  0.00    -0.327 C  
BRANCH  14  17
HETATM   17  C   UNL     1      -8.493  16.561  66.839  1.00  0.00    -0.212 C  
BRANCH  17  18
HETATM   18  C   UNL     1      -6.977  16.789  66.705  1.00  0.00    -0.232 C  
BRANCH  18  19
HETATM   19  N   UNL     1      -6.629  18.180  66.848  1.00  0.00    -0.176 N  
HETATM   20  C   UNL     1      -6.496  19.091  65.782  1.00  0.00    -0.245 C  
HETATM   21  O   UNL     1      -6.652  18.873  64.592  1.00  0.00    -0.465 OA 
HETATM   22  N   UNL     1      -6.128  20.319  66.354  1.00  0.00    -0.175 NA 
HETATM   23  C   UNL     1      -6.017  20.159  67.732  1.00  0.00    -0.210 A  
HETATM   24  C   UNL     1      -5.676  21.084  68.690  1.00  0.00    -0.360 A  
HETATM   25  C   UNL     1      -5.631  20.630  70.013  1.00  0.00    -0.367 A  
HETATM   26  C   UNL     1      -5.919  19.286  70.333  1.00  0.00    -0.195 A  
HETATM   27  C   UNL     1      -6.265  18.364  69.340  1.00  0.00    -0.266 A  
HETATM   28  C   UNL     1      -6.312  18.831  68.044  1.00  0.00    -0.209 A  
ENDBRANCH  18  19
ENDBRANCH  17  18
ENDBRANCH  14  17
ENDBRANCH   7  11
TORSDOF 4
ENDMDL
MODEL       30
REMARK 921   NORMALIZED FREE ENERGY PREDICTED BY IDOCK:   -7.17 KCAL/MOL
REMARK 922        TOTAL FREE ENERGY PREDICTED BY IDOCK:   -9.47 KCAL/MOL
REMARK 923 INTER-LIGAND FREE ENERGY PREDICTED BY IDOCK:   -8.84 KCAL/MOL
REMARK 924 INTRA-LIGAND FREE ENERGY PREDICTED BY IDOCK:   -0.64 KCAL/MOL
REMARK 927      BINDING AFFINITY PREDICTED BY RF-SCORE:    0.00 PKD
ROOT
HETATM    1  F   UNL     1     -12.447  10.740  71.680  1.00  0.00    -0.445 F  
HETATM    2  C   UNL     1     -11.873   9.597  71.208  1.00  0.00    -0.381 C  
HETATM    3  C   UNL     1     -11.285   9.737  69.828  1.00  0.00    -0.242 A  
HETATM    4  F   UNL     1     -10.949   9.235  72.140  1.00  0.00    -0.418 F  
HETATM    5  F   UNL     1     -12.850   8.648  71.262  1.00  0.00    -0.315 F  
HETATM    6  C   UNL     1     -11.375  10.960  69.142  1.00  0.00    -0.350 A  
HETATM    7  C   UNL     1     -10.892  11.142  67.835  1.00  0.00    -0.235 A  
HETATM    8  C   UNL     1     -10.648   8.661  69.209  1.00  0.00    -0.204 A  
HETATM    9  C   UNL     1     -10.256  10.034  67.253  1.00  0.00    -0.275 A  
HETATM   10  C   UNL     1     -10.128   8.812  67.929  1.00  0.00    -0.257 A  
ENDROOT
BRANCH   7  11
HETATM   11  N   UNL     1     -10.993  12.387  67.209  1.00  0.00    -0.249 NA 
HETATM   12  C   UNL     1     -10.326  13.945  65.386  1.00  0.00    -0.348 C  
HETATM   13  C   UNL     1      -9.872  12.811  66.336  1.00  0.00    -0.269 C  
HETATM   14  N   UNL     1     -10.919  15.128  66.054  1.00  0.00    -0.335 NA 
HETATM   15  C   UNL     1     -12.026  14.633  66.912  1.00  0.00    -0.272 C  
HETATM   16  C   UNL     1     -11.643  13.511  67.912  1.00  0.00    -0.342 C  
BRANCH  14  17
HETATM   17  C   UNL     1      -9.935  15.883  66.856  1.00  0.00    -0.249 C  
BRANCH  17  18
HETATM   18  C   UNL     1     -10.508  17.150  67.516  1.00  0.00    -0.348 C  
BRANCH  18  19
HETATM   19  N   UNL     1      -9.809  18.336  67.093  1.00  0.00    -0.311 N  
HETATM   20  C   UNL     1     -10.134  19.100  65.954  1.00  0.00    -0.267 C  
HETATM   21  O   UNL     1     -11.036  18.903  65.158  1.00  0.00    -0.491 OA 
HETATM   22  N   UNL     1      -9.198  20.145  65.897  1.00  0.00    -0.205 NA 
HETATM   23  C   UNL     1      -8.309  20.012  66.960  1.00  0.00    -0.323 A  
HETATM   24  C   UNL     1      -7.232  20.796  67.297  1.00  0.00    -0.415 A  
HETATM   25  C   UNL     1      -6.501  20.410  68.425  1.00  0.00    -0.340 A  
HETATM   26  C   UNL     1      -6.859  19.264  69.169  1.00  0.00    -0.371 A  
HETATM   27  C   UNL     1      -7.960  18.482  68.806  1.00  0.00    -0.294 A  
HETATM   28  C   UNL     1      -8.673  18.884  67.698  1.00  0.00    -0.288 A  
ENDBRANCH  18  19
ENDBRANCH  17  18
ENDBRANCH  14  17
ENDBRANCH   7  11
TORSDOF 4
ENDMDL
MODEL       31
REMARK 921   NORMALIZED FREE ENERGY PREDICTED BY IDOCK:   -7.13 KCAL/MOL
REMARK 922        TOTAL FREE ENERGY PREDICTED BY IDOCK:   -9.42 KCAL/MOL
REMARK 923 INTER-LIGAND FREE ENERGY PREDICTED BY IDOCK:   -9.16 KCAL/MOL
REMARK 924 INTRA-LIGAND FREE ENERGY PREDICTED BY IDOCK:   -0.26 KCAL/MOL
REMARK 927      BINDING AFFINITY PREDICTED BY RF-SCORE:    0.00 PKD
ROOT
HETATM    1  F   UNL     1     -11.524  19.438  67.177  1.00  0.00    -0.438 F  
HETATM    2  C   UNL     1     -10.206  19.768  67.066  1.00  0.00    -0.452 C  
HETATM    3  C   UNL     1      -9.305  18.590  66.805  1.00  0.00    -0.297 A  
HETATM    4  F   UNL     1     -10.141  20.708  66.083  1.00  0.00    -0.453 F  
HETATM    5  F   UNL     1      -9.891  20.416  68.223  1.00  0.00    -0.449 F  
HETATM    6  C   UNL     1      -9.842  17.294  66.717  1.00  0.00    -0.296 A  
HETATM    7  C   UNL     1      -9.051  16.148  66.526  1.00  0.00    -0.277 A  
HETATM    8  C   UNL     1      -7.928  18.761  66.651  1.00  0.00    -0.278 A  
HETATM    9  C   UNL     1      -7.673  16.369  66.373  1.00  0.00    -0.249 A  
HETATM   10  C   UNL     1      -7.117  17.655  66.427  1.00  0.00    -0.310 A  
ENDROOT
BRANCH   7  11
HETATM   11  N   UNL     1      -9.643  14.887  66.428  1.00  0.00    -0.276 NA 
HETATM   12  C   UNL     1     -11.523  13.440  65.674  1.00  0.00    -0.316 C  
HETATM   13  C   UNL     1     -11.110  14.830  66.212  1.00  0.00    -0.341 C  
HETATM   14  N   UNL     1     -11.091  12.289  66.502  1.00  0.00    -0.283 NA 
HETATM   15  C   UNL     1      -9.623  12.410  66.682  1.00  0.00    -0.229 C  
HETATM   16  C   UNL     1      -9.129  13.769  67.244  1.00  0.00    -0.232 C  
BRANCH  14  17
HETATM   17  C   UNL     1     -11.775  12.239  67.810  1.00  0.00    -0.337 C  
BRANCH  17  18
HETATM   18  C   UNL     1     -10.892  11.711  68.955  1.00  0.00    -0.203 C  
BRANCH  18  19
HETATM   19  N   UNL     1     -11.680  11.235  70.063  1.00  0.00    -0.323 N  
HETATM   20  C   UNL     1     -12.457  12.051  70.909  1.00  0.00    -0.288 C  
HETATM   21  O   UNL     1     -12.600  13.260  70.851  1.00  0.00    -0.345 OA 
HETATM   22  N   UNL     1     -13.037  11.197  71.860  1.00  0.00    -0.478 NA 
HETATM   23  C   UNL     1     -12.610   9.895  71.618  1.00  0.00    -0.424 A  
HETATM   24  C   UNL     1     -12.914   8.739  72.295  1.00  0.00    -0.462 A  
HETATM   25  C   UNL     1     -12.320   7.561  71.828  1.00  0.00    -0.357 A  
HETATM   26  C   UNL     1     -11.448   7.575  70.718  1.00  0.00    -0.305 A  
HETATM   27  C   UNL     1     -11.155   8.765  70.044  1.00  0.00    -0.169 A  
HETATM   28  C   UNL     1     -11.756   9.912  70.513  1.00  0.00    -0.295 A  
ENDBRANCH  18  19
ENDBRANCH  17  18
ENDBRANCH  14  17
ENDBRANCH   7  11
TORSDOF 4
ENDMDL
MODEL       32
REMARK 921   NORMALIZED FREE ENERGY PREDICTED BY IDOCK:   -7.13 KCAL/MOL
REMARK 922        TOTAL FREE ENERGY PREDICTED BY IDOCK:   -9.42 KCAL/MOL
REMARK 923 INTER-LIGAND FREE ENERGY PREDICTED BY IDOCK:   -8.86 KCAL/MOL
REMARK 924 INTRA-LIGAND FREE ENERGY PREDICTED BY IDOCK:   -0.55 KCAL/MOL
REMARK 927      BINDING AFFINITY PREDICTED BY RF-SCORE:    0.00 PKD
ROOT
HETATM    1  F   UNL     1     -14.312   8.966  71.042  1.00  0.00    -0.391 F  
HETATM    2  C   UNL     1     -13.401   8.487  71.936  1.00  0.00    -0.372 C  
HETATM    3  C   UNL     1     -11.970   8.750  71.543  1.00  0.00    -0.386 A  
HETATM    4  F   UNL     1     -13.728   9.045  73.133  1.00  0.00    -0.398 F  
HETATM    5  F   UNL     1     -13.669   7.157  72.057  1.00  0.00    -0.350 F  
HETATM    6  C   UNL     1     -11.678   9.415  70.340  1.00  0.00    -0.195 A  
HETATM    7  C   UNL     1     -10.366   9.646  69.892  1.00  0.00    -0.249 A  
HETATM    8  C   UNL     1     -10.916   8.337  72.359  1.00  0.00    -0.438 A  
HETATM    9  C   UNL     1      -9.339   9.217  70.747  1.00  0.00    -0.325 A  
HETATM   10  C   UNL     1      -9.605   8.577  71.966  1.00  0.00    -0.371 A  
ENDROOT
BRANCH   7  11
HETATM   11  N   UNL     1     -10.136  10.330  68.696  1.00  0.00    -0.166 NA 
HETATM   12  C   UNL     1      -8.555  11.252  67.008  1.00  0.00    -0.148 C  
HETATM   13  C   UNL     1      -8.805  10.957  68.506  1.00  0.00    -0.153 C  
HETATM   14  N   UNL     1      -9.597  12.072  66.345  1.00  0.00    -0.224 NA 
HETATM   15  C   UNL     1     -10.897  11.393  66.577  1.00  0.00    -0.283 C  
HETATM   16  C   UNL     1     -11.234  11.086  68.060  1.00  0.00    -0.309 C  
BRANCH  14  17
HETATM   17  C   UNL     1      -9.637  13.460  66.847  1.00  0.00    -0.257 C  
BRANCH  17  18
HETATM   18  C   UNL     1     -11.059  14.032  66.992  1.00  0.00    -0.304 C  
BRANCH  18  19
HETATM   19  N   UNL     1     -11.144  14.995  68.059  1.00  0.00    -0.287 N  
HETATM   20  C   UNL     1     -10.724  16.337  67.969  1.00  0.00    -0.331 C  
HETATM   21  O   UNL     1     -10.239  16.902  67.003  1.00  0.00    -0.286 OA 
HETATM   22  N   UNL     1     -10.960  16.911  69.228  1.00  0.00    -0.205 NA 
HETATM   23  C   UNL     1     -11.489  15.941  70.074  1.00  0.00    -0.354 A  
HETATM   24  C   UNL     1     -11.864  16.048  71.392  1.00  0.00    -0.531 A  
HETATM   25  C   UNL     1     -12.358  14.888  72.000  1.00  0.00    -0.419 A  
HETATM   26  C   UNL     1     -12.454  13.674  71.286  1.00  0.00    -0.412 A  
HETATM   27  C   UNL     1     -12.067  13.592  69.945  1.00  0.00    -0.406 A  
HETATM   28  C   UNL     1     -11.592  14.746  69.360  1.00  0.00    -0.310 A  
ENDBRANCH  18  19
ENDBRANCH  17  18
ENDBRANCH  14  17
ENDBRANCH   7  11
TORSDOF 4
ENDMDL
MODEL       33
REMARK 921   NORMALIZED FREE ENERGY PREDICTED BY IDOCK:   -7.09 KCAL/MOL
REMARK 922        TOTAL FREE ENERGY PREDICTED BY IDOCK:   -9.37 KCAL/MOL
REMARK 923 INTER-LIGAND FREE ENERGY PREDICTED BY IDOCK:   -8.70 KCAL/MOL
REMARK 924 INTRA-LIGAND FREE ENERGY PREDICTED BY IDOCK:   -0.67 KCAL/MOL
REMARK 927      BINDING AFFINITY PREDICTED BY RF-SCORE:    0.00 PKD
ROOT
HETATM    1  F   UNL     1      -9.863   6.367  72.284  1.00  0.00    -0.160 F  
HETATM    2  C   UNL     1     -11.045   6.759  72.838  1.00  0.00    -0.243 C  
HETATM    3  C   UNL     1     -11.651   7.972  72.180  1.00  0.00    -0.399 A  
HETATM    4  F   UNL     1     -11.859   5.670  72.783  1.00  0.00    -0.331 F  
HETATM    5  F   UNL     1     -10.782   6.963  74.159  1.00  0.00    -0.378 F  
HETATM    6  C   UNL     1     -10.990   8.602  71.111  1.00  0.00    -0.320 A  
HETATM    7  C   UNL     1     -11.476   9.764  70.489  1.00  0.00    -0.300 A  
HETATM    8  C   UNL     1     -12.870   8.492  72.620  1.00  0.00    -0.224 A  
HETATM    9  C   UNL     1     -12.706  10.248  70.961  1.00  0.00    -0.491 A  
HETATM   10  C   UNL     1     -13.399   9.621  72.006  1.00  0.00    -0.547 A  
ENDROOT
BRANCH   7  11
HETATM   11  N   UNL     1     -10.785  10.335  69.417  1.00  0.00    -0.225 NA 
HETATM   12  C   UNL     1      -9.816  12.336  68.297  1.00  0.00    -0.217 C  
HETATM   13  C   UNL     1     -10.962  11.788  69.180  1.00  0.00    -0.209 C  
HETATM   14  N   UNL     1      -9.626  11.635  67.004  1.00  0.00    -0.182 NA 
HETATM   15  C   UNL     1      -9.461  10.192  67.313  1.00  0.00    -0.154 C  
HETATM   16  C   UNL     1     -10.586   9.561  68.176  1.00  0.00    -0.217 C  
BRANCH  14  17
HETATM   17  C   UNL     1     -10.753  11.843  66.072  1.00  0.00    -0.285 C  
BRANCH  17  18
HETATM   18  C   UNL     1     -10.365  12.585  64.780  1.00  0.00    -0.307 C  
BRANCH  18  19
HETATM   19  N   UNL     1     -10.845  13.943  64.778  1.00  0.00    -0.399 N  
HETATM   20  C   UNL     1     -12.000  14.388  64.104  1.00  0.00    -0.346 C  
HETATM   21  O   UNL     1     -12.773  13.724  63.434  1.00  0.00    -0.795 OA 
HETATM   22  N   UNL     1     -12.089  15.769  64.340  1.00  0.00    -0.325 NA 
HETATM   23  C   UNL     1     -11.006  16.164  65.119  1.00  0.00    -0.316 A  
HETATM   24  C   UNL     1     -10.680  17.414  65.586  1.00  0.00    -0.113 A  
HETATM   25  C   UNL     1      -9.509  17.517  66.345  1.00  0.00    -0.276 A  
HETATM   26  C   UNL     1      -8.707  16.385  66.605  1.00  0.00    -0.291 A  
HETATM   27  C   UNL     1      -9.061  15.122  66.120  1.00  0.00    -0.276 A  
HETATM   28  C   UNL     1     -10.221  15.039  65.382  1.00  0.00    -0.381 A  
ENDBRANCH  18  19
ENDBRANCH  17  18
ENDBRANCH  14  17
ENDBRANCH   7  11
TORSDOF 4
ENDMDL
MODEL       34
REMARK 921   NORMALIZED FREE ENERGY PREDICTED BY IDOCK:   -7.08 KCAL/MOL
REMARK 922        TOTAL FREE ENERGY PREDICTED BY IDOCK:   -9.36 KCAL/MOL
REMARK 923 INTER-LIGAND FREE ENERGY PREDICTED BY IDOCK:   -8.72 KCAL/MOL
REMARK 924 INTRA-LIGAND FREE ENERGY PREDICTED BY IDOCK:   -0.63 KCAL/MOL
REMARK 927      BINDING AFFINITY PREDICTED BY RF-SCORE:    0.00 PKD
ROOT
HETATM    1  F   UNL     1     -12.846  12.363  65.022  1.00  0.00    -0.541 F  
HETATM    2  C   UNL     1     -12.080  12.299  63.897  1.00  0.00    -0.506 C  
HETATM    3  C   UNL     1     -10.887  11.388  64.026  1.00  0.00    -0.450 A  
HETATM    4  F   UNL     1     -12.923  11.924  62.896  1.00  0.00    -0.600 F  
HETATM    5  F   UNL     1     -11.723  13.585  63.623  1.00  0.00    -0.433 F  
HETATM    6  C   UNL     1     -10.639  10.713  65.234  1.00  0.00    -0.191 A  
HETATM    7  C   UNL     1      -9.518   9.890  65.435  1.00  0.00    -0.257 A  
HETATM    8  C   UNL     1     -10.010  11.200  62.957  1.00  0.00    -0.347 A  
HETATM    9  C   UNL     1      -8.666   9.728  64.331  1.00  0.00    -0.228 A  
HETATM   10  C   UNL     1      -8.908  10.366  63.107  1.00  0.00    -0.220 A  
ENDROOT
BRANCH   7  11
HETATM   11  N   UNL     1      -9.334   9.230  66.652  1.00  0.00    -0.159 NA 
HETATM   12  C   UNL     1     -10.075   7.542  68.325  1.00  0.00    -0.183 C  
HETATM   13  C   UNL     1     -10.517   8.587  67.273  1.00  0.00    -0.296 C  
HETATM   14  N   UNL     1      -9.169   8.053  69.380  1.00  0.00    -0.152 NA 
HETATM   15  C   UNL     1      -8.014   8.685  68.692  1.00  0.00    -0.115 C  
HETATM   16  C   UNL     1      -8.375   9.766  67.639  1.00  0.00    -0.114 C  
BRANCH  14  17
HETATM   17  C   UNL     1      -9.830   9.018  70.282  1.00  0.00    -0.194 C  
BRANCH  17  18
HETATM   18  C   UNL     1     -11.367   8.987  70.209  1.00  0.00    -0.178 C  
BRANCH  18  19
HETATM   19  N   UNL     1     -11.950  10.224  70.662  1.00  0.00    -0.315 N  
HETATM   20  C   UNL     1     -12.833  10.347  71.753  1.00  0.00    -0.456 C  
HETATM   21  O   UNL     1     -13.240   9.461  72.485  1.00  0.00    -0.426 OA 
HETATM   22  N   UNL     1     -13.176  11.706  71.834  1.00  0.00    -0.454 NA 
HETATM   23  C   UNL     1     -12.538  12.394  70.806  1.00  0.00    -0.211 A  
HETATM   24  C   UNL     1     -12.587  13.731  70.493  1.00  0.00    -0.361 A  
HETATM   25  C   UNL     1     -11.844  14.144  69.382  1.00  0.00    -0.378 A  
HETATM   26  C   UNL     1     -11.091  13.221  68.624  1.00  0.00    -0.301 A  
HETATM   27  C   UNL     1     -11.057  11.865  68.963  1.00  0.00    -0.300 A  
HETATM   28  C   UNL     1     -11.788  11.479  70.065  1.00  0.00    -0.355 A  
ENDBRANCH  18  19
ENDBRANCH  17  18
ENDBRANCH  14  17
ENDBRANCH   7  11
TORSDOF 4
ENDMDL
MODEL       35
REMARK 921   NORMALIZED FREE ENERGY PREDICTED BY IDOCK:   -7.05 KCAL/MOL
REMARK 922        TOTAL FREE ENERGY PREDICTED BY IDOCK:   -9.32 KCAL/MOL
REMARK 923 INTER-LIGAND FREE ENERGY PREDICTED BY IDOCK:   -9.04 KCAL/MOL
REMARK 924 INTRA-LIGAND FREE ENERGY PREDICTED BY IDOCK:   -0.27 KCAL/MOL
REMARK 927      BINDING AFFINITY PREDICTED BY RF-SCORE:    0.00 PKD
ROOT
HETATM    1  F   UNL     1     -14.265   9.162  71.315  1.00  0.00    -0.406 F  
HETATM    2  C   UNL     1     -13.062   8.671  71.726  1.00  0.00    -0.361 C  
HETATM    3  C   UNL     1     -11.883   9.282  71.015  1.00  0.00    -0.376 A  
HETATM    4  F   UNL     1     -13.022   8.866  73.073  1.00  0.00    -0.433 F  
HETATM    5  F   UNL     1     -13.135   7.323  71.545  1.00  0.00    -0.360 F  
HETATM    6  C   UNL     1     -12.083  10.250  70.015  1.00  0.00    -0.230 A  
HETATM    7  C   UNL     1     -11.030  10.821  69.281  1.00  0.00    -0.241 A  
HETATM    8  C   UNL     1     -10.578   8.898  71.330  1.00  0.00    -0.374 A  
HETATM    9  C   UNL     1      -9.736  10.408  69.635  1.00  0.00    -0.158 A  
HETATM   10  C   UNL     1      -9.509   9.466  70.648  1.00  0.00    -0.325 A  
ENDROOT
BRANCH   7  11
HETATM   11  N   UNL     1     -11.288  11.794  68.312  1.00  0.00    -0.257 NA 
HETATM   12  C   UNL     1     -11.894  12.402  65.975  1.00  0.00    -0.395 C  
HETATM   13  C   UNL     1     -11.147  11.401  66.888  1.00  0.00    -0.295 C  
HETATM   14  N   UNL     1     -11.506  13.823  66.146  1.00  0.00    -0.328 NA 
HETATM   15  C   UNL     1     -11.664  14.146  67.587  1.00  0.00    -0.387 C  
HETATM   16  C   UNL     1     -10.922  13.201  68.568  1.00  0.00    -0.263 C  
BRANCH  14  17
HETATM   17  C   UNL     1     -10.124  14.094  65.700  1.00  0.00    -0.328 C  
BRANCH  17  18
HETATM   18  C   UNL     1      -9.898  15.535  65.209  1.00  0.00    -0.166 C  
BRANCH  18  19
HETATM   19  N   UNL     1      -9.241  16.343  66.203  1.00  0.00    -0.320 N  
HETATM   20  C   UNL     1      -8.198  15.901  67.040  1.00  0.00    -0.221 C  
HETATM   21  O   UNL     1      -7.680  14.797  67.065  1.00  0.00    -0.168 OA 
HETATM   22  N   UNL     1      -7.867  16.985  67.868  1.00  0.00    -0.180 NA 
HETATM   23  C   UNL     1      -8.701  18.057  67.562  1.00  0.00    -0.248 A  
HETATM   24  C   UNL     1      -8.743  19.312  68.119  1.00  0.00    -0.370 A  
HETATM   25  C   UNL     1      -9.708  20.191  67.614  1.00  0.00    -0.551 A  
HETATM   26  C   UNL     1     -10.592  19.793  66.588  1.00  0.00    -0.578 A  
HETATM   27  C   UNL     1     -10.528  18.509  66.037  1.00  0.00    -0.433 A  
HETATM   28  C   UNL     1      -9.566  17.661  66.541  1.00  0.00    -0.292 A  
ENDBRANCH  18  19
ENDBRANCH  17  18
ENDBRANCH  14  17
ENDBRANCH   7  11
TORSDOF 4
ENDMDL
MODEL       36
REMARK 921   NORMALIZED FREE ENERGY PREDICTED BY IDOCK:   -7.03 KCAL/MOL
REMARK 922        TOTAL FREE ENERGY PREDICTED BY IDOCK:   -9.29 KCAL/MOL
REMARK 923 INTER-LIGAND FREE ENERGY PREDICTED BY IDOCK:   -8.47 KCAL/MOL
REMARK 924 INTRA-LIGAND FREE ENERGY PREDICTED BY IDOCK:   -0.82 KCAL/MOL
REMARK 927      BINDING AFFINITY PREDICTED BY RF-SCORE:    0.00 PKD
ROOT
HETATM    1  F   UNL     1     -12.015   9.366  70.215  1.00  0.00    -0.238 F  
HETATM    2  C   UNL     1     -12.655   9.980  71.251  1.00  0.00    -0.393 C  
HETATM    3  C   UNL     1     -12.735  11.478  71.113  1.00  0.00    -0.458 A  
HETATM    4  F   UNL     1     -13.880   9.392  71.330  1.00  0.00    -0.416 F  
HETATM    5  F   UNL     1     -11.984   9.598  72.374  1.00  0.00    -0.317 F  
HETATM    6  C   UNL     1     -12.162  12.117  70.000  1.00  0.00    -0.270 A  
HETATM    7  C   UNL     1     -12.160  13.513  69.837  1.00  0.00    -0.341 A  
HETATM    8  C   UNL     1     -13.373  12.253  72.082  1.00  0.00    -0.473 A  
HETATM    9  C   UNL     1     -12.815  14.251  70.835  1.00  0.00    -0.416 A  
HETATM   10  C   UNL     1     -13.419  13.635  71.939  1.00  0.00    -0.519 A  
ENDROOT
BRANCH   7  11
HETATM   11  N   UNL     1     -11.591  14.092  68.700  1.00  0.00    -0.302 NA 
HETATM   12  C   UNL     1     -11.755  14.759  66.307  1.00  0.00    -0.257 C  
HETATM   13  C   UNL     1     -12.159  13.721  67.381  1.00  0.00    -0.343 C  
HETATM   14  N   UNL     1     -10.298  14.999  66.178  1.00  0.00    -0.285 NA 
HETATM   15  C   UNL     1      -9.796  15.359  67.528  1.00  0.00    -0.217 C  
HETATM   16  C   UNL     1     -10.138  14.351  68.657  1.00  0.00    -0.242 C  
BRANCH  14  17
HETATM   17  C   UNL     1      -9.573  13.827  65.646  1.00  0.00    -0.012 C  
BRANCH  17  18
HETATM   18  C   UNL     1     -10.397  12.976  64.664  1.00  0.00    -0.352 C  
BRANCH  18  19
HETATM   19  N   UNL     1      -9.910  11.622  64.589  1.00  0.00    -0.243 N  
HETATM   20  C   UNL     1      -9.325  11.038  63.448  1.00  0.00    -0.282 C  
HETATM   21  O   UNL     1      -9.129  11.559  62.363  1.00  0.00    -0.289 OA 
HETATM   22  N   UNL     1      -9.018   9.713  63.795  1.00  0.00    -0.234 NA 
HETATM   23  C   UNL     1      -9.424   9.484  65.106  1.00  0.00    -0.236 A  
HETATM   24  C   UNL     1      -9.330   8.338  65.858  1.00  0.00    -0.165 A  
HETATM   25  C   UNL     1      -9.840   8.397  67.160  1.00  0.00    -0.279 A  
HETATM   26  C   UNL     1     -10.425   9.580  67.662  1.00  0.00    -0.321 A  
HETATM   27  C   UNL     1     -10.507  10.734  66.876  1.00  0.00    -0.304 A  
HETATM   28  C   UNL     1      -9.992  10.660  65.601  1.00  0.00    -0.268 A  
ENDBRANCH  18  19
ENDBRANCH  17  18
ENDBRANCH  14  17
ENDBRANCH   7  11
TORSDOF 4
ENDMDL
MODEL       37
REMARK 921   NORMALIZED FREE ENERGY PREDICTED BY IDOCK:   -6.94 KCAL/MOL
REMARK 922        TOTAL FREE ENERGY PREDICTED BY IDOCK:   -9.19 KCAL/MOL
REMARK 923 INTER-LIGAND FREE ENERGY PREDICTED BY IDOCK:   -8.33 KCAL/MOL
REMARK 924 INTRA-LIGAND FREE ENERGY PREDICTED BY IDOCK:   -0.85 KCAL/MOL
REMARK 927      BINDING AFFINITY PREDICTED BY RF-SCORE:    0.00 PKD
ROOT
HETATM    1  F   UNL     1     -13.695  13.384  72.876  1.00  0.00    -0.580 F  
HETATM    2  C   UNL     1     -13.267  14.674  72.769  1.00  0.00    -0.497 C  
HETATM    3  C   UNL     1     -12.419  14.934  71.552  1.00  0.00    -0.397 A  
HETATM    4  F   UNL     1     -14.391  15.441  72.801  1.00  0.00    -0.529 F  
HETATM    5  F   UNL     1     -12.602  14.937  73.930  1.00  0.00    -0.578 F  
HETATM    6  C   UNL     1     -12.121  13.888  70.661  1.00  0.00    -0.417 A  
HETATM    7  C   UNL     1     -11.296  14.053  69.535  1.00  0.00    -0.245 A  
HETATM    8  C   UNL     1     -11.915  16.208  71.289  1.00  0.00    -0.402 A  
HETATM    9  C   UNL     1     -10.815  15.352  69.309  1.00  0.00    -0.253 A  
HETATM   10  C   UNL     1     -11.122  16.418  70.166  1.00  0.00    -0.285 A  
ENDROOT
BRANCH   7  11
HETATM   11  N   UNL     1     -11.049  12.981  68.675  1.00  0.00    -0.257 NA 
HETATM   12  C   UNL     1     -11.380  10.593  68.055  1.00  0.00    -0.278 C  
HETATM   13  C   UNL     1     -11.236  11.611  69.211  1.00  0.00    -0.265 C  
HETATM   14  N   UNL     1     -10.274  10.600  67.068  1.00  0.00    -0.211 NA 
HETATM   15  C   UNL     1     -10.138  11.995  66.578  1.00  0.00    -0.201 C  
HETATM   16  C   UNL     1      -9.964  13.074  67.678  1.00  0.00    -0.215 C  
BRANCH  14  17
HETATM   17  C   UNL     1      -8.998  10.121  67.637  1.00  0.00    -0.131 C  
BRANCH  17  18
HETATM   18  C   UNL     1      -9.076   8.706  68.239  1.00  0.00    -0.141 C  
BRANCH  18  19
HETATM   19  N   UNL     1      -8.974   8.729  69.675  1.00  0.00    -0.143 N  
HETATM   20  C   UNL     1      -7.854   9.190  70.396  1.00  0.00    -0.133 C  
HETATM   21  O   UNL     1      -6.814   9.641  69.948  1.00  0.00    -0.056 OA 
HETATM   22  N   UNL     1      -8.159   9.016  71.755  1.00  0.00    -0.350 NA 
HETATM   23  C   UNL     1      -9.423   8.442  71.864  1.00  0.00    -0.253 A  
HETATM   24  C   UNL     1     -10.123   8.089  72.992  1.00  0.00    -0.351 A  
HETATM   25  C   UNL     1     -11.383   7.513  72.795  1.00  0.00    -0.388 A  
HETATM   26  C   UNL     1     -11.895   7.304  71.496  1.00  0.00    -0.335 A  
HETATM   27  C   UNL     1     -11.162   7.674  70.363  1.00  0.00    -0.258 A  
HETATM   28  C   UNL     1      -9.928   8.248  70.577  1.00  0.00    -0.184 A  
ENDBRANCH  18  19
ENDBRANCH  17  18
ENDBRANCH  14  17
ENDBRANCH   7  11
TORSDOF 4
ENDMDL
MODEL       38
REMARK 921   NORMALIZED FREE ENERGY PREDICTED BY IDOCK:   -6.94 KCAL/MOL
REMARK 922        TOTAL FREE ENERGY PREDICTED BY IDOCK:   -9.18 KCAL/MOL
REMARK 923 INTER-LIGAND FREE ENERGY PREDICTED BY IDOCK:   -8.57 KCAL/MOL
REMARK 924 INTRA-LIGAND FREE ENERGY PREDICTED BY IDOCK:   -0.62 KCAL/MOL
REMARK 927      BINDING AFFINITY PREDICTED BY RF-SCORE:    0.00 PKD
ROOT
HETATM    1  F   UNL     1      -9.800   7.376  70.412  1.00  0.00    -0.181 F  
HETATM    2  C   UNL     1     -10.682   7.807  71.358  1.00  0.00    -0.222 C  
HETATM    3  C   UNL     1     -11.353   9.111  71.011  1.00  0.00    -0.377 A  
HETATM    4  F   UNL     1     -11.568   6.789  71.530  1.00  0.00    -0.279 F  
HETATM    5  F   UNL     1      -9.969   7.883  72.517  1.00  0.00    -0.223 F  
HETATM    6  C   UNL     1     -11.033   9.775  69.814  1.00  0.00    -0.287 A  
HETATM    7  C   UNL     1     -11.586  11.017  69.457  1.00  0.00    -0.313 A  
HETATM    8  C   UNL     1     -12.295   9.682  71.869  1.00  0.00    -0.437 A  
HETATM    9  C   UNL     1     -12.531  11.550  70.348  1.00  0.00    -0.324 A  
HETATM   10  C   UNL     1     -12.888  10.893  71.533  1.00  0.00    -0.560 A  
ENDROOT
BRANCH   7  11
HETATM   11  N   UNL     1     -11.244  11.621  68.245  1.00  0.00    -0.238 NA 
HETATM   12  C   UNL     1      -9.720  11.818  66.287  1.00  0.00    -0.222 C  
HETATM   13  C   UNL     1      -9.832  11.527  67.802  1.00  0.00    -0.177 C  
HETATM   14  N   UNL     1     -10.299  13.110  65.848  1.00  0.00    -0.285 NA 
HETATM   15  C   UNL     1     -11.705  13.140  66.326  1.00  0.00    -0.375 C  
HETATM   16  C   UNL     1     -11.899  12.883  67.843  1.00  0.00    -0.339 C  
BRANCH  14  17
HETATM   17  C   UNL     1      -9.550  14.275  66.360  1.00  0.00    -0.298 C  
BRANCH  17  18
HETATM   18  C   UNL     1     -10.180  15.632  65.997  1.00  0.00    -0.335 C  
BRANCH  18  19
HETATM   19  N   UNL     1     -10.002  16.603  67.045  1.00  0.00    -0.263 N  
HETATM   20  C   UNL     1     -10.788  16.683  68.212  1.00  0.00    -0.356 C  
HETATM   21  O   UNL     1     -11.720  15.965  68.531  1.00  0.00    -0.383 OA 
HETATM   22  N   UNL     1     -10.298  17.774  68.946  1.00  0.00    -0.354 NA 
HETATM   23  C   UNL     1      -9.254  18.362  68.237  1.00  0.00    -0.316 A  
HETATM   24  C   UNL     1      -8.486  19.453  68.566  1.00  0.00    -0.397 A  
HETATM   25  C   UNL     1      -7.503  19.830  67.644  1.00  0.00    -0.314 A  
HETATM   26  C   UNL     1      -7.324  19.120  66.437  1.00  0.00    -0.263 A  
HETATM   27  C   UNL     1      -8.118  18.011  66.127  1.00  0.00    -0.203 A  
HETATM   28  C   UNL     1      -9.074  17.650  67.050  1.00  0.00    -0.250 A  
ENDBRANCH  18  19
ENDBRANCH  17  18
ENDBRANCH  14  17
ENDBRANCH   7  11
TORSDOF 4
ENDMDL
MODEL       39
REMARK 921   NORMALIZED FREE ENERGY PREDICTED BY IDOCK:   -6.93 KCAL/MOL
REMARK 922        TOTAL FREE ENERGY PREDICTED BY IDOCK:   -9.18 KCAL/MOL
REMARK 923 INTER-LIGAND FREE ENERGY PREDICTED BY IDOCK:   -8.57 KCAL/MOL
REMARK 924 INTRA-LIGAND FREE ENERGY PREDICTED BY IDOCK:   -0.60 KCAL/MOL
REMARK 927      BINDING AFFINITY PREDICTED BY RF-SCORE:    0.00 PKD
ROOT
HETATM    1  F   UNL     1     -11.531  19.798  67.212  1.00  0.00    -0.415 F  
HETATM    2  C   UNL     1     -10.258  19.779  66.725  1.00  0.00    -0.462 C  
HETATM    3  C   UNL     1      -9.635  18.407  66.712  1.00  0.00    -0.308 A  
HETATM    4  F   UNL     1     -10.327  20.338  65.486  1.00  0.00    -0.532 F  
HETATM    5  F   UNL     1      -9.558  20.659  67.494  1.00  0.00    -0.518 F  
HETATM    6  C   UNL     1     -10.353  17.299  67.192  1.00  0.00    -0.321 A  
HETATM    7  C   UNL     1      -9.811  16.004  67.253  1.00  0.00    -0.236 A  
HETATM    8  C   UNL     1      -8.339  18.214  66.229  1.00  0.00    -0.228 A  
HETATM    9  C   UNL     1      -8.507  15.857  66.753  1.00  0.00    -0.297 A  
HETATM   10  C   UNL     1      -7.782  16.941  66.242  1.00  0.00    -0.332 A  
ENDROOT
BRANCH   7  11
HETATM   11  N   UNL     1     -10.580  14.936  67.723  1.00  0.00    -0.258 NA 
HETATM   12  C   UNL     1     -11.963  13.898  69.513  1.00  0.00    -0.343 C  
HETATM   13  C   UNL     1     -10.753  14.806  69.190  1.00  0.00    -0.254 C  
HETATM   14  N   UNL     1     -11.927  12.554  68.890  1.00  0.00    -0.281 NA 
HETATM   15  C   UNL     1     -11.748  12.756  67.430  1.00  0.00    -0.366 C  
HETATM   16  C   UNL     1     -10.536  13.636  67.023  1.00  0.00    -0.274 C  
BRANCH  14  17
HETATM   17  C   UNL     1     -10.851  11.701  69.434  1.00  0.00    -0.096 C  
BRANCH  17  18
HETATM   18  C   UNL     1     -11.079  10.194  69.219  1.00  0.00    -0.225 C  
BRANCH  18  19
HETATM   19  N   UNL     1     -11.350   9.511  70.458  1.00  0.00    -0.268 N  
HETATM   20  C   UNL     1     -12.596   9.502  71.118  1.00  0.00    -0.301 C  
HETATM   21  O   UNL     1     -13.628  10.046  70.765  1.00  0.00    -0.252 OA 
HETATM   22  N   UNL     1     -12.419   8.748  72.288  1.00  0.00    -0.387 NA 
HETATM   23  C   UNL     1     -11.094   8.324  72.356  1.00  0.00    -0.377 A  
HETATM   24  C   UNL     1     -10.471   7.571  73.321  1.00  0.00    -0.426 A  
HETATM   25  C   UNL     1      -9.110   7.306  73.130  1.00  0.00    -0.193 A  
HETATM   26  C   UNL     1      -8.423   7.800  72.000  1.00  0.00    -0.146 A  
HETATM   27  C   UNL     1      -9.081   8.564  71.030  1.00  0.00    -0.221 A  
HETATM   28  C   UNL     1     -10.422   8.806  71.231  1.00  0.00    -0.256 A  
ENDBRANCH  18  19
ENDBRANCH  17  18
ENDBRANCH  14  17
ENDBRANCH   7  11
TORSDOF 4
ENDMDL
MODEL       40
REMARK 921   NORMALIZED FREE ENERGY PREDICTED BY IDOCK:   -6.93 KCAL/MOL
REMARK 922        TOTAL FREE ENERGY PREDICTED BY IDOCK:   -9.18 KCAL/MOL
REMARK 923 INTER-LIGAND FREE ENERGY PREDICTED BY IDOCK:   -8.26 KCAL/MOL
REMARK 924 INTRA-LIGAND FREE ENERGY PREDICTED BY IDOCK:   -0.91 KCAL/MOL
REMARK 927      BINDING AFFINITY PREDICTED BY RF-SCORE:    0.00 PKD
ROOT
HETATM    1  F   UNL     1     -10.529   7.785  68.266  1.00  0.00    -0.210 F  
HETATM    2  C   UNL     1      -9.731   7.400  67.231  1.00  0.00    -0.157 C  
HETATM    3  C   UNL     1      -9.428   8.505  66.254  1.00  0.00    -0.299 A  
HETATM    4  F   UNL     1      -8.610   6.879  67.801  1.00  0.00    -0.120 F  
HETATM    5  F   UNL     1     -10.374   6.351  66.644  1.00  0.00    -0.232 F  
HETATM    6  C   UNL     1      -9.970   9.788  66.446  1.00  0.00    -0.314 A  
HETATM    7  C   UNL     1      -9.766  10.848  65.546  1.00  0.00    -0.233 A  
HETATM    8  C   UNL     1      -8.612   8.277  65.145  1.00  0.00    -0.132 A  
HETATM    9  C   UNL     1      -8.936  10.573  64.448  1.00  0.00    -0.232 A  
HETATM   10  C   UNL     1      -8.360   9.311  64.250  1.00  0.00    -0.180 A  
ENDROOT
BRANCH   7  11
HETATM   11  N   UNL     1     -10.315  12.107  65.800  1.00  0.00    -0.250 NA 
HETATM   12  C   UNL     1     -10.146  14.365  66.834  1.00  0.00    -0.259 C  
HETATM   13  C   UNL     1      -9.793  12.865  66.963  1.00  0.00    -0.233 C  
HETATM   14  N   UNL     1     -11.587  14.660  66.648  1.00  0.00    -0.365 NA 
HETATM   15  C   UNL     1     -12.044  13.870  65.477  1.00  0.00    -0.407 C  
HETATM   16  C   UNL     1     -11.749  12.348  65.543  1.00  0.00    -0.407 C  
BRANCH  14  17
HETATM   17  C   UNL     1     -12.394  14.337  67.842  1.00  0.00     0.014 C  
BRANCH  17  18
HETATM   18  C   UNL     1     -11.617  14.436  69.167  1.00  0.00    -0.307 C  
BRANCH  18  19
HETATM   19  N   UNL     1     -12.265  13.705  70.225  1.00  0.00    -0.349 N  
HETATM   20  C   UNL     1     -13.019  14.289  71.263  1.00  0.00    -0.352 C  
HETATM   21  O   UNL     1     -13.252  15.473  71.438  1.00  0.00    -0.467 OA 
HETATM   22  N   UNL     1     -13.448  13.233  72.083  1.00  0.00    -0.528 NA 
HETATM   23  C   UNL     1     -12.952  12.037  71.574  1.00  0.00    -0.304 A  
HETATM   24  C   UNL     1     -13.110  10.757  72.050  1.00  0.00    -0.476 A  
HETATM   25  C   UNL     1     -12.478   9.737  71.331  1.00  0.00    -0.482 A  
HETATM   26  C   UNL     1     -11.713  10.022  70.179  1.00  0.00    -0.285 A  
HETATM   27  C   UNL     1     -11.569  11.333  69.714  1.00  0.00    -0.408 A  
HETATM   28  C   UNL     1     -12.205  12.323  70.430  1.00  0.00    -0.288 A  
ENDBRANCH  18  19
ENDBRANCH  17  18
ENDBRANCH  14  17
ENDBRANCH   7  11
TORSDOF 4
ENDMDL
MODEL       41
REMARK 921   NORMALIZED FREE ENERGY PREDICTED BY IDOCK:   -6.92 KCAL/MOL
REMARK 922        TOTAL FREE ENERGY PREDICTED BY IDOCK:   -9.16 KCAL/MOL
REMARK 923 INTER-LIGAND FREE ENERGY PREDICTED BY IDOCK:   -8.53 KCAL/MOL
REMARK 924 INTRA-LIGAND FREE ENERGY PREDICTED BY IDOCK:   -0.63 KCAL/MOL
REMARK 927      BINDING AFFINITY PREDICTED BY RF-SCORE:    0.00 PKD
ROOT
HETATM    1  F   UNL     1      -9.712  17.524  68.825  1.00  0.00    -0.272 F  
HETATM    2  C   UNL     1     -10.133  17.786  67.555  1.00  0.00    -0.340 C  
HETATM    3  C   UNL     1     -10.318  16.552  66.711  1.00  0.00    -0.296 A  
HETATM    4  F   UNL     1     -11.278  18.510  67.686  1.00  0.00    -0.370 F  
HETATM    5  F   UNL     1      -9.209  18.639  67.031  1.00  0.00    -0.270 F  
HETATM    6  C   UNL     1     -10.042  15.281  67.245  1.00  0.00    -0.236 A  
HETATM    7  C   UNL     1     -10.146  14.097  66.495  1.00  0.00    -0.280 A  
HETATM    8  C   UNL     1     -10.759  16.647  65.390  1.00  0.00    -0.228 A  
HETATM    9  C   UNL     1     -10.597  14.242  65.174  1.00  0.00    -0.423 A  
HETATM   10  C   UNL     1     -10.906  15.495  64.628  1.00  0.00    -0.277 A  
ENDROOT
BRANCH   7  11
HETATM   11  N   UNL     1      -9.877  12.860  67.085  1.00  0.00    -0.221 NA 
HETATM   12  C   UNL     1     -10.384  10.436  67.341  1.00  0.00    -0.228 C  
HETATM   13  C   UNL     1     -10.962  11.849  67.092  1.00  0.00    -0.269 C  
HETATM   14  N   UNL     1      -9.562  10.299  68.567  1.00  0.00    -0.156 NA 
HETATM   15  C   UNL     1      -8.503  11.338  68.499  1.00  0.00    -0.156 C  
HETATM   16  C   UNL     1      -9.006  12.789  68.276  1.00  0.00    -0.175 C  
BRANCH  14  17
HETATM   17  C   UNL     1     -10.355  10.443  69.805  1.00  0.00    -0.208 C  
BRANCH  17  18
HETATM   18  C   UNL     1     -11.838  10.774  69.560  1.00  0.00    -0.308 C  
BRANCH  18  19
HETATM   19  N   UNL     1     -12.402  11.538  70.643  1.00  0.00    -0.373 N  
HETATM   20  C   UNL     1     -13.003  10.986  71.792  1.00  0.00    -0.438 C  
HETATM   21  O   UNL     1     -13.140   9.806  72.066  1.00  0.00    -0.414 OA 
HETATM   22  N   UNL     1     -13.435  12.070  72.572  1.00  0.00    -0.109 NA 
HETATM   23  C   UNL     1     -13.128  13.254  71.909  1.00  0.00    -0.388 A  
HETATM   24  C   UNL     1     -13.369  14.552  72.291  1.00  0.00    -0.495 A  
HETATM   25  C   UNL     1     -12.956  15.554  71.406  1.00  0.00    -0.553 A  
HETATM   26  C   UNL     1     -12.329  15.234  70.182  1.00  0.00    -0.392 A  
HETATM   27  C   UNL     1     -12.094  13.904  69.817  1.00  0.00    -0.404 A  
HETATM   28  C   UNL     1     -12.500  12.932  70.705  1.00  0.00    -0.252 A  
ENDBRANCH  18  19
ENDBRANCH  17  18
ENDBRANCH  14  17
ENDBRANCH   7  11
TORSDOF 4
ENDMDL
MODEL       42
REMARK 921   NORMALIZED FREE ENERGY PREDICTED BY IDOCK:   -6.89 KCAL/MOL
REMARK 922        TOTAL FREE ENERGY PREDICTED BY IDOCK:   -9.12 KCAL/MOL
REMARK 923 INTER-LIGAND FREE ENERGY PREDICTED BY IDOCK:   -8.26 KCAL/MOL
REMARK 924 INTRA-LIGAND FREE ENERGY PREDICTED BY IDOCK:   -0.86 KCAL/MOL
REMARK 927      BINDING AFFINITY PREDICTED BY RF-SCORE:    0.00 PKD
ROOT
HETATM    1  F   UNL     1     -11.639  10.479  70.933  1.00  0.00    -0.373 F  
HETATM    2  C   UNL     1     -10.978   9.309  70.706  1.00  0.00    -0.284 C  
HETATM    3  C   UNL     1     -10.540   9.127  69.275  1.00  0.00    -0.229 A  
HETATM    4  F   UNL     1      -9.935   9.296  71.580  1.00  0.00    -0.366 F  
HETATM    5  F   UNL     1     -11.823   8.323  71.118  1.00  0.00    -0.274 F  
HETATM    6  C   UNL     1     -10.840  10.107  68.314  1.00  0.00    -0.297 A  
HETATM    7  C   UNL     1     -10.504   9.975  66.956  1.00  0.00    -0.238 A  
HETATM    8  C   UNL     1      -9.837   7.987  68.881  1.00  0.00    -0.176 A  
HETATM    9  C   UNL     1      -9.796   8.815  66.606  1.00  0.00    -0.335 A  
HETATM   10  C   UNL     1      -9.459   7.837  67.552  1.00  0.00    -0.170 A  
ENDROOT
BRANCH   7  11
HETATM   11  N   UNL     1     -10.812  10.992  66.048  1.00  0.00    -0.176 NA 
HETATM   12  C   UNL     1     -10.380  12.165  63.896  1.00  0.00    -0.415 C  
HETATM   13  C   UNL     1      -9.758  11.399  65.087  1.00  0.00    -0.244 C  
HETATM   14  N   UNL     1     -11.206  13.340  64.263  1.00  0.00    -0.377 NA 
HETATM   15  C   UNL     1     -12.232  12.865  65.226  1.00  0.00    -0.476 C  
HETATM   16  C   UNL     1     -11.685  12.108  66.465  1.00  0.00    -0.321 C  
BRANCH  14  17
HETATM   17  C   UNL     1     -10.409  14.436  64.849  1.00  0.00    -0.389 C  
BRANCH  17  18
HETATM   18  C   UNL     1     -11.251  15.635  65.322  1.00  0.00    -0.234 C  
BRANCH  18  19
HETATM   19  N   UNL     1     -10.751  16.187  66.555  1.00  0.00    -0.270 N  
HETATM   20  C   UNL     1      -9.737  17.162  66.649  1.00  0.00    -0.276 C  
HETATM   21  O   UNL     1      -9.131  17.696  65.736  1.00  0.00    -0.503 OA 
HETATM   22  N   UNL     1      -9.541  17.398  68.019  1.00  0.00    -0.268 NA 
HETATM   23  C   UNL     1     -10.395  16.574  68.746  1.00  0.00    -0.286 A  
HETATM   24  C   UNL     1     -10.543  16.460  70.107  1.00  0.00    -0.128 A  
HETATM   25  C   UNL     1     -11.482  15.527  70.561  1.00  0.00    -0.368 A  
HETATM   26  C   UNL     1     -12.229  14.744  69.654  1.00  0.00    -0.310 A  
HETATM   27  C   UNL     1     -12.061  14.880  68.273  1.00  0.00    -0.146 A  
HETATM   28  C   UNL     1     -11.138  15.810  67.845  1.00  0.00    -0.326 A  
ENDBRANCH  18  19
ENDBRANCH  17  18
ENDBRANCH  14  17
ENDBRANCH   7  11
TORSDOF 4
ENDMDL
MODEL       43
REMARK 921   NORMALIZED FREE ENERGY PREDICTED BY IDOCK:   -6.88 KCAL/MOL
REMARK 922        TOTAL FREE ENERGY PREDICTED BY IDOCK:   -9.12 KCAL/MOL
REMARK 923 INTER-LIGAND FREE ENERGY PREDICTED BY IDOCK:   -8.45 KCAL/MOL
REMARK 924 INTRA-LIGAND FREE ENERGY PREDICTED BY IDOCK:   -0.66 KCAL/MOL
REMARK 927      BINDING AFFINITY PREDICTED BY RF-SCORE:    0.00 PKD
ROOT
HETATM    1  F   UNL     1     -11.154  11.228  65.987  1.00  0.00    -0.328 F  
HETATM    2  C   UNL     1     -11.412  12.528  66.303  1.00  0.00    -0.370 C  
HETATM    3  C   UNL     1     -11.693  12.753  67.766  1.00  0.00    -0.412 A  
HETATM    4  F   UNL     1     -10.339  13.238  65.858  1.00  0.00    -0.268 F  
HETATM    5  F   UNL     1     -12.458  12.898  65.512  1.00  0.00    -0.476 F  
HETATM    6  C   UNL     1     -11.691  11.670  68.661  1.00  0.00    -0.386 A  
HETATM    7  C   UNL     1     -11.994  11.805  70.027  1.00  0.00    -0.344 A  
HETATM    8  C   UNL     1     -11.961  14.032  68.255  1.00  0.00    -0.384 A  
HETATM    9  C   UNL     1     -12.254  13.110  70.474  1.00  0.00    -0.405 A  
HETATM   10  C   UNL     1     -12.232  14.210  69.607  1.00  0.00    -0.376 A  
ENDROOT
BRANCH   7  11
HETATM   11  N   UNL     1     -11.959  10.694  70.873  1.00  0.00    -0.356 NA 
HETATM   12  C   UNL     1     -10.669   8.927  72.061  1.00  0.00    -0.319 C  
HETATM   13  C   UNL     1     -10.778   9.801  70.789  1.00  0.00    -0.323 C  
HETATM   14  N   UNL     1     -11.878   8.132  72.385  1.00  0.00    -0.375 NA 
HETATM   15  C   UNL     1     -13.018   9.082  72.448  1.00  0.00    -0.405 C  
HETATM   16  C   UNL     1     -13.210   9.978  71.196  1.00  0.00    -0.361 C  
BRANCH  14  17
HETATM   17  C   UNL     1     -12.141   7.066  71.397  1.00  0.00    -0.355 C  
BRANCH  17  18
HETATM   18  C   UNL     1     -11.190   5.861  71.510  1.00  0.00    -0.225 C  
BRANCH  18  19
HETATM   19  N   UNL     1     -10.051   5.994  70.639  1.00  0.00    -0.187 N  
HETATM   20  C   UNL     1      -8.709   6.031  71.066  1.00  0.00    -0.132 C  
HETATM   21  O   UNL     1      -8.289   5.955  72.208  1.00  0.00    -0.117 OA 
HETATM   22  N   UNL     1      -7.929   6.192  69.910  1.00  0.00    -0.112 NA 
HETATM   23  C   UNL     1      -8.772   6.273  68.805  1.00  0.00    -0.121 A  
HETATM   24  C   UNL     1      -8.453   6.437  67.479  1.00  0.00    -0.116 A  
HETATM   25  C   UNL     1      -9.523   6.497  66.578  1.00  0.00    -0.190 A  
HETATM   26  C   UNL     1     -10.858   6.399  67.025  1.00  0.00    -0.464 A  
HETATM   27  C   UNL     1     -11.156   6.231  68.381  1.00  0.00    -0.371 A  
HETATM   28  C   UNL     1     -10.090   6.165  69.251  1.00  0.00    -0.174 A  
ENDBRANCH  18  19
ENDBRANCH  17  18
ENDBRANCH  14  17
ENDBRANCH   7  11
TORSDOF 4
ENDMDL
MODEL       44
REMARK 921   NORMALIZED FREE ENERGY PREDICTED BY IDOCK:   -6.87 KCAL/MOL
REMARK 922        TOTAL FREE ENERGY PREDICTED BY IDOCK:   -9.10 KCAL/MOL
REMARK 923 INTER-LIGAND FREE ENERGY PREDICTED BY IDOCK:   -8.80 KCAL/MOL
REMARK 924 INTRA-LIGAND FREE ENERGY PREDICTED BY IDOCK:   -0.30 KCAL/MOL
REMARK 927      BINDING AFFINITY PREDICTED BY RF-SCORE:    0.00 PKD
ROOT
HETATM    1  F   UNL     1     -11.267  19.410  67.120  1.00  0.00    -0.558 F  
HETATM    2  C   UNL     1     -10.140  20.068  66.728  1.00  0.00    -0.476 C  
HETATM    3  C   UNL     1      -8.975  19.157  66.439  1.00  0.00    -0.356 A  
HETATM    4  F   UNL     1     -10.503  20.815  65.650  1.00  0.00    -0.176 F  
HETATM    5  F   UNL     1      -9.868  20.956  67.725  1.00  0.00    -0.534 F  
HETATM    6  C   UNL     1      -9.106  17.767  66.601  1.00  0.00    -0.280 A  
HETATM    7  C   UNL     1      -8.045  16.869  66.396  1.00  0.00    -0.315 A  
HETATM    8  C   UNL     1      -7.751  19.674  66.012  1.00  0.00    -0.335 A  
HETATM    9  C   UNL     1      -6.834  17.434  65.964  1.00  0.00    -0.220 A  
HETATM   10  C   UNL     1      -6.687  18.814  65.767  1.00  0.00    -0.306 A  
ENDROOT
BRANCH   7  11
HETATM   11  N   UNL     1      -8.240  15.495  66.554  1.00  0.00    -0.210 NA 
HETATM   12  C   UNL     1      -9.424  13.398  65.924  1.00  0.00    -0.023 C  
HETATM   13  C   UNL     1      -9.539  14.929  66.116  1.00  0.00    -0.310 C  
HETATM   14  N   UNL     1      -8.921  12.651  67.102  1.00  0.00    -0.199 NA 
HETATM   15  C   UNL     1      -7.628  13.270  67.488  1.00  0.00    -0.164 C  
HETATM   16  C   UNL     1      -7.666  14.802  67.725  1.00  0.00    -0.157 C  
BRANCH  14  17
HETATM   17  C   UNL     1      -9.868  12.669  68.236  1.00  0.00    -0.227 C  
BRANCH  17  18
HETATM   18  C   UNL     1     -11.242  13.271  67.892  1.00  0.00    -0.272 C  
BRANCH  18  19
HETATM   19  N   UNL     1     -11.848  13.910  69.031  1.00  0.00    -0.338 N  
HETATM   20  C   UNL     1     -11.946  15.304  69.215  1.00  0.00    -0.299 C  
HETATM   21  O   UNL     1     -11.556  16.183  68.465  1.00  0.00    -0.377 OA 
HETATM   22  N   UNL     1     -12.576  15.497  70.454  1.00  0.00    -0.418 NA 
HETATM   23  C   UNL     1     -12.837  14.255  71.026  1.00  0.00    -0.357 A  
HETATM   24  C   UNL     1     -13.431  13.958  72.228  1.00  0.00    -0.623 A  
HETATM   25  C   UNL     1     -13.552  12.603  72.553  1.00  0.00    -0.280 A  
HETATM   26  C   UNL     1     -13.077  11.599  71.681  1.00  0.00    -0.456 A  
HETATM   27  C   UNL     1     -12.477  11.927  70.461  1.00  0.00    -0.301 A  
HETATM   28  C   UNL     1     -12.375  13.266  70.155  1.00  0.00    -0.236 A  
ENDBRANCH  18  19
ENDBRANCH  17  18
ENDBRANCH  14  17
ENDBRANCH   7  11
TORSDOF 4
ENDMDL
MODEL       45
REMARK 921   NORMALIZED FREE ENERGY PREDICTED BY IDOCK:   -6.86 KCAL/MOL
REMARK 922        TOTAL FREE ENERGY PREDICTED BY IDOCK:   -9.08 KCAL/MOL
REMARK 923 INTER-LIGAND FREE ENERGY PREDICTED BY IDOCK:   -8.50 KCAL/MOL
REMARK 924 INTRA-LIGAND FREE ENERGY PREDICTED BY IDOCK:   -0.59 KCAL/MOL
REMARK 927      BINDING AFFINITY PREDICTED BY RF-SCORE:    0.00 PKD
ROOT
HETATM    1  F   UNL     1      -9.358   5.707  66.405  1.00  0.00    -0.137 F  
HETATM    2  C   UNL     1      -8.960   4.473  66.824  1.00  0.00    -0.115 C  
HETATM    3  C   UNL     1      -9.251   4.202  68.277  1.00  0.00    -0.195 A  
HETATM    4  F   UNL     1      -9.570   3.585  65.991  1.00  0.00    -0.170 F  
HETATM    5  F   UNL     1      -7.630   4.400  66.539  1.00  0.00    -0.081 F  
HETATM    6  C   UNL     1      -9.861   5.187  69.073  1.00  0.00    -0.246 A  
HETATM    7  C   UNL     1     -10.113   5.016  70.444  1.00  0.00    -0.260 A  
HETATM    8  C   UNL     1      -8.919   2.977  68.858  1.00  0.00    -0.186 A  
HETATM    9  C   UNL     1      -9.766   3.768  70.984  1.00  0.00    -0.248 A  
HETATM   10  C   UNL     1      -9.184   2.758  70.205  1.00  0.00    -0.205 A  
ENDROOT
BRANCH   7  11
HETATM   11  N   UNL     1     -10.739   6.025  71.180  1.00  0.00    -0.252 NA 
HETATM   12  C   UNL     1     -12.772   7.357  71.719  1.00  0.00    -0.334 C  
HETATM   13  C   UNL     1     -11.972   6.625  70.615  1.00  0.00    -0.343 C  
HETATM   14  N   UNL     1     -12.013   8.383  72.473  1.00  0.00    -0.389 NA 
HETATM   15  C   UNL     1     -10.795   7.719  73.005  1.00  0.00    -0.389 C  
HETATM   16  C   UNL     1      -9.924   6.984  71.953  1.00  0.00    -0.167 C  
BRANCH  14  17
HETATM   17  C   UNL     1     -11.651   9.549  71.643  1.00  0.00    -0.381 C  
BRANCH  17  18
HETATM   18  C   UNL     1     -12.858  10.261  71.006  1.00  0.00    -0.397 C  
BRANCH  18  19
HETATM   19  N   UNL     1     -12.503  11.555  70.485  1.00  0.00    -0.305 N  
HETATM   20  C   UNL     1     -11.773  11.774  69.299  1.00  0.00    -0.335 C  
HETATM   21  O   UNL     1     -11.336  10.936  68.529  1.00  0.00    -0.255 OA 
HETATM   22  N   UNL     1     -11.628  13.165  69.174  1.00  0.00    -0.297 NA 
HETATM   23  C   UNL     1     -12.233  13.781  70.265  1.00  0.00    -0.359 A  
HETATM   24  C   UNL     1     -12.331  15.119  70.565  1.00  0.00    -0.408 A  
HETATM   25  C   UNL     1     -12.992  15.451  71.752  1.00  0.00    -0.509 A  
HETATM   26  C   UNL     1     -13.523  14.450  72.595  1.00  0.00    -0.605 A  
HETATM   27  C   UNL     1     -13.411  13.095  72.268  1.00  0.00    -0.665 A  
HETATM   28  C   UNL     1     -12.765  12.789  71.091  1.00  0.00    -0.263 A  
ENDBRANCH  18  19
ENDBRANCH  17  18
ENDBRANCH  14  17
ENDBRANCH   7  11
TORSDOF 4
ENDMDL
MODEL       46
REMARK 921   NORMALIZED FREE ENERGY PREDICTED BY IDOCK:   -6.85 KCAL/MOL
REMARK 922        TOTAL FREE ENERGY PREDICTED BY IDOCK:   -9.07 KCAL/MOL
REMARK 923 INTER-LIGAND FREE ENERGY PREDICTED BY IDOCK:   -8.49 KCAL/MOL
REMARK 924 INTRA-LIGAND FREE ENERGY PREDICTED BY IDOCK:   -0.59 KCAL/MOL
REMARK 927      BINDING AFFINITY PREDICTED BY RF-SCORE:    0.00 PKD
ROOT
HETATM    1  F   UNL     1      -6.382  18.229  65.059  1.00  0.00    -0.283 F  
HETATM    2  C   UNL     1      -6.871  19.336  65.687  1.00  0.00    -0.283 C  
HETATM    3  C   UNL     1      -8.223  19.128  66.319  1.00  0.00    -0.309 A  
HETATM    4  F   UNL     1      -5.919  19.701  66.589  1.00  0.00    -0.168 F  
HETATM    5  F   UNL     1      -6.887  20.317  64.742  1.00  0.00    -0.319 F  
HETATM    6  C   UNL     1      -8.870  17.884  66.213  1.00  0.00    -0.189 A  
HETATM    7  C   UNL     1     -10.151  17.641  66.737  1.00  0.00    -0.334 A  
HETATM    8  C   UNL     1      -8.855  20.160  67.014  1.00  0.00    -0.439 A  
HETATM    9  C   UNL     1     -10.746  18.706  67.430  1.00  0.00    -0.456 A  
HETATM   10  C   UNL     1     -10.109  19.946  67.575  1.00  0.00    -0.566 A  
ENDROOT
BRANCH   7  11
HETATM   11  N   UNL     1     -10.736  16.378  66.617  1.00  0.00    -0.233 NA 
HETATM   12  C   UNL     1     -12.018  14.491  67.614  1.00  0.00    -0.320 C  
HETATM   13  C   UNL     1     -10.979  15.611  67.863  1.00  0.00    -0.319 C  
HETATM   14  N   UNL     1     -11.690  13.562  66.507  1.00  0.00    -0.352 NA 
HETATM   15  C   UNL     1     -11.456  14.392  65.298  1.00  0.00    -0.350 C  
HETATM   16  C   UNL     1     -10.405  15.523  65.459  1.00  0.00    -0.394 C  
BRANCH  14  17
HETATM   17  C   UNL     1     -10.513  12.720  66.798  1.00  0.00    -0.241 C  
BRANCH  17  18
HETATM   18  C   UNL     1     -10.761  11.212  66.609  1.00  0.00    -0.269 C  
BRANCH  18  19
HETATM   19  N   UNL     1     -10.270  10.445  67.724  1.00  0.00    -0.183 N  
HETATM   20  C   UNL     1      -9.115   9.637  67.701  1.00  0.00    -0.131 C  
HETATM   21  O   UNL     1      -8.352   9.457  66.767  1.00  0.00    -0.121 OA 
HETATM   22  N   UNL     1      -9.014   9.054  68.974  1.00  0.00    -0.138 NA 
HETATM   23  C   UNL     1     -10.089   9.475  69.750  1.00  0.00    -0.216 A  
HETATM   24  C   UNL     1     -10.402   9.157  71.050  1.00  0.00    -0.363 A  
HETATM   25  C   UNL     1     -11.567   9.726  71.574  1.00  0.00    -0.424 A  
HETATM   26  C   UNL     1     -12.377  10.579  70.793  1.00  0.00    -0.474 A  
HETATM   27  C   UNL     1     -12.036  10.890  69.473  1.00  0.00    -0.380 A  
HETATM   28  C   UNL     1     -10.881  10.327  68.977  1.00  0.00    -0.230 A  
ENDBRANCH  18  19
ENDBRANCH  17  18
ENDBRANCH  14  17
ENDBRANCH   7  11
TORSDOF 4
ENDMDL
MODEL       47
REMARK 921   NORMALIZED FREE ENERGY PREDICTED BY IDOCK:   -6.81 KCAL/MOL
REMARK 922        TOTAL FREE ENERGY PREDICTED BY IDOCK:   -9.02 KCAL/MOL
REMARK 923 INTER-LIGAND FREE ENERGY PREDICTED BY IDOCK:   -8.70 KCAL/MOL
REMARK 924 INTRA-LIGAND FREE ENERGY PREDICTED BY IDOCK:   -0.32 KCAL/MOL
REMARK 927      BINDING AFFINITY PREDICTED BY RF-SCORE:    0.00 PKD
ROOT
HETATM    1  F   UNL     1      -5.914  18.712  68.923  1.00  0.00    -0.196 F  
HETATM    2  C   UNL     1      -6.882  19.671  68.917  1.00  0.00    -0.342 C  
HETATM    3  C   UNL     1      -8.186  19.214  68.317  1.00  0.00    -0.369 A  
HETATM    4  F   UNL     1      -7.012  20.075  70.211  1.00  0.00    -0.352 F  
HETATM    5  F   UNL     1      -6.345  20.730  68.248  1.00  0.00    -0.310 F  
HETATM    6  C   UNL     1      -8.313  17.909  67.810  1.00  0.00    -0.241 A  
HETATM    7  C   UNL     1      -9.484  17.438  67.193  1.00  0.00    -0.257 A  
HETATM    8  C   UNL     1      -9.283  20.074  68.249  1.00  0.00    -0.278 A  
HETATM    9  C   UNL     1     -10.562  18.336  67.151  1.00  0.00    -0.392 A  
HETATM   10  C   UNL     1     -10.470  19.632  67.676  1.00  0.00    -0.579 A  
ENDROOT
BRANCH   7  11
HETATM   11  N   UNL     1      -9.558  16.124  66.724  1.00  0.00    -0.231 NA 
HETATM   12  C   UNL     1     -10.493  14.450  65.137  1.00  0.00    -0.415 C  
HETATM   13  C   UNL     1     -10.764  15.735  65.955  1.00  0.00    -0.313 C  
HETATM   14  N   UNL     1     -10.003  13.293  65.924  1.00  0.00    -0.286 NA 
HETATM   15  C   UNL     1      -8.804  13.752  66.670  1.00  0.00    -0.067 C  
HETATM   16  C   UNL     1      -9.003  15.023  67.537  1.00  0.00    -0.183 C  
BRANCH  14  17
HETATM   17  C   UNL     1     -11.023  12.762  66.851  1.00  0.00    -0.260 C  
BRANCH  17  18
HETATM   18  C   UNL     1     -10.445  12.228  68.175  1.00  0.00    -0.217 C  
BRANCH  18  19
HETATM   19  N   UNL     1     -11.379  12.369  69.262  1.00  0.00    -0.264 N  
HETATM   20  C   UNL     1     -11.949  13.587  69.683  1.00  0.00    -0.337 C  
HETATM   21  O   UNL     1     -11.764  14.697  69.213  1.00  0.00    -0.279 OA 
HETATM   22  N   UNL     1     -12.775  13.281  70.776  1.00  0.00    -0.255 NA 
HETATM   23  C   UNL     1     -12.697  11.915  71.032  1.00  0.00    -0.258 A  
HETATM   24  C   UNL     1     -13.325  11.175  72.005  1.00  0.00    -0.384 A  
HETATM   25  C   UNL     1     -13.044   9.805  72.032  1.00  0.00    -0.546 A  
HETATM   26  C   UNL     1     -12.151   9.225  71.105  1.00  0.00    -0.389 A  
HETATM   27  C   UNL     1     -11.525  10.000  70.123  1.00  0.00    -0.344 A  
HETATM   28  C   UNL     1     -11.821  11.345  70.107  1.00  0.00    -0.355 A  
ENDBRANCH  18  19
ENDBRANCH  17  18
ENDBRANCH  14  17
ENDBRANCH   7  11
TORSDOF 4
ENDMDL
MODEL       48
REMARK 921   NORMALIZED FREE ENERGY PREDICTED BY IDOCK:   -6.75 KCAL/MOL
REMARK 922        TOTAL FREE ENERGY PREDICTED BY IDOCK:   -8.96 KCAL/MOL
REMARK 923 INTER-LIGAND FREE ENERGY PREDICTED BY IDOCK:   -8.31 KCAL/MOL
REMARK 924 INTRA-LIGAND FREE ENERGY PREDICTED BY IDOCK:   -0.65 KCAL/MOL
REMARK 927      BINDING AFFINITY PREDICTED BY RF-SCORE:    0.00 PKD
ROOT
HETATM    1  F   UNL     1     -13.098  12.218  64.403  1.00  0.00    -0.531 F  
HETATM    2  C   UNL     1     -12.488  13.390  64.740  1.00  0.00    -0.365 C  
HETATM    3  C   UNL     1     -11.193  13.208  65.487  1.00  0.00    -0.305 A  
HETATM    4  F   UNL     1     -12.331  14.074  63.574  1.00  0.00    -0.518 F  
HETATM    5  F   UNL     1     -13.409  14.089  65.461  1.00  0.00    -0.514 F  
HETATM    6  C   UNL     1     -10.727  11.917  65.792  1.00  0.00    -0.327 A  
HETATM    7  C   UNL     1      -9.555  11.681  66.529  1.00  0.00    -0.209 A  
HETATM    8  C   UNL     1     -10.438  14.310  65.891  1.00  0.00    -0.315 A  
HETATM    9  C   UNL     1      -8.826  12.818  66.911  1.00  0.00    -0.194 A  
HETATM   10  C   UNL     1      -9.254  14.115  66.593  1.00  0.00    -0.272 A  
ENDROOT
BRANCH   7  11
HETATM   11  N   UNL     1      -9.131  10.374  66.786  1.00  0.00    -0.143 NA 
HETATM   12  C   UNL     1      -9.056   7.968  66.154  1.00  0.00    -0.176 C  
HETATM   13  C   UNL     1      -9.895   9.267  66.161  1.00  0.00    -0.293 C  
HETATM   14  N   UNL     1      -8.545   7.541  67.479  1.00  0.00    -0.122 NA 
HETATM   15  C   UNL     1      -7.798   8.691  68.048  1.00  0.00    -0.103 C  
HETATM   16  C   UNL     1      -8.583  10.028  68.113  1.00  0.00    -0.118 C  
BRANCH  14  17
HETATM   17  C   UNL     1      -9.621   7.113  68.395  1.00  0.00    -0.137 C  
BRANCH  17  18
HETATM   18  C   UNL     1      -9.314   7.369  69.882  1.00  0.00    -0.154 C  
BRANCH  18  19
HETATM   19  N   UNL     1     -10.512   7.389  70.680  1.00  0.00    -0.213 N  
HETATM   20  C   UNL     1     -11.094   6.260  71.290  1.00  0.00    -0.289 C  
HETATM   21  O   UNL     1     -10.696   5.108  71.255  1.00  0.00    -0.179 OA 
HETATM   22  N   UNL     1     -12.249   6.714  71.946  1.00  0.00    -0.345 NA 
HETATM   23  C   UNL     1     -12.384   8.082  71.726  1.00  0.00    -0.319 A  
HETATM   24  C   UNL     1     -13.362   8.941  72.166  1.00  0.00    -0.489 A  
HETATM   25  C   UNL     1     -13.246  10.279  71.774  1.00  0.00    -0.534 A  
HETATM   26  C   UNL     1     -12.176  10.710  70.960  1.00  0.00    -0.498 A  
HETATM   27  C   UNL     1     -11.192   9.816  70.526  1.00  0.00    -0.381 A  
HETATM   28  C   UNL     1     -11.318   8.505  70.929  1.00  0.00    -0.268 A  
ENDBRANCH  18  19
ENDBRANCH  17  18
ENDBRANCH  14  17
ENDBRANCH   7  11
TORSDOF 4
ENDMDL
MODEL       49
REMARK 921   NORMALIZED FREE ENERGY PREDICTED BY IDOCK:   -6.72 KCAL/MOL
REMARK 922        TOTAL FREE ENERGY PREDICTED BY IDOCK:   -8.91 KCAL/MOL
REMARK 923 INTER-LIGAND FREE ENERGY PREDICTED BY IDOCK:   -8.22 KCAL/MOL
REMARK 924 INTRA-LIGAND FREE ENERGY PREDICTED BY IDOCK:   -0.69 KCAL/MOL
REMARK 927      BINDING AFFINITY PREDICTED BY RF-SCORE:    0.00 PKD
ROOT
HETATM    1  F   UNL     1     -12.195  16.589  72.054  1.00  0.00    -0.475 F  
HETATM    2  C   UNL     1     -12.701  15.484  72.669  1.00  0.00    -0.411 C  
HETATM    3  C   UNL     1     -12.627  14.235  71.830  1.00  0.00    -0.396 A  
HETATM    4  F   UNL     1     -12.021  15.370  73.843  1.00  0.00    -0.540 F  
HETATM    5  F   UNL     1     -13.981  15.805  73.008  1.00  0.00    -0.609 F  
HETATM    6  C   UNL     1     -12.090  14.285  70.532  1.00  0.00    -0.413 A  
HETATM    7  C   UNL     1     -12.038  13.168  69.681  1.00  0.00    -0.255 A  
HETATM    8  C   UNL     1     -13.089  13.013  72.322  1.00  0.00    -0.445 A  
HETATM    9  C   UNL     1     -12.512  11.961  70.219  1.00  0.00    -0.199 A  
HETATM   10  C   UNL     1     -13.024  11.879  71.521  1.00  0.00    -0.427 A  
ENDROOT
BRANCH   7  11
HETATM   11  N   UNL     1     -11.476  13.274  68.406  1.00  0.00    -0.291 NA 
HETATM   12  C   UNL     1     -11.625  12.918  65.948  1.00  0.00    -0.377 C  
HETATM   13  C   UNL     1     -11.996  12.375  67.348  1.00  0.00    -0.175 C  
HETATM   14  N   UNL     1     -10.180  13.167  65.731  1.00  0.00    -0.286 NA 
HETATM   15  C   UNL     1      -9.726  14.066  66.822  1.00  0.00    -0.278 C  
HETATM   16  C   UNL     1     -10.038  13.577  68.261  1.00  0.00    -0.247 C  
BRANCH  14  17
HETATM   17  C   UNL     1      -9.382  11.924  65.713  1.00  0.00    -0.155 C  
BRANCH  17  18
HETATM   18  C   UNL     1     -10.041  10.771  64.935  1.00  0.00    -0.322 C  
BRANCH  18  19
HETATM   19  N   UNL     1      -9.346   9.526  65.132  1.00  0.00    -0.259 N  
HETATM   20  C   UNL     1      -8.356   9.011  64.272  1.00  0.00    -0.173 C  
HETATM   21  O   UNL     1      -7.924   9.514  63.248  1.00  0.00    -0.129 OA 
HETATM   22  N   UNL     1      -7.961   7.778  64.815  1.00  0.00    -0.138 NA 
HETATM   23  C   UNL     1      -8.705   7.533  65.965  1.00  0.00    -0.158 A  
HETATM   24  C   UNL     1      -8.664   6.453  66.814  1.00  0.00    -0.119 A  
HETATM   25  C   UNL     1      -9.548   6.472  67.898  1.00  0.00    -0.119 A  
HETATM   26  C   UNL     1     -10.439   7.550  68.095  1.00  0.00    -0.233 A  
HETATM   27  C   UNL     1     -10.460   8.638  67.217  1.00  0.00    -0.360 A  
HETATM   28  C   UNL     1      -9.577   8.606  66.160  1.00  0.00    -0.235 A  
ENDBRANCH  18  19
ENDBRANCH  17  18
ENDBRANCH  14  17
ENDBRANCH   7  11
TORSDOF 4
ENDMDL
MODEL       50
REMARK 921   NORMALIZED FREE ENERGY PREDICTED BY IDOCK:   -6.72 KCAL/MOL
REMARK 922        TOTAL FREE ENERGY PREDICTED BY IDOCK:   -8.91 KCAL/MOL
REMARK 923 INTER-LIGAND FREE ENERGY PREDICTED BY IDOCK:   -8.30 KCAL/MOL
REMARK 924 INTRA-LIGAND FREE ENERGY PREDICTED BY IDOCK:   -0.60 KCAL/MOL
REMARK 927      BINDING AFFINITY PREDICTED BY RF-SCORE:    0.00 PKD
ROOT
HETATM    1  F   UNL     1     -12.337  13.699  63.285  1.00  0.00    -0.567 F  
HETATM    2  C   UNL     1     -12.170  12.744  64.243  1.00  0.00    -0.425 C  
HETATM    3  C   UNL     1     -11.585  13.269  65.528  1.00  0.00    -0.351 A  
HETATM    4  F   UNL     1     -13.394  12.174  64.416  1.00  0.00    -0.465 F  
HETATM    5  F   UNL     1     -11.389  11.784  63.672  1.00  0.00    -0.415 F  
HETATM    6  C   UNL     1     -11.248  14.628  65.649  1.00  0.00    -0.342 A  
HETATM    7  C   UNL     1     -10.654  15.170  66.801  1.00  0.00    -0.298 A  
HETATM    8  C   UNL     1     -11.364  12.421  66.614  1.00  0.00    -0.394 A  
HETATM    9  C   UNL     1     -10.454  14.281  67.868  1.00  0.00    -0.240 A  
HETATM   10  C   UNL     1     -10.809  12.927  67.783  1.00  0.00    -0.248 A  
ENDROOT
BRANCH   7  11
HETATM   11  N   UNL     1     -10.358  16.534  66.870  1.00  0.00    -0.299 NA 
HETATM   12  C   UNL     1      -8.919  18.464  66.236  1.00  0.00    -0.191 C  
HETATM   13  C   UNL     1      -8.968  16.953  66.566  1.00  0.00    -0.272 C  
HETATM   14  N   UNL     1      -9.499  19.355  67.269  1.00  0.00    -0.310 NA 
HETATM   15  C   UNL     1     -10.881  18.878  67.528  1.00  0.00    -0.364 C  
HETATM   16  C   UNL     1     -11.011  17.376  67.893  1.00  0.00    -0.155 C  
BRANCH  14  17
HETATM   17  C   UNL     1      -8.710  19.369  68.518  1.00  0.00    -0.367 C  
BRANCH  17  18
HETATM   18  C   UNL     1      -7.187  19.399  68.294  1.00  0.00    -0.296 C  
BRANCH  18  19
HETATM   19  N   UNL     1      -6.474  18.778  69.380  1.00  0.00    -0.275 N  
HETATM   20  C   UNL     1      -5.825  19.473  70.420  1.00  0.00    -0.248 C  
HETATM   21  O   UNL     1      -5.762  20.680  70.582  1.00  0.00    -0.507 OA 
HETATM   22  N   UNL     1      -5.241  18.498  71.244  1.00  0.00    -0.384 NA 
HETATM   23  C   UNL     1      -5.505  17.240  70.711  1.00  0.00    -0.122 A  
HETATM   24  C   UNL     1      -5.128  16.002  71.174  1.00  0.00    -0.142 A  
HETATM   25  C   UNL     1      -5.531  14.898  70.416  1.00  0.00    -0.132 A  
HETATM   26  C   UNL     1      -6.283  15.061  69.232  1.00  0.00    -0.111 A  
HETATM   27  C   UNL     1      -6.656  16.331  68.782  1.00  0.00    -0.136 A  
HETATM   28  C   UNL     1      -6.257  17.406  69.546  1.00  0.00    -0.249 A  
ENDBRANCH  18  19
ENDBRANCH  17  18
ENDBRANCH  14  17
ENDBRANCH   7  11
TORSDOF 4
ENDMDL
MODEL       51
REMARK 921   NORMALIZED FREE ENERGY PREDICTED BY IDOCK:   -6.67 KCAL/MOL
REMARK 922        TOTAL FREE ENERGY PREDICTED BY IDOCK:   -8.85 KCAL/MOL
REMARK 923 INTER-LIGAND FREE ENERGY PREDICTED BY IDOCK:   -8.05 KCAL/MOL
REMARK 924 INTRA-LIGAND FREE ENERGY PREDICTED BY IDOCK:   -0.80 KCAL/MOL
REMARK 927      BINDING AFFINITY PREDICTED BY RF-SCORE:    0.00 PKD
ROOT
HETATM    1  F   UNL     1     -10.672  13.454  68.323  1.00  0.00    -0.229 F  
HETATM    2  C   UNL     1     -11.343  14.395  69.044  1.00  0.00    -0.269 C  
HETATM    3  C   UNL     1     -12.127  13.829  70.200  1.00  0.00    -0.429 A  
HETATM    4  F   UNL     1     -10.405  15.300  69.438  1.00  0.00    -0.206 F  
HETATM    5  F   UNL     1     -12.138  15.046  68.149  1.00  0.00    -0.327 F  
HETATM    6  C   UNL     1     -12.134  12.444  70.439  1.00  0.00    -0.381 A  
HETATM    7  C   UNL     1     -12.883  11.848  71.468  1.00  0.00    -0.316 A  
HETATM    8  C   UNL     1     -12.858  14.663  71.047  1.00  0.00    -0.414 A  
HETATM    9  C   UNL     1     -13.599  12.727  72.296  1.00  0.00    -0.563 A  
HETATM   10  C   UNL     1     -13.585  14.114  72.096  1.00  0.00    -0.568 A  
ENDROOT
BRANCH   7  11
HETATM   11  N   UNL     1     -12.836  10.467  71.670  1.00  0.00    -0.440 NA 
HETATM   12  C   UNL     1     -11.578   8.427  72.342  1.00  0.00    -0.380 C  
HETATM   13  C   UNL     1     -11.504   9.815  71.664  1.00  0.00    -0.224 C  
HETATM   14  N   UNL     1     -12.593   7.503  71.780  1.00  0.00    -0.328 NA 
HETATM   15  C   UNL     1     -13.894   8.217  71.812  1.00  0.00    -0.396 C  
HETATM   16  C   UNL     1     -13.908   9.609  71.126  1.00  0.00    -0.007 C  
BRANCH  14  17
HETATM   17  C   UNL     1     -12.269   7.069  70.406  1.00  0.00    -0.087 C  
BRANCH  17  18
HETATM   18  C   UNL     1     -10.767   6.834  70.163  1.00  0.00    -0.233 C  
BRANCH  18  19
HETATM   19  N   UNL     1     -10.413   7.021  68.780  1.00  0.00    -0.200 N  
HETATM   20  C   UNL     1     -10.053   5.986  67.893  1.00  0.00    -0.155 C  
HETATM   21  O   UNL     1      -9.985   4.792  68.131  1.00  0.00    -0.145 OA 
HETATM   22  N   UNL     1      -9.764   6.600  66.664  1.00  0.00    -0.171 NA 
HETATM   23  C   UNL     1      -9.923   7.976  66.799  1.00  0.00    -0.274 A  
HETATM   24  C   UNL     1      -9.743   8.968  65.865  1.00  0.00    -0.306 A  
HETATM   25  C   UNL     1      -9.965  10.282  66.293  1.00  0.00    -0.295 A  
HETATM   26  C   UNL     1     -10.347  10.561  67.623  1.00  0.00    -0.257 A  
HETATM   27  C   UNL     1     -10.525   9.533  68.554  1.00  0.00    -0.247 A  
HETATM   28  C   UNL     1     -10.311   8.246  68.113  1.00  0.00    -0.202 A  
ENDBRANCH  18  19
ENDBRANCH  17  18
ENDBRANCH  14  17
ENDBRANCH   7  11
TORSDOF 4
ENDMDL
MODEL       52
REMARK 921   NORMALIZED FREE ENERGY PREDICTED BY IDOCK:   -6.66 KCAL/MOL
REMARK 922        TOTAL FREE ENERGY PREDICTED BY IDOCK:   -8.84 KCAL/MOL
REMARK 923 INTER-LIGAND FREE ENERGY PREDICTED BY IDOCK:   -8.19 KCAL/MOL
REMARK 924 INTRA-LIGAND FREE ENERGY PREDICTED BY IDOCK:   -0.66 KCAL/MOL
REMARK 927      BINDING AFFINITY PREDICTED BY RF-SCORE:    0.00 PKD
ROOT
HETATM    1  F   UNL     1     -12.549  12.342  65.255  1.00  0.00    -0.511 F  
HETATM    2  C   UNL     1     -11.862  12.266  64.080  1.00  0.00    -0.444 C  
HETATM    3  C   UNL     1     -10.729  11.274  64.103  1.00  0.00    -0.436 A  
HETATM    4  F   UNL     1     -12.790  11.982  63.126  1.00  0.00    -0.661 F  
HETATM    5  F   UNL     1     -11.435  13.534  63.821  1.00  0.00    -0.392 F  
HETATM    6  C   UNL     1     -10.451  10.543  65.271  1.00  0.00    -0.232 A  
HETATM    7  C   UNL     1      -9.379   9.640  65.373  1.00  0.00    -0.259 A  
HETATM    8  C   UNL     1      -9.937  11.065  62.973  1.00  0.00    -0.333 A  
HETATM    9  C   UNL     1      -8.613   9.460  64.211  1.00  0.00    -0.216 A  
HETATM   10  C   UNL     1      -8.887  10.155  63.025  1.00  0.00    -0.231 A  
ENDROOT
BRANCH   7  11
HETATM   11  N   UNL     1      -9.163   8.928  66.555  1.00  0.00    -0.169 NA 
HETATM   12  C   UNL     1     -10.043   7.569  68.446  1.00  0.00    -0.180 C  
HETATM   13  C   UNL     1     -10.321   8.729  67.460  1.00  0.00    -0.268 C  
HETATM   14  N   UNL     1      -8.800   7.703  69.242  1.00  0.00    -0.136 NA 
HETATM   15  C   UNL     1      -7.688   7.904  68.280  1.00  0.00    -0.121 C  
HETATM   16  C   UNL     1      -7.880   9.068  67.272  1.00  0.00    -0.099 C  
BRANCH  14  17
HETATM   17  C   UNL     1      -8.860   8.817  70.211  1.00  0.00    -0.160 C  
BRANCH  17  18
HETATM   18  C   UNL     1      -9.122   8.370  71.660  1.00  0.00    -0.205 C  
BRANCH  18  19
HETATM   19  N   UNL     1     -10.363   7.650  71.783  1.00  0.00    -0.195 N  
HETATM   20  C   UNL     1     -10.472   6.259  71.979  1.00  0.00    -0.207 C  
HETATM   21  O   UNL     1      -9.567   5.449  72.082  1.00  0.00    -0.152 OA 
HETATM   22  N   UNL     1     -11.845   5.971  72.019  1.00  0.00    -0.275 NA 
HETATM   23  C   UNL     1     -12.560   7.150  71.831  1.00  0.00    -0.293 A  
HETATM   24  C   UNL     1     -13.919   7.347  71.789  1.00  0.00    -0.469 A  
HETATM   25  C   UNL     1     -14.358   8.657  71.569  1.00  0.00    -0.402 A  
HETATM   26  C   UNL     1     -13.440   9.714  71.394  1.00  0.00    -0.403 A  
HETATM   27  C   UNL     1     -12.060   9.489  71.443  1.00  0.00    -0.459 A  
HETATM   28  C   UNL     1     -11.647   8.194  71.669  1.00  0.00    -0.279 A  
ENDBRANCH  18  19
ENDBRANCH  17  18
ENDBRANCH  14  17
ENDBRANCH   7  11
TORSDOF 4
ENDMDL
MODEL       53
REMARK 921   NORMALIZED FREE ENERGY PREDICTED BY IDOCK:   -6.64 KCAL/MOL
REMARK 922        TOTAL FREE ENERGY PREDICTED BY IDOCK:   -8.82 KCAL/MOL
REMARK 923 INTER-LIGAND FREE ENERGY PREDICTED BY IDOCK:   -8.11 KCAL/MOL
REMARK 924 INTRA-LIGAND FREE ENERGY PREDICTED BY IDOCK:   -0.71 KCAL/MOL
REMARK 927      BINDING AFFINITY PREDICTED BY RF-SCORE:    0.00 PKD
ROOT
HETATM    1  F   UNL     1     -13.930  13.187  72.641  1.00  0.00    -0.627 F  
HETATM    2  C   UNL     1     -13.369  14.428  72.685  1.00  0.00    -0.507 C  
HETATM    3  C   UNL     1     -12.504  14.746  71.493  1.00  0.00    -0.403 A  
HETATM    4  F   UNL     1     -14.406  15.298  72.829  1.00  0.00    -0.505 F  
HETATM    5  F   UNL     1     -12.675  14.476  73.857  1.00  0.00    -0.565 F  
HETATM    6  C   UNL     1     -12.321  13.792  70.477  1.00  0.00    -0.429 A  
HETATM    7  C   UNL     1     -11.489  14.008  69.365  1.00  0.00    -0.290 A  
HETATM    8  C   UNL     1     -11.869  15.983  71.378  1.00  0.00    -0.531 A  
HETATM    9  C   UNL     1     -10.874  15.267  69.291  1.00  0.00    -0.257 A  
HETATM   10  C   UNL     1     -11.064  16.246  70.276  1.00  0.00    -0.340 A  
ENDROOT
BRANCH   7  11
HETATM   11  N   UNL     1     -11.361  13.029  68.376  1.00  0.00    -0.270 NA 
HETATM   12  C   UNL     1     -11.157  10.635  67.724  1.00  0.00    -0.321 C  
HETATM   13  C   UNL     1     -10.807  11.713  68.778  1.00  0.00    -0.220 C  
HETATM   14  N   UNL     1     -10.744  10.953  66.336  1.00  0.00    -0.229 NA 
HETATM   15  C   UNL     1     -11.326  12.278  66.003  1.00  0.00    -0.350 C  
HETATM   16  C   UNL     1     -10.997  13.420  67.000  1.00  0.00    -0.287 C  
BRANCH  14  17
HETATM   17  C   UNL     1      -9.277  10.969  66.167  1.00  0.00    -0.190 C  
BRANCH  17  18
HETATM   18  C   UNL     1      -8.693   9.639  65.659  1.00  0.00    -0.141 C  
BRANCH  18  19
HETATM   19  N   UNL     1      -8.367   8.748  66.742  1.00  0.00    -0.107 N  
HETATM   20  C   UNL     1      -7.175   8.793  67.493  1.00  0.00    -0.080 C  
HETATM   21  O   UNL     1      -6.245   9.571  67.366  1.00  0.00    -0.059 OA 
HETATM   22  N   UNL     1      -7.253   7.745  68.423  1.00  0.00    -0.090 NA 
HETATM   23  C   UNL     1      -8.450   7.061  68.233  1.00  0.00    -0.123 A  
HETATM   24  C   UNL     1      -8.944   5.970  68.906  1.00  0.00    -0.123 A  
HETATM   25  C   UNL     1     -10.186   5.481  68.484  1.00  0.00    -0.250 A  
HETATM   26  C   UNL     1     -10.883   6.085  67.416  1.00  0.00    -0.394 A  
HETATM   27  C   UNL     1     -10.359   7.197  66.748  1.00  0.00    -0.297 A  
HETATM   28  C   UNL     1      -9.140   7.669  67.183  1.00  0.00    -0.127 A  
ENDBRANCH  18  19
ENDBRANCH  17  18
ENDBRANCH  14  17
ENDBRANCH   7  11
TORSDOF 4
ENDMDL
MODEL       54
REMARK 921   NORMALIZED FREE ENERGY PREDICTED BY IDOCK:   -6.64 KCAL/MOL
REMARK 922        TOTAL FREE ENERGY PREDICTED BY IDOCK:   -8.81 KCAL/MOL
REMARK 923 INTER-LIGAND FREE ENERGY PREDICTED BY IDOCK:   -8.52 KCAL/MOL
REMARK 924 INTRA-LIGAND FREE ENERGY PREDICTED BY IDOCK:   -0.30 KCAL/MOL
REMARK 927      BINDING AFFINITY PREDICTED BY RF-SCORE:    0.00 PKD
ROOT
HETATM    1  F   UNL     1      -6.285  18.092  69.230  1.00  0.00    -0.213 F  
HETATM    2  C   UNL     1      -7.100  19.101  68.812  1.00  0.00    -0.331 C  
HETATM    3  C   UNL     1      -8.397  18.625  68.212  1.00  0.00    -0.350 A  
HETATM    4  F   UNL     1      -7.285  19.902  69.897  1.00  0.00    -0.354 F  
HETATM    5  F   UNL     1      -6.359  19.831  67.931  1.00  0.00    -0.226 F  
HETATM    6  C   UNL     1      -8.665  17.249  68.107  1.00  0.00    -0.243 A  
HETATM    7  C   UNL     1      -9.832  16.739  67.514  1.00  0.00    -0.255 A  
HETATM    8  C   UNL     1      -9.350  19.534  67.749  1.00  0.00    -0.405 A  
HETATM    9  C   UNL     1     -10.762  17.690  67.066  1.00  0.00    -0.176 A  
HETATM   10  C   UNL     1     -10.531  19.068  67.186  1.00  0.00    -0.522 A  
ENDROOT
BRANCH   7  11
HETATM   11  N   UNL     1     -10.053  15.361  67.455  1.00  0.00    -0.232 NA 
HETATM   12  C   UNL     1     -11.150  13.396  66.391  1.00  0.00    -0.299 C  
HETATM   13  C   UNL     1     -11.283  14.889  66.773  1.00  0.00    -0.338 C  
HETATM   14  N   UNL     1     -10.815  12.485  67.512  1.00  0.00    -0.227 NA 
HETATM   15  C   UNL     1      -9.583  13.016  68.150  1.00  0.00    -0.227 C  
HETATM   16  C   UNL     1      -9.647  14.503  68.587  1.00  0.00    -0.219 C  
BRANCH  14  17
HETATM   17  C   UNL     1     -11.907  12.371  68.500  1.00  0.00    -0.304 C  
BRANCH  17  18
HETATM   18  C   UNL     1     -11.423  12.304  69.960  1.00  0.00    -0.053 C  
BRANCH  18  19
HETATM   19  N   UNL     1     -12.026  11.208  70.674  1.00  0.00    -0.362 N  
HETATM   20  C   UNL     1     -13.013  11.342  71.671  1.00  0.00    -0.432 C  
HETATM   21  O   UNL     1     -13.517  12.371  72.085  1.00  0.00    -0.525 OA 
HETATM   22  N   UNL     1     -13.302  10.043  72.118  1.00  0.00    -0.431 NA 
HETATM   23  C   UNL     1     -12.499   9.139  71.429  1.00  0.00    -0.328 A  
HETATM   24  C   UNL     1     -12.435   7.771  71.542  1.00  0.00    -0.348 A  
HETATM   25  C   UNL     1     -11.511   7.115  70.720  1.00  0.00    -0.342 A  
HETATM   26  C   UNL     1     -10.687   7.836  69.829  1.00  0.00    -0.236 A  
HETATM   27  C   UNL     1     -10.772   9.229  69.732  1.00  0.00    -0.245 A  
HETATM   28  C   UNL     1     -11.693   9.856  70.542  1.00  0.00    -0.295 A  
ENDBRANCH  18  19
ENDBRANCH  17  18
ENDBRANCH  14  17
ENDBRANCH   7  11
TORSDOF 4
ENDMDL
MODEL       55
REMARK 921   NORMALIZED FREE ENERGY PREDICTED BY IDOCK:   -6.64 KCAL/MOL
REMARK 922        TOTAL FREE ENERGY PREDICTED BY IDOCK:   -8.81 KCAL/MOL
REMARK 923 INTER-LIGAND FREE ENERGY PREDICTED BY IDOCK:   -8.07 KCAL/MOL
REMARK 924 INTRA-LIGAND FREE ENERGY PREDICTED BY IDOCK:   -0.73 KCAL/MOL
REMARK 927      BINDING AFFINITY PREDICTED BY RF-SCORE:    0.00 PKD
ROOT
HETATM    1  F   UNL     1     -13.248  14.560  73.461  1.00  0.00    -0.564 F  
HETATM    2  C   UNL     1     -12.972  15.173  72.275  1.00  0.00    -0.354 C  
HETATM    3  C   UNL     1     -12.598  14.218  71.171  1.00  0.00    -0.432 A  
HETATM    4  F   UNL     1     -14.073  15.916  71.977  1.00  0.00    -0.511 F  
HETATM    5  F   UNL     1     -11.980  16.067  72.545  1.00  0.00    -0.454 F  
HETATM    6  C   UNL     1     -12.540  12.836  71.421  1.00  0.00    -0.308 A  
HETATM    7  C   UNL     1     -12.150  11.899  70.449  1.00  0.00    -0.333 A  
HETATM    8  C   UNL     1     -12.301  14.685  69.890  1.00  0.00    -0.341 A  
HETATM    9  C   UNL     1     -11.864  12.414  69.175  1.00  0.00    -0.352 A  
HETATM   10  C   UNL     1     -11.944  13.785  68.894  1.00  0.00    -0.394 A  
ENDROOT
BRANCH   7  11
HETATM   11  N   UNL     1     -12.128  10.535  70.750  1.00  0.00    -0.337 NA 
HETATM   12  C   UNL     1     -13.191   8.538  71.788  1.00  0.00    -0.364 C  
HETATM   13  C   UNL     1     -12.965  10.066  71.881  1.00  0.00    -0.447 C  
HETATM   14  N   UNL     1     -11.956   7.722  71.705  1.00  0.00    -0.286 NA 
HETATM   15  C   UNL     1     -11.167   8.245  70.562  1.00  0.00    -0.239 C  
HETATM   16  C   UNL     1     -10.875   9.769  70.595  1.00  0.00    -0.329 C  
BRANCH  14  17
HETATM   17  C   UNL     1     -11.162   7.760  72.949  1.00  0.00    -0.376 C  
BRANCH  17  18
HETATM   18  C   UNL     1     -10.653   6.382  73.408  1.00  0.00    -0.276 C  
BRANCH  18  19
HETATM   19  N   UNL     1      -9.380   6.058  72.818  1.00  0.00    -0.145 N  
HETATM   20  C   UNL     1      -8.130   6.477  73.317  1.00  0.00    -0.109 C  
HETATM   21  O   UNL     1      -7.914   7.158  74.305  1.00  0.00    -0.117 OA 
HETATM   22  N   UNL     1      -7.161   5.966  72.440  1.00  0.00    -0.088 NA 
HETATM   23  C   UNL     1      -7.800   5.271  71.417  1.00  0.00    -0.108 A  
HETATM   24  C   UNL     1      -7.257   4.614  70.340  1.00  0.00    -0.049 A  
HETATM   25  C   UNL     1      -8.155   4.007  69.455  1.00  0.00    -0.061 A  
HETATM   26  C   UNL     1      -9.549   4.079  69.667  1.00  0.00    -0.270 A  
HETATM   27  C   UNL     1     -10.077   4.752  70.773  1.00  0.00    -0.286 A  
HETATM   28  C   UNL     1      -9.178   5.336  71.637  1.00  0.00    -0.146 A  
ENDBRANCH  18  19
ENDBRANCH  17  18
ENDBRANCH  14  17
ENDBRANCH   7  11
TORSDOF 4
ENDMDL
MODEL       56
REMARK 921   NORMALIZED FREE ENERGY PREDICTED BY IDOCK:   -6.63 KCAL/MOL
REMARK 922        TOTAL FREE ENERGY PREDICTED BY IDOCK:   -8.81 KCAL/MOL
REMARK 923 INTER-LIGAND FREE ENERGY PREDICTED BY IDOCK:   -8.24 KCAL/MOL
REMARK 924 INTRA-LIGAND FREE ENERGY PREDICTED BY IDOCK:   -0.57 KCAL/MOL
REMARK 927      BINDING AFFINITY PREDICTED BY RF-SCORE:    0.00 PKD
ROOT
HETATM    1  F   UNL     1      -9.610   4.384  69.213  1.00  0.00    -0.194 F  
HETATM    2  C   UNL     1      -9.378   3.995  70.499  1.00  0.00    -0.150 C  
HETATM    3  C   UNL     1      -9.927   4.947  71.529  1.00  0.00    -0.260 A  
HETATM    4  F   UNL     1      -9.903   2.744  70.607  1.00  0.00    -0.227 F  
HETATM    5  F   UNL     1      -8.028   3.844  70.599  1.00  0.00    -0.052 F  
HETATM    6  C   UNL     1     -10.588   6.121  71.127  1.00  0.00    -0.300 A  
HETATM    7  C   UNL     1     -11.077   7.074  72.036  1.00  0.00    -0.243 A  
HETATM    8  C   UNL     1      -9.787   4.686  72.893  1.00  0.00    -0.180 A  
HETATM    9  C   UNL     1     -10.917   6.767  73.397  1.00  0.00    -0.199 A  
HETATM   10  C   UNL     1     -10.288   5.589  73.823  1.00  0.00    -0.271 A  
ENDROOT
BRANCH   7  11
HETATM   11  N   UNL     1     -11.743   8.213  71.578  1.00  0.00    -0.275 NA 
HETATM   12  C   UNL     1     -11.778  10.277  70.186  1.00  0.00    -0.284 C  
HETATM   13  C   UNL     1     -10.917   9.328  71.054  1.00  0.00    -0.320 C  
HETATM   14  N   UNL     1     -12.988  10.816  70.852  1.00  0.00    -0.336 NA 
HETATM   15  C   UNL     1     -13.762   9.654  71.355  1.00  0.00    -0.204 C  
HETATM   16  C   UNL     1     -12.974   8.667  72.257  1.00  0.00    -0.381 C  
BRANCH  14  17
HETATM   17  C   UNL     1     -12.666  11.745  71.955  1.00  0.00    -0.110 C  
BRANCH  17  18
HETATM   18  C   UNL     1     -13.521  13.025  71.963  1.00  0.00    -0.492 C  
BRANCH  18  19
HETATM   19  N   UNL     1     -12.724  14.203  71.738  1.00  0.00    -0.336 N  
HETATM   20  C   UNL     1     -12.466  15.198  72.702  1.00  0.00    -0.376 C  
HETATM   21  O   UNL     1     -12.853  15.232  73.857  1.00  0.00    -0.516 OA 
HETATM   22  N   UNL     1     -11.677  16.170  72.067  1.00  0.00    -0.500 NA 
HETATM   23  C   UNL     1     -11.475  15.792  70.742  1.00  0.00    -0.393 A  
HETATM   24  C   UNL     1     -10.775  16.437  69.751  1.00  0.00    -0.324 A  
HETATM   25  C   UNL     1     -10.753  15.821  68.495  1.00  0.00    -0.274 A  
HETATM   26  C   UNL     1     -11.426  14.601  68.269  1.00  0.00    -0.337 A  
HETATM   27  C   UNL     1     -12.131  13.963  69.295  1.00  0.00    -0.383 A  
HETATM   28  C   UNL     1     -12.134  14.580  70.527  1.00  0.00    -0.325 A  
ENDBRANCH  18  19
ENDBRANCH  17  18
ENDBRANCH  14  17
ENDBRANCH   7  11
TORSDOF 4
ENDMDL
MODEL       57
REMARK 921   NORMALIZED FREE ENERGY PREDICTED BY IDOCK:   -6.61 KCAL/MOL
REMARK 922        TOTAL FREE ENERGY PREDICTED BY IDOCK:   -8.78 KCAL/MOL
REMARK 923 INTER-LIGAND FREE ENERGY PREDICTED BY IDOCK:   -7.99 KCAL/MOL
REMARK 924 INTRA-LIGAND FREE ENERGY PREDICTED BY IDOCK:   -0.79 KCAL/MOL
REMARK 927      BINDING AFFINITY PREDICTED BY RF-SCORE:    0.00 PKD
ROOT
HETATM    1  F   UNL     1      -9.009  16.169  67.916  1.00  0.00    -0.179 F  
HETATM    2  C   UNL     1      -9.927  16.472  66.956  1.00  0.00    -0.268 C  
HETATM    3  C   UNL     1     -10.396  15.278  66.165  1.00  0.00    -0.314 A  
HETATM    4  F   UNL     1     -10.943  17.107  67.602  1.00  0.00    -0.343 F  
HETATM    5  F   UNL     1      -9.337  17.416  66.169  1.00  0.00    -0.266 F  
HETATM    6  C   UNL     1      -9.874  14.001  66.435  1.00  0.00    -0.306 A  
HETATM    7  C   UNL     1     -10.232  12.857  65.702  1.00  0.00    -0.285 A  
HETATM    8  C   UNL     1     -11.347  15.418  65.154  1.00  0.00    -0.281 A  
HETATM    9  C   UNL     1     -11.194  13.045  64.698  1.00  0.00    -0.355 A  
HETATM   10  C   UNL     1     -11.751  14.303  64.429  1.00  0.00    -0.405 A  
ENDROOT
BRANCH   7  11
HETATM   11  N   UNL     1      -9.694  11.610  66.029  1.00  0.00    -0.226 NA 
HETATM   12  C   UNL     1      -9.357   9.201  65.500  1.00  0.00    -0.221 C  
HETATM   13  C   UNL     1     -10.319  10.410  65.421  1.00  0.00    -0.200 C  
HETATM   14  N   UNL     1      -8.863   8.877  66.860  1.00  0.00    -0.125 NA 
HETATM   15  C   UNL     1      -8.258  10.116  67.409  1.00  0.00    -0.114 C  
HETATM   16  C   UNL     1      -9.171  11.370  67.389  1.00  0.00    -0.164 C  
BRANCH  14  17
HETATM   17  C   UNL     1      -9.931   8.378  67.750  1.00  0.00    -0.186 C  
BRANCH  17  18
HETATM   18  C   UNL     1      -9.514   8.279  69.229  1.00  0.00    -0.155 C  
BRANCH  18  19
HETATM   19  N   UNL     1     -10.652   8.105  70.095  1.00  0.00    -0.233 N  
HETATM   20  C   UNL     1     -11.145   6.861  70.538  1.00  0.00    -0.288 C  
HETATM   21  O   UNL     1     -10.707   5.753  70.281  1.00  0.00    -0.276 OA 
HETATM   22  N   UNL     1     -12.266   7.141  71.335  1.00  0.00    -0.342 NA 
HETATM   23  C   UNL     1     -12.468   8.518  71.362  1.00  0.00    -0.297 A  
HETATM   24  C   UNL     1     -13.443   9.241  72.006  1.00  0.00    -0.519 A  
HETATM   25  C   UNL     1     -13.406  10.630  71.842  1.00  0.00    -0.454 A  
HETATM   26  C   UNL     1     -12.415  11.245  71.047  1.00  0.00    -0.503 A  
HETATM   27  C   UNL     1     -11.432  10.486  70.403  1.00  0.00    -0.427 A  
HETATM   28  C   UNL     1     -11.479   9.121  70.583  1.00  0.00    -0.262 A  
ENDBRANCH  18  19
ENDBRANCH  17  18
ENDBRANCH  14  17
ENDBRANCH   7  11
TORSDOF 4
ENDMDL
MODEL       58
REMARK 921   NORMALIZED FREE ENERGY PREDICTED BY IDOCK:   -6.60 KCAL/MOL
REMARK 922        TOTAL FREE ENERGY PREDICTED BY IDOCK:   -8.77 KCAL/MOL
REMARK 923 INTER-LIGAND FREE ENERGY PREDICTED BY IDOCK:   -8.29 KCAL/MOL
REMARK 924 INTRA-LIGAND FREE ENERGY PREDICTED BY IDOCK:   -0.48 KCAL/MOL
REMARK 927      BINDING AFFINITY PREDICTED BY RF-SCORE:    0.00 PKD
ROOT
HETATM    1  F   UNL     1     -11.459  11.372  62.968  1.00  0.00    -0.344 F  
HETATM    2  C   UNL     1     -12.202  12.323  63.603  1.00  0.00    -0.567 C  
HETATM    3  C   UNL     1     -11.819  12.529  65.045  1.00  0.00    -0.445 A  
HETATM    4  F   UNL     1     -12.071  13.454  62.857  1.00  0.00    -0.556 F  
HETATM    5  F   UNL     1     -13.499  11.930  63.462  1.00  0.00    -0.432 F  
HETATM    6  C   UNL     1     -10.793  11.760  65.622  1.00  0.00    -0.342 A  
HETATM    7  C   UNL     1     -10.423  11.868  66.973  1.00  0.00    -0.224 A  
HETATM    8  C   UNL     1     -12.474  13.478  65.831  1.00  0.00    -0.484 A  
HETATM    9  C   UNL     1     -11.106  12.838  67.724  1.00  0.00    -0.289 A  
HETATM   10  C   UNL     1     -12.113  13.637  67.164  1.00  0.00    -0.404 A  
ENDROOT
BRANCH   7  11
HETATM   11  N   UNL     1      -9.382  11.091  67.486  1.00  0.00    -0.158 NA 
HETATM   12  C   UNL     1      -8.156   8.927  67.592  1.00  0.00    -0.106 C  
HETATM   13  C   UNL     1      -9.531   9.616  67.429  1.00  0.00    -0.142 C  
HETATM   14  N   UNL     1      -7.399   9.309  68.808  1.00  0.00    -0.074 NA 
HETATM   15  C   UNL     1      -7.291  10.790  68.805  1.00  0.00    -0.104 C  
HETATM   16  C   UNL     1      -8.634  11.556  68.671  1.00  0.00    -0.109 C  
BRANCH  14  17
HETATM   17  C   UNL     1      -8.041   8.835  70.051  1.00  0.00    -0.111 C  
BRANCH  17  18
HETATM   18  C   UNL     1      -9.077   7.719  69.832  1.00  0.00    -0.147 C  
BRANCH  18  19
HETATM   19  N   UNL     1     -10.104   7.735  70.843  1.00  0.00    -0.187 N  
HETATM   20  C   UNL     1     -10.322   6.711  71.786  1.00  0.00    -0.196 C  
HETATM   21  O   UNL     1      -9.699   5.671  71.913  1.00  0.00    -0.158 OA 
HETATM   22  N   UNL     1     -11.423   7.113  72.559  1.00  0.00    -0.275 NA 
HETATM   23  C   UNL     1     -11.881   8.340  72.088  1.00  0.00    -0.369 A  
HETATM   24  C   UNL     1     -12.933   9.104  72.532  1.00  0.00    -0.416 A  
HETATM   25  C   UNL     1     -13.172  10.302  71.850  1.00  0.00    -0.550 A  
HETATM   26  C   UNL     1     -12.368  10.691  70.756  1.00  0.00    -0.472 A  
HETATM   27  C   UNL     1     -11.301   9.896  70.324  1.00  0.00    -0.357 A  
HETATM   28  C   UNL     1     -11.077   8.725  71.014  1.00  0.00    -0.270 A  
ENDBRANCH  18  19
ENDBRANCH  17  18
ENDBRANCH  14  17
ENDBRANCH   7  11
TORSDOF 4
ENDMDL
MODEL       59
REMARK 921   NORMALIZED FREE ENERGY PREDICTED BY IDOCK:   -6.60 KCAL/MOL
REMARK 922        TOTAL FREE ENERGY PREDICTED BY IDOCK:   -8.76 KCAL/MOL
REMARK 923 INTER-LIGAND FREE ENERGY PREDICTED BY IDOCK:   -8.19 KCAL/MOL
REMARK 924 INTRA-LIGAND FREE ENERGY PREDICTED BY IDOCK:   -0.57 KCAL/MOL
REMARK 927      BINDING AFFINITY PREDICTED BY RF-SCORE:    0.00 PKD
ROOT
HETATM    1  F   UNL     1      -6.722  17.814  69.476  1.00  0.00    -0.251 F  
HETATM    2  C   UNL     1      -7.026  19.008  68.894  1.00  0.00    -0.323 C  
HETATM    3  C   UNL     1      -8.277  18.974  68.055  1.00  0.00    -0.334 A  
HETATM    4  F   UNL     1      -7.100  19.909  69.912  1.00  0.00    -0.374 F  
HETATM    5  F   UNL     1      -5.925  19.354  68.168  1.00  0.00    -0.207 F  
HETATM    6  C   UNL     1      -9.002  17.778  67.915  1.00  0.00    -0.255 A  
HETATM    7  C   UNL     1     -10.147  17.667  67.109  1.00  0.00    -0.328 A  
HETATM    8  C   UNL     1      -8.734  20.120  67.403  1.00  0.00    -0.425 A  
HETATM    9  C   UNL     1     -10.571  18.846  66.475  1.00  0.00    -0.462 A  
HETATM   10  C   UNL     1      -9.882  20.058  66.623  1.00  0.00    -0.577 A  
ENDROOT
BRANCH   7  11
HETATM   11  N   UNL     1     -10.838  16.456  67.023  1.00  0.00    -0.214 NA 
HETATM   12  C   UNL     1     -11.943  14.520  68.130  1.00  0.00    -0.261 C  
HETATM   13  C   UNL     1     -10.793  15.553  68.198  1.00  0.00    -0.296 C  
HETATM   14  N   UNL     1     -12.000  13.720  66.883  1.00  0.00    -0.411 NA 
HETATM   15  C   UNL     1     -12.038  14.682  65.752  1.00  0.00    -0.197 C  
HETATM   16  C   UNL     1     -10.899  15.736  65.735  1.00  0.00    -0.280 C  
BRANCH  14  17
HETATM   17  C   UNL     1     -10.855  12.797  66.745  1.00  0.00    -0.264 C  
BRANCH  17  18
HETATM   18  C   UNL     1     -11.250  11.374  66.311  1.00  0.00    -0.161 C  
BRANCH  18  19
HETATM   19  N   UNL     1     -10.638  11.006  65.061  1.00  0.00    -0.276 N  
HETATM   20  C   UNL     1     -11.033  11.488  63.797  1.00  0.00    -0.409 C  
HETATM   21  O   UNL     1     -11.926  12.280  63.549  1.00  0.00    -0.477 OA 
HETATM   22  N   UNL     1     -10.199  10.864  62.856  1.00  0.00    -0.155 NA 
HETATM   23  C   UNL     1      -9.330  10.005  63.523  1.00  0.00    -0.256 A  
HETATM   24  C   UNL     1      -8.351   9.189  63.011  1.00  0.00    -0.196 A  
HETATM   25  C   UNL     1      -7.632   8.416  63.930  1.00  0.00    -0.135 A  
HETATM   26  C   UNL     1      -7.914   8.477  65.312  1.00  0.00    -0.120 A  
HETATM   27  C   UNL     1      -8.916   9.317  65.808  1.00  0.00    -0.234 A  
HETATM   28  C   UNL     1      -9.606  10.077  64.890  1.00  0.00    -0.310 A  
ENDBRANCH  18  19
ENDBRANCH  17  18
ENDBRANCH  14  17
ENDBRANCH   7  11
TORSDOF 4
ENDMDL
MODEL       60
REMARK 921   NORMALIZED FREE ENERGY PREDICTED BY IDOCK:   -6.59 KCAL/MOL
REMARK 922        TOTAL FREE ENERGY PREDICTED BY IDOCK:   -8.75 KCAL/MOL
REMARK 923 INTER-LIGAND FREE ENERGY PREDICTED BY IDOCK:   -8.12 KCAL/MOL
REMARK 924 INTRA-LIGAND FREE ENERGY PREDICTED BY IDOCK:   -0.63 KCAL/MOL
REMARK 927      BINDING AFFINITY PREDICTED BY RF-SCORE:    0.00 PKD
ROOT
HETATM    1  F   UNL     1      -8.743   7.465  67.161  1.00  0.00    -0.117 F  
HETATM    2  C   UNL     1      -8.345   7.422  65.858  1.00  0.00    -0.140 C  
HETATM    3  C   UNL     1      -8.819   8.594  65.039  1.00  0.00    -0.114 A  
HETATM    4  F   UNL     1      -6.988   7.316  65.889  1.00  0.00    -0.055 F  
HETATM    5  F   UNL     1      -8.802   6.233  65.374  1.00  0.00    -0.157 F  
HETATM    6  C   UNL     1      -9.613   9.594  65.627  1.00  0.00    -0.338 A  
HETATM    7  C   UNL     1     -10.128  10.685  64.907  1.00  0.00    -0.335 A  
HETATM    8  C   UNL     1      -8.483   8.707  63.689  1.00  0.00    -0.070 A  
HETATM    9  C   UNL     1      -9.762  10.758  63.554  1.00  0.00    -0.387 A  
HETATM   10  C   UNL     1      -8.946   9.790  62.952  1.00  0.00    -0.270 A  
ENDROOT
BRANCH   7  11
HETATM   11  N   UNL     1     -10.897  11.658  65.550  1.00  0.00    -0.287 NA 
HETATM   12  C   UNL     1     -12.594  13.476  65.454  1.00  0.00    -0.483 C  
HETATM   13  C   UNL     1     -11.423  12.774  64.727  1.00  0.00    -0.317 C  
HETATM   14  N   UNL     1     -12.289  13.960  66.822  1.00  0.00    -0.394 NA 
HETATM   15  C   UNL     1     -11.766  12.799  67.586  1.00  0.00    -0.367 C  
HETATM   16  C   UNL     1     -10.570  12.056  66.934  1.00  0.00    -0.229 C  
BRANCH  14  17
HETATM   17  C   UNL     1     -11.316  15.071  66.830  1.00  0.00    -0.302 C  
BRANCH  17  18
HETATM   18  C   UNL     1     -11.331  15.904  68.125  1.00  0.00    -0.311 C  
BRANCH  18  19
HETATM   19  N   UNL     1     -10.121  16.667  68.284  1.00  0.00    -0.257 N  
HETATM   20  C   UNL     1      -8.961  16.211  68.943  1.00  0.00    -0.247 C  
HETATM   21  O   UNL     1      -8.782  15.126  69.469  1.00  0.00    -0.214 OA 
HETATM   22  N   UNL     1      -8.036  17.266  68.892  1.00  0.00    -0.232 NA 
HETATM   23  C   UNL     1      -8.621  18.348  68.240  1.00  0.00    -0.303 A  
HETATM   24  C   UNL     1      -8.095  19.588  67.969  1.00  0.00    -0.347 A  
HETATM   25  C   UNL     1      -8.928  20.492  67.302  1.00  0.00    -0.431 A  
HETATM   26  C   UNL     1     -10.245  20.138  66.937  1.00  0.00    -0.566 A  
HETATM   27  C   UNL     1     -10.758  18.868  67.224  1.00  0.00    -0.523 A  
HETATM   28  C   UNL     1      -9.919  17.989  67.873  1.00  0.00    -0.331 A  
ENDBRANCH  18  19
ENDBRANCH  17  18
ENDBRANCH  14  17
ENDBRANCH   7  11
TORSDOF 4
ENDMDL
MODEL       61
REMARK 921   NORMALIZED FREE ENERGY PREDICTED BY IDOCK:   -6.57 KCAL/MOL
REMARK 922        TOTAL FREE ENERGY PREDICTED BY IDOCK:   -8.73 KCAL/MOL
REMARK 923 INTER-LIGAND FREE ENERGY PREDICTED BY IDOCK:   -8.02 KCAL/MOL
REMARK 924 INTRA-LIGAND FREE ENERGY PREDICTED BY IDOCK:   -0.71 KCAL/MOL
REMARK 927      BINDING AFFINITY PREDICTED BY RF-SCORE:    0.00 PKD
ROOT
HETATM    1  F   UNL     1      -7.303  20.051  70.098  1.00  0.00    -0.248 F  
HETATM    2  C   UNL     1      -6.495  20.010  69.001  1.00  0.00    -0.323 C  
HETATM    3  C   UNL     1      -6.842  18.910  68.032  1.00  0.00    -0.251 A  
HETATM    4  F   UNL     1      -6.570  21.248  68.440  1.00  0.00    -0.273 F  
HETATM    5  F   UNL     1      -5.226  19.895  69.483  1.00  0.00    -0.197 F  
HETATM    6  C   UNL     1      -7.903  18.031  68.310  1.00  0.00    -0.292 A  
HETATM    7  C   UNL     1      -8.245  16.956  67.473  1.00  0.00    -0.178 A  
HETATM    8  C   UNL     1      -6.120  18.743  66.849  1.00  0.00    -0.175 A  
HETATM    9  C   UNL     1      -7.494  16.829  66.294  1.00  0.00    -0.238 A  
HETATM   10  C   UNL     1      -6.451  17.711  65.980  1.00  0.00    -0.265 A  
ENDROOT
BRANCH   7  11
HETATM   11  N   UNL     1      -9.323  16.125  67.792  1.00  0.00    -0.211 NA 
HETATM   12  C   UNL     1     -10.520  14.678  69.425  1.00  0.00    -0.162 C  
HETATM   13  C   UNL     1      -9.146  15.168  68.911  1.00  0.00    -0.206 C  
HETATM   14  N   UNL     1     -11.406  14.087  68.393  1.00  0.00    -0.274 NA 
HETATM   15  C   UNL     1     -11.535  15.091  67.306  1.00  0.00    -0.304 C  
HETATM   16  C   UNL     1     -10.198  15.613  66.718  1.00  0.00    -0.276 C  
BRANCH  14  17
HETATM   17  C   UNL     1     -10.891  12.808  67.863  1.00  0.00    -0.220 C  
BRANCH  17  18
HETATM   18  C   UNL     1     -11.903  12.040  66.994  1.00  0.00    -0.176 C  
BRANCH  18  19
HETATM   19  N   UNL     1     -11.521  12.035  65.606  1.00  0.00    -0.339 N  
HETATM   20  C   UNL     1     -12.126  12.814  64.600  1.00  0.00    -0.423 C  
HETATM   21  O   UNL     1     -13.043  13.608  64.724  1.00  0.00    -0.658 OA 
HETATM   22  N   UNL     1     -11.473  12.490  63.400  1.00  0.00    -0.478 NA 
HETATM   23  C   UNL     1     -10.509  11.521  63.660  1.00  0.00    -0.427 A  
HETATM   24  C   UNL     1      -9.640  10.904  62.792  1.00  0.00    -0.339 A  
HETATM   25  C   UNL     1      -8.778   9.947  63.339  1.00  0.00    -0.230 A  
HETATM   26  C   UNL     1      -8.815   9.634  64.715  1.00  0.00    -0.242 A  
HETATM   27  C   UNL     1      -9.708  10.277  65.578  1.00  0.00    -0.326 A  
HETATM   28  C   UNL     1     -10.542  11.223  65.023  1.00  0.00    -0.289 A  
ENDBRANCH  18  19
ENDBRANCH  17  18
ENDBRANCH  14  17
ENDBRANCH   7  11
TORSDOF 4
ENDMDL
MODEL       62
REMARK 921   NORMALIZED FREE ENERGY PREDICTED BY IDOCK:   -6.54 KCAL/MOL
REMARK 922        TOTAL FREE ENERGY PREDICTED BY IDOCK:   -8.69 KCAL/MOL
REMARK 923 INTER-LIGAND FREE ENERGY PREDICTED BY IDOCK:   -7.87 KCAL/MOL
REMARK 924 INTRA-LIGAND FREE ENERGY PREDICTED BY IDOCK:   -0.81 KCAL/MOL
REMARK 927      BINDING AFFINITY PREDICTED BY RF-SCORE:    0.00 PKD
ROOT
HETATM    1  F   UNL     1     -13.621  14.042  71.251  1.00  0.00    -0.388 F  
HETATM    2  C   UNL     1     -12.803  15.093  71.541  1.00  0.00    -0.369 C  
HETATM    3  C   UNL     1     -12.031  15.607  70.354  1.00  0.00    -0.405 A  
HETATM    4  F   UNL     1     -13.604  16.043  72.098  1.00  0.00    -0.511 F  
HETATM    5  F   UNL     1     -11.987  14.658  72.541  1.00  0.00    -0.374 F  
HETATM    6  C   UNL     1     -12.176  14.995  69.097  1.00  0.00    -0.186 A  
HETATM    7  C   UNL     1     -11.448  15.394  67.963  1.00  0.00    -0.326 A  
HETATM    8  C   UNL     1     -11.160  16.691  70.480  1.00  0.00     0.028 A  
HETATM    9  C   UNL     1     -10.587  16.490  68.137  1.00  0.00    -0.329 A  
HETATM   10  C   UNL     1     -10.448  17.135  69.373  1.00  0.00    -0.203 A  
ENDROOT
BRANCH   7  11
HETATM   11  N   UNL     1     -11.648  14.760  66.734  1.00  0.00    -0.354 NA 
HETATM   12  C   UNL     1     -12.403  12.782  65.425  1.00  0.00    -0.470 C  
HETATM   13  C   UNL     1     -11.736  13.280  66.730  1.00  0.00    -0.385 C  
HETATM   14  N   UNL     1     -11.765  13.251  64.172  1.00  0.00    -0.399 NA 
HETATM   15  C   UNL     1     -11.704  14.733  64.245  1.00  0.00    -0.258 C  
HETATM   16  C   UNL     1     -11.024  15.311  65.514  1.00  0.00    -0.359 C  
BRANCH  14  17
HETATM   17  C   UNL     1     -10.417  12.683  63.971  1.00  0.00    -0.416 C  
BRANCH  17  18
HETATM   18  C   UNL     1     -10.422  11.223  63.481  1.00  0.00    -0.395 C  
BRANCH  18  19
HETATM   19  N   UNL     1      -9.370  10.450  64.089  1.00  0.00    -0.252 N  
HETATM   20  C   UNL     1      -8.110  10.206  63.507  1.00  0.00    -0.162 C  
HETATM   21  O   UNL     1      -7.700  10.596  62.428  1.00  0.00    -0.155 OA 
HETATM   22  N   UNL     1      -7.405   9.399  64.414  1.00  0.00    -0.105 NA 
HETATM   23  C   UNL     1      -8.219   9.137  65.513  1.00  0.00    -0.123 A  
HETATM   24  C   UNL     1      -7.952   8.391  66.635  1.00  0.00    -0.097 A  
HETATM   25  C   UNL     1      -8.977   8.290  67.582  1.00  0.00    -0.140 A  
HETATM   26  C   UNL     1     -10.222   8.924  67.378  1.00  0.00    -0.313 A  
HETATM   27  C   UNL     1     -10.469   9.679  66.228  1.00  0.00    -0.149 A  
HETATM   28  C   UNL     1      -9.445   9.774  65.311  1.00  0.00    -0.279 A  
ENDBRANCH  18  19
ENDBRANCH  17  18
ENDBRANCH  14  17
ENDBRANCH   7  11
TORSDOF 4
ENDMDL
MODEL       63
REMARK 921   NORMALIZED FREE ENERGY PREDICTED BY IDOCK:   -6.49 KCAL/MOL
REMARK 922        TOTAL FREE ENERGY PREDICTED BY IDOCK:   -8.63 KCAL/MOL
REMARK 923 INTER-LIGAND FREE ENERGY PREDICTED BY IDOCK:   -7.73 KCAL/MOL
REMARK 924 INTRA-LIGAND FREE ENERGY PREDICTED BY IDOCK:   -0.90 KCAL/MOL
REMARK 927      BINDING AFFINITY PREDICTED BY RF-SCORE:    0.00 PKD
ROOT
HETATM    1  F   UNL     1     -11.872  17.076  72.928  1.00  0.00    -0.531 F  
HETATM    2  C   UNL     1     -12.554  15.919  73.156  1.00  0.00    -0.513 C  
HETATM    3  C   UNL     1     -12.457  14.924  72.029  1.00  0.00    -0.408 A  
HETATM    4  F   UNL     1     -12.072  15.430  74.332  1.00  0.00    -0.625 F  
HETATM    5  F   UNL     1     -13.840  16.294  73.407  1.00  0.00    -0.671 F  
HETATM    6  C   UNL     1     -11.728  15.239  70.869  1.00  0.00    -0.386 A  
HETATM    7  C   UNL     1     -11.639  14.377  69.763  1.00  0.00    -0.298 A  
HETATM    8  C   UNL     1     -13.087  13.682  72.113  1.00  0.00    -0.489 A  
HETATM    9  C   UNL     1     -12.286  13.138  69.894  1.00  0.00    -0.293 A  
HETATM   10  C   UNL     1     -12.994  12.789  71.052  1.00  0.00    -0.166 A  
ENDROOT
BRANCH   7  11
HETATM   11  N   UNL     1     -10.884  14.736  68.644  1.00  0.00    -0.244 NA 
HETATM   12  C   UNL     1      -9.014  14.278  67.067  1.00  0.00    -0.236 C  
HETATM   13  C   UNL     1      -9.518  14.172  68.526  1.00  0.00    -0.202 C  
HETATM   14  N   UNL     1      -9.048  15.641  66.485  1.00  0.00    -0.275 NA 
HETATM   15  C   UNL     1     -10.436  16.145  66.641  1.00  0.00    -0.300 C  
HETATM   16  C   UNL     1     -11.005  16.097  68.083  1.00  0.00    -0.341 C  
BRANCH  14  17
HETATM   17  C   UNL     1      -8.084  16.559  67.127  1.00  0.00    -0.183 C  
BRANCH  17  18
HETATM   18  C   UNL     1      -6.663  15.982  67.255  1.00  0.00    -0.197 C  
BRANCH  18  19
HETATM   19  N   UNL     1      -6.244  15.892  68.630  1.00  0.00    -0.103 N  
HETATM   20  C   UNL     1      -5.999  16.994  69.472  1.00  0.00    -0.216 C  
HETATM   21  O   UNL     1      -6.102  18.178  69.198  1.00  0.00    -0.216 OA 
HETATM   22  N   UNL     1      -5.592  16.467  70.708  1.00  0.00    -0.053 NA 
HETATM   23  C   UNL     1      -5.566  15.078  70.618  1.00  0.00    -0.134 A  
HETATM   24  C   UNL     1      -5.225  14.151  71.574  1.00  0.00    -0.175 A  
HETATM   25  C   UNL     1      -5.280  12.806  71.192  1.00  0.00    -0.170 A  
HETATM   26  C   UNL     1      -5.662  12.433  69.885  1.00  0.00    -0.125 A  
HETATM   27  C   UNL     1      -6.007  13.396  68.931  1.00  0.00    -0.079 A  
HETATM   28  C   UNL     1      -5.955  14.714  69.328  1.00  0.00    -0.103 A  
ENDBRANCH  18  19
ENDBRANCH  17  18
ENDBRANCH  14  17
ENDBRANCH   7  11
TORSDOF 4
ENDMDL
MODEL       64
REMARK 921   NORMALIZED FREE ENERGY PREDICTED BY IDOCK:   -6.46 KCAL/MOL
REMARK 922        TOTAL FREE ENERGY PREDICTED BY IDOCK:   -8.60 KCAL/MOL
REMARK 923 INTER-LIGAND FREE ENERGY PREDICTED BY IDOCK:   -7.92 KCAL/MOL
REMARK 924 INTRA-LIGAND FREE ENERGY PREDICTED BY IDOCK:   -0.68 KCAL/MOL
REMARK 927      BINDING AFFINITY PREDICTED BY RF-SCORE:    0.00 PKD
ROOT
HETATM    1  F   UNL     1     -10.654  10.523  64.467  1.00  0.00    -0.426 F  
HETATM    2  C   UNL     1     -11.068  11.821  64.433  1.00  0.00    -0.334 C  
HETATM    3  C   UNL     1     -11.390  12.391  65.790  1.00  0.00    -0.393 A  
HETATM    4  F   UNL     1     -10.083  12.508  63.794  1.00  0.00    -0.379 F  
HETATM    5  F   UNL     1     -12.142  11.842  63.594  1.00  0.00    -0.512 F  
HETATM    6  C   UNL     1     -11.269  11.592  66.940  1.00  0.00    -0.363 A  
HETATM    7  C   UNL     1     -11.601  12.048  68.227  1.00  0.00    -0.334 A  
HETATM    8  C   UNL     1     -11.814  13.714  65.929  1.00  0.00    -0.406 A  
HETATM    9  C   UNL     1     -12.019  13.384  68.319  1.00  0.00    -0.352 A  
HETATM   10  C   UNL     1     -12.119  14.210  67.191  1.00  0.00    -0.432 A  
ENDROOT
BRANCH   7  11
HETATM   11  N   UNL     1     -11.443  11.213  69.336  1.00  0.00    -0.269 NA 
HETATM   12  C   UNL     1     -10.075   9.590  70.636  1.00  0.00    -0.286 C  
HETATM   13  C   UNL     1     -10.462  10.105  69.230  1.00  0.00    -0.225 C  
HETATM   14  N   UNL     1     -11.213   9.174  71.491  1.00  0.00    -0.335 NA 
HETATM   15  C   UNL     1     -12.154  10.321  71.550  1.00  0.00    -0.314 C  
HETATM   16  C   UNL     1     -12.611  10.880  70.177  1.00  0.00    -0.234 C  
BRANCH  14  17
HETATM   17  C   UNL     1     -11.895   7.966  70.984  1.00  0.00    -0.268 C  
BRANCH  17  18
HETATM   18  C   UNL     1     -11.916   6.796  71.984  1.00  0.00    -0.317 C  
BRANCH  18  19
HETATM   19  N   UNL     1     -10.607   6.224  72.167  1.00  0.00    -0.217 N  
HETATM   20  C   UNL     1      -9.754   6.497  73.256  1.00  0.00    -0.166 C  
HETATM   21  O   UNL     1      -9.969   7.232  74.204  1.00  0.00    -0.271 OA 
HETATM   22  N   UNL     1      -8.580   5.759  73.033  1.00  0.00    -0.121 NA 
HETATM   23  C   UNL     1      -8.701   5.071  71.830  1.00  0.00    -0.129 A  
HETATM   24  C   UNL     1      -7.803   4.235  71.212  1.00  0.00    -0.072 A  
HETATM   25  C   UNL     1      -8.195   3.686  69.986  1.00  0.00    -0.070 A  
HETATM   26  C   UNL     1      -9.452   3.990  69.420  1.00  0.00    -0.259 A  
HETATM   27  C   UNL     1     -10.350   4.842  70.070  1.00  0.00    -0.242 A  
HETATM   28  C   UNL     1      -9.950   5.366  71.280  1.00  0.00    -0.193 A  
ENDBRANCH  18  19
ENDBRANCH  17  18
ENDBRANCH  14  17
ENDBRANCH   7  11
TORSDOF 4
ENDMDL
MODEL       65
REMARK 921   NORMALIZED FREE ENERGY PREDICTED BY IDOCK:   -6.46 KCAL/MOL
REMARK 922        TOTAL FREE ENERGY PREDICTED BY IDOCK:   -8.59 KCAL/MOL
REMARK 923 INTER-LIGAND FREE ENERGY PREDICTED BY IDOCK:   -8.01 KCAL/MOL
REMARK 924 INTRA-LIGAND FREE ENERGY PREDICTED BY IDOCK:   -0.58 KCAL/MOL
REMARK 927      BINDING AFFINITY PREDICTED BY RF-SCORE:    0.00 PKD
ROOT
HETATM    1  F   UNL     1      -9.879   7.373  69.443  1.00  0.00    -0.163 F  
HETATM    2  C   UNL     1     -10.676   7.117  70.519  1.00  0.00    -0.238 C  
HETATM    3  C   UNL     1     -11.563   8.271  70.905  1.00  0.00    -0.282 A  
HETATM    4  F   UNL     1     -11.380   5.996  70.200  1.00  0.00    -0.395 F  
HETATM    5  F   UNL     1      -9.830   6.754  71.524  1.00  0.00    -0.171 F  
HETATM    6  C   UNL     1     -11.505   9.479  70.188  1.00  0.00    -0.205 A  
HETATM    7  C   UNL     1     -12.269  10.608  70.529  1.00  0.00    -0.358 A  
HETATM    8  C   UNL     1     -12.450   8.165  71.978  1.00  0.00    -0.375 A  
HETATM    9  C   UNL     1     -13.149  10.454  71.611  1.00  0.00    -0.553 A  
HETATM   10  C   UNL     1     -13.246   9.251  72.323  1.00  0.00    -0.535 A  
ENDROOT
BRANCH   7  11
HETATM   11  N   UNL     1     -12.184  11.777  69.767  1.00  0.00    -0.242 NA 
HETATM   12  C   UNL     1     -11.759  12.905  67.590  1.00  0.00    -0.370 C  
HETATM   13  C   UNL     1     -11.382  11.728  68.520  1.00  0.00    -0.273 C  
HETATM   14  N   UNL     1     -11.656  14.251  68.202  1.00  0.00    -0.313 NA 
HETATM   15  C   UNL     1     -12.473  14.228  69.441  1.00  0.00    -0.075 C  
HETATM   16  C   UNL     1     -12.137  13.090  70.441  1.00  0.00    -0.314 C  
BRANCH  14  17
HETATM   17  C   UNL     1     -10.262  14.636  68.503  1.00  0.00    -0.240 C  
BRANCH  17  18
HETATM   18  C   UNL     1      -9.446  15.047  67.264  1.00  0.00    -0.208 C  
BRANCH  18  19
HETATM   19  N   UNL     1      -9.085  16.440  67.299  1.00  0.00    -0.198 N  
HETATM   20  C   UNL     1      -9.709  17.454  66.545  1.00  0.00    -0.293 C  
HETATM   21  O   UNL     1     -10.636  17.336  65.763  1.00  0.00    -0.438 OA 
HETATM   22  N   UNL     1      -9.040  18.648  66.857  1.00  0.00    -0.285 NA 
HETATM   23  C   UNL     1      -8.019  18.371  67.761  1.00  0.00    -0.249 A  
HETATM   24  C   UNL     1      -7.109  19.226  68.334  1.00  0.00    -0.328 A  
HETATM   25  C   UNL     1      -6.176  18.657  69.209  1.00  0.00    -0.273 A  
HETATM   26  C   UNL     1      -6.177  17.271  69.475  1.00  0.00    -0.251 A  
HETATM   27  C   UNL     1      -7.116  16.421  68.880  1.00  0.00    -0.195 A  
HETATM   28  C   UNL     1      -8.031  17.001  68.029  1.00  0.00    -0.195 A  
ENDBRANCH  18  19
ENDBRANCH  17  18
ENDBRANCH  14  17
ENDBRANCH   7  11
TORSDOF 4
ENDMDL
MODEL       66
REMARK 921   NORMALIZED FREE ENERGY PREDICTED BY IDOCK:   -6.45 KCAL/MOL
REMARK 922        TOTAL FREE ENERGY PREDICTED BY IDOCK:   -8.58 KCAL/MOL
REMARK 923 INTER-LIGAND FREE ENERGY PREDICTED BY IDOCK:   -7.70 KCAL/MOL
REMARK 924 INTRA-LIGAND FREE ENERGY PREDICTED BY IDOCK:   -0.88 KCAL/MOL
REMARK 927      BINDING AFFINITY PREDICTED BY RF-SCORE:    0.00 PKD
ROOT
HETATM    1  F   UNL     1     -13.253   9.248  70.521  1.00  0.00    -0.032 F  
HETATM    2  C   UNL     1     -12.369   8.959  71.518  1.00  0.00    -0.324 C  
HETATM    3  C   UNL     1     -10.936   8.891  71.058  1.00  0.00    -0.341 A  
HETATM    4  F   UNL     1     -12.570   9.905  72.476  1.00  0.00    -0.346 F  
HETATM    5  F   UNL     1     -12.796   7.784  72.058  1.00  0.00    -0.309 F  
HETATM    6  C   UNL     1     -10.616   9.098  69.705  1.00  0.00    -0.237 A  
HETATM    7  C   UNL     1      -9.308   8.999  69.204  1.00  0.00    -0.148 A  
HETATM    8  C   UNL     1      -9.906   8.621  71.961  1.00  0.00    -0.396 A  
HETATM    9  C   UNL     1      -8.305   8.729  70.148  1.00  0.00    -0.131 A  
HETATM   10  C   UNL     1      -8.594   8.548  71.508  1.00  0.00    -0.236 A  
ENDROOT
BRANCH   7  11
HETATM   11  N   UNL     1      -9.048   9.233  67.851  1.00  0.00    -0.127 NA 
HETATM   12  C   UNL     1      -8.242  10.736  66.038  1.00  0.00    -0.164 C  
HETATM   13  C   UNL     1      -8.974  10.643  67.398  1.00  0.00    -0.136 C  
HETATM   14  N   UNL     1      -8.806   9.890  64.959  1.00  0.00    -0.174 NA 
HETATM   15  C   UNL     1      -8.857   8.500  65.479  1.00  0.00    -0.154 C  
HETATM   16  C   UNL     1      -9.599   8.320  66.830  1.00  0.00    -0.224 C  
BRANCH  14  17
HETATM   17  C   UNL     1     -10.147  10.335  64.528  1.00  0.00    -0.216 C  
BRANCH  17  18
HETATM   18  C   UNL     1     -10.174  11.757  63.939  1.00  0.00    -0.373 C  
BRANCH  18  19
HETATM   19  N   UNL     1     -11.079  12.617  64.657  1.00  0.00    -0.299 N  
HETATM   20  C   UNL     1     -12.473  12.667  64.456  1.00  0.00    -0.448 C  
HETATM   21  O   UNL     1     -13.136  12.009  63.672  1.00  0.00    -0.756 OA 
HETATM   22  N   UNL     1     -12.965  13.645  65.334  1.00  0.00    -0.699 NA 
HETATM   23  C   UNL     1     -11.899  14.197  66.039  1.00  0.00    -0.398 A  
HETATM   24  C   UNL     1     -11.905  15.185  66.993  1.00  0.00    -0.026 A  
HETATM   25  C   UNL     1     -10.664  15.551  67.527  1.00  0.00    -0.300 A  
HETATM   26  C   UNL     1      -9.472  14.932  67.093  1.00  0.00    -0.231 A  
HETATM   27  C   UNL     1      -9.493  13.927  66.121  1.00  0.00    -0.194 A  
HETATM   28  C   UNL     1     -10.724  13.574  65.613  1.00  0.00    -0.281 A  
ENDBRANCH  18  19
ENDBRANCH  17  18
ENDBRANCH  14  17
ENDBRANCH   7  11
TORSDOF 4
ENDMDL
MODEL       67
REMARK 921   NORMALIZED FREE ENERGY PREDICTED BY IDOCK:   -6.44 KCAL/MOL
REMARK 922        TOTAL FREE ENERGY PREDICTED BY IDOCK:   -8.57 KCAL/MOL
REMARK 923 INTER-LIGAND FREE ENERGY PREDICTED BY IDOCK:   -7.94 KCAL/MOL
REMARK 924 INTRA-LIGAND FREE ENERGY PREDICTED BY IDOCK:   -0.63 KCAL/MOL
REMARK 927      BINDING AFFINITY PREDICTED BY RF-SCORE:    0.00 PKD
ROOT
HETATM    1  F   UNL     1     -13.694  12.850  71.289  1.00  0.00    -0.168 F  
HETATM    2  C   UNL     1     -13.180  13.948  71.912  1.00  0.00    -0.397 C  
HETATM    3  C   UNL     1     -12.373  14.838  71.003  1.00  0.00    -0.397 A  
HETATM    4  F   UNL     1     -14.244  14.590  72.468  1.00  0.00    -0.513 F  
HETATM    5  F   UNL     1     -12.445  13.469  72.954  1.00  0.00    -0.112 F  
HETATM    6  C   UNL     1     -12.192  14.493  69.652  1.00  0.00    -0.336 A  
HETATM    7  C   UNL     1     -11.411  15.254  68.766  1.00  0.00    -0.308 A  
HETATM    8  C   UNL     1     -11.791  16.013  71.483  1.00  0.00    -0.554 A  
HETATM    9  C   UNL     1     -10.848  16.427  69.292  1.00  0.00    -0.327 A  
HETATM   10  C   UNL     1     -11.038  16.808  70.627  1.00  0.00     0.248 A  
ENDROOT
BRANCH   7  11
HETATM   11  N   UNL     1     -11.282  14.871  67.428  1.00  0.00    -0.329 NA 
HETATM   12  C   UNL     1     -12.241  13.829  65.382  1.00  0.00    -0.440 C  
HETATM   13  C   UNL     1     -12.184  13.806  66.928  1.00  0.00    -0.366 C  
HETATM   14  N   UNL     1     -10.928  13.737  64.701  1.00  0.00    -0.386 NA 
HETATM   15  C   UNL     1     -10.077  14.822  65.250  1.00  0.00    -0.354 C  
HETATM   16  C   UNL     1      -9.948  14.851  66.796  1.00  0.00    -0.246 C  
BRANCH  14  17
HETATM   17  C   UNL     1     -10.280  12.422  64.886  1.00  0.00    -0.278 C  
BRANCH  17  18
HETATM   18  C   UNL     1     -11.207  11.349  65.484  1.00  0.00    -0.071 C  
BRANCH  18  19
HETATM   19  N   UNL     1     -10.507  10.489  66.403  1.00  0.00    -0.220 N  
HETATM   20  C   UNL     1      -9.554   9.519  66.033  1.00  0.00    -0.251 C  
HETATM   21  O   UNL     1      -9.162   9.252  64.910  1.00  0.00    -0.225 OA 
HETATM   22  N   UNL     1      -9.141   8.896  67.221  1.00  0.00    -0.133 NA 
HETATM   23  C   UNL     1      -9.839   9.452  68.289  1.00  0.00    -0.160 A  
HETATM   24  C   UNL     1      -9.767   9.151  69.627  1.00  0.00    -0.183 A  
HETATM   25  C   UNL     1     -10.608   9.874  70.481  1.00  0.00    -0.359 A  
HETATM   26  C   UNL     1     -11.487  10.857  69.978  1.00  0.00    -0.411 A  
HETATM   27  C   UNL     1     -11.541  11.147  68.611  1.00  0.00    -0.383 A  
HETATM   28  C   UNL     1     -10.700  10.431  67.788  1.00  0.00    -0.279 A  
ENDBRANCH  18  19
ENDBRANCH  17  18
ENDBRANCH  14  17
ENDBRANCH   7  11
TORSDOF 4
ENDMDL
MODEL       68
REMARK 921   NORMALIZED FREE ENERGY PREDICTED BY IDOCK:   -6.44 KCAL/MOL
REMARK 922        TOTAL FREE ENERGY PREDICTED BY IDOCK:   -8.57 KCAL/MOL
REMARK 923 INTER-LIGAND FREE ENERGY PREDICTED BY IDOCK:   -7.88 KCAL/MOL
REMARK 924 INTRA-LIGAND FREE ENERGY PREDICTED BY IDOCK:   -0.69 KCAL/MOL
REMARK 927      BINDING AFFINITY PREDICTED BY RF-SCORE:    0.00 PKD
ROOT
HETATM    1  F   UNL     1      -6.299  18.299  69.180  1.00  0.00    -0.211 F  
HETATM    2  C   UNL     1      -7.099  19.384  68.984  1.00  0.00    -0.362 C  
HETATM    3  C   UNL     1      -8.443  19.049  68.391  1.00  0.00    -0.383 A  
HETATM    4  F   UNL     1      -7.198  19.995  70.197  1.00  0.00    -0.299 F  
HETATM    5  F   UNL     1      -6.382  20.232  68.195  1.00  0.00    -0.262 F  
HETATM    6  C   UNL     1      -8.764  17.717  68.075  1.00  0.00    -0.251 A  
HETATM    7  C   UNL     1      -9.979  17.345  67.474  1.00  0.00    -0.298 A  
HETATM    8  C   UNL     1      -9.386  20.047  68.143  1.00  0.00    -0.357 A  
HETATM    9  C   UNL     1     -10.897  18.382  67.246  1.00  0.00    -0.296 A  
HETATM   10  C   UNL     1     -10.612  19.713  67.580  1.00  0.00    -0.556 A  
ENDROOT
BRANCH   7  11
HETATM   11  N   UNL     1     -10.250  16.002  67.199  1.00  0.00    -0.272 NA 
HETATM   12  C   UNL     1     -11.882  14.139  66.950  1.00  0.00    -0.431 C  
HETATM   13  C   UNL     1     -11.525  15.440  67.708  1.00  0.00    -0.278 C  
HETATM   14  N   UNL     1     -10.831  13.094  66.961  1.00  0.00    -0.262 NA 
HETATM   15  C   UNL     1      -9.588  13.722  66.448  1.00  0.00    -0.272 C  
HETATM   16  C   UNL     1      -9.147  15.020  67.176  1.00  0.00    -0.215 C  
BRANCH  14  17
HETATM   17  C   UNL     1     -10.610  12.522  68.305  1.00  0.00    -0.231 C  
BRANCH  17  18
HETATM   18  C   UNL     1      -9.449  11.513  68.371  1.00  0.00    -0.195 C  
BRANCH  18  19
HETATM   19  N   UNL     1      -9.920  10.152  68.359  1.00  0.00    -0.152 N  
HETATM   20  C   UNL     1     -10.198   9.406  67.196  1.00  0.00    -0.254 C  
HETATM   21  O   UNL     1     -10.085   9.765  66.036  1.00  0.00    -0.276 OA 
HETATM   22  N   UNL     1     -10.651   8.150  67.630  1.00  0.00    -0.219 NA 
HETATM   23  C   UNL     1     -10.673   8.135  69.022  1.00  0.00    -0.080 A  
HETATM   24  C   UNL     1     -11.050   7.125  69.874  1.00  0.00    -0.264 A  
HETATM   25  C   UNL     1     -10.979   7.401  71.244  1.00  0.00    -0.263 A  
HETATM   26  C   UNL     1     -10.547   8.660  71.714  1.00  0.00    -0.395 A  
HETATM   27  C   UNL     1     -10.167   9.671  70.825  1.00  0.00    -0.330 A  
HETATM   28  C   UNL     1     -10.235   9.378  69.481  1.00  0.00    -0.209 A  
ENDBRANCH  18  19
ENDBRANCH  17  18
ENDBRANCH  14  17
ENDBRANCH   7  11
TORSDOF 4
ENDMDL
MODEL       69
REMARK 921   NORMALIZED FREE ENERGY PREDICTED BY IDOCK:   -6.42 KCAL/MOL
REMARK 922        TOTAL FREE ENERGY PREDICTED BY IDOCK:   -8.54 KCAL/MOL
REMARK 923 INTER-LIGAND FREE ENERGY PREDICTED BY IDOCK:   -8.01 KCAL/MOL
REMARK 924 INTRA-LIGAND FREE ENERGY PREDICTED BY IDOCK:   -0.54 KCAL/MOL
REMARK 927      BINDING AFFINITY PREDICTED BY RF-SCORE:    0.00 PKD
ROOT
HETATM    1  F   UNL     1     -11.885   9.725  71.838  1.00  0.00    -0.442 F  
HETATM    2  C   UNL     1     -11.966   8.369  71.952  1.00  0.00    -0.338 C  
HETATM    3  C   UNL     1     -11.325   7.625  70.810  1.00  0.00    -0.296 A  
HETATM    4  F   UNL     1     -11.408   8.065  73.156  1.00  0.00    -0.455 F  
HETATM    5  F   UNL     1     -13.294   8.090  72.074  1.00  0.00    -0.311 F  
HETATM    6  C   UNL     1     -10.736   8.331  69.747  1.00  0.00    -0.221 A  
HETATM    7  C   UNL     1     -10.167   7.697  68.629  1.00  0.00    -0.199 A  
HETATM    8  C   UNL     1     -11.309   6.229  70.784  1.00  0.00    -0.397 A  
HETATM    9  C   UNL     1     -10.171   6.294  68.648  1.00  0.00    -0.211 A  
HETATM   10  C   UNL     1     -10.726   5.567  69.710  1.00  0.00    -0.355 A  
ENDROOT
BRANCH   7  11
HETATM   11  N   UNL     1      -9.579   8.451  67.611  1.00  0.00    -0.148 NA 
HETATM   12  C   UNL     1      -7.573   9.543  66.620  1.00  0.00    -0.097 C  
HETATM   13  C   UNL     1      -8.314   9.161  67.923  1.00  0.00    -0.117 C  
HETATM   14  N   UNL     1      -8.369  10.336  65.651  1.00  0.00    -0.152 NA 
HETATM   15  C   UNL     1      -9.616   9.574  65.389  1.00  0.00    -0.272 C  
HETATM   16  C   UNL     1     -10.432   9.175  66.647  1.00  0.00    -0.167 C  
BRANCH  14  17
HETATM   17  C   UNL     1      -8.680  11.693  66.144  1.00  0.00    -0.094 C  
BRANCH  17  18
HETATM   18  C   UNL     1     -10.014  12.256  65.621  1.00  0.00    -0.251 C  
BRANCH  18  19
HETATM   19  N   UNL     1     -10.605  13.183  66.551  1.00  0.00    -0.282 N  
HETATM   20  C   UNL     1     -11.602  12.855  67.492  1.00  0.00    -0.356 C  
HETATM   21  O   UNL     1     -12.117  11.766  67.682  1.00  0.00    -0.598 OA 
HETATM   22  N   UNL     1     -11.910  14.043  68.173  1.00  0.00    -0.357 NA 
HETATM   23  C   UNL     1     -11.139  15.076  67.649  1.00  0.00    -0.316 A  
HETATM   24  C   UNL     1     -11.110  16.404  68.001  1.00  0.00    -0.292 A  
HETATM   25  C   UNL     1     -10.233  17.225  67.283  1.00  0.00    -0.320 A  
HETATM   26  C   UNL     1      -9.428  16.704  66.248  1.00  0.00    -0.321 A  
HETATM   27  C   UNL     1      -9.475  15.347  65.910  1.00  0.00    -0.369 A  
HETATM   28  C   UNL     1     -10.338  14.553  66.633  1.00  0.00    -0.274 A  
ENDBRANCH  18  19
ENDBRANCH  17  18
ENDBRANCH  14  17
ENDBRANCH   7  11
TORSDOF 4
ENDMDL
MODEL       70
REMARK 921   NORMALIZED FREE ENERGY PREDICTED BY IDOCK:   -6.41 KCAL/MOL
REMARK 922        TOTAL FREE ENERGY PREDICTED BY IDOCK:   -8.53 KCAL/MOL
REMARK 923 INTER-LIGAND FREE ENERGY PREDICTED BY IDOCK:   -7.94 KCAL/MOL
REMARK 924 INTRA-LIGAND FREE ENERGY PREDICTED BY IDOCK:   -0.59 KCAL/MOL
REMARK 927      BINDING AFFINITY PREDICTED BY RF-SCORE:    0.00 PKD
ROOT
HETATM    1  F   UNL     1      -6.158  16.791  66.762  1.00  0.00    -0.185 F  
HETATM    2  C   UNL     1      -6.612  18.076  66.747  1.00  0.00    -0.188 C  
HETATM    3  C   UNL     1      -8.067  18.211  67.113  1.00  0.00    -0.230 A  
HETATM    4  F   UNL     1      -5.792  18.767  67.586  1.00  0.00    -0.173 F  
HETATM    5  F   UNL     1      -6.347  18.545  65.495  1.00  0.00    -0.233 F  
HETATM    6  C   UNL     1      -8.830  17.068  67.411  1.00  0.00    -0.210 A  
HETATM    7  C   UNL     1     -10.202  17.121  67.711  1.00  0.00    -0.324 A  
HETATM    8  C   UNL     1      -8.681  19.463  67.160  1.00  0.00    -0.332 A  
HETATM    9  C   UNL     1     -10.775  18.402  67.749  1.00  0.00    -0.371 A  
HETATM   10  C   UNL     1     -10.029  19.558  67.485  1.00  0.00    -0.495 A  
ENDROOT
BRANCH   7  11
HETATM   11  N   UNL     1     -10.905  15.954  68.017  1.00  0.00    -0.307 NA 
HETATM   12  C   UNL     1     -12.076  14.513  69.676  1.00  0.00    -0.323 C  
HETATM   13  C   UNL     1     -10.916  15.507  69.431  1.00  0.00    -0.276 C  
HETATM   14  N   UNL     1     -12.097  13.335  68.776  1.00  0.00    -0.290 NA 
HETATM   15  C   UNL     1     -12.080  13.851  67.384  1.00  0.00    -0.345 C  
HETATM   16  C   UNL     1     -10.928  14.836  67.052  1.00  0.00    -0.324 C  
BRANCH  14  17
HETATM   17  C   UNL     1     -10.960  12.421  69.007  1.00  0.00    -0.197 C  
BRANCH  17  18
HETATM   18  C   UNL     1     -11.296  10.936  68.779  1.00  0.00    -0.292 C  
BRANCH  18  19
HETATM   19  N   UNL     1     -11.163  10.165  69.988  1.00  0.00    -0.279 N  
HETATM   20  C   UNL     1     -12.213   9.886  70.886  1.00  0.00    -0.328 C  
HETATM   21  O   UNL     1     -13.379  10.230  70.798  1.00  0.00    -0.349 OA 
HETATM   22  N   UNL     1     -11.652   9.134  71.930  1.00  0.00    -0.370 NA 
HETATM   23  C   UNL     1     -10.290   8.976  71.691  1.00  0.00    -0.350 A  
HETATM   24  C   UNL     1      -9.345   8.321  72.443  1.00  0.00    -0.338 A  
HETATM   25  C   UNL     1      -8.033   8.336  71.957  1.00  0.00    -0.176 A  
HETATM   26  C   UNL     1      -7.709   9.000  70.754  1.00  0.00    -0.144 A  
HETATM   27  C   UNL     1      -8.690   9.658  70.004  1.00  0.00    -0.256 A  
HETATM   28  C   UNL     1      -9.977   9.625  70.495  1.00  0.00    -0.254 A  
ENDBRANCH  18  19
ENDBRANCH  17  18
ENDBRANCH  14  17
ENDBRANCH   7  11
TORSDOF 4
ENDMDL
MODEL       71
REMARK 921   NORMALIZED FREE ENERGY PREDICTED BY IDOCK:   -6.39 KCAL/MOL
REMARK 922        TOTAL FREE ENERGY PREDICTED BY IDOCK:   -8.50 KCAL/MOL
REMARK 923 INTER-LIGAND FREE ENERGY PREDICTED BY IDOCK:   -7.84 KCAL/MOL
REMARK 924 INTRA-LIGAND FREE ENERGY PREDICTED BY IDOCK:   -0.66 KCAL/MOL
REMARK 927      BINDING AFFINITY PREDICTED BY RF-SCORE:    0.00 PKD
ROOT
HETATM    1  F   UNL     1      -9.506   5.861  66.262  1.00  0.00    -0.157 F  
HETATM    2  C   UNL     1      -9.116   4.604  66.616  1.00  0.00    -0.119 C  
HETATM    3  C   UNL     1      -9.357   4.280  68.068  1.00  0.00    -0.200 A  
HETATM    4  F   UNL     1      -9.773   3.761  65.774  1.00  0.00    -0.169 F  
HETATM    5  F   UNL     1      -7.799   4.519  66.278  1.00  0.00    -0.094 F  
HETATM    6  C   UNL     1      -9.917   5.244  68.924  1.00  0.00    -0.250 A  
HETATM    7  C   UNL     1     -10.121   5.023  70.297  1.00  0.00    -0.269 A  
HETATM    8  C   UNL     1      -9.027   3.028  68.587  1.00  0.00    -0.190 A  
HETATM    9  C   UNL     1      -9.778   3.748  70.773  1.00  0.00    -0.235 A  
HETATM   10  C   UNL     1      -9.245   2.760  69.933  1.00  0.00    -0.209 A  
ENDROOT
BRANCH   7  11
HETATM   11  N   UNL     1     -10.700   6.012  71.095  1.00  0.00    -0.252 NA 
HETATM   12  C   UNL     1     -12.703   7.298  71.823  1.00  0.00    -0.335 C  
HETATM   13  C   UNL     1     -11.988   6.593  70.646  1.00  0.00    -0.343 C  
HETATM   14  N   UNL     1     -11.901   8.332  72.519  1.00  0.00    -0.398 NA 
HETATM   15  C   UNL     1     -10.630   7.688  72.936  1.00  0.00    -0.354 C  
HETATM   16  C   UNL     1      -9.839   6.980  71.804  1.00  0.00    -0.162 C  
BRANCH  14  17
HETATM   17  C   UNL     1     -11.634   9.513  71.673  1.00  0.00    -0.381 C  
BRANCH  17  18
HETATM   18  C   UNL     1     -12.906  10.210  71.156  1.00  0.00    -0.399 C  
BRANCH  18  19
HETATM   19  N   UNL     1     -12.626  11.531  70.654  1.00  0.00    -0.282 N  
HETATM   20  C   UNL     1     -12.893  12.729  71.346  1.00  0.00    -0.275 C  
HETATM   21  O   UNL     1     -13.384  12.855  72.454  1.00  0.00    -0.528 OA 
HETATM   22  N   UNL     1     -12.494  13.774  70.497  1.00  0.00    -0.347 NA 
HETATM   23  C   UNL     1     -12.015  13.231  69.308  1.00  0.00    -0.303 A  
HETATM   24  C   UNL     1     -11.528  13.871  68.194  1.00  0.00    -0.346 A  
HETATM   25  C   UNL     1     -11.125  13.059  67.129  1.00  0.00    -0.304 A  
HETATM   26  C   UNL     1     -11.226  11.653  67.205  1.00  0.00    -0.371 A  
HETATM   27  C   UNL     1     -11.725  11.025  68.351  1.00  0.00    -0.329 A  
HETATM   28  C   UNL     1     -12.108  11.841  69.392  1.00  0.00    -0.238 A  
ENDBRANCH  18  19
ENDBRANCH  17  18
ENDBRANCH  14  17
ENDBRANCH   7  11
TORSDOF 4
ENDMDL
MODEL       72
REMARK 921   NORMALIZED FREE ENERGY PREDICTED BY IDOCK:   -6.38 KCAL/MOL
REMARK 922        TOTAL FREE ENERGY PREDICTED BY IDOCK:   -8.50 KCAL/MOL
REMARK 923 INTER-LIGAND FREE ENERGY PREDICTED BY IDOCK:   -7.88 KCAL/MOL
REMARK 924 INTRA-LIGAND FREE ENERGY PREDICTED BY IDOCK:   -0.62 KCAL/MOL
REMARK 927      BINDING AFFINITY PREDICTED BY RF-SCORE:    0.00 PKD
ROOT
HETATM    1  F   UNL     1     -11.084   5.765  67.948  1.00  0.00    -0.318 F  
HETATM    2  C   UNL     1     -10.201   5.293  67.023  1.00  0.00    -0.234 C  
HETATM    3  C   UNL     1      -9.369   6.369  66.375  1.00  0.00    -0.176 A  
HETATM    4  F   UNL     1      -9.446   4.364  67.672  1.00  0.00    -0.143 F  
HETATM    5  F   UNL     1     -10.950   4.601  66.119  1.00  0.00    -0.314 F  
HETATM    6  C   UNL     1      -9.556   7.717  66.726  1.00  0.00    -0.269 A  
HETATM    7  C   UNL     1      -8.849   8.770  66.123  1.00  0.00    -0.168 A  
HETATM    8  C   UNL     1      -8.406   6.049  65.417  1.00  0.00    -0.150 A  
HETATM    9  C   UNL     1      -7.888   8.401  65.169  1.00  0.00    -0.118 A  
HETATM   10  C   UNL     1      -7.662   7.062  64.822  1.00  0.00    -0.115 A  
ENDROOT
BRANCH   7  11
HETATM   11  N   UNL     1      -9.064  10.091  66.527  1.00  0.00    -0.146 NA 
HETATM   12  C   UNL     1      -8.727  11.924  68.177  1.00  0.00    -0.173 C  
HETATM   13  C   UNL     1      -8.915  10.402  67.970  1.00  0.00    -0.129 C  
HETATM   14  N   UNL     1      -9.784  12.777  67.585  1.00  0.00    -0.200 NA 
HETATM   15  C   UNL     1      -9.884  12.411  66.149  1.00  0.00    -0.252 C  
HETATM   16  C   UNL     1     -10.100  10.903  65.858  1.00  0.00    -0.252 C  
BRANCH  14  17
HETATM   17  C   UNL     1     -11.090  12.615  68.256  1.00  0.00    -0.261 C  
BRANCH  17  18
HETATM   18  C   UNL     1     -12.005  13.848  68.147  1.00  0.00    -0.350 C  
BRANCH  18  19
HETATM   19  N   UNL     1     -11.783  14.777  69.225  1.00  0.00    -0.299 N  
HETATM   20  C   UNL     1     -10.955  15.915  69.150  1.00  0.00    -0.284 C  
HETATM   21  O   UNL     1     -10.310  16.304  68.192  1.00  0.00    -0.258 OA 
HETATM   22  N   UNL     1     -11.002  16.522  70.415  1.00  0.00    -0.242 NA 
HETATM   23  C   UNL     1     -11.818  15.764  71.250  1.00  0.00    -0.437 A  
HETATM   24  C   UNL     1     -12.147  15.972  72.568  1.00  0.00    -0.635 A  
HETATM   25  C   UNL     1     -12.989  15.025  73.162  1.00  0.00    -0.631 A  
HETATM   26  C   UNL     1     -13.465  13.914  72.434  1.00  0.00    -0.661 A  
HETATM   27  C   UNL     1     -13.117  13.725  71.093  1.00  0.00    -0.324 A  
HETATM   28  C   UNL     1     -12.295  14.672  70.522  1.00  0.00    -0.337 A  
ENDBRANCH  18  19
ENDBRANCH  17  18
ENDBRANCH  14  17
ENDBRANCH   7  11
TORSDOF 4
ENDMDL
MODEL       73
REMARK 921   NORMALIZED FREE ENERGY PREDICTED BY IDOCK:   -6.38 KCAL/MOL
REMARK 922        TOTAL FREE ENERGY PREDICTED BY IDOCK:   -8.49 KCAL/MOL
REMARK 923 INTER-LIGAND FREE ENERGY PREDICTED BY IDOCK:   -8.14 KCAL/MOL
REMARK 924 INTRA-LIGAND FREE ENERGY PREDICTED BY IDOCK:   -0.35 KCAL/MOL
REMARK 927      BINDING AFFINITY PREDICTED BY RF-SCORE:    0.00 PKD
ROOT
HETATM    1  F   UNL     1     -12.563  11.238  71.159  1.00  0.00    -0.421 F  
HETATM    2  C   UNL     1     -11.862  10.100  70.894  1.00  0.00    -0.374 C  
HETATM    3  C   UNL     1     -11.373  10.005  69.472  1.00  0.00    -0.220 A  
HETATM    4  F   UNL     1     -10.847  10.070  71.801  1.00  0.00    -0.189 F  
HETATM    5  F   UNL     1     -12.691   9.071  71.226  1.00  0.00    -0.327 F  
HETATM    6  C   UNL     1     -11.670  11.026  68.552  1.00  0.00    -0.348 A  
HETATM    7  C   UNL     1     -11.287  10.974  67.201  1.00  0.00    -0.136 A  
HETATM    8  C   UNL     1     -10.626   8.907  69.043  1.00  0.00    -0.203 A  
HETATM    9  C   UNL     1     -10.534   9.854  66.816  1.00  0.00    -0.261 A  
HETATM   10  C   UNL     1     -10.201   8.837  67.721  1.00  0.00    -0.285 A  
ENDROOT
BRANCH   7  11
HETATM   11  N   UNL     1     -11.595  12.028  66.337  1.00  0.00    -0.500 NA 
HETATM   12  C   UNL     1     -11.500  13.059  64.074  1.00  0.00    -0.421 C  
HETATM   13  C   UNL     1     -10.768  12.180  65.115  1.00  0.00    -0.292 C  
HETATM   14  N   UNL     1     -11.926  14.393  64.562  1.00  0.00    -0.460 NA 
HETATM   15  C   UNL     1     -12.740  14.169  65.783  1.00  0.00    -0.413 C  
HETATM   16  C   UNL     1     -12.064  13.316  66.888  1.00  0.00    -0.332 C  
BRANCH  14  17
HETATM   17  C   UNL     1     -10.785  15.285  64.852  1.00  0.00    -0.400 C  
BRANCH  17  18
HETATM   18  C   UNL     1     -10.571  15.556  66.352  1.00  0.00    -0.311 C  
BRANCH  18  19
HETATM   19  N   UNL     1      -9.175  15.701  66.677  1.00  0.00    -0.244 N  
HETATM   20  C   UNL     1      -8.381  16.815  66.338  1.00  0.00    -0.309 C  
HETATM   21  O   UNL     1      -8.723  17.819  65.738  1.00  0.00    -0.502 OA 
HETATM   22  N   UNL     1      -7.090  16.540  66.817  1.00  0.00    -0.222 NA 
HETATM   23  C   UNL     1      -7.088  15.283  67.414  1.00  0.00    -0.191 A  
HETATM   24  C   UNL     1      -6.052  14.604  68.009  1.00  0.00    -0.164 A  
HETATM   25  C   UNL     1      -6.343  13.334  68.518  1.00  0.00    -0.083 A  
HETATM   26  C   UNL     1      -7.640  12.786  68.415  1.00  0.00    -0.133 A  
HETATM   27  C   UNL     1      -8.678  13.498  67.806  1.00  0.00    -0.189 A  
HETATM   28  C   UNL     1      -8.375  14.750  67.317  1.00  0.00    -0.212 A  
ENDBRANCH  18  19
ENDBRANCH  17  18
ENDBRANCH  14  17
ENDBRANCH   7  11
TORSDOF 4
ENDMDL
MODEL       74
REMARK 921   NORMALIZED FREE ENERGY PREDICTED BY IDOCK:   -6.36 KCAL/MOL
REMARK 922        TOTAL FREE ENERGY PREDICTED BY IDOCK:   -8.47 KCAL/MOL
REMARK 923 INTER-LIGAND FREE ENERGY PREDICTED BY IDOCK:   -8.70 KCAL/MOL
REMARK 924 INTRA-LIGAND FREE ENERGY PREDICTED BY IDOCK:    0.23 KCAL/MOL
REMARK 927      BINDING AFFINITY PREDICTED BY RF-SCORE:    0.00 PKD
ROOT
HETATM    1  F   UNL     1     -11.594  19.684  66.986  1.00  0.00    -0.311 F  
HETATM    2  C   UNL     1     -10.265  19.745  66.691  1.00  0.00    -0.478 C  
HETATM    3  C   UNL     1      -9.615  18.395  66.535  1.00  0.00    -0.327 A  
HETATM    4  F   UNL     1     -10.169  20.508  65.568  1.00  0.00    -0.461 F  
HETATM    5  F   UNL     1      -9.701  20.480  67.691  1.00  0.00    -0.506 F  
HETATM    6  C   UNL     1     -10.369  17.222  66.712  1.00  0.00    -0.308 A  
HETATM    7  C   UNL     1      -9.812  15.935  66.629  1.00  0.00    -0.254 A  
HETATM    8  C   UNL     1      -8.260  18.285  66.217  1.00  0.00    -0.241 A  
HETATM    9  C   UNL     1      -8.447  15.873  66.304  1.00  0.00    -0.302 A  
HETATM   10  C   UNL     1      -7.681  17.028  66.094  1.00  0.00    -0.292 A  
ENDROOT
BRANCH   7  11
HETATM   11  N   UNL     1     -10.615  14.804  66.796  1.00  0.00    -0.296 NA 
HETATM   12  C   UNL     1     -11.893  13.266  68.278  1.00  0.00    -0.354 C  
HETATM   13  C   UNL     1     -10.650  14.177  68.139  1.00  0.00    -0.246 C  
HETATM   14  N   UNL     1     -12.031  12.224  67.233  1.00  0.00    -0.559 NA 
HETATM   15  C   UNL     1     -11.983  12.916  65.920  1.00  0.00    -0.448 C  
HETATM   16  C   UNL     1     -10.750  13.830  65.694  1.00  0.00    -0.288 C  
BRANCH  14  17
HETATM   17  C   UNL     1     -10.980  11.190  67.316  1.00  0.00    -0.296 C  
BRANCH  17  18
HETATM   18  C   UNL     1     -10.915  10.474  68.678  1.00  0.00    -0.248 C  
BRANCH  18  19
HETATM   19  N   UNL     1     -10.660   9.064  68.530  1.00  0.00    -0.190 N  
HETATM   20  C   UNL     1     -10.187   8.450  67.353  1.00  0.00    -0.260 C  
HETATM   21  O   UNL     1      -9.914   8.985  66.292  1.00  0.00    -0.280 OA 
HETATM   22  N   UNL     1     -10.102   7.076  67.630  1.00  0.00    -0.159 NA 
HETATM   23  C   UNL     1     -10.531   6.852  68.935  1.00  0.00    -0.208 A  
HETATM   24  C   UNL     1     -10.625   5.669  69.628  1.00  0.00    -0.401 A  
HETATM   25  C   UNL     1     -11.109   5.746  70.939  1.00  0.00    -0.267 A  
HETATM   26  C   UNL     1     -11.486   6.982  71.506  1.00  0.00    -0.306 A  
HETATM   27  C   UNL     1     -11.380   8.173  70.780  1.00  0.00    -0.283 A  
HETATM   28  C   UNL     1     -10.893   8.078  69.494  1.00  0.00    -0.129 A  
ENDBRANCH  18  19
ENDBRANCH  17  18
ENDBRANCH  14  17
ENDBRANCH   7  11
TORSDOF 4
ENDMDL
MODEL       75
REMARK 921   NORMALIZED FREE ENERGY PREDICTED BY IDOCK:   -6.36 KCAL/MOL
REMARK 922        TOTAL FREE ENERGY PREDICTED BY IDOCK:   -8.46 KCAL/MOL
REMARK 923 INTER-LIGAND FREE ENERGY PREDICTED BY IDOCK:   -7.92 KCAL/MOL
REMARK 924 INTRA-LIGAND FREE ENERGY PREDICTED BY IDOCK:   -0.54 KCAL/MOL
REMARK 927      BINDING AFFINITY PREDICTED BY RF-SCORE:    0.00 PKD
ROOT
HETATM    1  F   UNL     1      -5.668  19.482  67.634  1.00  0.00    -0.185 F  
HETATM    2  C   UNL     1      -6.690  20.384  67.610  1.00  0.00    -0.275 C  
HETATM    3  C   UNL     1      -8.040  19.766  67.353  1.00  0.00    -0.332 A  
HETATM    4  F   UNL     1      -6.631  21.043  68.799  1.00  0.00    -0.252 F  
HETATM    5  F   UNL     1      -6.350  21.298  66.659  1.00  0.00    -0.306 F  
HETATM    6  C   UNL     1      -8.156  18.380  67.147  1.00  0.00    -0.244 A  
HETATM    7  C   UNL     1      -9.376  17.749  66.854  1.00  0.00    -0.269 A  
HETATM    8  C   UNL     1      -9.192  20.552  67.313  1.00  0.00    -0.500 A  
HETATM    9  C   UNL     1     -10.508  18.579  66.827  1.00  0.00    -0.432 A  
HETATM   10  C   UNL     1     -10.423  19.959  67.059  1.00  0.00    -0.570 A  
ENDROOT
BRANCH   7  11
HETATM   11  N   UNL     1      -9.433  16.364  66.677  1.00  0.00    -0.242 NA 
HETATM   12  C   UNL     1     -10.429  14.371  65.566  1.00  0.00    -0.350 C  
HETATM   13  C   UNL     1     -10.684  15.792  66.123  1.00  0.00    -0.290 C  
HETATM   14  N   UNL     1      -9.821  13.418  66.526  1.00  0.00    -0.279 NA 
HETATM   15  C   UNL     1      -8.583  14.053  67.043  1.00  0.00    -0.174 C  
HETATM   16  C   UNL     1      -8.761  15.473  67.643  1.00  0.00    -0.175 C  
BRANCH  14  17
HETATM   17  C   UNL     1     -10.731  13.069  67.636  1.00  0.00    -0.227 C  
BRANCH  17  18
HETATM   18  C   UNL     1     -11.647  11.868  67.337  1.00  0.00    -0.297 C  
BRANCH  18  19
HETATM   19  N   UNL     1     -11.374  10.756  68.210  1.00  0.00    -0.302 N  
HETATM   20  C   UNL     1     -11.698  10.710  69.581  1.00  0.00    -0.296 C  
HETATM   21  O   UNL     1     -12.252  11.569  70.245  1.00  0.00    -0.330 OA 
HETATM   22  N   UNL     1     -11.241   9.470  70.054  1.00  0.00    -0.232 NA 
HETATM   23  C   UNL     1     -10.633   8.783  69.007  1.00  0.00    -0.171 A  
HETATM   24  C   UNL     1     -10.041   7.543  69.007  1.00  0.00    -0.192 A  
HETATM   25  C   UNL     1      -9.494   7.108  67.795  1.00  0.00    -0.136 A  
HETATM   26  C   UNL     1      -9.549   7.915  66.638  1.00  0.00    -0.293 A  
HETATM   27  C   UNL     1     -10.159   9.174  66.663  1.00  0.00    -0.343 A  
HETATM   28  C   UNL     1     -10.699   9.581  67.863  1.00  0.00    -0.228 A  
ENDBRANCH  18  19
ENDBRANCH  17  18
ENDBRANCH  14  17
ENDBRANCH   7  11
TORSDOF 4
ENDMDL
MODEL       76
REMARK 921   NORMALIZED FREE ENERGY PREDICTED BY IDOCK:   -6.34 KCAL/MOL
REMARK 922        TOTAL FREE ENERGY PREDICTED BY IDOCK:   -8.45 KCAL/MOL
REMARK 923 INTER-LIGAND FREE ENERGY PREDICTED BY IDOCK:   -7.73 KCAL/MOL
REMARK 924 INTRA-LIGAND FREE ENERGY PREDICTED BY IDOCK:   -0.72 KCAL/MOL
REMARK 927      BINDING AFFINITY PREDICTED BY RF-SCORE:    0.00 PKD
ROOT
HETATM    1  F   UNL     1     -14.126   9.191  70.845  1.00  0.00    -0.331 F  
HETATM    2  C   UNL     1     -13.554   8.728  71.992  1.00  0.00    -0.427 C  
HETATM    3  C   UNL     1     -12.102   8.356  71.840  1.00  0.00    -0.398 A  
HETATM    4  F   UNL     1     -13.754   9.699  72.924  1.00  0.00    -0.335 F  
HETATM    5  F   UNL     1     -14.321   7.671  72.383  1.00  0.00    -0.321 F  
HETATM    6  C   UNL     1     -11.466   8.484  70.593  1.00  0.00    -0.249 A  
HETATM    7  C   UNL     1     -10.130   8.109  70.373  1.00  0.00    -0.194 A  
HETATM    8  C   UNL     1     -11.367   7.879  72.926  1.00  0.00    -0.399 A  
HETATM    9  C   UNL     1      -9.430   7.637  71.494  1.00  0.00    -0.166 A  
HETATM   10  C   UNL     1     -10.033   7.529  72.755  1.00  0.00    -0.280 A  
ENDROOT
BRANCH   7  11
HETATM   11  N   UNL     1      -9.545   8.276  69.115  1.00  0.00    -0.159 NA 
HETATM   12  C   UNL     1      -7.545   8.757  67.713  1.00  0.00    -0.097 C  
HETATM   13  C   UNL     1      -8.284   9.053  69.040  1.00  0.00    -0.119 C  
HETATM   14  N   UNL     1      -8.345   8.976  66.484  1.00  0.00    -0.114 NA 
HETATM   15  C   UNL     1      -9.589   8.178  66.627  1.00  0.00    -0.229 C  
HETATM   16  C   UNL     1     -10.402   8.437  67.923  1.00  0.00    -0.221 C  
BRANCH  14  17
HETATM   17  C   UNL     1      -8.662  10.401  66.257  1.00  0.00    -0.153 C  
BRANCH  17  18
HETATM   18  C   UNL     1     -10.050  10.639  65.635  1.00  0.00    -0.272 C  
BRANCH  18  19
HETATM   19  N   UNL     1     -10.588  11.924  66.002  1.00  0.00    -0.256 N  
HETATM   20  C   UNL     1     -10.671  13.038  65.142  1.00  0.00    -0.306 C  
HETATM   21  O   UNL     1     -10.321  13.107  63.977  1.00  0.00    -0.396 OA 
HETATM   22  N   UNL     1     -11.230  14.080  65.899  1.00  0.00    -0.305 NA 
HETATM   23  C   UNL     1     -11.462  13.624  67.193  1.00  0.00    -0.342 A  
HETATM   24  C   UNL     1     -11.989  14.296  68.270  1.00  0.00    -0.346 A  
HETATM   25  C   UNL     1     -12.095  13.579  69.467  1.00  0.00    -0.352 A  
HETATM   26  C   UNL     1     -11.673  12.234  69.551  1.00  0.00    -0.398 A  
HETATM   27  C   UNL     1     -11.142  11.572  68.440  1.00  0.00    -0.288 A  
HETATM   28  C   UNL     1     -11.053  12.292  67.268  1.00  0.00    -0.275 A  
ENDBRANCH  18  19
ENDBRANCH  17  18
ENDBRANCH  14  17
ENDBRANCH   7  11
TORSDOF 4
ENDMDL
MODEL       77
REMARK 921   NORMALIZED FREE ENERGY PREDICTED BY IDOCK:   -6.33 KCAL/MOL
REMARK 922        TOTAL FREE ENERGY PREDICTED BY IDOCK:   -8.43 KCAL/MOL
REMARK 923 INTER-LIGAND FREE ENERGY PREDICTED BY IDOCK:   -7.83 KCAL/MOL
REMARK 924 INTRA-LIGAND FREE ENERGY PREDICTED BY IDOCK:   -0.60 KCAL/MOL
REMARK 927      BINDING AFFINITY PREDICTED BY RF-SCORE:    0.00 PKD
ROOT
HETATM    1  F   UNL     1     -10.977   8.489  71.814  1.00  0.00    -0.286 F  
HETATM    2  C   UNL     1     -11.159   7.415  70.995  1.00  0.00    -0.258 C  
HETATM    3  C   UNL     1     -10.877   7.703  69.544  1.00  0.00    -0.171 A  
HETATM    4  F   UNL     1     -10.369   6.427  71.499  1.00  0.00    -0.214 F  
HETATM    5  F   UNL     1     -12.443   7.009  71.203  1.00  0.00    -0.365 F  
HETATM    6  C   UNL     1     -10.485   8.991  69.141  1.00  0.00    -0.239 A  
HETATM    7  C   UNL     1     -10.256   9.337  67.798  1.00  0.00    -0.218 A  
HETATM    8  C   UNL     1     -11.003   6.703  68.578  1.00  0.00    -0.314 A  
HETATM    9  C   UNL     1     -10.391   8.299  66.863  1.00  0.00    -0.391 A  
HETATM   10  C   UNL     1     -10.752   6.999  67.243  1.00  0.00    -0.412 A  
ENDROOT
BRANCH   7  11
HETATM   11  N   UNL     1      -9.850  10.630  67.459  1.00  0.00    -0.166 NA 
HETATM   12  C   UNL     1      -8.131  12.430  67.495  1.00  0.00    -0.173 C  
HETATM   13  C   UNL     1      -8.761  11.241  68.259  1.00  0.00    -0.158 C  
HETATM   14  N   UNL     1      -9.085  13.477  67.060  1.00  0.00    -0.237 NA 
HETATM   15  C   UNL     1     -10.146  12.799  66.273  1.00  0.00    -0.259 C  
HETATM   16  C   UNL     1     -10.846  11.611  66.983  1.00  0.00    -0.266 C  
BRANCH  14  17
HETATM   17  C   UNL     1      -9.671  14.221  68.194  1.00  0.00    -0.226 C  
BRANCH  17  18
HETATM   18  C   UNL     1      -8.721  15.259  68.818  1.00  0.00    -0.195 C  
BRANCH  18  19
HETATM   19  N   UNL     1      -8.374  16.297  67.883  1.00  0.00    -0.164 N  
HETATM   20  C   UNL     1      -7.241  16.281  67.045  1.00  0.00    -0.227 C  
HETATM   21  O   UNL     1      -6.389  15.413  66.962  1.00  0.00    -0.267 OA 
HETATM   22  N   UNL     1      -7.268  17.482  66.319  1.00  0.00    -0.290 NA 
HETATM   23  C   UNL     1      -8.376  18.225  66.717  1.00  0.00    -0.255 A  
HETATM   24  C   UNL     1      -8.796  19.460  66.285  1.00  0.00    -0.372 A  
HETATM   25  C   UNL     1      -9.953  19.974  66.880  1.00  0.00    -0.584 A  
HETATM   26  C   UNL     1     -10.641  19.252  67.880  1.00  0.00    -0.478 A  
HETATM   27  C   UNL     1     -10.194  17.996  68.302  1.00  0.00    -0.402 A  
HETATM   28  C   UNL     1      -9.058  17.503  67.698  1.00  0.00    -0.243 A  
ENDBRANCH  18  19
ENDBRANCH  17  18
ENDBRANCH  14  17
ENDBRANCH   7  11
TORSDOF 4
ENDMDL
MODEL       78
REMARK 921   NORMALIZED FREE ENERGY PREDICTED BY IDOCK:   -6.31 KCAL/MOL
REMARK 922        TOTAL FREE ENERGY PREDICTED BY IDOCK:   -8.41 KCAL/MOL
REMARK 923 INTER-LIGAND FREE ENERGY PREDICTED BY IDOCK:   -7.66 KCAL/MOL
REMARK 924 INTRA-LIGAND FREE ENERGY PREDICTED BY IDOCK:   -0.76 KCAL/MOL
REMARK 927      BINDING AFFINITY PREDICTED BY RF-SCORE:    0.00 PKD
ROOT
HETATM    1  F   UNL     1     -14.339  13.865  71.229  1.00  0.00    -0.262 F  
HETATM    2  C   UNL     1     -13.416  14.700  71.786  1.00  0.00    -0.373 C  
HETATM    3  C   UNL     1     -12.440  15.274  70.793  1.00  0.00    -0.457 A  
HETATM    4  F   UNL     1     -14.130  15.659  72.437  1.00  0.00    -0.543 F  
HETATM    5  F   UNL     1     -12.799  13.969  72.757  1.00  0.00    -0.450 F  
HETATM    6  C   UNL     1     -12.521  14.920  69.435  1.00  0.00    -0.075 A  
HETATM    7  C   UNL     1     -11.611  15.381  68.469  1.00  0.00    -0.359 A  
HETATM    8  C   UNL     1     -11.441  16.159  71.201  1.00  0.00    -0.433 A  
HETATM    9  C   UNL     1     -10.626  16.271  68.924  1.00  0.00    -0.284 A  
HETATM   10  C   UNL     1     -10.543  16.663  70.268  1.00  0.00     0.106 A  
ENDROOT
BRANCH   7  11
HETATM   11  N   UNL     1     -11.752  15.010  67.129  1.00  0.00    -0.281 NA 
HETATM   12  C   UNL     1     -12.772  13.546  65.393  1.00  0.00    -0.442 C  
HETATM   13  C   UNL     1     -12.240  13.639  66.843  1.00  0.00    -0.352 C  
HETATM   14  N   UNL     1     -11.816  13.970  64.342  1.00  0.00    -0.426 NA 
HETATM   15  C   UNL     1     -11.366  15.341  64.692  1.00  0.00    -0.358 C  
HETATM   16  C   UNL     1     -10.794  15.511  66.124  1.00  0.00    -0.295 C  
BRANCH  14  17
HETATM   17  C   UNL     1     -10.661  13.058  64.220  1.00  0.00    -0.407 C  
BRANCH  17  18
HETATM   18  C   UNL     1     -11.045  11.568  64.174  1.00  0.00    -0.344 C  
BRANCH  18  19
HETATM   19  N   UNL     1     -10.089  10.746  64.870  1.00  0.00    -0.301 N  
HETATM   20  C   UNL     1     -10.239  10.277  66.191  1.00  0.00    -0.217 C  
HETATM   21  O   UNL     1     -11.175  10.472  66.948  1.00  0.00    -0.193 OA 
HETATM   22  N   UNL     1      -9.080   9.542  66.484  1.00  0.00    -0.146 NA 
HETATM   23  C   UNL     1      -8.232   9.577  65.381  1.00  0.00    -0.127 A  
HETATM   24  C   UNL     1      -6.993   9.006  65.218  1.00  0.00    -0.083 A  
HETATM   25  C   UNL     1      -6.358   9.222  63.990  1.00  0.00    -0.090 A  
HETATM   26  C   UNL     1      -6.968   9.996  62.980  1.00  0.00    -0.130 A  
HETATM   27  C   UNL     1      -8.231  10.565  63.170  1.00  0.00    -0.125 A  
HETATM   28  C   UNL     1      -8.845  10.335  64.381  1.00  0.00    -0.209 A  
ENDBRANCH  18  19
ENDBRANCH  17  18
ENDBRANCH  14  17
ENDBRANCH   7  11
TORSDOF 4
ENDMDL
MODEL       79
REMARK 921   NORMALIZED FREE ENERGY PREDICTED BY IDOCK:   -6.28 KCAL/MOL
REMARK 922        TOTAL FREE ENERGY PREDICTED BY IDOCK:   -8.37 KCAL/MOL
REMARK 923 INTER-LIGAND FREE ENERGY PREDICTED BY IDOCK:   -7.68 KCAL/MOL
REMARK 924 INTRA-LIGAND FREE ENERGY PREDICTED BY IDOCK:   -0.69 KCAL/MOL
REMARK 927      BINDING AFFINITY PREDICTED BY RF-SCORE:    0.00 PKD
ROOT
HETATM    1  F   UNL     1     -11.520  11.494  65.622  1.00  0.00    -0.331 F  
HETATM    2  C   UNL     1     -11.645  12.816  65.931  1.00  0.00    -0.382 C  
HETATM    3  C   UNL     1     -11.759  13.085  67.409  1.00  0.00    -0.427 A  
HETATM    4  F   UNL     1     -10.572  13.432  65.364  1.00  0.00    -0.275 F  
HETATM    5  F   UNL     1     -12.736  13.252  65.239  1.00  0.00    -0.475 F  
HETATM    6  C   UNL     1     -11.749  12.020  68.325  1.00  0.00    -0.396 A  
HETATM    7  C   UNL     1     -11.900  12.200  69.711  1.00  0.00    -0.327 A  
HETATM    8  C   UNL     1     -11.878  14.389  67.892  1.00  0.00    -0.384 A  
HETATM    9  C   UNL     1     -12.014  13.528  70.150  1.00  0.00    -0.399 A  
HETATM   10  C   UNL     1     -11.997  14.610  69.259  1.00  0.00    -0.337 A  
ENDROOT
BRANCH   7  11
HETATM   11  N   UNL     1     -11.863  11.104  70.576  1.00  0.00    -0.355 NA 
HETATM   12  C   UNL     1     -10.637   9.177  71.564  1.00  0.00    -0.358 C  
HETATM   13  C   UNL     1     -10.860  10.046  70.304  1.00  0.00    -0.313 C  
HETATM   14  N   UNL     1     -11.862   8.572  72.138  1.00  0.00    -0.358 NA 
HETATM   15  C   UNL     1     -12.821   9.680  72.380  1.00  0.00    -0.236 C  
HETATM   16  C   UNL     1     -13.118  10.584  71.155  1.00  0.00    -0.358 C  
BRANCH  14  17
HETATM   17  C   UNL     1     -12.460   7.548  71.258  1.00  0.00    -0.323 C  
BRANCH  17  18
HETATM   18  C   UNL     1     -12.109   6.102  71.654  1.00  0.00    -0.040 C  
BRANCH  18  19
HETATM   19  N   UNL     1     -10.722   5.802  71.410  1.00  0.00    -0.252 N  
HETATM   20  C   UNL     1     -10.176   5.485  70.150  1.00  0.00    -0.263 C  
HETATM   21  O   UNL     1     -10.758   5.418  69.081  1.00  0.00    -0.220 OA 
HETATM   22  N   UNL     1      -8.809   5.241  70.361  1.00  0.00    -0.125 NA 
HETATM   23  C   UNL     1      -8.530   5.382  71.717  1.00  0.00    -0.127 A  
HETATM   24  C   UNL     1      -7.336   5.232  72.379  1.00  0.00    -0.094 A  
HETATM   25  C   UNL     1      -7.356   5.425  73.765  1.00  0.00    -0.087 A  
HETATM   26  C   UNL     1      -8.554   5.753  74.438  1.00  0.00    -0.114 A  
HETATM   27  C   UNL     1      -9.757   5.902  73.741  1.00  0.00    -0.166 A  
HETATM   28  C   UNL     1      -9.715   5.716  72.376  1.00  0.00    -0.156 A  
ENDBRANCH  18  19
ENDBRANCH  17  18
ENDBRANCH  14  17
ENDBRANCH   7  11
TORSDOF 4
ENDMDL
MODEL       80
REMARK 921   NORMALIZED FREE ENERGY PREDICTED BY IDOCK:   -6.28 KCAL/MOL
REMARK 922        TOTAL FREE ENERGY PREDICTED BY IDOCK:   -8.36 KCAL/MOL
REMARK 923 INTER-LIGAND FREE ENERGY PREDICTED BY IDOCK:   -7.48 KCAL/MOL
REMARK 924 INTRA-LIGAND FREE ENERGY PREDICTED BY IDOCK:   -0.89 KCAL/MOL
REMARK 927      BINDING AFFINITY PREDICTED BY RF-SCORE:    0.00 PKD
ROOT
HETATM    1  F   UNL     1     -12.421  14.110  71.321  1.00  0.00    -0.362 F  
HETATM    2  C   UNL     1     -12.379  15.267  70.601  1.00  0.00    -0.377 C  
HETATM    3  C   UNL     1     -11.542  15.174  69.352  1.00  0.00    -0.343 A  
HETATM    4  F   UNL     1     -13.676  15.589  70.343  1.00  0.00    -0.259 F  
HETATM    5  F   UNL     1     -11.921  16.218  71.463  1.00  0.00    -0.445 F  
HETATM    6  C   UNL     1     -10.877  13.978  69.032  1.00  0.00    -0.268 A  
HETATM    7  C   UNL     1     -10.042  13.842  67.910  1.00  0.00    -0.242 A  
HETATM    8  C   UNL     1     -11.408  16.269  68.497  1.00  0.00    -0.330 A  
HETATM    9  C   UNL     1      -9.941  14.967  67.078  1.00  0.00    -0.242 A  
HETATM   10  C   UNL     1     -10.618  16.162  67.359  1.00  0.00    -0.311 A  
ENDROOT
BRANCH   7  11
HETATM   11  N   UNL     1      -9.421  12.621  67.633  1.00  0.00    -0.183 NA 
HETATM   12  C   UNL     1      -9.462  10.376  66.559  1.00  0.00    -0.167 C  
HETATM   13  C   UNL     1     -10.289  11.476  67.266  1.00  0.00    -0.206 C  
HETATM   14  N   UNL     1      -8.281   9.892  67.313  1.00  0.00    -0.120 NA 
HETATM   15  C   UNL     1      -7.463  11.084  67.651  1.00  0.00    -0.096 C  
HETATM   16  C   UNL     1      -8.216  12.223  68.387  1.00  0.00    -0.146 C  
BRANCH  14  17
HETATM   17  C   UNL     1      -8.650   9.149  68.535  1.00  0.00    -0.129 C  
BRANCH  17  18
HETATM   18  C   UNL     1      -9.859   8.213  68.355  1.00  0.00    -0.171 C  
BRANCH  18  19
HETATM   19  N   UNL     1     -10.562   8.002  69.595  1.00  0.00    -0.228 N  
HETATM   20  C   UNL     1     -10.579   6.791  70.315  1.00  0.00    -0.215 C  
HETATM   21  O   UNL     1     -10.016   5.747  70.030  1.00  0.00    -0.169 OA 
HETATM   22  N   UNL     1     -11.392   7.009  71.438  1.00  0.00    -0.255 NA 
HETATM   23  C   UNL     1     -11.879   8.312  71.395  1.00  0.00    -0.293 A  
HETATM   24  C   UNL     1     -12.713   8.958  72.276  1.00  0.00    -0.464 A  
HETATM   25  C   UNL     1     -13.050  10.280  71.968  1.00  0.00    -0.529 A  
HETATM   26  C   UNL     1     -12.556  10.906  70.803  1.00  0.00    -0.470 A  
HETATM   27  C   UNL     1     -11.708  10.228  69.923  1.00  0.00    -0.298 A  
HETATM   28  C   UNL     1     -11.380   8.930  70.247  1.00  0.00    -0.159 A  
ENDBRANCH  18  19
ENDBRANCH  17  18
ENDBRANCH  14  17
ENDBRANCH   7  11
TORSDOF 4
ENDMDL
MODEL       81
REMARK 921   NORMALIZED FREE ENERGY PREDICTED BY IDOCK:   -6.27 KCAL/MOL
REMARK 922        TOTAL FREE ENERGY PREDICTED BY IDOCK:   -8.36 KCAL/MOL
REMARK 923 INTER-LIGAND FREE ENERGY PREDICTED BY IDOCK:   -7.74 KCAL/MOL
REMARK 924 INTRA-LIGAND FREE ENERGY PREDICTED BY IDOCK:   -0.62 KCAL/MOL
REMARK 927      BINDING AFFINITY PREDICTED BY RF-SCORE:    0.00 PKD
ROOT
HETATM    1  F   UNL     1     -11.003   6.213  74.130  1.00  0.00    -0.155 F  
HETATM    2  C   UNL     1     -10.738   5.158  73.308  1.00  0.00    -0.266 C  
HETATM    3  C   UNL     1     -10.519   5.549  71.870  1.00  0.00    -0.282 A  
HETATM    4  F   UNL     1      -9.662   4.526  73.852  1.00  0.00    -0.122 F  
HETATM    5  F   UNL     1     -11.789   4.303  73.459  1.00  0.00    -0.337 F  
HETATM    6  C   UNL     1     -10.615   6.896  71.480  1.00  0.00    -0.239 A  
HETATM    7  C   UNL     1     -10.471   7.320  70.148  1.00  0.00    -0.218 A  
HETATM    8  C   UNL     1     -10.223   4.587  70.903  1.00  0.00    -0.170 A  
HETATM    9  C   UNL     1     -10.170   6.318  69.212  1.00  0.00    -0.236 A  
HETATM   10  C   UNL     1     -10.041   4.972  69.581  1.00  0.00    -0.321 A  
ENDROOT
BRANCH   7  11
HETATM   11  N   UNL     1     -10.558   8.676  69.823  1.00  0.00    -0.224 NA 
HETATM   12  C   UNL     1     -11.577  10.918  70.180  1.00  0.00    -0.338 C  
HETATM   13  C   UNL     1     -11.810   9.389  70.173  1.00  0.00     0.064 C  
HETATM   14  N   UNL     1     -11.014  11.476  68.928  1.00  0.00    -0.216 NA 
HETATM   15  C   UNL     1      -9.772  10.718  68.634  1.00  0.00    -0.186 C  
HETATM   16  C   UNL     1      -9.929   9.175  68.584  1.00  0.00    -0.170 C  
BRANCH  14  17
HETATM   17  C   UNL     1     -11.956  11.394  67.793  1.00  0.00     0.005 C  
BRANCH  17  18
HETATM   18  C   UNL     1     -11.283  11.510  66.413  1.00  0.00    -0.243 C  
BRANCH  18  19
HETATM   19  N   UNL     1     -11.551  12.781  65.792  1.00  0.00    -0.355 N  
HETATM   20  C   UNL     1     -12.581  13.021  64.860  1.00  0.00    -0.428 C  
HETATM   21  O   UNL     1     -13.402  12.225  64.436  1.00  0.00    -0.786 OA 
HETATM   22  N   UNL     1     -12.475  14.371  64.492  1.00  0.00    -0.660 NA 
HETATM   23  C   UNL     1     -11.395  14.938  65.162  1.00  0.00    -0.379 A  
HETATM   24  C   UNL     1     -10.914  16.224  65.106  1.00  0.00    -0.285 A  
HETATM   25  C   UNL     1      -9.791  16.510  65.890  1.00  0.00    -0.324 A  
HETATM   26  C   UNL     1      -9.187  15.516  66.690  1.00  0.00    -0.299 A  
HETATM   27  C   UNL     1      -9.697  14.214  66.731  1.00  0.00    -0.283 A  
HETATM   28  C   UNL     1     -10.808  13.954  65.959  1.00  0.00    -0.290 A  
ENDBRANCH  18  19
ENDBRANCH  17  18
ENDBRANCH  14  17
ENDBRANCH   7  11
TORSDOF 4
ENDMDL
MODEL       82
REMARK 921   NORMALIZED FREE ENERGY PREDICTED BY IDOCK:   -6.27 KCAL/MOL
REMARK 922        TOTAL FREE ENERGY PREDICTED BY IDOCK:   -8.35 KCAL/MOL
REMARK 923 INTER-LIGAND FREE ENERGY PREDICTED BY IDOCK:   -7.79 KCAL/MOL
REMARK 924 INTRA-LIGAND FREE ENERGY PREDICTED BY IDOCK:   -0.56 KCAL/MOL
REMARK 927      BINDING AFFINITY PREDICTED BY RF-SCORE:    0.00 PKD
ROOT
HETATM    1  F   UNL     1     -13.837  14.390  72.946  1.00  0.00    -0.522 F  
HETATM    2  C   UNL     1     -13.333  14.979  71.824  1.00  0.00    -0.386 C  
HETATM    3  C   UNL     1     -12.714  14.008  70.854  1.00  0.00    -0.420 A  
HETATM    4  F   UNL     1     -14.364  15.681  71.280  1.00  0.00    -0.535 F  
HETATM    5  F   UNL     1     -12.441  15.909  72.268  1.00  0.00    -0.399 F  
HETATM    6  C   UNL     1     -12.677  12.635  71.153  1.00  0.00    -0.347 A  
HETATM    7  C   UNL     1     -12.070  11.685  70.315  1.00  0.00    -0.358 A  
HETATM    8  C   UNL     1     -12.166  14.450  69.649  1.00  0.00    -0.353 A  
HETATM    9  C   UNL     1     -11.536  12.175  69.113  1.00  0.00    -0.352 A  
HETATM   10  C   UNL     1     -11.587  13.535  68.778  1.00  0.00    -0.362 A  
ENDROOT
BRANCH   7  11
HETATM   11  N   UNL     1     -12.080  10.330  70.656  1.00  0.00    -0.313 NA 
HETATM   12  C   UNL     1     -13.198   8.386  71.738  1.00  0.00    -0.355 C  
HETATM   13  C   UNL     1     -12.943   9.912  71.788  1.00  0.00    -0.449 C  
HETATM   14  N   UNL     1     -11.979   7.544  71.697  1.00  0.00    -0.290 NA 
HETATM   15  C   UNL     1     -11.162   8.018  70.550  1.00  0.00    -0.250 C  
HETATM   16  C   UNL     1     -10.840   9.535  70.542  1.00  0.00    -0.292 C  
BRANCH  14  17
HETATM   17  C   UNL     1     -11.201   7.605  72.951  1.00  0.00    -0.372 C  
BRANCH  17  18
HETATM   18  C   UNL     1     -10.589   6.256  73.371  1.00  0.00    -0.273 C  
BRANCH  18  19
HETATM   19  N   UNL     1      -9.348   5.996  72.689  1.00  0.00    -0.147 N  
HETATM   20  C   UNL     1      -9.108   4.893  71.845  1.00  0.00    -0.136 C  
HETATM   21  O   UNL     1      -9.883   4.000  71.548  1.00  0.00    -0.176 OA 
HETATM   22  N   UNL     1      -7.778   5.008  71.412  1.00  0.00    -0.097 NA 
HETATM   23  C   UNL     1      -7.210   6.138  71.992  1.00  0.00    -0.092 A  
HETATM   24  C   UNL     1      -5.936   6.637  71.861  1.00  0.00    -0.038 A  
HETATM   25  C   UNL     1      -5.638   7.798  72.583  1.00  0.00    -0.036 A  
HETATM   26  C   UNL     1      -6.606   8.413  73.407  1.00  0.00    -0.124 A  
HETATM   27  C   UNL     1      -7.896   7.886  73.523  1.00  0.00    -0.214 A  
HETATM   28  C   UNL     1      -8.173   6.748  72.798  1.00  0.00    -0.110 A  
ENDBRANCH  18  19
ENDBRANCH  17  18
ENDBRANCH  14  17
ENDBRANCH   7  11
TORSDOF 4
ENDMDL
MODEL       83
REMARK 921   NORMALIZED FREE ENERGY PREDICTED BY IDOCK:   -6.27 KCAL/MOL
REMARK 922        TOTAL FREE ENERGY PREDICTED BY IDOCK:   -8.35 KCAL/MOL
REMARK 923 INTER-LIGAND FREE ENERGY PREDICTED BY IDOCK:   -7.82 KCAL/MOL
REMARK 924 INTRA-LIGAND FREE ENERGY PREDICTED BY IDOCK:   -0.53 KCAL/MOL
REMARK 927      BINDING AFFINITY PREDICTED BY RF-SCORE:    0.00 PKD
ROOT
HETATM    1  F   UNL     1     -13.182  13.011  72.132  1.00  0.00    -0.490 F  
HETATM    2  C   UNL     1     -13.078  14.251  71.577  1.00  0.00    -0.343 C  
HETATM    3  C   UNL     1     -12.261  14.284  70.312  1.00  0.00    -0.407 A  
HETATM    4  F   UNL     1     -14.356  14.681  71.389  1.00  0.00    -0.457 F  
HETATM    5  F   UNL     1     -12.556  15.047  72.552  1.00  0.00    -0.349 F  
HETATM    6  C   UNL     1     -11.673  13.106  69.819  1.00  0.00    -0.350 A  
HETATM    7  C   UNL     1     -10.859  13.078  68.674  1.00  0.00    -0.259 A  
HETATM    8  C   UNL     1     -12.072  15.476  69.612  1.00  0.00    -0.352 A  
HETATM    9  C   UNL     1     -10.700  14.299  68.001  1.00  0.00    -0.242 A  
HETATM   10  C   UNL     1     -11.301  15.481  68.455  1.00  0.00    -0.356 A  
ENDROOT
BRANCH   7  11
HETATM   11  N   UNL     1     -10.316  11.873  68.221  1.00  0.00    -0.196 NA 
HETATM   12  C   UNL     1     -10.596   9.665  67.105  1.00  0.00    -0.228 C  
HETATM   13  C   UNL     1     -11.243  10.733  68.020  1.00  0.00    -0.307 C  
HETATM   14  N   UNL     1      -9.274   9.167  67.555  1.00  0.00    -0.128 NA 
HETATM   15  C   UNL     1      -8.402  10.354  67.741  1.00  0.00    -0.114 C  
HETATM   16  C   UNL     1      -8.971  11.460  68.668  1.00  0.00    -0.131 C  
BRANCH  14  17
HETATM   17  C   UNL     1      -9.356   8.379  68.802  1.00  0.00    -0.143 C  
BRANCH  17  18
HETATM   18  C   UNL     1     -10.760   7.820  69.096  1.00  0.00    -0.126 C  
BRANCH  18  19
HETATM   19  N   UNL     1     -10.954   7.571  70.501  1.00  0.00    -0.249 N  
HETATM   20  C   UNL     1     -11.362   8.538  71.442  1.00  0.00    -0.271 C  
HETATM   21  O   UNL     1     -11.620   9.712  71.239  1.00  0.00    -0.334 OA 
HETATM   22  N   UNL     1     -11.403   7.887  72.686  1.00  0.00    -0.388 NA 
HETATM   23  C   UNL     1     -11.009   6.563  72.515  1.00  0.00    -0.248 A  
HETATM   24  C   UNL     1     -10.892   5.563  73.451  1.00  0.00    -0.332 A  
HETATM   25  C   UNL     1     -10.456   4.317  72.987  1.00  0.00    -0.250 A  
HETATM   26  C   UNL     1     -10.148   4.113  71.625  1.00  0.00    -0.198 A  
HETATM   27  C   UNL     1     -10.276   5.147  70.692  1.00  0.00    -0.326 A  
HETATM   28  C   UNL     1     -10.715   6.364  71.165  1.00  0.00    -0.244 A  
ENDBRANCH  18  19
ENDBRANCH  17  18
ENDBRANCH  14  17
ENDBRANCH   7  11
TORSDOF 4
ENDMDL
MODEL       84
REMARK 921   NORMALIZED FREE ENERGY PREDICTED BY IDOCK:   -6.26 KCAL/MOL
REMARK 922        TOTAL FREE ENERGY PREDICTED BY IDOCK:   -8.35 KCAL/MOL
REMARK 923 INTER-LIGAND FREE ENERGY PREDICTED BY IDOCK:   -7.81 KCAL/MOL
REMARK 924 INTRA-LIGAND FREE ENERGY PREDICTED BY IDOCK:   -0.53 KCAL/MOL
REMARK 927      BINDING AFFINITY PREDICTED BY RF-SCORE:    0.00 PKD
ROOT
HETATM    1  F   UNL     1     -11.463   6.183  68.809  1.00  0.00    -0.434 F  
HETATM    2  C   UNL     1     -10.320   5.806  68.170  1.00  0.00    -0.212 C  
HETATM    3  C   UNL     1      -9.490   6.963  67.678  1.00  0.00    -0.133 A  
HETATM    4  F   UNL     1      -9.649   5.013  69.048  1.00  0.00    -0.148 F  
HETATM    5  F   UNL     1     -10.720   4.988  67.156  1.00  0.00    -0.242 F  
HETATM    6  C   UNL     1      -9.928   8.284  67.879  1.00  0.00    -0.227 A  
HETATM    7  C   UNL     1      -9.225   9.404  67.402  1.00  0.00    -0.126 A  
HETATM    8  C   UNL     1      -8.281   6.747  67.015  1.00  0.00    -0.113 A  
HETATM    9  C   UNL     1      -8.014   9.138  66.745  1.00  0.00    -0.104 A  
HETATM   10  C   UNL     1      -7.542   7.831  66.558  1.00  0.00    -0.096 A  
ENDROOT
BRANCH   7  11
HETATM   11  N   UNL     1      -9.700  10.695  67.649  1.00  0.00    -0.164 NA 
HETATM   12  C   UNL     1     -11.595  12.250  68.079  1.00  0.00    -0.349 C  
HETATM   13  C   UNL     1     -11.123  10.975  67.340  1.00  0.00    -0.305 C  
HETATM   14  N   UNL     1     -10.778  13.462  67.830  1.00  0.00    -0.245 NA 
HETATM   15  C   UNL     1      -9.371  13.111  68.152  1.00  0.00    -0.217 C  
HETATM   16  C   UNL     1      -8.815  11.856  67.429  1.00  0.00    -0.171 C  
BRANCH  14  17
HETATM   17  C   UNL     1     -10.888  13.949  66.440  1.00  0.00    -0.291 C  
BRANCH  17  18
HETATM   18  C   UNL     1      -9.706  14.826  65.990  1.00  0.00    -0.321 C  
BRANCH  18  19
HETATM   19  N   UNL     1     -10.068  16.218  65.918  1.00  0.00    -0.344 N  
HETATM   20  C   UNL     1     -10.857  16.794  64.903  1.00  0.00    -0.073 C  
HETATM   21  O   UNL     1     -11.361  16.235  63.944  1.00  0.00    -0.834 OA 
HETATM   22  N   UNL     1     -10.945  18.163  65.199  1.00  0.00    -0.522 NA 
HETATM   23  C   UNL     1     -10.211  18.424  66.353  1.00  0.00    -0.410 A  
HETATM   24  C   UNL     1     -10.010  19.616  67.005  1.00  0.00    -0.510 A  
HETATM   25  C   UNL     1      -9.205  19.579  68.149  1.00  0.00    -0.411 A  
HETATM   26  C   UNL     1      -8.629  18.370  68.596  1.00  0.00    -0.315 A  
HETATM   27  C   UNL     1      -8.850  17.169  67.915  1.00  0.00    -0.226 A  
HETATM   28  C   UNL     1      -9.652  17.224  66.796  1.00  0.00    -0.272 A  
ENDBRANCH  18  19
ENDBRANCH  17  18
ENDBRANCH  14  17
ENDBRANCH   7  11
TORSDOF 4
ENDMDL
MODEL       85
REMARK 921   NORMALIZED FREE ENERGY PREDICTED BY IDOCK:   -6.25 KCAL/MOL
REMARK 922        TOTAL FREE ENERGY PREDICTED BY IDOCK:   -8.34 KCAL/MOL
REMARK 923 INTER-LIGAND FREE ENERGY PREDICTED BY IDOCK:   -7.88 KCAL/MOL
REMARK 924 INTRA-LIGAND FREE ENERGY PREDICTED BY IDOCK:   -0.45 KCAL/MOL
REMARK 927      BINDING AFFINITY PREDICTED BY RF-SCORE:    0.00 PKD
ROOT
HETATM    1  F   UNL     1     -11.999   9.759  69.828  1.00  0.00    -0.156 F  
HETATM    2  C   UNL     1     -12.525  10.259  70.981  1.00  0.00    -0.384 C  
HETATM    3  C   UNL     1     -12.595  11.764  71.014  1.00  0.00    -0.409 A  
HETATM    4  F   UNL     1     -13.746   9.673  71.117  1.00  0.00    -0.415 F  
HETATM    5  F   UNL     1     -11.754   9.755  71.985  1.00  0.00    -0.436 F  
HETATM    6  C   UNL     1     -12.123  12.518  69.925  1.00  0.00    -0.322 A  
HETATM    7  C   UNL     1     -12.115  13.923  69.914  1.00  0.00    -0.344 A  
HETATM    8  C   UNL     1     -13.122  12.433  72.119  1.00  0.00    -0.419 A  
HETATM    9  C   UNL     1     -12.657  14.552  71.045  1.00  0.00    -0.410 A  
HETATM   10  C   UNL     1     -13.161  13.822  72.131  1.00  0.00    -0.538 A  
ENDROOT
BRANCH   7  11
HETATM   11  N   UNL     1     -11.650  14.619  68.795  1.00  0.00    -0.300 NA 
HETATM   12  C   UNL     1     -11.372  14.796  66.328  1.00  0.00    -0.334 C  
HETATM   13  C   UNL     1     -11.426  13.847  67.549  1.00  0.00    -0.340 C  
HETATM   14  N   UNL     1     -10.379  15.893  66.426  1.00  0.00    -0.296 NA 
HETATM   15  C   UNL     1     -10.657  16.618  67.692  1.00  0.00    -0.321 C  
HETATM   16  C   UNL     1     -10.701  15.737  68.968  1.00  0.00    -0.235 C  
BRANCH  14  17
HETATM   17  C   UNL     1      -8.985  15.406  66.398  1.00  0.00    -0.316 C  
BRANCH  17  18
HETATM   18  C   UNL     1      -7.932  16.528  66.369  1.00  0.00    -0.317 C  
BRANCH  18  19
HETATM   19  N   UNL     1      -7.258  16.663  67.634  1.00  0.00    -0.132 N  
HETATM   20  C   UNL     1      -6.932  17.890  68.247  1.00  0.00    -0.222 C  
HETATM   21  O   UNL     1      -7.161  19.013  67.833  1.00  0.00    -0.230 OA 
HETATM   22  N   UNL     1      -6.267  17.571  69.441  1.00  0.00    -0.241 NA 
HETATM   23  C   UNL     1      -6.167  16.187  69.547  1.00  0.00    -0.181 A  
HETATM   24  C   UNL     1      -5.593  15.429  70.539  1.00  0.00    -0.123 A  
HETATM   25  C   UNL     1      -5.630  14.041  70.371  1.00  0.00    -0.134 A  
HETATM   26  C   UNL     1      -6.226  13.460  69.231  1.00  0.00    -0.103 A  
HETATM   27  C   UNL     1      -6.806  14.253  68.235  1.00  0.00    -0.109 A  
HETATM   28  C   UNL     1      -6.767  15.617  68.422  1.00  0.00    -0.116 A  
ENDBRANCH  18  19
ENDBRANCH  17  18
ENDBRANCH  14  17
ENDBRANCH   7  11
TORSDOF 4
ENDMDL
MODEL       86
REMARK 921   NORMALIZED FREE ENERGY PREDICTED BY IDOCK:   -6.22 KCAL/MOL
REMARK 922        TOTAL FREE ENERGY PREDICTED BY IDOCK:   -8.29 KCAL/MOL
REMARK 923 INTER-LIGAND FREE ENERGY PREDICTED BY IDOCK:   -7.79 KCAL/MOL
REMARK 924 INTRA-LIGAND FREE ENERGY PREDICTED BY IDOCK:   -0.50 KCAL/MOL
REMARK 927      BINDING AFFINITY PREDICTED BY RF-SCORE:    0.00 PKD
ROOT
HETATM    1  F   UNL     1      -8.688   3.653  68.165  1.00  0.00    -0.098 F  
HETATM    2  C   UNL     1      -8.951   2.680  69.082  1.00  0.00    -0.113 C  
HETATM    3  C   UNL     1      -9.513   3.204  70.378  1.00  0.00    -0.227 A  
HETATM    4  F   UNL     1      -9.787   1.802  68.463  1.00  0.00    -0.241 F  
HETATM    5  F   UNL     1      -7.775   2.015  69.259  1.00  0.00    -0.043 F  
HETATM    6  C   UNL     1      -9.704   4.585  70.560  1.00  0.00    -0.290 A  
HETATM    7  C   UNL     1     -10.177   5.140  71.761  1.00  0.00    -0.209 A  
HETATM    8  C   UNL     1      -9.850   2.334  71.416  1.00  0.00    -0.175 A  
HETATM    9  C   UNL     1     -10.505   4.227  72.775  1.00  0.00    -0.249 A  
HETATM   10  C   UNL     1     -10.353   2.844  72.607  1.00  0.00    -0.215 A  
ENDROOT
BRANCH   7  11
HETATM   11  N   UNL     1     -10.364   6.520  71.877  1.00  0.00    -0.199 NA 
HETATM   12  C   UNL     1     -11.808   8.458  72.473  1.00  0.00    -0.358 C  
HETATM   13  C   UNL     1     -11.757   7.027  71.886  1.00  0.00    -0.296 C  
HETATM   14  N   UNL     1     -10.918   9.442  71.812  1.00  0.00    -0.323 NA 
HETATM   15  C   UNL     1      -9.547   8.872  71.833  1.00  0.00    -0.256 C  
HETATM   16  C   UNL     1      -9.409   7.446  71.236  1.00  0.00    -0.153 C  
BRANCH  14  17
HETATM   17  C   UNL     1     -11.335   9.748  70.428  1.00  0.00    -0.297 C  
BRANCH  17  18
HETATM   18  C   UNL     1     -12.670  10.508  70.332  1.00  0.00    -0.252 C  
BRANCH  18  19
HETATM   19  N   UNL     1     -12.474  11.894  69.994  1.00  0.00    -0.088 N  
HETATM   20  C   UNL     1     -11.952  12.360  68.771  1.00  0.00    -0.229 C  
HETATM   21  O   UNL     1     -11.592  11.695  67.814  1.00  0.00    -0.399 OA 
HETATM   22  N   UNL     1     -11.908  13.759  68.866  1.00  0.00    -0.342 NA 
HETATM   23  C   UNL     1     -12.369  14.141  70.122  1.00  0.00    -0.351 A  
HETATM   24  C   UNL     1     -12.496  15.401  70.656  1.00  0.00    -0.478 A  
HETATM   25  C   UNL     1     -12.983  15.482  71.966  1.00  0.00    -0.517 A  
HETATM   26  C   UNL     1     -13.318  14.319  72.693  1.00  0.00    -0.619 A  
HETATM   27  C   UNL     1     -13.182  13.048  72.126  1.00  0.00    -0.558 A  
HETATM   28  C   UNL     1     -12.709  12.989  70.833  1.00  0.00    -0.217 A  
ENDBRANCH  18  19
ENDBRANCH  17  18
ENDBRANCH  14  17
ENDBRANCH   7  11
TORSDOF 4
ENDMDL
MODEL       87
REMARK 921   NORMALIZED FREE ENERGY PREDICTED BY IDOCK:   -6.22 KCAL/MOL
REMARK 922        TOTAL FREE ENERGY PREDICTED BY IDOCK:   -8.29 KCAL/MOL
REMARK 923 INTER-LIGAND FREE ENERGY PREDICTED BY IDOCK:   -7.54 KCAL/MOL
REMARK 924 INTRA-LIGAND FREE ENERGY PREDICTED BY IDOCK:   -0.75 KCAL/MOL
REMARK 927      BINDING AFFINITY PREDICTED BY RF-SCORE:    0.00 PKD
ROOT
HETATM    1  F   UNL     1     -11.741  11.905  65.509  1.00  0.00    -0.397 F  
HETATM    2  C   UNL     1     -11.819  13.107  66.147  1.00  0.00    -0.401 C  
HETATM    3  C   UNL     1     -11.895  12.994  67.647  1.00  0.00    -0.401 A  
HETATM    4  F   UNL     1     -10.739  13.821  65.727  1.00  0.00    -0.270 F  
HETATM    5  F   UNL     1     -12.909  13.733  65.619  1.00  0.00    -0.501 F  
HETATM    6  C   UNL     1     -11.900  11.730  68.262  1.00  0.00    -0.340 A  
HETATM    7  C   UNL     1     -12.018  11.555  69.651  1.00  0.00    -0.339 A  
HETATM    8  C   UNL     1     -11.964  14.134  68.449  1.00  0.00    -0.366 A  
HETATM    9  C   UNL     1     -12.082  12.730  70.417  1.00  0.00    -0.382 A  
HETATM   10  C   UNL     1     -12.049  14.002  69.830  1.00  0.00    -0.405 A  
ENDROOT
BRANCH   7  11
HETATM   11  N   UNL     1     -11.998  10.274  70.208  1.00  0.00    -0.270 NA 
HETATM   12  C   UNL     1     -12.987   8.566  71.726  1.00  0.00    -0.352 C  
HETATM   13  C   UNL     1     -12.710  10.071  71.493  1.00  0.00    -0.429 C  
HETATM   14  N   UNL     1     -11.793   7.689  71.668  1.00  0.00    -0.280 NA 
HETATM   15  C   UNL     1     -11.128   7.946  70.365  1.00  0.00    -0.245 C  
HETATM   16  C   UNL     1     -10.793   9.432  70.068  1.00  0.00    -0.241 C  
BRANCH  14  17
HETATM   17  C   UNL     1     -10.857   7.925  72.786  1.00  0.00    -0.386 C  
BRANCH  17  18
HETATM   18  C   UNL     1     -10.331   6.636  73.442  1.00  0.00    -0.275 C  
BRANCH  18  19
HETATM   19  N   UNL     1      -9.121   6.171  72.814  1.00  0.00    -0.130 N  
HETATM   20  C   UNL     1      -7.828   6.654  73.098  1.00  0.00    -0.098 C  
HETATM   21  O   UNL     1      -7.516   7.515  73.903  1.00  0.00    -0.103 OA 
HETATM   22  N   UNL     1      -6.949   5.955  72.256  1.00  0.00    -0.080 NA 
HETATM   23  C   UNL     1      -7.686   5.083  71.460  1.00  0.00    -0.105 A  
HETATM   24  C   UNL     1      -7.250   4.211  70.491  1.00  0.00    -0.041 A  
HETATM   25  C   UNL     1      -8.231   3.458  69.836  1.00  0.00    -0.072 A  
HETATM   26  C   UNL     1      -9.598   3.602  70.158  1.00  0.00    -0.242 A  
HETATM   27  C   UNL     1     -10.016   4.496  71.150  1.00  0.00    -0.257 A  
HETATM   28  C   UNL     1      -9.035   5.222  71.790  1.00  0.00    -0.135 A  
ENDBRANCH  18  19
ENDBRANCH  17  18
ENDBRANCH  14  17
ENDBRANCH   7  11
TORSDOF 4
ENDMDL
MODEL       88
REMARK 921   NORMALIZED FREE ENERGY PREDICTED BY IDOCK:   -6.21 KCAL/MOL
REMARK 922        TOTAL FREE ENERGY PREDICTED BY IDOCK:   -8.29 KCAL/MOL
REMARK 923 INTER-LIGAND FREE ENERGY PREDICTED BY IDOCK:   -7.62 KCAL/MOL
REMARK 924 INTRA-LIGAND FREE ENERGY PREDICTED BY IDOCK:   -0.66 KCAL/MOL
REMARK 927      BINDING AFFINITY PREDICTED BY RF-SCORE:    0.00 PKD
ROOT
HETATM    1  F   UNL     1      -9.838   3.780  70.326  1.00  0.00    -0.256 F  
HETATM    2  C   UNL     1      -9.932   3.997  71.668  1.00  0.00    -0.162 C  
HETATM    3  C   UNL     1     -10.204   5.433  72.034  1.00  0.00    -0.256 A  
HETATM    4  F   UNL     1     -10.899   3.149  72.113  1.00  0.00    -0.050 F  
HETATM    5  F   UNL     1      -8.762   3.540  72.196  1.00  0.00    -0.084 F  
HETATM    6  C   UNL     1     -10.318   6.410  71.030  1.00  0.00    -0.247 A  
HETATM    7  C   UNL     1     -10.520   7.772  71.307  1.00  0.00    -0.206 A  
HETATM    8  C   UNL     1     -10.343   5.818  73.369  1.00  0.00    -0.242 A  
HETATM    9  C   UNL     1     -10.657   8.112  72.662  1.00  0.00    -0.414 A  
HETATM   10  C   UNL     1     -10.577   7.152  73.680  1.00  0.00    -0.375 A  
ENDROOT
BRANCH   7  11
HETATM   11  N   UNL     1     -10.644   8.696  70.266  1.00  0.00    -0.217 NA 
HETATM   12  C   UNL     1     -10.220   9.350  67.902  1.00  0.00    -0.211 C  
HETATM   13  C   UNL     1      -9.680   8.600  69.143  1.00  0.00    -0.173 C  
HETATM   14  N   UNL     1     -10.585  10.769  68.133  1.00  0.00    -0.189 NA 
HETATM   15  C   UNL     1     -11.542  10.792  69.267  1.00  0.00    -0.305 C  
HETATM   16  C   UNL     1     -11.063  10.081  70.560  1.00  0.00    -0.331 C  
BRANCH  14  17
HETATM   17  C   UNL     1      -9.412  11.619  68.422  1.00  0.00    -0.193 C  
BRANCH  17  18
HETATM   18  C   UNL     1      -8.768  12.241  67.170  1.00  0.00    -0.193 C  
BRANCH  18  19
HETATM   19  N   UNL     1      -9.638  13.203  66.542  1.00  0.00    -0.266 N  
HETATM   20  C   UNL     1      -9.838  14.523  66.992  1.00  0.00    -0.249 C  
HETATM   21  O   UNL     1      -9.325  15.067  67.954  1.00  0.00    -0.181 OA 
HETATM   22  N   UNL     1     -10.770  15.102  66.117  1.00  0.00    -0.318 NA 
HETATM   23  C   UNL     1     -11.148  14.156  65.168  1.00  0.00    -0.348 A  
HETATM   24  C   UNL     1     -12.036  14.275  64.127  1.00  0.00    -0.423 A  
HETATM   25  C   UNL     1     -12.230  13.138  63.333  1.00  0.00    -0.521 A  
HETATM   26  C   UNL     1     -11.545  11.934  63.605  1.00  0.00    -0.559 A  
HETATM   27  C   UNL     1     -10.644  11.839  64.670  1.00  0.00    -0.359 A  
HETATM   28  C   UNL     1     -10.460  12.970  65.435  1.00  0.00    -0.296 A  
ENDBRANCH  18  19
ENDBRANCH  17  18
ENDBRANCH  14  17
ENDBRANCH   7  11
TORSDOF 4
ENDMDL
MODEL       89
REMARK 921   NORMALIZED FREE ENERGY PREDICTED BY IDOCK:   -6.21 KCAL/MOL
REMARK 922        TOTAL FREE ENERGY PREDICTED BY IDOCK:   -8.28 KCAL/MOL
REMARK 923 INTER-LIGAND FREE ENERGY PREDICTED BY IDOCK:   -8.35 KCAL/MOL
REMARK 924 INTRA-LIGAND FREE ENERGY PREDICTED BY IDOCK:    0.07 KCAL/MOL
REMARK 927      BINDING AFFINITY PREDICTED BY RF-SCORE:    0.00 PKD
ROOT
HETATM    1  F   UNL     1      -9.204   8.021  67.018  1.00  0.00    -0.136 F  
HETATM    2  C   UNL     1      -9.660   8.147  68.297  1.00  0.00    -0.144 C  
HETATM    3  C   UNL     1     -10.446   9.409  68.540  1.00  0.00    -0.239 A  
HETATM    4  F   UNL     1     -10.383   7.021  68.545  1.00  0.00    -0.160 F  
HETATM    5  F   UNL     1      -8.555   8.064  69.090  1.00  0.00    -0.130 F  
HETATM    6  C   UNL     1     -10.634  10.336  67.500  1.00  0.00    -0.320 A  
HETATM    7  C   UNL     1     -11.314  11.553  67.674  1.00  0.00    -0.291 A  
HETATM    8  C   UNL     1     -10.994   9.681  69.794  1.00  0.00    -0.266 A  
HETATM    9  C   UNL     1     -11.851  11.782  68.951  1.00  0.00    -0.381 A  
HETATM   10  C   UNL     1     -11.702  10.860  69.996  1.00  0.00    -0.427 A  
ENDROOT
BRANCH   7  11
HETATM   11  N   UNL     1     -11.487  12.428  66.599  1.00  0.00    -0.349 NA 
HETATM   12  C   UNL     1     -10.666  13.409  64.463  1.00  0.00    -0.419 C  
HETATM   13  C   UNL     1     -10.277  12.847  65.851  1.00  0.00    -0.290 C  
HETATM   14  N   UNL     1     -11.652  14.516  64.485  1.00  0.00    -0.393 NA 
HETATM   15  C   UNL     1     -12.830  14.032  65.249  1.00  0.00    -0.384 C  
HETATM   16  C   UNL     1     -12.525  13.477  66.665  1.00  0.00    -0.208 C  
BRANCH  14  17
HETATM   17  C   UNL     1     -11.111  15.751  65.087  1.00  0.00    -0.324 C  
BRANCH  17  18
HETATM   18  C   UNL     1      -9.657  15.621  65.577  1.00  0.00    -0.202 C  
BRANCH  18  19
HETATM   19  N   UNL     1      -9.436  16.354  66.797  1.00  0.00    -0.236 N  
HETATM   20  C   UNL     1      -9.062  15.778  68.027  1.00  0.00    -0.187 C  
HETATM   21  O   UNL     1      -8.862  14.600  68.267  1.00  0.00    -0.163 OA 
HETATM   22  N   UNL     1      -8.977  16.833  68.949  1.00  0.00    -0.250 NA 
HETATM   23  C   UNL     1      -9.311  18.022  68.306  1.00  0.00    -0.295 A  
HETATM   24  C   UNL     1      -9.369  19.298  68.813  1.00  0.00    -0.437 A  
HETATM   25  C   UNL     1      -9.753  20.309  67.925  1.00  0.00    -0.472 A  
HETATM   26  C   UNL     1     -10.067  20.019  66.580  1.00  0.00    -0.607 A  
HETATM   27  C   UNL     1      -9.998  18.711  66.088  1.00  0.00    -0.355 A  
HETATM   28  C   UNL     1      -9.611  17.731  66.974  1.00  0.00    -0.284 A  
ENDBRANCH  18  19
ENDBRANCH  17  18
ENDBRANCH  14  17
ENDBRANCH   7  11
TORSDOF 4
ENDMDL
MODEL       90
REMARK 921   NORMALIZED FREE ENERGY PREDICTED BY IDOCK:   -6.21 KCAL/MOL
REMARK 922        TOTAL FREE ENERGY PREDICTED BY IDOCK:   -8.28 KCAL/MOL
REMARK 923 INTER-LIGAND FREE ENERGY PREDICTED BY IDOCK:   -7.64 KCAL/MOL
REMARK 924 INTRA-LIGAND FREE ENERGY PREDICTED BY IDOCK:   -0.64 KCAL/MOL
REMARK 927      BINDING AFFINITY PREDICTED BY RF-SCORE:    0.00 PKD
ROOT
HETATM    1  F   UNL     1     -11.018   5.891  73.876  1.00  0.00    -0.256 F  
HETATM    2  C   UNL     1     -10.576   4.797  73.192  1.00  0.00    -0.217 C  
HETATM    3  C   UNL     1     -10.323   5.056  71.730  1.00  0.00    -0.268 A  
HETATM    4  F   UNL     1      -9.464   4.373  73.852  1.00  0.00    -0.114 F  
HETATM    5  F   UNL     1     -11.519   3.834  73.392  1.00  0.00    -0.321 F  
HETATM    6  C   UNL     1     -10.562   6.330  71.185  1.00  0.00    -0.289 A  
HETATM    7  C   UNL     1     -10.393   6.623  69.822  1.00  0.00    -0.193 A  
HETATM    8  C   UNL     1      -9.853   4.043  70.894  1.00  0.00    -0.229 A  
HETATM    9  C   UNL     1      -9.916   5.574  69.020  1.00  0.00    -0.244 A  
HETATM   10  C   UNL     1      -9.642   4.304  69.545  1.00  0.00    -0.274 A  
ENDROOT
BRANCH   7  11
HETATM   11  N   UNL     1     -10.628   7.914  69.340  1.00  0.00    -0.223 NA 
HETATM   12  C   UNL     1     -10.661   9.540  67.457  1.00  0.00    -0.245 C  
HETATM   13  C   UNL     1      -9.958   8.310  68.078  1.00  0.00    -0.185 C  
HETATM   14  N   UNL     1     -10.785  10.715  68.352  1.00  0.00    -0.206 NA 
HETATM   15  C   UNL     1     -11.456  10.249  69.591  1.00  0.00    -0.235 C  
HETATM   16  C   UNL     1     -10.794   9.032  70.290  1.00  0.00    -0.238 C  
BRANCH  14  17
HETATM   17  C   UNL     1      -9.480  11.333  68.665  1.00  0.00    -0.175 C  
BRANCH  17  18
HETATM   18  C   UNL     1      -8.996  12.340  67.607  1.00  0.00    -0.181 C  
BRANCH  18  19
HETATM   19  N   UNL     1     -10.087  13.097  67.049  1.00  0.00    -0.238 N  
HETATM   20  C   UNL     1     -10.831  14.071  67.744  1.00  0.00    -0.247 C  
HETATM   21  O   UNL     1     -10.683  14.437  68.897  1.00  0.00    -0.242 OA 
HETATM   22  N   UNL     1     -11.803  14.541  66.847  1.00  0.00    -0.395 NA 
HETATM   23  C   UNL     1     -11.674  13.858  65.642  1.00  0.00    -0.354 A  
HETATM   24  C   UNL     1     -12.410  13.982  64.489  1.00  0.00    -0.409 A  
HETATM   25  C   UNL     1     -12.057  13.143  63.425  1.00  0.00    -0.558 A  
HETATM   26  C   UNL     1     -11.000  12.216  63.546  1.00  0.00    -0.521 A  
HETATM   27  C   UNL     1     -10.264  12.110  64.731  1.00  0.00    -0.310 A  
HETATM   28  C   UNL     1     -10.620  12.949  65.764  1.00  0.00    -0.275 A  
ENDBRANCH  18  19
ENDBRANCH  17  18
ENDBRANCH  14  17
ENDBRANCH   7  11
TORSDOF 4
ENDMDL
MODEL       91
REMARK 921   NORMALIZED FREE ENERGY PREDICTED BY IDOCK:   -6.18 KCAL/MOL
REMARK 922        TOTAL FREE ENERGY PREDICTED BY IDOCK:   -8.25 KCAL/MOL
REMARK 923 INTER-LIGAND FREE ENERGY PREDICTED BY IDOCK:   -7.81 KCAL/MOL
REMARK 924 INTRA-LIGAND FREE ENERGY PREDICTED BY IDOCK:   -0.43 KCAL/MOL
REMARK 927      BINDING AFFINITY PREDICTED BY RF-SCORE:    0.00 PKD
ROOT
HETATM    1  F   UNL     1     -11.907   9.103  72.445  1.00  0.00    -0.407 F  
HETATM    2  C   UNL     1     -11.957   7.824  71.975  1.00  0.00    -0.308 C  
HETATM    3  C   UNL     1     -11.389   7.664  70.589  1.00  0.00    -0.288 A  
HETATM    4  F   UNL     1     -11.309   7.065  72.900  1.00  0.00    -0.280 F  
HETATM    5  F   UNL     1     -13.268   7.459  72.043  1.00  0.00    -0.320 F  
HETATM    6  C   UNL     1     -10.889   8.781  69.895  1.00  0.00    -0.211 A  
HETATM    7  C   UNL     1     -10.393   8.707  68.583  1.00  0.00    -0.193 A  
HETATM    8  C   UNL     1     -11.351   6.414  69.970  1.00  0.00    -0.496 A  
HETATM    9  C   UNL     1     -10.372   7.429  68.003  1.00  0.00    -0.247 A  
HETATM   10  C   UNL     1     -10.836   6.296  68.685  1.00  0.00    -0.401 A  
ENDROOT
BRANCH   7  11
HETATM   11  N   UNL     1      -9.892   9.848  67.951  1.00  0.00    -0.141 NA 
HETATM   12  C   UNL     1      -8.311  11.770  67.905  1.00  0.00    -0.149 C  
HETATM   13  C   UNL     1      -9.178  10.842  68.789  1.00  0.00    -0.189 C  
HETATM   14  N   UNL     1      -9.037  12.461  66.814  1.00  0.00    -0.210 NA 
HETATM   15  C   UNL     1      -9.730  11.413  66.021  1.00  0.00    -0.223 C  
HETATM   16  C   UNL     1     -10.642  10.457  66.834  1.00  0.00    -0.230 C  
BRANCH  14  17
HETATM   17  C   UNL     1     -10.003  13.460  67.314  1.00  0.00    -0.232 C  
BRANCH  17  18
HETATM   18  C   UNL     1     -10.092  14.730  66.450  1.00  0.00    -0.280 C  
BRANCH  18  19
HETATM   19  N   UNL     1      -9.935  15.926  67.237  1.00  0.00    -0.236 N  
HETATM   20  C   UNL     1     -10.822  16.349  68.247  1.00  0.00    -0.347 C  
HETATM   21  O   UNL     1     -11.840  15.793  68.624  1.00  0.00    -0.385 OA 
HETATM   22  N   UNL     1     -10.314  17.561  68.739  1.00  0.00    -0.366 NA 
HETATM   23  C   UNL     1      -9.159  17.885  68.034  1.00  0.00    -0.267 A  
HETATM   24  C   UNL     1      -8.336  18.977  68.168  1.00  0.00    -0.347 A  
HETATM   25  C   UNL     1      -7.238  19.047  67.303  1.00  0.00    -0.228 A  
HETATM   26  C   UNL     1      -7.003  18.041  66.340  1.00  0.00    -0.278 A  
HETATM   27  C   UNL     1      -7.855  16.938  66.225  1.00  0.00    -0.346 A  
HETATM   28  C   UNL     1      -8.925  16.883  67.091  1.00  0.00    -0.206 A  
ENDBRANCH  18  19
ENDBRANCH  17  18
ENDBRANCH  14  17
ENDBRANCH   7  11
TORSDOF 4
ENDMDL
MODEL       92
REMARK 921   NORMALIZED FREE ENERGY PREDICTED BY IDOCK:   -6.18 KCAL/MOL
REMARK 922        TOTAL FREE ENERGY PREDICTED BY IDOCK:   -8.24 KCAL/MOL
REMARK 923 INTER-LIGAND FREE ENERGY PREDICTED BY IDOCK:   -7.43 KCAL/MOL
REMARK 924 INTRA-LIGAND FREE ENERGY PREDICTED BY IDOCK:   -0.81 KCAL/MOL
REMARK 927      BINDING AFFINITY PREDICTED BY RF-SCORE:    0.00 PKD
ROOT
HETATM    1  F   UNL     1     -10.313  19.569  69.274  1.00  0.00    -0.429 F  
HETATM    2  C   UNL     1      -9.224  19.644  68.458  1.00  0.00    -0.316 C  
HETATM    3  C   UNL     1      -8.964  18.383  67.676  1.00  0.00    -0.282 A  
HETATM    4  F   UNL     1      -9.434  20.725  67.658  1.00  0.00    -0.495 F  
HETATM    5  F   UNL     1      -8.179  19.975  69.268  1.00  0.00    -0.200 F  
HETATM    6  C   UNL     1      -9.800  17.264  67.839  1.00  0.00    -0.283 A  
HETATM    7  C   UNL     1      -9.583  16.043  67.178  1.00  0.00    -0.218 A  
HETATM    8  C   UNL     1      -7.895  18.301  66.782  1.00  0.00    -0.255 A  
HETATM    9  C   UNL     1      -8.498  16.009  66.287  1.00  0.00    -0.337 A  
HETATM   10  C   UNL     1      -7.669  17.121  66.084  1.00  0.00    -0.302 A  
ENDROOT
BRANCH   7  11
HETATM   11  N   UNL     1     -10.458  14.971  67.366  1.00  0.00    -0.254 NA 
HETATM   12  C   UNL     1     -11.988  13.668  68.835  1.00  0.00    -0.356 C  
HETATM   13  C   UNL     1     -10.692  14.509  68.756  1.00  0.00    -0.253 C  
HETATM   14  N   UNL     1     -12.049  12.515  67.905  1.00  0.00    -0.373 NA 
HETATM   15  C   UNL     1     -11.802  13.044  66.540  1.00  0.00    -0.403 C  
HETATM   16  C   UNL     1     -10.505  13.879  66.373  1.00  0.00    -0.284 C  
BRANCH  14  17
HETATM   17  C   UNL     1     -11.071  11.460  68.240  1.00  0.00    -0.244 C  
BRANCH  17  18
HETATM   18  C   UNL     1     -11.118  10.243  67.297  1.00  0.00    -0.142 C  
BRANCH  18  19
HETATM   19  N   UNL     1      -9.842   9.997  66.676  1.00  0.00    -0.193 N  
HETATM   20  C   UNL     1      -8.693   9.536  67.350  1.00  0.00    -0.125 C  
HETATM   21  O   UNL     1      -8.582   9.268  68.534  1.00  0.00    -0.126 OA 
HETATM   22  N   UNL     1      -7.675   9.456  66.388  1.00  0.00    -0.097 NA 
HETATM   23  C   UNL     1      -8.179   9.878  65.161  1.00  0.00    -0.144 A  
HETATM   24  C   UNL     1      -7.545   9.973  63.946  1.00  0.00    -0.138 A  
HETATM   25  C   UNL     1      -8.308  10.447  62.873  1.00  0.00    -0.180 A  
HETATM   26  C   UNL     1      -9.660  10.814  63.047  1.00  0.00    -0.381 A  
HETATM   27  C   UNL     1     -10.284  10.707  64.294  1.00  0.00    -0.391 A  
HETATM   28  C   UNL     1      -9.519  10.229  65.335  1.00  0.00    -0.232 A  
ENDBRANCH  18  19
ENDBRANCH  17  18
ENDBRANCH  14  17
ENDBRANCH   7  11
TORSDOF 4
ENDMDL
MODEL       93
REMARK 921   NORMALIZED FREE ENERGY PREDICTED BY IDOCK:   -6.17 KCAL/MOL
REMARK 922        TOTAL FREE ENERGY PREDICTED BY IDOCK:   -8.23 KCAL/MOL
REMARK 923 INTER-LIGAND FREE ENERGY PREDICTED BY IDOCK:   -7.61 KCAL/MOL
REMARK 924 INTRA-LIGAND FREE ENERGY PREDICTED BY IDOCK:   -0.62 KCAL/MOL
REMARK 927      BINDING AFFINITY PREDICTED BY RF-SCORE:    0.00 PKD
ROOT
HETATM    1  F   UNL     1      -8.476   5.383  69.241  1.00  0.00    -0.096 F  
HETATM    2  C   UNL     1      -9.276   5.141  70.317  1.00  0.00    -0.146 C  
HETATM    3  C   UNL     1     -10.103   6.328  70.738  1.00  0.00    -0.229 A  
HETATM    4  F   UNL     1     -10.037   4.064  69.978  1.00  0.00    -0.284 F  
HETATM    5  F   UNL     1      -8.443   4.713  71.306  1.00  0.00    -0.096 F  
HETATM    6  C   UNL     1      -9.990   7.549  70.050  1.00  0.00    -0.186 A  
HETATM    7  C   UNL     1     -10.695   8.706  70.423  1.00  0.00    -0.224 A  
HETATM    8  C   UNL     1     -10.986   6.240  71.815  1.00  0.00    -0.305 A  
HETATM    9  C   UNL     1     -11.574   8.569  71.509  1.00  0.00    -0.352 A  
HETATM   10  C   UNL     1     -11.726   7.355  72.193  1.00  0.00    -0.328 A  
ENDROOT
BRANCH   7  11
HETATM   11  N   UNL     1     -10.557   9.886  69.689  1.00  0.00    -0.232 NA 
HETATM   12  C   UNL     1     -11.408  12.132  69.037  1.00  0.00    -0.276 C  
HETATM   13  C   UNL     1     -11.780  10.683  69.431  1.00  0.00    -0.273 C  
HETATM   14  N   UNL     1     -10.477  12.255  67.889  1.00  0.00    -0.208 NA 
HETATM   15  C   UNL     1      -9.283  11.433  68.210  1.00  0.00    -0.183 C  
HETATM   16  C   UNL     1      -9.572   9.957  68.591  1.00  0.00    -0.156 C  
BRANCH  14  17
HETATM   17  C   UNL     1     -11.083  11.819  66.614  1.00  0.00    -0.310 C  
BRANCH  17  18
HETATM   18  C   UNL     1     -10.383  12.386  65.366  1.00  0.00    -0.277 C  
BRANCH  18  19
HETATM   19  N   UNL     1     -10.753  13.756  65.119  1.00  0.00    -0.336 N  
HETATM   20  C   UNL     1     -11.803  14.167  64.274  1.00  0.00    -0.397 C  
HETATM   21  O   UNL     1     -12.560  13.462  63.630  1.00  0.00    -0.718 OA 
HETATM   22  N   UNL     1     -11.805  15.571  64.300  1.00  0.00    -0.417 NA 
HETATM   23  C   UNL     1     -10.770  16.009  65.122  1.00  0.00    -0.409 A  
HETATM   24  C   UNL     1     -10.392  17.292  65.436  1.00  0.00     0.006 A  
HETATM   25  C   UNL     1      -9.291  17.432  66.288  1.00  0.00    -0.240 A  
HETATM   26  C   UNL     1      -8.608  16.303  66.789  1.00  0.00    -0.273 A  
HETATM   27  C   UNL     1      -9.013  15.006  66.455  1.00  0.00    -0.310 A  
HETATM   28  C   UNL     1     -10.104  14.888  65.622  1.00  0.00    -0.359 A  
ENDBRANCH  18  19
ENDBRANCH  17  18
ENDBRANCH  14  17
ENDBRANCH   7  11
TORSDOF 4
ENDMDL
MODEL       94
REMARK 921   NORMALIZED FREE ENERGY PREDICTED BY IDOCK:   -6.16 KCAL/MOL
REMARK 922        TOTAL FREE ENERGY PREDICTED BY IDOCK:   -8.23 KCAL/MOL
REMARK 923 INTER-LIGAND FREE ENERGY PREDICTED BY IDOCK:   -7.53 KCAL/MOL
REMARK 924 INTRA-LIGAND FREE ENERGY PREDICTED BY IDOCK:   -0.70 KCAL/MOL
REMARK 927      BINDING AFFINITY PREDICTED BY RF-SCORE:    0.00 PKD
ROOT
HETATM    1  F   UNL     1      -7.186  19.930  70.251  1.00  0.00    -0.245 F  
HETATM    2  C   UNL     1      -6.382  19.925  69.150  1.00  0.00    -0.318 C  
HETATM    3  C   UNL     1      -6.820  18.956  68.083  1.00  0.00    -0.261 A  
HETATM    4  F   UNL     1      -6.349  21.212  68.710  1.00  0.00    -0.314 F  
HETATM    5  F   UNL     1      -5.129  19.655  69.612  1.00  0.00    -0.182 F  
HETATM    6  C   UNL     1      -7.953  18.148  68.282  1.00  0.00    -0.304 A  
HETATM    7  C   UNL     1      -8.384  17.191  67.348  1.00  0.00    -0.190 A  
HETATM    8  C   UNL     1      -6.112  18.840  66.886  1.00  0.00    -0.175 A  
HETATM    9  C   UNL     1      -7.644  17.113  66.159  1.00  0.00    -0.304 A  
HETATM   10  C   UNL     1      -6.528  17.928  65.924  1.00  0.00    -0.294 A  
ENDROOT
BRANCH   7  11
HETATM   11  N   UNL     1      -9.530  16.429  67.593  1.00  0.00    -0.224 NA 
HETATM   12  C   UNL     1     -11.497  15.890  69.019  1.00  0.00    -0.380 C  
HETATM   13  C   UNL     1     -10.022  16.356  68.990  1.00  0.00    -0.267 C  
HETATM   14  N   UNL     1     -11.768  14.610  68.323  1.00  0.00    -0.328 NA 
HETATM   15  C   UNL     1     -11.248  14.749  66.939  1.00  0.00    -0.347 C  
HETATM   16  C   UNL     1      -9.764  15.189  66.826  1.00  0.00    -0.242 C  
BRANCH  14  17
HETATM   17  C   UNL     1     -11.149  13.451  68.998  1.00  0.00    -0.249 C  
BRANCH  17  18
HETATM   18  C   UNL     1     -11.995  12.167  68.936  1.00  0.00    -0.242 C  
BRANCH  18  19
HETATM   19  N   UNL     1     -11.192  11.010  68.634  1.00  0.00    -0.239 N  
HETATM   20  C   UNL     1     -10.708  10.094  69.588  1.00  0.00    -0.264 C  
HETATM   21  O   UNL     1     -10.882  10.114  70.795  1.00  0.00    -0.307 OA 
HETATM   22  N   UNL     1      -9.958   9.142  68.879  1.00  0.00    -0.175 NA 
HETATM   23  C   UNL     1      -9.965   9.478  67.528  1.00  0.00    -0.186 A  
HETATM   24  C   UNL     1      -9.362   8.841  66.471  1.00  0.00    -0.260 A  
HETATM   25  C   UNL     1      -9.530   9.421  65.209  1.00  0.00    -0.296 A  
HETATM   26  C   UNL     1     -10.280  10.606  65.045  1.00  0.00    -0.380 A  
HETATM   27  C   UNL     1     -10.886  11.234  66.137  1.00  0.00    -0.281 A  
HETATM   28  C   UNL     1     -10.716  10.644  67.370  1.00  0.00    -0.276 A  
ENDBRANCH  18  19
ENDBRANCH  17  18
ENDBRANCH  14  17
ENDBRANCH   7  11
TORSDOF 4
ENDMDL
MODEL       95
REMARK 921   NORMALIZED FREE ENERGY PREDICTED BY IDOCK:   -6.15 KCAL/MOL
REMARK 922        TOTAL FREE ENERGY PREDICTED BY IDOCK:   -8.21 KCAL/MOL
REMARK 923 INTER-LIGAND FREE ENERGY PREDICTED BY IDOCK:   -7.72 KCAL/MOL
REMARK 924 INTRA-LIGAND FREE ENERGY PREDICTED BY IDOCK:   -0.49 KCAL/MOL
REMARK 927      BINDING AFFINITY PREDICTED BY RF-SCORE:    0.00 PKD
ROOT
HETATM    1  F   UNL     1     -11.322  19.258  67.494  1.00  0.00    -0.486 F  
HETATM    2  C   UNL     1     -10.262  19.952  67.995  1.00  0.00    -0.436 C  
HETATM    3  C   UNL     1      -9.054  19.097  68.275  1.00  0.00    -0.385 A  
HETATM    4  F   UNL     1     -10.009  20.942  67.096  1.00  0.00    -0.607 F  
HETATM    5  F   UNL     1     -10.727  20.574  69.115  1.00  0.00    -0.388 F  
HETATM    6  C   UNL     1      -9.096  17.712  68.035  1.00  0.00    -0.267 A  
HETATM    7  C   UNL     1      -8.022  16.853  68.320  1.00  0.00    -0.211 A  
HETATM    8  C   UNL     1      -7.879  19.658  68.777  1.00  0.00    -0.332 A  
HETATM    9  C   UNL     1      -6.861  17.463  68.821  1.00  0.00    -0.228 A  
HETATM   10  C   UNL     1      -6.784  18.845  69.041  1.00  0.00    -0.324 A  
ENDROOT
BRANCH   7  11
HETATM   11  N   UNL     1      -8.115  15.487  68.043  1.00  0.00    -0.134 NA 
HETATM   12  C   UNL     1      -8.691  13.638  66.479  1.00  0.00     0.115 C  
HETATM   13  C   UNL     1      -9.040  15.065  66.964  1.00  0.00    -0.230 C  
HETATM   14  N   UNL     1      -8.651  12.603  67.541  1.00  0.00    -0.174 NA 
HETATM   15  C   UNL     1      -7.715  13.089  68.586  1.00  0.00    -0.069 C  
HETATM   16  C   UNL     1      -8.015  14.506  69.143  1.00  0.00    -0.048 C  
BRANCH  14  17
HETATM   17  C   UNL     1      -9.982  12.329  68.119  1.00  0.00    -0.210 C  
BRANCH  17  18
HETATM   18  C   UNL     1     -10.711  11.137  67.472  1.00  0.00    -0.236 C  
BRANCH  18  19
HETATM   19  N   UNL     1     -10.727  11.237  66.035  1.00  0.00    -0.263 N  
HETATM   20  C   UNL     1     -11.603  12.054  65.293  1.00  0.00    -0.279 C  
HETATM   21  O   UNL     1     -12.467  12.800  65.722  1.00  0.00    -0.579 OA 
HETATM   22  N   UNL     1     -11.300  11.834  63.940  1.00  0.00    -0.401 NA 
HETATM   23  C   UNL     1     -10.281  10.890  63.854  1.00  0.00    -0.354 A  
HETATM   24  C   UNL     1      -9.673  10.366  62.738  1.00  0.00    -0.233 A  
HETATM   25  C   UNL     1      -8.674   9.411  62.957  1.00  0.00    -0.225 A  
HETATM   26  C   UNL     1      -8.323   9.009  64.264  1.00  0.00    -0.179 A  
HETATM   27  C   UNL     1      -8.956   9.559  65.384  1.00  0.00    -0.244 A  
HETATM   28  C   UNL     1      -9.930  10.504  65.149  1.00  0.00    -0.309 A  
ENDBRANCH  18  19
ENDBRANCH  17  18
ENDBRANCH  14  17
ENDBRANCH   7  11
TORSDOF 4
ENDMDL
MODEL       96
REMARK 921   NORMALIZED FREE ENERGY PREDICTED BY IDOCK:   -6.13 KCAL/MOL
REMARK 922        TOTAL FREE ENERGY PREDICTED BY IDOCK:   -8.19 KCAL/MOL
REMARK 923 INTER-LIGAND FREE ENERGY PREDICTED BY IDOCK:   -7.51 KCAL/MOL
REMARK 924 INTRA-LIGAND FREE ENERGY PREDICTED BY IDOCK:   -0.68 KCAL/MOL
REMARK 927      BINDING AFFINITY PREDICTED BY RF-SCORE:    0.00 PKD
ROOT
HETATM    1  F   UNL     1     -11.161  18.617  67.887  1.00  0.00    -0.357 F  
HETATM    2  C   UNL     1     -10.219  19.584  68.074  1.00  0.00    -0.437 C  
HETATM    3  C   UNL     1      -8.826  19.046  68.272  1.00  0.00    -0.370 A  
HETATM    4  F   UNL     1     -10.316  20.409  66.995  1.00  0.00    -0.549 F  
HETATM    5  F   UNL     1     -10.649  20.314  69.141  1.00  0.00    -0.484 F  
HETATM    6  C   UNL     1      -8.597  17.659  68.272  1.00  0.00    -0.268 A  
HETATM    7  C   UNL     1      -7.332  17.092  68.500  1.00  0.00    -0.220 A  
HETATM    8  C   UNL     1      -7.745  19.908  68.461  1.00  0.00    -0.264 A  
HETATM    9  C   UNL     1      -6.275  17.997  68.682  1.00  0.00    -0.206 A  
HETATM   10  C   UNL     1      -6.473  19.384  68.657  1.00  0.00    -0.293 A  
ENDROOT
BRANCH   7  11
HETATM   11  N   UNL     1      -7.161  15.705  68.470  1.00  0.00    -0.117 NA 
HETATM   12  C   UNL     1      -7.255  13.547  67.233  1.00  0.00     0.013 C  
HETATM   13  C   UNL     1      -7.891  14.945  67.427  1.00  0.00    -0.199 C  
HETATM   14  N   UNL     1      -7.143  12.730  68.465  1.00  0.00    -0.096 NA 
HETATM   15  C   UNL     1      -6.411  13.549  69.464  1.00  0.00    -0.108 C  
HETATM   16  C   UNL     1      -7.002  14.958  69.734  1.00  0.00    -0.175 C  
BRANCH  14  17
HETATM   17  C   UNL     1      -8.457  12.313  68.995  1.00  0.00     0.398 C  
BRANCH  17  18
HETATM   18  C   UNL     1      -9.232  11.364  68.063  1.00  0.00    -0.171 C  
BRANCH  18  19
HETATM   19  N   UNL     1     -10.346  12.024  67.432  1.00  0.00    -0.206 N  
HETATM   20  C   UNL     1     -11.375  12.701  68.117  1.00  0.00    -0.290 C  
HETATM   21  O   UNL     1     -11.496  12.848  69.321  1.00  0.00    -0.268 OA 
HETATM   22  N   UNL     1     -12.260  13.173  67.136  1.00  0.00    -0.297 NA 
HETATM   23  C   UNL     1     -11.799  12.777  65.884  1.00  0.00    -0.437 A  
HETATM   24  C   UNL     1     -12.344  13.005  64.643  1.00  0.00    -0.480 A  
HETATM   25  C   UNL     1     -11.660  12.468  63.547  1.00  0.00    -0.584 A  
HETATM   26  C   UNL     1     -10.473  11.725  63.721  1.00  0.00    -0.466 A  
HETATM   27  C   UNL     1      -9.937  11.508  64.995  1.00  0.00    -0.305 A  
HETATM   28  C   UNL     1     -10.619  12.051  66.061  1.00  0.00    -0.268 A  
ENDBRANCH  18  19
ENDBRANCH  17  18
ENDBRANCH  14  17
ENDBRANCH   7  11
TORSDOF 4
ENDMDL
MODEL       97
REMARK 921   NORMALIZED FREE ENERGY PREDICTED BY IDOCK:   -6.13 KCAL/MOL
REMARK 922        TOTAL FREE ENERGY PREDICTED BY IDOCK:   -8.19 KCAL/MOL
REMARK 923 INTER-LIGAND FREE ENERGY PREDICTED BY IDOCK:   -7.86 KCAL/MOL
REMARK 924 INTRA-LIGAND FREE ENERGY PREDICTED BY IDOCK:   -0.32 KCAL/MOL
REMARK 927      BINDING AFFINITY PREDICTED BY RF-SCORE:    0.00 PKD
ROOT
HETATM    1  F   UNL     1      -9.810  17.474  68.678  1.00  0.00    -0.274 F  
HETATM    2  C   UNL     1     -10.102  17.853  67.402  1.00  0.00    -0.340 C  
HETATM    3  C   UNL     1     -10.545  16.717  66.518  1.00  0.00    -0.198 A  
HETATM    4  F   UNL     1     -11.042  18.832  67.513  1.00  0.00    -0.472 F  
HETATM    5  F   UNL     1      -8.978  18.466  66.935  1.00  0.00    -0.253 F  
HETATM    6  C   UNL     1     -10.608  15.408  67.026  1.00  0.00    -0.309 A  
HETATM    7  C   UNL     1     -10.965  14.299  66.241  1.00  0.00    -0.317 A  
HETATM    8  C   UNL     1     -10.896  16.941  65.186  1.00  0.00    -0.105 A  
HETATM    9  C   UNL     1     -11.313  14.572  64.909  1.00  0.00    -0.394 A  
HETATM   10  C   UNL     1     -11.287  15.873  64.387  1.00  0.00    -0.276 A  
ENDROOT
BRANCH   7  11
HETATM   11  N   UNL     1     -11.028  13.022  66.806  1.00  0.00    -0.271 NA 
HETATM   12  C   UNL     1     -12.136  11.387  68.321  1.00  0.00    -0.009 C  
HETATM   13  C   UNL     1     -11.768  12.870  68.083  1.00  0.00    -0.352 C  
HETATM   14  N   UNL     1     -10.995  10.441  68.285  1.00  0.00    -0.253 NA 
HETATM   15  C   UNL     1     -10.299  10.649  66.990  1.00  0.00    -0.231 C  
HETATM   16  C   UNL     1      -9.873  12.110  66.689  1.00  0.00    -0.211 C  
BRANCH  14  17
HETATM   17  C   UNL     1     -10.062  10.629  69.415  1.00  0.00    -0.174 C  
BRANCH  17  18
HETATM   18  C   UNL     1      -9.500   9.315  69.986  1.00  0.00    -0.211 C  
BRANCH  18  19
HETATM   19  N   UNL     1     -10.529   8.321  70.155  1.00  0.00    -0.220 N  
HETATM   20  C   UNL     1     -10.507   7.033  69.583  1.00  0.00    -0.223 C  
HETATM   21  O   UNL     1      -9.641   6.548  68.875  1.00  0.00    -0.129 OA 
HETATM   22  N   UNL     1     -11.700   6.405  69.975  1.00  0.00    -0.389 NA 
HETATM   23  C   UNL     1     -12.444   7.292  70.748  1.00  0.00    -0.148 A  
HETATM   24  C   UNL     1     -13.672   7.113  71.338  1.00  0.00    -0.364 A  
HETATM   25  C   UNL     1     -14.189   8.198  72.055  1.00  0.00    -0.486 A  
HETATM   26  C   UNL     1     -13.477   9.413  72.154  1.00  0.00    -0.543 A  
HETATM   27  C   UNL     1     -12.227   9.569  71.546  1.00  0.00    -0.468 A  
HETATM   28  C   UNL     1     -11.730   8.488  70.852  1.00  0.00    -0.245 A  
ENDBRANCH  18  19
ENDBRANCH  17  18
ENDBRANCH  14  17
ENDBRANCH   7  11
TORSDOF 4
ENDMDL
MODEL       98
REMARK 921   NORMALIZED FREE ENERGY PREDICTED BY IDOCK:   -6.13 KCAL/MOL
REMARK 922        TOTAL FREE ENERGY PREDICTED BY IDOCK:   -8.18 KCAL/MOL
REMARK 923 INTER-LIGAND FREE ENERGY PREDICTED BY IDOCK:   -7.47 KCAL/MOL
REMARK 924 INTRA-LIGAND FREE ENERGY PREDICTED BY IDOCK:   -0.71 KCAL/MOL
REMARK 927      BINDING AFFINITY PREDICTED BY RF-SCORE:    0.00 PKD
ROOT
HETATM    1  F   UNL     1      -8.841   9.950  65.844  1.00  0.00    -0.141 F  
HETATM    2  C   UNL     1     -10.124  10.309  66.134  1.00  0.00    -0.242 C  
HETATM    3  C   UNL     1     -10.230  11.568  66.955  1.00  0.00    -0.249 A  
HETATM    4  F   UNL     1     -10.761  10.407  64.936  1.00  0.00    -0.334 F  
HETATM    5  F   UNL     1     -10.673   9.233  66.763  1.00  0.00    -0.302 F  
HETATM    6  C   UNL     1      -9.069  12.246  67.365  1.00  0.00    -0.184 A  
HETATM    7  C   UNL     1      -9.098  13.396  68.172  1.00  0.00    -0.207 A  
HETATM    8  C   UNL     1     -11.475  12.080  67.324  1.00  0.00    -0.403 A  
HETATM    9  C   UNL     1     -10.372  13.875  68.516  1.00  0.00    -0.244 A  
HETATM   10  C   UNL     1     -11.545  13.234  68.094  1.00  0.00    -0.373 A  
ENDROOT
BRANCH   7  11
HETATM   11  N   UNL     1      -7.911  14.038  68.533  1.00  0.00    -0.140 NA 
HETATM   12  C   UNL     1      -6.605  15.406  70.152  1.00  0.00    -0.035 C  
HETATM   13  C   UNL     1      -7.996  15.130  69.532  1.00  0.00    -0.175 C  
HETATM   14  N   UNL     1      -5.528  15.699  69.176  1.00  0.00    -0.100 NA 
HETATM   15  C   UNL     1      -5.501  14.574  68.208  1.00  0.00    -0.114 C  
HETATM   16  C   UNL     1      -6.856  14.251  67.523  1.00  0.00    -0.135 C  
BRANCH  14  17
HETATM   17  C   UNL     1      -5.725  16.985  68.477  1.00  0.00    -0.139 C  
BRANCH  17  18
HETATM   18  C   UNL     1      -6.287  18.103  69.374  1.00  0.00    -0.248 C  
BRANCH  18  19
HETATM   19  N   UNL     1      -6.914  19.144  68.602  1.00  0.00    -0.287 N  
HETATM   20  C   UNL     1      -6.309  20.372  68.264  1.00  0.00    -0.311 C  
HETATM   21  O   UNL     1      -5.187  20.753  68.551  1.00  0.00    -0.251 OA 
HETATM   22  N   UNL     1      -7.265  21.097  67.535  1.00  0.00    -0.430 NA 
HETATM   23  C   UNL     1      -8.432  20.343  67.446  1.00  0.00    -0.321 A  
HETATM   24  C   UNL     1      -9.623  20.652  66.835  1.00  0.00    -0.422 A  
HETATM   25  C   UNL     1     -10.639  19.694  66.918  1.00  0.00    -0.603 A  
HETATM   26  C   UNL     1     -10.440  18.477  67.605  1.00  0.00    -0.452 A  
HETATM   27  C   UNL     1      -9.217  18.185  68.218  1.00  0.00    -0.307 A  
HETATM   28  C   UNL     1      -8.226  19.136  68.118  1.00  0.00    -0.318 A  
ENDBRANCH  18  19
ENDBRANCH  17  18
ENDBRANCH  14  17
ENDBRANCH   7  11
TORSDOF 4
ENDMDL
MODEL       99
REMARK 921   NORMALIZED FREE ENERGY PREDICTED BY IDOCK:   -6.11 KCAL/MOL
REMARK 922        TOTAL FREE ENERGY PREDICTED BY IDOCK:   -8.16 KCAL/MOL
REMARK 923 INTER-LIGAND FREE ENERGY PREDICTED BY IDOCK:   -7.49 KCAL/MOL
REMARK 924 INTRA-LIGAND FREE ENERGY PREDICTED BY IDOCK:   -0.67 KCAL/MOL
REMARK 927      BINDING AFFINITY PREDICTED BY RF-SCORE:    0.00 PKD
ROOT
HETATM    1  F   UNL     1      -8.859  17.838  68.104  1.00  0.00    -0.238 F  
HETATM    2  C   UNL     1      -9.488  18.142  66.934  1.00  0.00    -0.286 C  
HETATM    3  C   UNL     1     -10.175  16.965  66.291  1.00  0.00    -0.337 A  
HETATM    4  F   UNL     1     -10.347  19.156  67.227  1.00  0.00    -0.375 F  
HETATM    5  F   UNL     1      -8.529  18.684  66.132  1.00  0.00    -0.289 F  
HETATM    6  C   UNL     1     -10.113  15.695  66.891  1.00  0.00    -0.265 A  
HETATM    7  C   UNL     1     -10.689  14.549  66.317  1.00  0.00    -0.309 A  
HETATM    8  C   UNL     1     -10.878  17.112  65.094  1.00  0.00    -0.008 A  
HETATM    9  C   UNL     1     -11.388  14.746  65.116  1.00  0.00    -0.379 A  
HETATM   10  C   UNL     1     -11.490  16.007  64.514  1.00  0.00    -0.274 A  
ENDROOT
BRANCH   7  11
HETATM   11  N   UNL     1     -10.611  13.316  66.969  1.00  0.00    -0.259 NA 
HETATM   12  C   UNL     1     -11.071  10.870  67.020  1.00  0.00    -0.202 C  
HETATM   13  C   UNL     1     -11.572  12.261  66.565  1.00  0.00    -0.377 C  
HETATM   14  N   UNL     1     -10.773  10.750  68.467  1.00  0.00    -0.195 NA 
HETATM   15  C   UNL     1      -9.814  11.832  68.804  1.00  0.00    -0.087 C  
HETATM   16  C   UNL     1     -10.257  13.264  68.402  1.00  0.00    -0.249 C  
BRANCH  14  17
HETATM   17  C   UNL     1     -11.983  10.843  69.309  1.00  0.00    -0.310 C  
BRANCH  17  18
HETATM   18  C   UNL     1     -11.740  10.501  70.790  1.00  0.00    -0.356 C  
BRANCH  18  19
HETATM   19  N   UNL     1     -11.878   9.090  71.042  1.00  0.00    -0.287 N  
HETATM   20  C   UNL     1     -13.058   8.461  71.488  1.00  0.00    -0.296 C  
HETATM   21  O   UNL     1     -14.135   8.982  71.723  1.00  0.00    -0.374 OA 
HETATM   22  N   UNL     1     -12.753   7.098  71.627  1.00  0.00    -0.369 NA 
HETATM   23  C   UNL     1     -11.415   6.899  71.298  1.00  0.00    -0.296 A  
HETATM   24  C   UNL     1     -10.684   5.736  71.296  1.00  0.00    -0.323 A  
HETATM   25  C   UNL     1      -9.338   5.841  70.927  1.00  0.00    -0.185 A  
HETATM   26  C   UNL     1      -8.771   7.087  70.582  1.00  0.00    -0.149 A  
HETATM   27  C   UNL     1      -9.537   8.256  70.591  1.00  0.00    -0.190 A  
HETATM   28  C   UNL     1     -10.862   8.132  70.948  1.00  0.00    -0.230 A  
ENDBRANCH  18  19
ENDBRANCH  17  18
ENDBRANCH  14  17
ENDBRANCH   7  11
TORSDOF 4
ENDMDL
MODEL      100
REMARK 921   NORMALIZED FREE ENERGY PREDICTED BY IDOCK:   -6.10 KCAL/MOL
REMARK 922        TOTAL FREE ENERGY PREDICTED BY IDOCK:   -8.15 KCAL/MOL
REMARK 923 INTER-LIGAND FREE ENERGY PREDICTED BY IDOCK:   -7.53 KCAL/MOL
REMARK 924 INTRA-LIGAND FREE ENERGY PREDICTED BY IDOCK:   -0.61 KCAL/MOL
REMARK 927      BINDING AFFINITY PREDICTED BY RF-SCORE:    0.00 PKD
ROOT
HETATM    1  F   UNL     1      -9.820   3.720  70.400  1.00  0.00    -0.247 F  
HETATM    2  C   UNL     1      -9.931   4.048  71.719  1.00  0.00    -0.170 C  
HETATM    3  C   UNL     1     -10.214   5.507  71.960  1.00  0.00    -0.249 A  
HETATM    4  F   UNL     1     -10.899   3.234  72.222  1.00  0.00    -0.100 F  
HETATM    5  F   UNL     1      -8.765   3.643  72.296  1.00  0.00    -0.086 F  
HETATM    6  C   UNL     1     -10.321   6.396  70.876  1.00  0.00    -0.246 A  
HETATM    7  C   UNL     1     -10.534   7.776  71.036  1.00  0.00    -0.203 A  
HETATM    8  C   UNL     1     -10.371   6.002  73.256  1.00  0.00    -0.238 A  
HETATM    9  C   UNL     1     -10.689   8.227  72.356  1.00  0.00    -0.411 A  
HETATM   10  C   UNL     1     -10.616   7.356  73.452  1.00  0.00    -0.427 A  
ENDROOT
BRANCH   7  11
HETATM   11  N   UNL     1     -10.650   8.608  69.920  1.00  0.00    -0.223 NA 
HETATM   12  C   UNL     1     -10.321   9.010  67.485  1.00  0.00    -0.264 C  
HETATM   13  C   UNL     1      -9.766   8.333  68.761  1.00  0.00    -0.157 C  
HETATM   14  N   UNL     1     -10.562  10.468  67.599  1.00  0.00    -0.230 NA 
HETATM   15  C   UNL     1     -11.445  10.672  68.775  1.00  0.00    -0.262 C  
HETATM   16  C   UNL     1     -10.943  10.044  70.102  1.00  0.00    -0.310 C  
BRANCH  14  17
HETATM   17  C   UNL     1      -9.314  11.243  67.743  1.00  0.00    -0.163 C  
BRANCH  17  18
HETATM   18  C   UNL     1      -8.637  11.592  66.405  1.00  0.00    -0.159 C  
BRANCH  18  19
HETATM   19  N   UNL     1      -9.598  11.747  65.344  1.00  0.00    -0.221 N  
HETATM   20  C   UNL     1      -9.802  10.822  64.300  1.00  0.00    -0.326 C  
HETATM   21  O   UNL     1      -9.227   9.762  64.122  1.00  0.00    -0.256 OA 
HETATM   22  N   UNL     1     -10.802  11.367  63.478  1.00  0.00    -0.390 NA 
HETATM   23  C   UNL     1     -11.184  12.603  63.992  1.00  0.00    -0.406 A  
HETATM   24  C   UNL     1     -12.119  13.490  63.516  1.00  0.00    -0.425 A  
HETATM   25  C   UNL     1     -12.285  14.676  64.241  1.00  0.00    -0.432 A  
HETATM   26  C   UNL     1     -11.519  14.938  65.397  1.00  0.00    -0.320 A  
HETATM   27  C   UNL     1     -10.574  14.017  65.862  1.00  0.00    -0.302 A  
HETATM   28  C   UNL     1     -10.431  12.852  65.141  1.00  0.00    -0.309 A  
ENDBRANCH  18  19
ENDBRANCH  17  18
ENDBRANCH  14  17
ENDBRANCH   7  11
TORSDOF 4
ENDMDL
MODEL      101
REMARK 921   NORMALIZED FREE ENERGY PREDICTED BY IDOCK:   -6.09 KCAL/MOL
REMARK 922        TOTAL FREE ENERGY PREDICTED BY IDOCK:   -8.14 KCAL/MOL
REMARK 923 INTER-LIGAND FREE ENERGY PREDICTED BY IDOCK:   -7.51 KCAL/MOL
REMARK 924 INTRA-LIGAND FREE ENERGY PREDICTED BY IDOCK:   -0.63 KCAL/MOL
REMARK 927      BINDING AFFINITY PREDICTED BY RF-SCORE:    0.00 PKD
ROOT
HETATM    1  F   UNL     1      -8.812   7.652  67.156  1.00  0.00    -0.120 F  
HETATM    2  C   UNL     1      -8.440   7.587  65.847  1.00  0.00    -0.147 C  
HETATM    3  C   UNL     1      -8.886   8.772  65.030  1.00  0.00    -0.151 A  
HETATM    4  F   UNL     1      -7.088   7.431  65.852  1.00  0.00    -0.060 F  
HETATM    5  F   UNL     1      -8.950   6.413  65.378  1.00  0.00    -0.136 F  
HETATM    6  C   UNL     1      -9.632   9.803  65.627  1.00  0.00    -0.329 A  
HETATM    7  C   UNL     1     -10.120  10.909  64.910  1.00  0.00    -0.312 A  
HETATM    8  C   UNL     1      -8.572   8.865  63.673  1.00  0.00    -0.103 A  
HETATM    9  C   UNL     1      -9.777  10.962  63.550  1.00  0.00    -0.384 A  
HETATM   10  C   UNL     1      -9.009   9.961  62.938  1.00  0.00    -0.271 A  
ENDROOT
BRANCH   7  11
HETATM   11  N   UNL     1     -10.840  11.913  65.562  1.00  0.00    -0.288 NA 
HETATM   12  C   UNL     1     -12.421  13.834  65.479  1.00  0.00    -0.512 C  
HETATM   13  C   UNL     1     -11.280  13.077  64.757  1.00  0.00    -0.317 C  
HETATM   14  N   UNL     1     -12.112  14.267  66.862  1.00  0.00    -0.440 NA 
HETATM   15  C   UNL     1     -11.675  13.060  67.608  1.00  0.00    -0.366 C  
HETATM   16  C   UNL     1     -10.515  12.260  66.960  1.00  0.00    -0.216 C  
BRANCH  14  17
HETATM   17  C   UNL     1     -11.074  15.316  66.913  1.00  0.00    -0.288 C  
BRANCH  17  18
HETATM   18  C   UNL     1     -11.095  16.153  68.205  1.00  0.00    -0.348 C  
BRANCH  18  19
HETATM   19  N   UNL     1     -10.061  17.155  68.211  1.00  0.00    -0.295 N  
HETATM   20  C   UNL     1     -10.211  18.471  67.729  1.00  0.00    -0.382 C  
HETATM   21  O   UNL     1     -11.209  18.977  67.245  1.00  0.00    -0.249 OA 
HETATM   22  N   UNL     1      -8.968  19.100  67.899  1.00  0.00    -0.296 NA 
HETATM   23  C   UNL     1      -8.073  18.188  68.451  1.00  0.00    -0.303 A  
HETATM   24  C   UNL     1      -6.750  18.358  68.782  1.00  0.00    -0.267 A  
HETATM   25  C   UNL     1      -6.087  17.247  69.315  1.00  0.00    -0.229 A  
HETATM   26  C   UNL     1      -6.754  16.016  69.492  1.00  0.00    -0.199 A  
HETATM   27  C   UNL     1      -8.102  15.868  69.148  1.00  0.00    -0.239 A  
HETATM   28  C   UNL     1      -8.740  16.975  68.634  1.00  0.00    -0.261 A  
ENDBRANCH  18  19
ENDBRANCH  17  18
ENDBRANCH  14  17
ENDBRANCH   7  11
TORSDOF 4
ENDMDL
MODEL      102
REMARK 921   NORMALIZED FREE ENERGY PREDICTED BY IDOCK:   -6.08 KCAL/MOL
REMARK 922        TOTAL FREE ENERGY PREDICTED BY IDOCK:   -8.12 KCAL/MOL
REMARK 923 INTER-LIGAND FREE ENERGY PREDICTED BY IDOCK:   -7.47 KCAL/MOL
REMARK 924 INTRA-LIGAND FREE ENERGY PREDICTED BY IDOCK:   -0.65 KCAL/MOL
REMARK 927      BINDING AFFINITY PREDICTED BY RF-SCORE:    0.00 PKD
ROOT
HETATM    1  F   UNL     1     -12.236  14.282  66.394  1.00  0.00    -0.412 F  
HETATM    2  C   UNL     1     -11.854  14.153  65.092  1.00  0.00    -0.372 C  
HETATM    3  C   UNL     1     -11.104  12.880  64.803  1.00  0.00    -0.337 A  
HETATM    4  F   UNL     1     -12.995  14.270  64.358  1.00  0.00    -0.204 F  
HETATM    5  F   UNL     1     -11.116  15.265  64.815  1.00  0.00    -0.362 F  
HETATM    6  C   UNL     1     -10.840  11.963  65.836  1.00  0.00    -0.342 A  
HETATM    7  C   UNL     1     -10.104  10.783  65.642  1.00  0.00    -0.267 A  
HETATM    8  C   UNL     1     -10.656  12.589  63.513  1.00  0.00    -0.394 A  
HETATM    9  C   UNL     1      -9.677  10.531  64.329  1.00  0.00    -0.391 A  
HETATM   10  C   UNL     1      -9.952  11.415  63.276  1.00  0.00    -0.431 A  
ENDROOT
BRANCH   7  11
HETATM   11  N   UNL     1      -9.889   9.900  66.703  1.00  0.00    -0.196 NA 
HETATM   12  C   UNL     1      -8.826   7.842  67.616  1.00  0.00    -0.128 C  
HETATM   13  C   UNL     1      -9.451   8.522  66.375  1.00  0.00    -0.232 C  
HETATM   14  N   UNL     1      -9.686   7.822  68.824  1.00  0.00    -0.155 NA 
HETATM   15  C   UNL     1     -10.091   9.226  69.092  1.00  0.00    -0.199 C  
HETATM   16  C   UNL     1     -10.751   9.969  67.901  1.00  0.00    -0.272 C  
BRANCH  14  17
HETATM   17  C   UNL     1     -10.873   6.958  68.664  1.00  0.00    -0.187 C  
BRANCH  17  18
HETATM   18  C   UNL     1     -11.031   5.904  69.774  1.00  0.00    -0.382 C  
BRANCH  18  19
HETATM   19  N   UNL     1     -10.953   6.491  71.087  1.00  0.00    -0.254 N  
HETATM   20  C   UNL     1     -12.005   7.177  71.727  1.00  0.00    -0.313 C  
HETATM   21  O   UNL     1     -13.129   7.380  71.300  1.00  0.00    -0.349 OA 
HETATM   22  N   UNL     1     -11.504   7.603  72.966  1.00  0.00    -0.300 NA 
HETATM   23  C   UNL     1     -10.173   7.209  73.074  1.00  0.00    -0.251 A  
HETATM   24  C   UNL     1      -9.286   7.414  74.104  1.00  0.00    -0.227 A  
HETATM   25  C   UNL     1      -7.993   6.910  73.929  1.00  0.00    -0.124 A  
HETATM   26  C   UNL     1      -7.628   6.233  72.745  1.00  0.00    -0.103 A  
HETATM   27  C   UNL     1      -8.549   6.037  71.712  1.00  0.00    -0.134 A  
HETATM   28  C   UNL     1      -9.820   6.532  71.906  1.00  0.00    -0.157 A  
ENDBRANCH  18  19
ENDBRANCH  17  18
ENDBRANCH  14  17
ENDBRANCH   7  11
TORSDOF 4
ENDMDL
MODEL      103
REMARK 921   NORMALIZED FREE ENERGY PREDICTED BY IDOCK:   -6.06 KCAL/MOL
REMARK 922        TOTAL FREE ENERGY PREDICTED BY IDOCK:   -8.10 KCAL/MOL
REMARK 923 INTER-LIGAND FREE ENERGY PREDICTED BY IDOCK:   -7.38 KCAL/MOL
REMARK 924 INTRA-LIGAND FREE ENERGY PREDICTED BY IDOCK:   -0.72 KCAL/MOL
REMARK 927      BINDING AFFINITY PREDICTED BY RF-SCORE:    0.00 PKD
ROOT
HETATM    1  F   UNL     1     -10.084   9.236  66.102  1.00  0.00    -0.324 F  
HETATM    2  C   UNL     1     -10.193   8.497  67.242  1.00  0.00    -0.276 C  
HETATM    3  C   UNL     1     -10.698   9.278  68.427  1.00  0.00    -0.192 A  
HETATM    4  F   UNL     1     -10.995   7.444  66.925  1.00  0.00    -0.422 F  
HETATM    5  F   UNL     1      -8.954   7.971  67.457  1.00  0.00    -0.133 F  
HETATM    6  C   UNL     1     -10.991  10.647  68.299  1.00  0.00    -0.314 A  
HETATM    7  C   UNL     1     -11.418  11.442  69.376  1.00  0.00    -0.310 A  
HETATM    8  C   UNL     1     -10.880   8.662  69.666  1.00  0.00    -0.163 A  
HETATM    9  C   UNL     1     -11.590  10.779  70.601  1.00  0.00    -0.388 A  
HETATM   10  C   UNL     1     -11.332   9.409  70.747  1.00  0.00    -0.363 A  
ENDROOT
BRANCH   7  11
HETATM   11  N   UNL     1     -11.712  12.794  69.184  1.00  0.00    -0.309 NA 
HETATM   12  C   UNL     1     -12.035  14.737  67.662  1.00  0.00    -0.213 C  
HETATM   13  C   UNL     1     -11.255  13.427  67.923  1.00  0.00    -0.275 C  
HETATM   14  N   UNL     1     -11.993  15.726  68.765  1.00  0.00    -0.318 NA 
HETATM   15  C   UNL     1     -12.456  15.029  69.991  1.00  0.00    -0.275 C  
HETATM   16  C   UNL     1     -11.704  13.717  70.337  1.00  0.00    -0.171 C  
BRANCH  14  17
HETATM   17  C   UNL     1     -10.647  16.299  68.967  1.00  0.00    -0.286 C  
BRANCH  17  18
HETATM   18  C   UNL     1     -10.350  17.523  68.082  1.00  0.00    -0.375 C  
BRANCH  18  19
HETATM   19  N   UNL     1      -9.058  17.429  67.453  1.00  0.00    -0.234 N  
HETATM   20  C   UNL     1      -8.767  16.639  66.323  1.00  0.00    -0.324 C  
HETATM   21  O   UNL     1      -9.532  15.926  65.696  1.00  0.00    -0.343 OA 
HETATM   22  N   UNL     1      -7.401  16.817  66.056  1.00  0.00    -0.025 NA 
HETATM   23  C   UNL     1      -6.863  17.676  67.010  1.00  0.00    -0.171 A  
HETATM   24  C   UNL     1      -5.572  18.125  67.146  1.00  0.00    -0.150 A  
HETATM   25  C   UNL     1      -5.315  18.982  68.222  1.00  0.00    -0.187 A  
HETATM   26  C   UNL     1      -6.339  19.354  69.120  1.00  0.00    -0.321 A  
HETATM   27  C   UNL     1      -7.646  18.884  68.959  1.00  0.00    -0.283 A  
HETATM   28  C   UNL     1      -7.882  18.048  67.889  1.00  0.00    -0.235 A  
ENDBRANCH  18  19
ENDBRANCH  17  18
ENDBRANCH  14  17
ENDBRANCH   7  11
TORSDOF 4
ENDMDL
MODEL      104
REMARK 921   NORMALIZED FREE ENERGY PREDICTED BY IDOCK:   -6.05 KCAL/MOL
REMARK 922        TOTAL FREE ENERGY PREDICTED BY IDOCK:   -8.09 KCAL/MOL
REMARK 923 INTER-LIGAND FREE ENERGY PREDICTED BY IDOCK:   -7.61 KCAL/MOL
REMARK 924 INTRA-LIGAND FREE ENERGY PREDICTED BY IDOCK:   -0.48 KCAL/MOL
REMARK 927      BINDING AFFINITY PREDICTED BY RF-SCORE:    0.00 PKD
ROOT
HETATM    1  F   UNL     1     -12.377  16.962  72.192  1.00  0.00    -0.115 F  
HETATM    2  C   UNL     1     -12.900  15.865  72.810  1.00  0.00    -0.478 C  
HETATM    3  C   UNL     1     -12.791  14.601  71.997  1.00  0.00    -0.403 A  
HETATM    4  F   UNL     1     -12.263  15.776  74.009  1.00  0.00    -0.517 F  
HETATM    5  F   UNL     1     -14.193  16.187  73.096  1.00  0.00    -0.673 F  
HETATM    6  C   UNL     1     -12.209  14.630  70.718  1.00  0.00    -0.394 A  
HETATM    7  C   UNL     1     -12.122  13.498  69.890  1.00  0.00    -0.341 A  
HETATM    8  C   UNL     1     -13.266  13.386  72.494  1.00  0.00    -0.517 A  
HETATM    9  C   UNL     1     -12.609  12.299  70.433  1.00  0.00    -0.106 A  
HETATM   10  C   UNL     1     -13.167  12.238  71.718  1.00  0.00    -0.428 A  
ENDROOT
BRANCH   7  11
HETATM   11  N   UNL     1     -11.515  13.584  68.635  1.00  0.00    -0.285 NA 
HETATM   12  C   UNL     1     -11.579  13.194  66.177  1.00  0.00    -0.355 C  
HETATM   13  C   UNL     1     -12.002  12.673  67.571  1.00  0.00    -0.250 C  
HETATM   14  N   UNL     1     -10.126  13.433  66.008  1.00  0.00    -0.299 NA 
HETATM   15  C   UNL     1      -9.705  14.344  67.102  1.00  0.00    -0.248 C  
HETATM   16  C   UNL     1     -10.071  13.877  68.536  1.00  0.00    -0.234 C  
BRANCH  14  17
HETATM   17  C   UNL     1      -9.336  12.186  66.035  1.00  0.00    -0.170 C  
BRANCH  17  18
HETATM   18  C   UNL     1      -9.615  11.244  64.849  1.00  0.00    -0.232 C  
BRANCH  18  19
HETATM   19  N   UNL     1      -9.317   9.873  65.173  1.00  0.00    -0.238 N  
HETATM   20  C   UNL     1      -9.893   9.153  66.239  1.00  0.00    -0.289 C  
HETATM   21  O   UNL     1     -10.720   9.547  67.042  1.00  0.00    -0.231 OA 
HETATM   22  N   UNL     1      -9.314   7.874  66.212  1.00  0.00    -0.184 NA 
HETATM   23  C   UNL     1      -8.391   7.819  65.171  1.00  0.00    -0.106 A  
HETATM   24  C   UNL     1      -7.588   6.776  64.775  1.00  0.00    -0.104 A  
HETATM   25  C   UNL     1      -6.738   7.015  63.690  1.00  0.00    -0.044 A  
HETATM   26  C   UNL     1      -6.712   8.271  63.046  1.00  0.00    -0.086 A  
HETATM   27  C   UNL     1      -7.541   9.316  63.466  1.00  0.00    -0.107 A  
HETATM   28  C   UNL     1      -8.377   9.059  64.531  1.00  0.00    -0.175 A  
ENDBRANCH  18  19
ENDBRANCH  17  18
ENDBRANCH  14  17
ENDBRANCH   7  11
TORSDOF 4
ENDMDL
MODEL      105
REMARK 921   NORMALIZED FREE ENERGY PREDICTED BY IDOCK:   -6.05 KCAL/MOL
REMARK 922        TOTAL FREE ENERGY PREDICTED BY IDOCK:   -8.09 KCAL/MOL
REMARK 923 INTER-LIGAND FREE ENERGY PREDICTED BY IDOCK:   -7.37 KCAL/MOL
REMARK 924 INTRA-LIGAND FREE ENERGY PREDICTED BY IDOCK:   -0.71 KCAL/MOL
REMARK 927      BINDING AFFINITY PREDICTED BY RF-SCORE:    0.00 PKD
ROOT
HETATM    1  F   UNL     1      -8.233   4.876  65.321  1.00  0.00    -0.107 F  
HETATM    2  C   UNL     1      -8.797   4.360  66.449  1.00  0.00    -0.114 C  
HETATM    3  C   UNL     1      -9.419   5.399  67.346  1.00  0.00    -0.127 A  
HETATM    4  F   UNL     1      -9.693   3.429  66.023  1.00  0.00    -0.170 F  
HETATM    5  F   UNL     1      -7.804   3.666  67.072  1.00  0.00    -0.078 F  
HETATM    6  C   UNL     1      -9.365   6.759  66.996  1.00  0.00    -0.165 A  
HETATM    7  C   UNL     1      -9.881   7.780  67.812  1.00  0.00    -0.161 A  
HETATM    8  C   UNL     1     -10.052   5.033  68.535  1.00  0.00    -0.184 A  
HETATM    9  C   UNL     1     -10.512   7.364  68.995  1.00  0.00    -0.217 A  
HETATM   10  C   UNL     1     -10.604   6.012  69.352  1.00  0.00    -0.365 A  
ENDROOT
BRANCH   7  11
HETATM   11  N   UNL     1      -9.816   9.115  67.403  1.00  0.00    -0.173 NA 
HETATM   12  C   UNL     1     -10.089  11.538  67.899  1.00  0.00    -0.189 C  
HETATM   13  C   UNL     1     -10.614  10.107  68.162  1.00  0.00    -0.223 C  
HETATM   14  N   UNL     1     -10.022  11.933  66.472  1.00  0.00    -0.199 NA 
HETATM   15  C   UNL     1      -9.217  10.899  65.773  1.00  0.00    -0.201 C  
HETATM   16  C   UNL     1      -9.697   9.437  65.967  1.00  0.00    -0.275 C  
BRANCH  14  17
HETATM   17  C   UNL     1     -11.356  12.062  65.853  1.00  0.00    -0.337 C  
BRANCH  17  18
HETATM   18  C   UNL     1     -12.183  13.243  66.393  1.00  0.00    -0.356 C  
BRANCH  18  19
HETATM   19  N   UNL     1     -11.670  14.509  65.937  1.00  0.00    -0.361 N  
HETATM   20  C   UNL     1     -11.777  14.995  64.618  1.00  0.00    -0.382 C  
HETATM   21  O   UNL     1     -12.310  14.451  63.666  1.00  0.00    -0.722 OA 
HETATM   22  N   UNL     1     -11.130  16.240  64.601  1.00  0.00    -0.645 NA 
HETATM   23  C   UNL     1     -10.621  16.502  65.870  1.00  0.00    -0.270 A  
HETATM   24  C   UNL     1      -9.912  17.591  66.315  1.00  0.00    -0.316 A  
HETATM   25  C   UNL     1      -9.512  17.576  67.655  1.00  0.00    -0.256 A  
HETATM   26  C   UNL     1      -9.823  16.486  68.497  1.00  0.00    -0.243 A  
HETATM   27  C   UNL     1     -10.547  15.389  68.020  1.00  0.00    -0.263 A  
HETATM   28  C   UNL     1     -10.939  15.426  66.700  1.00  0.00    -0.275 A  
ENDBRANCH  18  19
ENDBRANCH  17  18
ENDBRANCH  14  17
ENDBRANCH   7  11
TORSDOF 4
ENDMDL
MODEL      106
REMARK 921   NORMALIZED FREE ENERGY PREDICTED BY IDOCK:   -6.04 KCAL/MOL
REMARK 922        TOTAL FREE ENERGY PREDICTED BY IDOCK:   -8.07 KCAL/MOL
REMARK 923 INTER-LIGAND FREE ENERGY PREDICTED BY IDOCK:   -7.46 KCAL/MOL
REMARK 924 INTRA-LIGAND FREE ENERGY PREDICTED BY IDOCK:   -0.61 KCAL/MOL
REMARK 927      BINDING AFFINITY PREDICTED BY RF-SCORE:    0.00 PKD
ROOT
HETATM    1  F   UNL     1     -11.390  19.743  68.149  1.00  0.00    -0.106 F  
HETATM    2  C   UNL     1     -10.049  19.808  67.918  1.00  0.00    -0.430 C  
HETATM    3  C   UNL     1      -9.485  18.572  67.266  1.00  0.00    -0.296 A  
HETATM    4  F   UNL     1      -9.855  20.930  67.173  1.00  0.00    -0.608 F  
HETATM    5  F   UNL     1      -9.479  20.060  69.130  1.00  0.00    -0.308 F  
HETATM    6  C   UNL     1     -10.323  17.482  66.971  1.00  0.00    -0.324 A  
HETATM    7  C   UNL     1      -9.851  16.284  66.411  1.00  0.00    -0.291 A  
HETATM    8  C   UNL     1      -8.129  18.485  66.949  1.00  0.00    -0.254 A  
HETATM    9  C   UNL     1      -8.481  16.243  66.105  1.00  0.00    -0.313 A  
HETATM   10  C   UNL     1      -7.631  17.327  66.362  1.00  0.00    -0.349 A  
ENDROOT
BRANCH   7  11
HETATM   11  N   UNL     1     -10.735  15.241  66.122  1.00  0.00    -0.314 NA 
HETATM   12  C   UNL     1     -12.361  13.518  66.886  1.00  0.00    -0.238 C  
HETATM   13  C   UNL     1     -11.065  14.295  67.216  1.00  0.00    -0.306 C  
HETATM   14  N   UNL     1     -12.354  12.802  65.588  1.00  0.00    -0.594 NA 
HETATM   15  C   UNL     1     -12.014  13.801  64.544  1.00  0.00    -0.427 C  
HETATM   16  C   UNL     1     -10.710  14.605  64.789  1.00  0.00    -0.377 C  
BRANCH  14  17
HETATM   17  C   UNL     1     -11.400  11.676  65.563  1.00  0.00    -0.160 C  
BRANCH  17  18
HETATM   18  C   UNL     1     -11.035  11.135  66.958  1.00  0.00    -0.289 C  
BRANCH  18  19
HETATM   19  N   UNL     1      -9.790  10.411  66.943  1.00  0.00    -0.184 N  
HETATM   20  C   UNL     1      -9.674   9.009  66.858  1.00  0.00    -0.200 C  
HETATM   21  O   UNL     1     -10.575   8.192  66.778  1.00  0.00    -0.313 OA 
HETATM   22  N   UNL     1      -8.301   8.722  66.899  1.00  0.00    -0.108 NA 
HETATM   23  C   UNL     1      -7.594   9.915  67.028  1.00  0.00    -0.092 A  
HETATM   24  C   UNL     1      -6.238  10.117  67.113  1.00  0.00    -0.062 A  
HETATM   25  C   UNL     1      -5.808  11.441  67.252  1.00  0.00    -0.080 A  
HETATM   26  C   UNL     1      -6.732  12.507  67.306  1.00  0.00    -0.122 A  
HETATM   27  C   UNL     1      -8.108  12.275  67.216  1.00  0.00    -0.182 A  
HETATM   28  C   UNL     1      -8.513  10.966  67.071  1.00  0.00    -0.134 A  
ENDBRANCH  18  19
ENDBRANCH  17  18
ENDBRANCH  14  17
ENDBRANCH   7  11
TORSDOF 4
ENDMDL
MODEL      107
REMARK 921   NORMALIZED FREE ENERGY PREDICTED BY IDOCK:   -6.01 KCAL/MOL
REMARK 922        TOTAL FREE ENERGY PREDICTED BY IDOCK:   -8.03 KCAL/MOL
REMARK 923 INTER-LIGAND FREE ENERGY PREDICTED BY IDOCK:   -7.61 KCAL/MOL
REMARK 924 INTRA-LIGAND FREE ENERGY PREDICTED BY IDOCK:   -0.42 KCAL/MOL
REMARK 927      BINDING AFFINITY PREDICTED BY RF-SCORE:    0.00 PKD
ROOT
HETATM    1  F   UNL     1      -8.863   9.820  67.246  1.00  0.00    -0.129 F  
HETATM    2  C   UNL     1      -9.861   9.183  67.921  1.00  0.00    -0.169 C  
HETATM    3  C   UNL     1     -10.687  10.096  68.787  1.00  0.00    -0.247 A  
HETATM    4  F   UNL     1     -10.601   8.546  66.972  1.00  0.00    -0.346 F  
HETATM    5  F   UNL     1      -9.248   8.200  68.639  1.00  0.00    -0.142 F  
HETATM    6  C   UNL     1     -10.385  11.467  68.860  1.00  0.00    -0.191 A  
HETATM    7  C   UNL     1     -11.085  12.362  69.687  1.00  0.00     0.071 A  
HETATM    8  C   UNL     1     -11.759   9.601  69.532  1.00  0.00     0.186 A  
HETATM    9  C   UNL     1     -12.156  11.821  70.414  1.00  0.00    -0.440 A  
HETATM   10  C   UNL     1     -12.495  10.463  70.336  1.00  0.00    -0.348 A  
ENDROOT
BRANCH   7  11
HETATM   11  N   UNL     1     -10.752  13.719  69.703  1.00  0.00     0.106 NA 
HETATM   12  C   UNL     1     -11.328  16.075  70.263  1.00  0.00    -0.382 C  
HETATM   13  C   UNL     1     -11.861  14.699  69.797  1.00  0.00    -0.316 C  
HETATM   14  N   UNL     1     -10.228  16.637  69.444  1.00  0.00    -0.274 NA 
HETATM   15  C   UNL     1      -9.160  15.607  69.388  1.00  0.00    -0.278 C  
HETATM   16  C   UNL     1      -9.610  14.204  68.903  1.00  0.00    -0.050 C  
BRANCH  14  17
HETATM   17  C   UNL     1     -10.664  17.010  68.083  1.00  0.00    -0.374 C  
BRANCH  17  18
HETATM   18  C   UNL     1      -9.833  16.362  66.961  1.00  0.00    -0.251 C  
BRANCH  18  19
HETATM   19  N   UNL     1     -10.644  16.026  65.819  1.00  0.00    -0.356 N  
HETATM   20  C   UNL     1     -11.142  16.955  64.884  1.00  0.00     0.036 C  
HETATM   21  O   UNL     1     -10.976  18.162  64.873  1.00  0.00    -0.718 OA 
HETATM   22  N   UNL     1     -11.895  16.217  63.956  1.00  0.00    -0.904 NA 
HETATM   23  C   UNL     1     -11.876  14.875  64.325  1.00  0.00    -0.297 A  
HETATM   24  C   UNL     1     -12.478  13.799  63.719  1.00  0.00    -0.219 A  
HETATM   25  C   UNL     1     -12.295  12.552  64.328  1.00  0.00    -0.541 A  
HETATM   26  C   UNL     1     -11.535  12.422  65.510  1.00  0.00    -0.404 A  
HETATM   27  C   UNL     1     -10.931  13.534  66.107  1.00  0.00    -0.289 A  
HETATM   28  C   UNL     1     -11.115  14.751  65.488  1.00  0.00    -0.346 A  
ENDBRANCH  18  19
ENDBRANCH  17  18
ENDBRANCH  14  17
ENDBRANCH   7  11
TORSDOF 4
ENDMDL
MODEL      108
REMARK 921   NORMALIZED FREE ENERGY PREDICTED BY IDOCK:   -6.01 KCAL/MOL
REMARK 922        TOTAL FREE ENERGY PREDICTED BY IDOCK:   -8.03 KCAL/MOL
REMARK 923 INTER-LIGAND FREE ENERGY PREDICTED BY IDOCK:   -7.44 KCAL/MOL
REMARK 924 INTRA-LIGAND FREE ENERGY PREDICTED BY IDOCK:   -0.59 KCAL/MOL
REMARK 927      BINDING AFFINITY PREDICTED BY RF-SCORE:    0.00 PKD
ROOT
HETATM    1  F   UNL     1     -12.120  14.958  65.998  1.00  0.00    -0.283 F  
HETATM    2  C   UNL     1     -11.584  14.547  64.815  1.00  0.00    -0.413 C  
HETATM    3  C   UNL     1     -11.047  13.140  64.849  1.00  0.00    -0.335 A  
HETATM    4  F   UNL     1     -12.565  14.713  63.886  1.00  0.00    -0.463 F  
HETATM    5  F   UNL     1     -10.622  15.462  64.510  1.00  0.00    -0.388 F  
HETATM    6  C   UNL     1     -11.108  12.387  66.034  1.00  0.00    -0.344 A  
HETATM    7  C   UNL     1     -10.581  11.089  66.145  1.00  0.00    -0.228 A  
HETATM    8  C   UNL     1     -10.478  12.563  63.712  1.00  0.00    -0.451 A  
HETATM    9  C   UNL     1     -10.022  10.549  64.976  1.00  0.00    -0.388 A  
HETATM   10  C   UNL     1      -9.976  11.268  63.774  1.00  0.00    -0.388 A  
ENDROOT
BRANCH   7  11
HETATM   11  N   UNL     1     -10.688  10.382  67.345  1.00  0.00    -0.269 NA 
HETATM   12  C   UNL     1     -11.407  10.269  69.725  1.00  0.00    -0.273 C  
HETATM   13  C   UNL     1     -10.850  11.165  68.594  1.00  0.00    -0.209 C  
HETATM   14  N   UNL     1     -10.624   9.040  70.000  1.00  0.00    -0.221 NA 
HETATM   15  C   UNL     1     -10.495   8.310  68.714  1.00  0.00    -0.177 C  
HETATM   16  C   UNL     1      -9.918   9.135  67.533  1.00  0.00    -0.205 C  
BRANCH  14  17
HETATM   17  C   UNL     1      -9.293   9.329  70.571  1.00  0.00    -0.264 C  
BRANCH  17  18
HETATM   18  C   UNL     1      -9.066   8.716  71.965  1.00  0.00    -0.241 C  
BRANCH  18  19
HETATM   19  N   UNL     1      -9.724   7.442  72.104  1.00  0.00    -0.149 N  
HETATM   20  C   UNL     1     -11.015   7.257  72.636  1.00  0.00    -0.299 C  
HETATM   21  O   UNL     1     -11.779   8.111  73.052  1.00  0.00    -0.286 OA 
HETATM   22  N   UNL     1     -11.259   5.874  72.612  1.00  0.00    -0.279 NA 
HETATM   23  C   UNL     1     -10.138   5.228  72.100  1.00  0.00    -0.190 A  
HETATM   24  C   UNL     1      -9.924   3.885  71.900  1.00  0.00    -0.238 A  
HETATM   25  C   UNL     1      -8.680   3.519  71.375  1.00  0.00    -0.125 A  
HETATM   26  C   UNL     1      -7.699   4.490  71.076  1.00  0.00    -0.072 A  
HETATM   27  C   UNL     1      -7.943   5.851  71.287  1.00  0.00    -0.113 A  
HETATM   28  C   UNL     1      -9.176   6.193  71.796  1.00  0.00    -0.144 A  
ENDBRANCH  18  19
ENDBRANCH  17  18
ENDBRANCH  14  17
ENDBRANCH   7  11
TORSDOF 4
ENDMDL
MODEL      109
REMARK 921   NORMALIZED FREE ENERGY PREDICTED BY IDOCK:   -6.00 KCAL/MOL
REMARK 922        TOTAL FREE ENERGY PREDICTED BY IDOCK:   -8.02 KCAL/MOL
REMARK 923 INTER-LIGAND FREE ENERGY PREDICTED BY IDOCK:   -7.91 KCAL/MOL
REMARK 924 INTRA-LIGAND FREE ENERGY PREDICTED BY IDOCK:   -0.11 KCAL/MOL
REMARK 927      BINDING AFFINITY PREDICTED BY RF-SCORE:    0.00 PKD
ROOT
HETATM    1  F   UNL     1      -7.463   9.580  62.400  1.00  0.00    -0.107 F  
HETATM    2  C   UNL     1      -7.680   8.564  63.282  1.00  0.00    -0.138 C  
HETATM    3  C   UNL     1      -8.514   8.962  64.472  1.00  0.00    -0.178 A  
HETATM    4  F   UNL     1      -8.243   7.559  62.558  1.00  0.00    -0.137 F  
HETATM    5  F   UNL     1      -6.443   8.120  63.641  1.00  0.00    -0.068 F  
HETATM    6  C   UNL     1      -8.975  10.284  64.604  1.00  0.00    -0.240 A  
HETATM    7  C   UNL     1      -9.713  10.730  65.713  1.00  0.00    -0.228 A  
HETATM    8  C   UNL     1      -8.840   8.032  65.461  1.00  0.00    -0.102 A  
HETATM    9  C   UNL     1     -10.020   9.760  66.680  1.00  0.00    -0.292 A  
HETATM   10  C   UNL     1      -9.598   8.429  66.557  1.00  0.00    -0.304 A  
ENDROOT
BRANCH   7  11
HETATM   11  N   UNL     1     -10.160  12.052  65.780  1.00  0.00    -0.233 NA 
HETATM   12  C   UNL     1      -9.744  14.444  66.328  1.00  0.00    -0.310 C  
HETATM   13  C   UNL     1      -9.452  12.972  66.703  1.00  0.00    -0.256 C  
HETATM   14  N   UNL     1     -11.180  14.805  66.262  1.00  0.00    -0.342 NA 
HETATM   15  C   UNL     1     -11.827  13.846  65.331  1.00  0.00    -0.355 C  
HETATM   16  C   UNL     1     -11.602  12.346  65.656  1.00  0.00    -0.392 C  
BRANCH  14  17
HETATM   17  C   UNL     1     -11.838  14.771  67.584  1.00  0.00    -0.292 C  
BRANCH  17  18
HETATM   18  C   UNL     1     -10.893  14.399  68.742  1.00  0.00    -0.251 C  
BRANCH  18  19
HETATM   19  N   UNL     1     -11.616  13.900  69.883  1.00  0.00    -0.262 N  
HETATM   20  C   UNL     1     -12.217  12.628  69.963  1.00  0.00    -0.197 C  
HETATM   21  O   UNL     1     -12.226  11.755  69.113  1.00  0.00    -0.251 OA 
HETATM   22  N   UNL     1     -12.829  12.558  71.225  1.00  0.00    -0.313 NA 
HETATM   23  C   UNL     1     -12.628  13.764  71.891  1.00  0.00    -0.188 A  
HETATM   24  C   UNL     1     -13.051  14.147  73.141  1.00  0.00    -0.300 A  
HETATM   25  C   UNL     1     -12.707  15.440  73.551  1.00  0.00    -0.689 A  
HETATM   26  C   UNL     1     -11.968  16.300  72.710  1.00  0.00    -0.636 A  
HETATM   27  C   UNL     1     -11.548  15.885  71.442  1.00  0.00    -0.529 A  
HETATM   28  C   UNL     1     -11.888  14.606  71.060  1.00  0.00    -0.322 A  
ENDBRANCH  18  19
ENDBRANCH  17  18
ENDBRANCH  14  17
ENDBRANCH   7  11
TORSDOF 4
ENDMDL
MODEL      110
REMARK 921   NORMALIZED FREE ENERGY PREDICTED BY IDOCK:   -5.99 KCAL/MOL
REMARK 922        TOTAL FREE ENERGY PREDICTED BY IDOCK:   -8.02 KCAL/MOL
REMARK 923 INTER-LIGAND FREE ENERGY PREDICTED BY IDOCK:   -7.22 KCAL/MOL
REMARK 924 INTRA-LIGAND FREE ENERGY PREDICTED BY IDOCK:   -0.80 KCAL/MOL
REMARK 927      BINDING AFFINITY PREDICTED BY RF-SCORE:    0.00 PKD
ROOT
HETATM    1  F   UNL     1     -10.645  19.987  68.721  1.00  0.00    -0.530 F  
HETATM    2  C   UNL     1      -9.450  20.049  68.068  1.00  0.00    -0.315 C  
HETATM    3  C   UNL     1      -9.044  18.751  67.420  1.00  0.00    -0.293 A  
HETATM    4  F   UNL     1      -9.569  21.068  67.174  1.00  0.00    -0.567 F  
HETATM    5  F   UNL     1      -8.546  20.470  68.997  1.00  0.00     0.293 F  
HETATM    6  C   UNL     1      -9.863  17.615  67.537  1.00  0.00    -0.299 A  
HETATM    7  C   UNL     1      -9.518  16.363  67.000  1.00  0.00    -0.230 A  
HETATM    8  C   UNL     1      -7.853  18.652  66.700  1.00  0.00    -0.271 A  
HETATM    9  C   UNL     1      -8.314  16.312  66.281  1.00  0.00    -0.343 A  
HETATM   10  C   UNL     1      -7.494  17.439  66.125  1.00  0.00    -0.331 A  
ENDROOT
BRANCH   7  11
HETATM   11  N   UNL     1     -10.382  15.273  67.132  1.00  0.00    -0.261 NA 
HETATM   12  C   UNL     1     -11.380  13.469  68.527  1.00  0.00    -0.292 C  
HETATM   13  C   UNL     1     -10.119  14.316  68.234  1.00  0.00    -0.238 C  
HETATM   14  N   UNL     1     -11.941  12.749  67.358  1.00  0.00    -0.393 NA 
HETATM   15  C   UNL     1     -12.175  13.760  66.296  1.00  0.00    -0.447 C  
HETATM   16  C   UNL     1     -10.947  14.634  65.926  1.00  0.00    -0.332 C  
BRANCH  14  17
HETATM   17  C   UNL     1     -11.053  11.675  66.870  1.00  0.00    -0.308 C  
BRANCH  17  18
HETATM   18  C   UNL     1     -11.520  11.029  65.553  1.00  0.00     0.480 C  
BRANCH  18  19
HETATM   19  N   UNL     1     -10.466  10.989  64.573  1.00  0.00    -0.346 N  
HETATM   20  C   UNL     1     -10.394  11.813  63.432  1.00  0.00    -0.439 C  
HETATM   21  O   UNL     1     -11.180  12.680  63.089  1.00  0.00    -0.362 OA 
HETATM   22  N   UNL     1      -9.233  11.433  62.741  1.00  0.00    -0.347 NA 
HETATM   23  C   UNL     1      -8.621  10.389  63.428  1.00  0.00    -0.189 A  
HETATM   24  C   UNL     1      -7.472   9.701  63.121  1.00  0.00    -0.114 A  
HETATM   25  C   UNL     1      -7.098   8.677  63.998  1.00  0.00    -0.090 A  
HETATM   26  C   UNL     1      -7.876   8.372  65.136  1.00  0.00    -0.118 A  
HETATM   27  C   UNL     1      -9.041   9.088  65.428  1.00  0.00    -0.250 A  
HETATM   28  C   UNL     1      -9.388  10.098  64.558  1.00  0.00    -0.289 A  
ENDBRANCH  18  19
ENDBRANCH  17  18
ENDBRANCH  14  17
ENDBRANCH   7  11
TORSDOF 4
ENDMDL
MODEL      111
REMARK 921   NORMALIZED FREE ENERGY PREDICTED BY IDOCK:   -5.99 KCAL/MOL
REMARK 922        TOTAL FREE ENERGY PREDICTED BY IDOCK:   -8.01 KCAL/MOL
REMARK 923 INTER-LIGAND FREE ENERGY PREDICTED BY IDOCK:   -7.38 KCAL/MOL
REMARK 924 INTRA-LIGAND FREE ENERGY PREDICTED BY IDOCK:   -0.64 KCAL/MOL
REMARK 927      BINDING AFFINITY PREDICTED BY RF-SCORE:    0.00 PKD
ROOT
HETATM    1  F   UNL     1     -11.088   5.151  73.905  1.00  0.00    -0.330 F  
HETATM    2  C   UNL     1     -10.559   3.939  73.576  1.00  0.00    -0.200 C  
HETATM    3  C   UNL     1     -10.176   3.817  72.124  1.00  0.00    -0.179 A  
HETATM    4  F   UNL     1      -9.502   3.757  74.415  1.00  0.00    -0.109 F  
HETATM    5  F   UNL     1     -11.493   3.018  73.945  1.00  0.00    -0.280 F  
HETATM    6  C   UNL     1     -10.394   4.890  71.242  1.00  0.00    -0.219 A  
HETATM    7  C   UNL     1     -10.107   4.823  69.869  1.00  0.00    -0.229 A  
HETATM    8  C   UNL     1      -9.606   2.644  71.629  1.00  0.00    -0.218 A  
HETATM    9  C   UNL     1      -9.531   3.625  69.417  1.00  0.00    -0.249 A  
HETATM   10  C   UNL     1      -9.277   2.552  70.282  1.00  0.00    -0.199 A  
ENDROOT
BRANCH   7  11
HETATM   11  N   UNL     1     -10.327   5.929  69.044  1.00  0.00    -0.208 NA 
HETATM   12  C   UNL     1     -11.019   6.879  66.850  1.00  0.00    -0.258 C  
HETATM   13  C   UNL     1     -10.320   5.707  67.578  1.00  0.00    -0.222 C  
HETATM   14  N   UNL     1     -10.478   8.225  67.157  1.00  0.00    -0.318 NA 
HETATM   15  C   UNL     1     -10.509   8.378  68.634  1.00  0.00    -0.166 C  
HETATM   16  C   UNL     1      -9.804   7.253  69.436  1.00  0.00    -0.163 C  
BRANCH  14  17
HETATM   17  C   UNL     1      -9.108   8.420  66.641  1.00  0.00    -0.164 C  
BRANCH  17  18
HETATM   18  C   UNL     1      -8.763   9.886  66.324  1.00  0.00    -0.139 C  
BRANCH  18  19
HETATM   19  N   UNL     1      -9.494  10.373  65.183  1.00  0.00    -0.225 N  
HETATM   20  C   UNL     1      -9.241  10.005  63.846  1.00  0.00    -0.272 C  
HETATM   21  O   UNL     1      -8.393   9.232  63.435  1.00  0.00    -0.170 OA 
HETATM   22  N   UNL     1     -10.156  10.721  63.058  1.00  0.00    -0.250 NA 
HETATM   23  C   UNL     1     -10.934  11.523  63.887  1.00  0.00    -0.401 A  
HETATM   24  C   UNL     1     -11.946  12.392  63.556  1.00  0.00    -0.627 A  
HETATM   25  C   UNL     1     -12.550  13.084  64.611  1.00  0.00    -0.425 A  
HETATM   26  C   UNL     1     -12.128  12.894  65.945  1.00  0.00    -0.503 A  
HETATM   27  C   UNL     1     -11.097  12.002  66.256  1.00  0.00    -0.363 A  
HETATM   28  C   UNL     1     -10.520  11.324  65.205  1.00  0.00    -0.291 A  
ENDBRANCH  18  19
ENDBRANCH  17  18
ENDBRANCH  14  17
ENDBRANCH   7  11
TORSDOF 4
ENDMDL
MODEL      112
REMARK 921   NORMALIZED FREE ENERGY PREDICTED BY IDOCK:   -5.99 KCAL/MOL
REMARK 922        TOTAL FREE ENERGY PREDICTED BY IDOCK:   -8.01 KCAL/MOL
REMARK 923 INTER-LIGAND FREE ENERGY PREDICTED BY IDOCK:   -7.44 KCAL/MOL
REMARK 924 INTRA-LIGAND FREE ENERGY PREDICTED BY IDOCK:   -0.58 KCAL/MOL
REMARK 927      BINDING AFFINITY PREDICTED BY RF-SCORE:    0.00 PKD
ROOT
HETATM    1  F   UNL     1     -11.012  13.097  63.735  1.00  0.00    -0.403 F  
HETATM    2  C   UNL     1     -11.405  14.060  64.615  1.00  0.00    -0.375 C  
HETATM    3  C   UNL     1     -11.514  13.574  66.037  1.00  0.00    -0.345 A  
HETATM    4  F   UNL     1     -10.512  15.078  64.474  1.00  0.00    -0.385 F  
HETATM    5  F   UNL     1     -12.590  14.533  64.137  1.00  0.00    -0.464 F  
HETATM    6  C   UNL     1     -11.239  12.232  66.350  1.00  0.00    -0.370 A  
HETATM    7  C   UNL     1     -11.370  11.705  67.646  1.00  0.00    -0.295 A  
HETATM    8  C   UNL     1     -11.890  14.442  67.064  1.00  0.00    -0.437 A  
HETATM    9  C   UNL     1     -11.747  12.615  68.645  1.00  0.00    -0.364 A  
HETATM   10  C   UNL     1     -11.998  13.965  68.365  1.00  0.00    -0.391 A  
ENDROOT
BRANCH   7  11
HETATM   11  N   UNL     1     -11.065  10.365  67.900  1.00  0.00    -0.301 NA 
HETATM   12  C   UNL     1     -11.007   8.424  69.457  1.00  0.00    -0.040 C  
HETATM   13  C   UNL     1     -10.874   9.959  69.313  1.00  0.00    -0.227 C  
HETATM   14  N   UNL     1     -10.115   7.629  68.580  1.00  0.00    -0.185 NA 
HETATM   15  C   UNL     1     -10.352   8.088  67.188  1.00  0.00    -0.325 C  
HETATM   16  C   UNL     1     -10.211   9.616  66.956  1.00  0.00    -0.244 C  
BRANCH  14  17
HETATM   17  C   UNL     1      -8.689   7.769  68.939  1.00  0.00    -0.135 C  
BRANCH  17  18
HETATM   18  C   UNL     1      -8.049   6.474  69.471  1.00  0.00    -0.118 C  
BRANCH  18  19
HETATM   19  N   UNL     1      -8.902   5.806  70.420  1.00  0.00    -0.140 N  
HETATM   20  C   UNL     1      -9.585   4.597  70.178  1.00  0.00    -0.196 C  
HETATM   21  O   UNL     1      -9.570   3.924  69.162  1.00  0.00    -0.178 OA 
HETATM   22  N   UNL     1     -10.313   4.313  71.344  1.00  0.00    -0.042 NA 
HETATM   23  C   UNL     1     -10.100   5.332  72.268  1.00  0.00    -0.189 A  
HETATM   24  C   UNL     1     -10.611   5.478  73.535  1.00  0.00    -0.305 A  
HETATM   25  C   UNL     1     -10.228   6.625  74.239  1.00  0.00    -0.354 A  
HETATM   26  C   UNL     1      -9.365   7.581  73.662  1.00  0.00    -0.329 A  
HETATM   27  C   UNL     1      -8.857   7.408  72.370  1.00  0.00    -0.151 A  
HETATM   28  C   UNL     1      -9.238   6.269  71.696  1.00  0.00    -0.144 A  
ENDBRANCH  18  19
ENDBRANCH  17  18
ENDBRANCH  14  17
ENDBRANCH   7  11
TORSDOF 4
ENDMDL
MODEL      113
REMARK 921   NORMALIZED FREE ENERGY PREDICTED BY IDOCK:   -5.98 KCAL/MOL
REMARK 922        TOTAL FREE ENERGY PREDICTED BY IDOCK:   -8.01 KCAL/MOL
REMARK 923 INTER-LIGAND FREE ENERGY PREDICTED BY IDOCK:   -7.33 KCAL/MOL
REMARK 924 INTRA-LIGAND FREE ENERGY PREDICTED BY IDOCK:   -0.67 KCAL/MOL
REMARK 927      BINDING AFFINITY PREDICTED BY RF-SCORE:    0.00 PKD
ROOT
HETATM    1  F   UNL     1     -12.282   9.539  71.028  1.00  0.00    -0.325 F  
HETATM    2  C   UNL     1     -12.335   8.311  71.619  1.00  0.00    -0.315 C  
HETATM    3  C   UNL     1     -11.444   7.286  70.967  1.00  0.00    -0.316 A  
HETATM    4  F   UNL     1     -12.029   8.517  72.929  1.00  0.00    -0.433 F  
HETATM    5  F   UNL     1     -13.648   7.948  71.594  1.00  0.00    -0.339 F  
HETATM    6  C   UNL     1     -10.673   7.630  69.843  1.00  0.00    -0.253 A  
HETATM    7  C   UNL     1      -9.862   6.708  69.160  1.00  0.00    -0.148 A  
HETATM    8  C   UNL     1     -11.371   5.982  71.461  1.00  0.00    -0.309 A  
HETATM    9  C   UNL     1      -9.817   5.411  69.695  1.00  0.00    -0.261 A  
HETATM   10  C   UNL     1     -10.554   5.051  70.832  1.00  0.00    -0.148 A  
ENDROOT
BRANCH   7  11
HETATM   11  N   UNL     1      -9.103   7.113  68.059  1.00  0.00    -0.133 NA 
HETATM   12  C   UNL     1      -7.458   8.672  67.029  1.00  0.00    -0.084 C  
HETATM   13  C   UNL     1      -8.629   8.518  68.029  1.00  0.00    -0.134 C  
HETATM   14  N   UNL     1      -7.741   8.206  65.651  1.00  0.00    -0.086 NA 
HETATM   15  C   UNL     1      -8.213   6.802  65.754  1.00  0.00    -0.135 C  
HETATM   16  C   UNL     1      -9.405   6.569  66.720  1.00  0.00    -0.156 C  
BRANCH  14  17
HETATM   17  C   UNL     1      -8.742   9.044  64.960  1.00  0.00    -0.183 C  
BRANCH  17  18
HETATM   18  C   UNL     1      -8.475  10.556  65.071  1.00  0.00    -0.163 C  
BRANCH  18  19
HETATM   19  N   UNL     1      -9.614  11.333  64.656  1.00  0.00    -0.239 N  
HETATM   20  C   UNL     1     -10.093  11.419  63.333  1.00  0.00    -0.405 C  
HETATM   21  O   UNL     1      -9.647  10.865  62.343  1.00  0.00    -0.220 OA 
HETATM   22  N   UNL     1     -11.192  12.291  63.366  1.00  0.00    -0.440 NA 
HETATM   23  C   UNL     1     -11.369  12.745  64.669  1.00  0.00    -0.321 A  
HETATM   24  C   UNL     1     -12.310  13.614  65.167  1.00  0.00    -0.486 A  
HETATM   25  C   UNL     1     -12.238  13.903  66.535  1.00  0.00    -0.482 A  
HETATM   26  C   UNL     1     -11.238  13.328  67.349  1.00  0.00    -0.316 A  
HETATM   27  C   UNL     1     -10.292  12.446  66.819  1.00  0.00    -0.239 A  
HETATM   28  C   UNL     1     -10.385  12.167  65.473  1.00  0.00    -0.263 A  
ENDBRANCH  18  19
ENDBRANCH  17  18
ENDBRANCH  14  17
ENDBRANCH   7  11
TORSDOF 4
ENDMDL
MODEL      114
REMARK 921   NORMALIZED FREE ENERGY PREDICTED BY IDOCK:   -5.97 KCAL/MOL
REMARK 922        TOTAL FREE ENERGY PREDICTED BY IDOCK:   -7.99 KCAL/MOL
REMARK 923 INTER-LIGAND FREE ENERGY PREDICTED BY IDOCK:   -7.57 KCAL/MOL
REMARK 924 INTRA-LIGAND FREE ENERGY PREDICTED BY IDOCK:   -0.42 KCAL/MOL
REMARK 927      BINDING AFFINITY PREDICTED BY RF-SCORE:    0.00 PKD
ROOT
HETATM    1  F   UNL     1     -12.265  13.995  67.219  1.00  0.00    -0.420 F  
HETATM    2  C   UNL     1     -12.213  14.066  65.858  1.00  0.00    -0.456 C  
HETATM    3  C   UNL     1     -11.505  12.903  65.216  1.00  0.00    -0.348 A  
HETATM    4  F   UNL     1     -13.504  14.190  65.444  1.00  0.00    -0.436 F  
HETATM    5  F   UNL     1     -11.615  15.258  65.576  1.00  0.00    -0.318 F  
HETATM    6  C   UNL     1     -10.954  11.883  66.012  1.00  0.00    -0.355 A  
HETATM    7  C   UNL     1     -10.239  10.797  65.478  1.00  0.00    -0.266 A  
HETATM    8  C   UNL     1     -11.379  12.818  63.829  1.00  0.00    -0.520 A  
HETATM    9  C   UNL     1     -10.141  10.752  64.079  1.00  0.00    -0.410 A  
HETATM   10  C   UNL     1     -10.707  11.741  63.262  1.00  0.00    -0.414 A  
ENDROOT
BRANCH   7  11
HETATM   11  N   UNL     1      -9.730   9.803  66.318  1.00  0.00    -0.216 NA 
HETATM   12  C   UNL     1      -7.865   8.303  67.000  1.00  0.00    -0.096 C  
HETATM   13  C   UNL     1      -8.582   9.005  65.823  1.00  0.00    -0.160 C  
HETATM   14  N   UNL     1      -8.734   7.458  67.854  1.00  0.00    -0.124 NA 
HETATM   15  C   UNL     1      -9.859   8.313  68.308  1.00  0.00    -0.172 C  
HETATM   16  C   UNL     1     -10.647   9.033  67.182  1.00  0.00    -0.220 C  
BRANCH  14  17
HETATM   17  C   UNL     1      -9.239   6.263  67.148  1.00  0.00    -0.122 C  
BRANCH  17  18
HETATM   18  C   UNL     1     -10.441   5.593  67.837  1.00  0.00    -0.211 C  
BRANCH  18  19
HETATM   19  N   UNL     1     -10.076   5.006  69.100  1.00  0.00    -0.204 N  
HETATM   20  C   UNL     1      -9.180   3.929  69.260  1.00  0.00    -0.157 C  
HETATM   21  O   UNL     1      -8.573   3.331  68.388  1.00  0.00    -0.084 OA 
HETATM   22  N   UNL     1      -9.127   3.659  70.636  1.00  0.00    -0.101 NA 
HETATM   23  C   UNL     1      -9.984   4.531  71.301  1.00  0.00    -0.188 A  
HETATM   24  C   UNL     1     -10.258   4.627  72.644  1.00  0.00    -0.239 A  
HETATM   25  C   UNL     1     -11.184   5.602  73.029  1.00  0.00    -0.319 A  
HETATM   26  C   UNL     1     -11.804   6.436  72.073  1.00  0.00    -0.382 A  
HETATM   27  C   UNL     1     -11.508   6.320  70.712  1.00  0.00    -0.383 A  
HETATM   28  C   UNL     1     -10.587   5.360  70.353  1.00  0.00    -0.252 A  
ENDBRANCH  18  19
ENDBRANCH  17  18
ENDBRANCH  14  17
ENDBRANCH   7  11
TORSDOF 4
ENDMDL
MODEL      115
REMARK 921   NORMALIZED FREE ENERGY PREDICTED BY IDOCK:   -5.97 KCAL/MOL
REMARK 922        TOTAL FREE ENERGY PREDICTED BY IDOCK:   -7.99 KCAL/MOL
REMARK 923 INTER-LIGAND FREE ENERGY PREDICTED BY IDOCK:   -7.38 KCAL/MOL
REMARK 924 INTRA-LIGAND FREE ENERGY PREDICTED BY IDOCK:   -0.61 KCAL/MOL
REMARK 927      BINDING AFFINITY PREDICTED BY RF-SCORE:    0.00 PKD
ROOT
HETATM    1  F   UNL     1     -11.778   6.616  72.783  1.00  0.00    -0.253 F  
HETATM    2  C   UNL     1     -11.299   5.398  73.164  1.00  0.00    -0.263 C  
HETATM    3  C   UNL     1     -10.408   4.748  72.137  1.00  0.00    -0.256 A  
HETATM    4  F   UNL     1     -10.668   5.603  74.353  1.00  0.00    -0.275 F  
HETATM    5  F   UNL     1     -12.398   4.644  73.449  1.00  0.00    -0.271 F  
HETATM    6  C   UNL     1     -10.156   5.390  70.912  1.00  0.00    -0.286 A  
HETATM    7  C   UNL     1      -9.376   4.815  69.894  1.00  0.00    -0.140 A  
HETATM    8  C   UNL     1      -9.824   3.504  72.380  1.00  0.00    -0.229 A  
HETATM    9  C   UNL     1      -8.807   3.566  70.184  1.00  0.00    -0.149 A  
HETATM   10  C   UNL     1      -9.019   2.919  71.410  1.00  0.00    -0.157 A  
ENDROOT
BRANCH   7  11
HETATM   11  N   UNL     1      -9.144   5.509  68.704  1.00  0.00    -0.116 NA 
HETATM   12  C   UNL     1      -7.893   7.239  67.424  1.00  0.00    -0.112 C  
HETATM   13  C   UNL     1      -8.482   6.833  68.796  1.00  0.00    -0.124 C  
HETATM   14  N   UNL     1      -8.857   7.236  66.298  1.00  0.00    -0.155 NA 
HETATM   15  C   UNL     1      -9.483   5.891  66.266  1.00  0.00    -0.139 C  
HETATM   16  C   UNL     1     -10.121   5.420  67.600  1.00  0.00    -0.175 C  
BRANCH  14  17
HETATM   17  C   UNL     1      -9.886   8.288  66.425  1.00  0.00    -0.213 C  
BRANCH  17  18
HETATM   18  C   UNL     1      -9.322   9.671  66.800  1.00  0.00    -0.152 C  
BRANCH  18  19
HETATM   19  N   UNL     1     -10.340  10.689  66.773  1.00  0.00    -0.236 N  
HETATM   20  C   UNL     1     -11.111  11.088  67.884  1.00  0.00    -0.288 C  
HETATM   21  O   UNL     1     -11.049  10.661  69.024  1.00  0.00    -0.219 OA 
HETATM   22  N   UNL     1     -11.991  12.078  67.421  1.00  0.00    -0.585 NA 
HETATM   23  C   UNL     1     -11.781  12.266  66.057  1.00  0.00    -0.388 A  
HETATM   24  C   UNL     1     -12.415  13.123  65.190  1.00  0.00    -0.539 A  
HETATM   25  C   UNL     1     -11.999  13.086  63.855  1.00  0.00    -0.551 A  
HETATM   26  C   UNL     1     -10.983  12.202  63.431  1.00  0.00    -0.480 A  
HETATM   27  C   UNL     1     -10.353  11.340  64.334  1.00  0.00    -0.388 A  
HETATM   28  C   UNL     1     -10.769  11.397  65.646  1.00  0.00    -0.242 A  
ENDBRANCH  18  19
ENDBRANCH  17  18
ENDBRANCH  14  17
ENDBRANCH   7  11
TORSDOF 4
ENDMDL
MODEL      116
REMARK 921   NORMALIZED FREE ENERGY PREDICTED BY IDOCK:   -5.93 KCAL/MOL
REMARK 922        TOTAL FREE ENERGY PREDICTED BY IDOCK:   -7.94 KCAL/MOL
REMARK 923 INTER-LIGAND FREE ENERGY PREDICTED BY IDOCK:   -7.02 KCAL/MOL
REMARK 924 INTRA-LIGAND FREE ENERGY PREDICTED BY IDOCK:   -0.92 KCAL/MOL
REMARK 927      BINDING AFFINITY PREDICTED BY RF-SCORE:    0.00 PKD
ROOT
HETATM    1  F   UNL     1     -10.931  10.731  63.599  1.00  0.00    -0.333 F  
HETATM    2  C   UNL     1     -11.563  11.931  63.735  1.00  0.00    -0.462 C  
HETATM    3  C   UNL     1     -11.675  12.400  65.162  1.00  0.00    -0.430 A  
HETATM    4  F   UNL     1     -10.876  12.803  62.947  1.00  0.00    -0.235 F  
HETATM    5  F   UNL     1     -12.781  11.773  63.144  1.00  0.00    -0.687 F  
HETATM    6  C   UNL     1     -11.169  11.609  66.209  1.00  0.00    -0.332 A  
HETATM    7  C   UNL     1     -11.286  11.966  67.563  1.00  0.00    -0.296 A  
HETATM    8  C   UNL     1     -12.282  13.618  65.470  1.00  0.00    -0.476 A  
HETATM    9  C   UNL     1     -11.900  13.200  67.824  1.00  0.00    -0.392 A  
HETATM   10  C   UNL     1     -12.386  14.020  66.797  1.00  0.00    -0.368 A  
ENDROOT
BRANCH   7  11
HETATM   11  N   UNL     1     -10.746  11.148  68.559  1.00  0.00    -0.188 NA 
HETATM   12  C   UNL     1      -8.807   9.930  69.534  1.00  0.00    -0.197 C  
HETATM   13  C   UNL     1      -9.511  10.394  68.237  1.00  0.00    -0.148 C  
HETATM   14  N   UNL     1      -9.651   9.139  70.461  1.00  0.00    -0.223 NA 
HETATM   15  C   UNL     1     -10.867   9.946  70.736  1.00  0.00    -0.317 C  
HETATM   16  C   UNL     1     -11.645  10.428  69.484  1.00  0.00    -0.219 C  
BRANCH  14  17
HETATM   17  C   UNL     1     -10.016   7.817  69.914  1.00  0.00    -0.191 C  
BRANCH  17  18
HETATM   18  C   UNL     1      -8.814   6.881  69.692  1.00  0.00    -0.141 C  
BRANCH  18  19
HETATM   19  N   UNL     1      -9.041   5.968  68.602  1.00  0.00    -0.117 N  
HETATM   20  C   UNL     1      -9.619   4.689  68.728  1.00  0.00    -0.163 C  
HETATM   21  O   UNL     1     -10.021   4.151  69.746  1.00  0.00    -0.206 OA 
HETATM   22  N   UNL     1      -9.632   4.131  67.440  1.00  0.00    -0.186 NA 
HETATM   23  C   UNL     1      -9.057   5.034  66.551  1.00  0.00    -0.125 A  
HETATM   24  C   UNL     1      -8.853   4.913  65.198  1.00  0.00    -0.153 A  
HETATM   25  C   UNL     1      -8.232   5.990  64.556  1.00  0.00    -0.095 A  
HETATM   26  C   UNL     1      -7.834   7.137  65.277  1.00  0.00    -0.121 A  
HETATM   27  C   UNL     1      -8.054   7.237  66.655  1.00  0.00    -0.113 A  
HETATM   28  C   UNL     1      -8.674   6.170  67.267  1.00  0.00    -0.108 A  
ENDBRANCH  18  19
ENDBRANCH  17  18
ENDBRANCH  14  17
ENDBRANCH   7  11
TORSDOF 4
ENDMDL
MODEL      117
REMARK 921   NORMALIZED FREE ENERGY PREDICTED BY IDOCK:   -5.92 KCAL/MOL
REMARK 922        TOTAL FREE ENERGY PREDICTED BY IDOCK:   -7.93 KCAL/MOL
REMARK 923 INTER-LIGAND FREE ENERGY PREDICTED BY IDOCK:   -7.88 KCAL/MOL
REMARK 924 INTRA-LIGAND FREE ENERGY PREDICTED BY IDOCK:   -0.05 KCAL/MOL
REMARK 927      BINDING AFFINITY PREDICTED BY RF-SCORE:    0.00 PKD
ROOT
HETATM    1  F   UNL     1     -11.030  11.132  64.657  1.00  0.00    -0.385 F  
HETATM    2  C   UNL     1     -11.404  12.433  64.822  1.00  0.00    -0.315 C  
HETATM    3  C   UNL     1     -11.590  12.833  66.262  1.00  0.00    -0.433 A  
HETATM    4  F   UNL     1     -10.455  13.174  64.188  1.00  0.00    -0.386 F  
HETATM    5  F   UNL     1     -12.544  12.581  64.091  1.00  0.00    -0.470 F  
HETATM    6  C   UNL     1     -11.397  11.892  67.289  1.00  0.00    -0.393 A  
HETATM    7  C   UNL     1     -11.602  12.189  68.647  1.00  0.00    -0.321 A  
HETATM    8  C   UNL     1     -11.958  14.136  66.602  1.00  0.00    -0.470 A  
HETATM    9  C   UNL     1     -11.968  13.512  68.941  1.00  0.00    -0.378 A  
HETATM   10  C   UNL     1     -12.138  14.476  67.937  1.00  0.00    -0.261 A  
ENDROOT
BRANCH   7  11
HETATM   11  N   UNL     1     -11.377  11.217  69.626  1.00  0.00    -0.278 NA 
HETATM   12  C   UNL     1      -9.959   9.410  70.584  1.00  0.00    -0.284 C  
HETATM   13  C   UNL     1     -10.450  10.108  69.294  1.00  0.00    -0.225 C  
HETATM   14  N   UNL     1     -11.031   8.918  71.482  1.00  0.00    -0.300 NA 
HETATM   15  C   UNL     1     -11.921  10.072  71.768  1.00  0.00    -0.174 C  
HETATM   16  C   UNL     1     -12.477  10.810  70.522  1.00  0.00    -0.360 C  
BRANCH  14  17
HETATM   17  C   UNL     1     -11.798   7.800  70.895  1.00  0.00    -0.239 C  
BRANCH  17  18
HETATM   18  C   UNL     1     -11.549   6.445  71.582  1.00  0.00    -0.310 C  
BRANCH  18  19
HETATM   19  N   UNL     1     -10.780   5.556  70.749  1.00  0.00    -0.251 N  
HETATM   20  C   UNL     1     -10.730   5.612  69.342  1.00  0.00    -0.295 C  
HETATM   21  O   UNL     1     -11.303   6.398  68.607  1.00  0.00    -0.313 OA 
HETATM   22  N   UNL     1      -9.891   4.563  68.934  1.00  0.00    -0.153 NA 
HETATM   23  C   UNL     1      -9.457   3.868  70.060  1.00  0.00    -0.192 A  
HETATM   24  C   UNL     1      -8.633   2.772  70.141  1.00  0.00    -0.111 A  
HETATM   25  C   UNL     1      -8.376   2.272  71.422  1.00  0.00    -0.076 A  
HETATM   26  C   UNL     1      -8.947   2.871  72.566  1.00  0.00    -0.116 A  
HETATM   27  C   UNL     1      -9.782   3.988  72.457  1.00  0.00    -0.206 A  
HETATM   28  C   UNL     1     -10.016   4.470  71.188  1.00  0.00    -0.187 A  
ENDBRANCH  18  19
ENDBRANCH  17  18
ENDBRANCH  14  17
ENDBRANCH   7  11
TORSDOF 4
ENDMDL
MODEL      118
REMARK 921   NORMALIZED FREE ENERGY PREDICTED BY IDOCK:   -5.92 KCAL/MOL
REMARK 922        TOTAL FREE ENERGY PREDICTED BY IDOCK:   -7.92 KCAL/MOL
REMARK 923 INTER-LIGAND FREE ENERGY PREDICTED BY IDOCK:   -7.40 KCAL/MOL
REMARK 924 INTRA-LIGAND FREE ENERGY PREDICTED BY IDOCK:   -0.52 KCAL/MOL
REMARK 927      BINDING AFFINITY PREDICTED BY RF-SCORE:    0.00 PKD
ROOT
HETATM    1  F   UNL     1      -9.842   7.807  66.046  1.00  0.00    -0.205 F  
HETATM    2  C   UNL     1     -10.298   7.214  67.185  1.00  0.00    -0.289 C  
HETATM    3  C   UNL     1     -10.509   8.173  68.327  1.00  0.00    -0.210 A  
HETATM    4  F   UNL     1     -11.438   6.559  66.831  1.00  0.00    -0.456 F  
HETATM    5  F   UNL     1      -9.388   6.244  67.484  1.00  0.00    -0.118 F  
HETATM    6  C   UNL     1     -10.221   9.539  68.166  1.00  0.00    -0.231 A  
HETATM    7  C   UNL     1     -10.348  10.476  69.206  1.00  0.00    -0.227 A  
HETATM    8  C   UNL     1     -10.988   7.726  69.560  1.00  0.00    -0.092 A  
HETATM    9  C   UNL     1     -10.837   9.981  70.425  1.00  0.00    -0.380 A  
HETATM   10  C   UNL     1     -11.159   8.629  70.602  1.00  0.00    -0.282 A  
ENDROOT
BRANCH   7  11
HETATM   11  N   UNL     1     -10.065  11.826  68.981  1.00  0.00    -0.060 NA 
HETATM   12  C   UNL     1     -10.725  14.221  69.127  1.00  0.00    -0.220 C  
HETATM   13  C   UNL     1     -11.208  12.768  68.913  1.00  0.00    -0.283 C  
HETATM   14  N   UNL     1      -9.649  14.669  68.210  1.00  0.00    -0.202 NA 
HETATM   15  C   UNL     1      -8.544  13.684  68.323  1.00  0.00    -0.170 C  
HETATM   16  C   UNL     1      -8.945  12.203  68.096  1.00  0.00    -0.195 C  
BRANCH  14  17
HETATM   17  C   UNL     1     -10.104  14.783  66.809  1.00  0.00    -0.256 C  
BRANCH  17  18
HETATM   18  C   UNL     1      -9.061  15.403  65.862  1.00  0.00    -0.153 C  
BRANCH  18  19
HETATM   19  N   UNL     1      -8.499  16.613  66.403  1.00  0.00    -0.286 N  
HETATM   20  C   UNL     1      -7.198  16.732  66.932  1.00  0.00    -0.223 C  
HETATM   21  O   UNL     1      -6.347  15.863  67.016  1.00  0.00    -0.309 OA 
HETATM   22  N   UNL     1      -7.067  18.060  67.368  1.00  0.00    -0.190 NA 
HETATM   23  C   UNL     1      -8.262  18.732  67.132  1.00  0.00    -0.265 A  
HETATM   24  C   UNL     1      -8.593  20.038  67.401  1.00  0.00    -0.403 A  
HETATM   25  C   UNL     1      -9.890  20.440  67.064  1.00  0.00    -0.594 A  
HETATM   26  C   UNL     1     -10.806  19.537  66.482  1.00  0.00    -0.461 A  
HETATM   27  C   UNL     1     -10.444  18.212  66.216  1.00  0.00    -0.374 A  
HETATM   28  C   UNL     1      -9.160  17.837  66.548  1.00  0.00    -0.264 A  
ENDBRANCH  18  19
ENDBRANCH  17  18
ENDBRANCH  14  17
ENDBRANCH   7  11
TORSDOF 4
ENDMDL
MODEL      119
REMARK 921   NORMALIZED FREE ENERGY PREDICTED BY IDOCK:   -5.91 KCAL/MOL
REMARK 922        TOTAL FREE ENERGY PREDICTED BY IDOCK:   -7.91 KCAL/MOL
REMARK 923 INTER-LIGAND FREE ENERGY PREDICTED BY IDOCK:   -7.23 KCAL/MOL
REMARK 924 INTRA-LIGAND FREE ENERGY PREDICTED BY IDOCK:   -0.68 KCAL/MOL
REMARK 927      BINDING AFFINITY PREDICTED BY RF-SCORE:    0.00 PKD
ROOT
HETATM    1  F   UNL     1      -7.184  19.931  70.252  1.00  0.00    -0.245 F  
HETATM    2  C   UNL     1      -6.381  19.937  69.150  1.00  0.00    -0.318 C  
HETATM    3  C   UNL     1      -6.816  18.972  68.078  1.00  0.00    -0.255 A  
HETATM    4  F   UNL     1      -6.356  21.227  68.717  1.00  0.00    -0.249 F  
HETATM    5  F   UNL     1      -5.126  19.671  69.609  1.00  0.00    -0.182 F  
HETATM    6  C   UNL     1      -7.944  18.157  68.274  1.00  0.00    -0.304 A  
HETATM    7  C   UNL     1      -8.372  17.203  67.335  1.00  0.00    -0.190 A  
HETATM    8  C   UNL     1      -6.109  18.867  66.879  1.00  0.00    -0.179 A  
HETATM    9  C   UNL     1      -7.632  17.136  66.144  1.00  0.00    -0.304 A  
HETATM   10  C   UNL     1      -6.521  17.958  65.912  1.00  0.00    -0.294 A  
ENDROOT
BRANCH   7  11
HETATM   11  N   UNL     1      -9.512  16.433  67.577  1.00  0.00    -0.223 NA 
HETATM   12  C   UNL     1     -11.478  15.878  69.000  1.00  0.00    -0.380 C  
HETATM   13  C   UNL     1     -10.006  16.353  68.973  1.00  0.00    -0.267 C  
HETATM   14  N   UNL     1     -11.740  14.598  68.301  1.00  0.00    -0.328 NA 
HETATM   15  C   UNL     1     -11.219  14.744  66.918  1.00  0.00    -0.347 C  
HETATM   16  C   UNL     1      -9.739  15.194  66.807  1.00  0.00    -0.242 C  
BRANCH  14  17
HETATM   17  C   UNL     1     -11.114  13.442  68.974  1.00  0.00    -0.249 C  
BRANCH  17  18
HETATM   18  C   UNL     1     -11.946  12.149  68.895  1.00  0.00    -0.242 C  
BRANCH  18  19
HETATM   19  N   UNL     1     -11.127  11.002  68.598  1.00  0.00    -0.218 N  
HETATM   20  C   UNL     1     -10.703  10.627  67.307  1.00  0.00    -0.285 C  
HETATM   21  O   UNL     1     -10.941  11.191  66.252  1.00  0.00    -0.251 OA 
HETATM   22  N   UNL     1      -9.953   9.451  67.462  1.00  0.00    -0.187 NA 
HETATM   23  C   UNL     1      -9.935   9.101  68.809  1.00  0.00    -0.176 A  
HETATM   24  C   UNL     1      -9.333   8.029  69.421  1.00  0.00    -0.155 A  
HETATM   25  C   UNL     1      -9.497   7.923  70.807  1.00  0.00    -0.163 A  
HETATM   26  C   UNL     1     -10.251   8.875  71.527  1.00  0.00    -0.398 A  
HETATM   27  C   UNL     1     -10.853   9.959  70.880  1.00  0.00    -0.357 A  
HETATM   28  C   UNL     1     -10.674  10.051  69.518  1.00  0.00    -0.244 A  
ENDBRANCH  18  19
ENDBRANCH  17  18
ENDBRANCH  14  17
ENDBRANCH   7  11
TORSDOF 4
ENDMDL
MODEL      120
REMARK 921   NORMALIZED FREE ENERGY PREDICTED BY IDOCK:   -5.90 KCAL/MOL
REMARK 922        TOTAL FREE ENERGY PREDICTED BY IDOCK:   -7.91 KCAL/MOL
REMARK 923 INTER-LIGAND FREE ENERGY PREDICTED BY IDOCK:   -7.29 KCAL/MOL
REMARK 924 INTRA-LIGAND FREE ENERGY PREDICTED BY IDOCK:   -0.61 KCAL/MOL
REMARK 927      BINDING AFFINITY PREDICTED BY RF-SCORE:    0.00 PKD
ROOT
HETATM    1  F   UNL     1      -7.641   6.151  65.500  1.00  0.00    -0.075 F  
HETATM    2  C   UNL     1      -7.817   6.447  64.181  1.00  0.00    -0.116 C  
HETATM    3  C   UNL     1      -8.317   7.846  63.934  1.00  0.00     0.071 A  
HETATM    4  F   UNL     1      -6.619   6.203  63.583  1.00  0.00    -0.030 F  
HETATM    5  F   UNL     1      -8.673   5.499  63.703  1.00  0.00    -0.115 F  
HETATM    6  C   UNL     1      -8.575   8.707  65.016  1.00  0.00    -0.185 A  
HETATM    7  C   UNL     1      -9.088  10.005  64.855  1.00  0.00    -0.221 A  
HETATM    8  C   UNL     1      -8.534   8.311  62.636  1.00  0.00    -0.072 A  
HETATM    9  C   UNL     1      -9.288  10.430  63.533  1.00  0.00    -0.333 A  
HETATM   10  C   UNL     1      -9.010   9.601  62.437  1.00  0.00    -0.282 A  
ENDROOT
BRANCH   7  11
HETATM   11  N   UNL     1      -9.308  10.821  65.968  1.00  0.00    -0.179 NA 
HETATM   12  C   UNL     1     -10.873  12.014  67.492  1.00  0.00    -0.241 C  
HETATM   13  C   UNL     1     -10.597  11.551  66.042  1.00  0.00    -0.261 C  
HETATM   14  N   UNL     1      -9.798  12.827  68.110  1.00  0.00    -0.222 NA 
HETATM   15  C   UNL     1      -8.541  12.044  67.997  1.00  0.00    -0.170 C  
HETATM   16  C   UNL     1      -8.181  11.565  66.566  1.00  0.00    -0.129 C  
BRANCH  14  17
HETATM   17  C   UNL     1      -9.647  14.151  67.472  1.00  0.00    -0.223 C  
BRANCH  17  18
HETATM   18  C   UNL     1     -10.918  15.017  67.524  1.00  0.00    -0.307 C  
BRANCH  18  19
HETATM   19  N   UNL     1     -10.783  16.215  66.735  1.00  0.00    -0.282 N  
HETATM   20  C   UNL     1     -10.954  16.283  65.338  1.00  0.00    -0.197 C  
HETATM   21  O   UNL     1     -11.242  15.374  64.578  1.00  0.00    -0.373 OA 
HETATM   22  N   UNL     1     -10.710  17.617  64.973  1.00  0.00    -0.593 NA 
HETATM   23  C   UNL     1     -10.377  18.342  66.114  1.00  0.00    -0.398 A  
HETATM   24  C   UNL     1     -10.055  19.672  66.235  1.00  0.00    -0.578 A  
HETATM   25  C   UNL     1      -9.748  20.130  67.521  1.00  0.00    -0.557 A  
HETATM   26  C   UNL     1      -9.765  19.256  68.630  1.00  0.00    -0.494 A  
HETATM   27  C   UNL     1     -10.098  17.906  68.480  1.00  0.00    -0.392 A  
HETATM   28  C   UNL     1     -10.406  17.476  67.208  1.00  0.00    -0.337 A  
ENDBRANCH  18  19
ENDBRANCH  17  18
ENDBRANCH  14  17
ENDBRANCH   7  11
TORSDOF 4
ENDMDL
MODEL      121
REMARK 921   NORMALIZED FREE ENERGY PREDICTED BY IDOCK:   -5.90 KCAL/MOL
REMARK 922        TOTAL FREE ENERGY PREDICTED BY IDOCK:   -7.90 KCAL/MOL
REMARK 923 INTER-LIGAND FREE ENERGY PREDICTED BY IDOCK:   -7.46 KCAL/MOL
REMARK 924 INTRA-LIGAND FREE ENERGY PREDICTED BY IDOCK:   -0.44 KCAL/MOL
REMARK 927      BINDING AFFINITY PREDICTED BY RF-SCORE:    0.00 PKD
ROOT
HETATM    1  F   UNL     1     -10.594  12.558  68.046  1.00  0.00    -0.202 F  
HETATM    2  C   UNL     1     -11.213  13.563  68.729  1.00  0.00    -0.274 C  
HETATM    3  C   UNL     1     -11.974  13.093  69.941  1.00  0.00    -0.387 A  
HETATM    4  F   UNL     1     -10.235  14.459  69.037  1.00  0.00    -0.224 F  
HETATM    5  F   UNL     1     -12.017  14.183  67.821  1.00  0.00    -0.354 F  
HETATM    6  C   UNL     1     -12.015  11.726  70.265  1.00  0.00    -0.429 A  
HETATM    7  C   UNL     1     -12.747  11.218  71.352  1.00  0.00    -0.396 A  
HETATM    8  C   UNL     1     -12.651  14.000  70.758  1.00  0.00    -0.431 A  
HETATM    9  C   UNL     1     -13.409  12.167  72.147  1.00  0.00    -0.438 A  
HETATM   10  C   UNL     1     -13.359  13.539  71.861  1.00  0.00    -0.529 A  
ENDROOT
BRANCH   7  11
HETATM   11  N   UNL     1     -12.735   9.850  71.637  1.00  0.00    -0.395 NA 
HETATM   12  C   UNL     1     -11.638   7.873  72.677  1.00  0.00    -0.377 C  
HETATM   13  C   UNL     1     -11.428   9.224  71.952  1.00  0.00    -0.311 C  
HETATM   14  N   UNL     1     -12.501   6.902  71.963  1.00  0.00    -0.289 NA 
HETATM   15  C   UNL     1     -13.784   7.592  71.675  1.00  0.00    -0.374 C  
HETATM   16  C   UNL     1     -13.660   8.945  70.925  1.00  0.00     0.214 C  
BRANCH  14  17
HETATM   17  C   UNL     1     -11.888   6.400  70.717  1.00  0.00    -0.253 C  
BRANCH  17  18
HETATM   18  C   UNL     1     -10.398   6.038  70.857  1.00  0.00    -0.222 C  
BRANCH  18  19
HETATM   19  N   UNL     1     -10.011   4.999  69.939  1.00  0.00    -0.231 N  
HETATM   20  C   UNL     1      -9.562   3.717  70.315  1.00  0.00    -0.176 C  
HETATM   21  O   UNL     1      -9.432   3.275  71.444  1.00  0.00    -0.127 OA 
HETATM   22  N   UNL     1      -9.271   3.033  69.124  1.00  0.00    -0.143 NA 
HETATM   23  C   UNL     1      -9.513   3.881  68.047  1.00  0.00    -0.165 A  
HETATM   24  C   UNL     1      -9.362   3.643  66.702  1.00  0.00    -0.206 A  
HETATM   25  C   UNL     1      -9.675   4.699  65.838  1.00  0.00    -0.208 A  
HETATM   26  C   UNL     1     -10.116   5.944  66.337  1.00  0.00    -0.163 A  
HETATM   27  C   UNL     1     -10.263   6.160  67.711  1.00  0.00    -0.211 A  
HETATM   28  C   UNL     1      -9.959   5.107  68.545  1.00  0.00    -0.154 A  
ENDBRANCH  18  19
ENDBRANCH  17  18
ENDBRANCH  14  17
ENDBRANCH   7  11
TORSDOF 4
ENDMDL
MODEL      122
REMARK 921   NORMALIZED FREE ENERGY PREDICTED BY IDOCK:   -5.88 KCAL/MOL
REMARK 922        TOTAL FREE ENERGY PREDICTED BY IDOCK:   -7.88 KCAL/MOL
REMARK 923 INTER-LIGAND FREE ENERGY PREDICTED BY IDOCK:   -7.39 KCAL/MOL
REMARK 924 INTRA-LIGAND FREE ENERGY PREDICTED BY IDOCK:   -0.49 KCAL/MOL
REMARK 927      BINDING AFFINITY PREDICTED BY RF-SCORE:    0.00 PKD
ROOT
HETATM    1  F   UNL     1      -8.842  17.397  66.650  1.00  0.00    -0.227 F  
HETATM    2  C   UNL     1      -9.816  17.434  67.603  1.00  0.00    -0.282 C  
HETATM    3  C   UNL     1     -10.353  16.076  67.975  1.00  0.00    -0.266 A  
HETATM    4  F   UNL     1      -9.272  18.093  68.663  1.00  0.00    -0.289 F  
HETATM    5  F   UNL     1     -10.783  18.256  67.107  1.00  0.00    -0.387 F  
HETATM    6  C   UNL     1      -9.861  14.922  67.341  1.00  0.00    -0.221 A  
HETATM    7  C   UNL     1     -10.354  13.634  67.606  1.00  0.00    -0.239 A  
HETATM    8  C   UNL     1     -11.345  15.941  68.947  1.00  0.00    -0.377 A  
HETATM    9  C   UNL     1     -11.348  13.546  68.593  1.00  0.00    -0.323 A  
HETATM   10  C   UNL     1     -11.835  14.678  69.261  1.00  0.00    -0.357 A  
ENDROOT
BRANCH   7  11
HETATM   11  N   UNL     1      -9.813  12.521  66.958  1.00  0.00    -0.213 NA 
HETATM   12  C   UNL     1     -10.075  10.582  65.419  1.00  0.00    -0.291 C  
HETATM   13  C   UNL     1     -10.752  11.475  66.486  1.00  0.00    -0.273 C  
HETATM   14  N   UNL     1      -8.797   9.959  65.837  1.00  0.00    -0.143 NA 
HETATM   15  C   UNL     1      -7.910  11.056  66.300  1.00  0.00    -0.141 C  
HETATM   16  C   UNL     1      -8.508  11.982  67.392  1.00  0.00    -0.170 C  
BRANCH  14  17
HETATM   17  C   UNL     1      -8.975   8.949  66.899  1.00  0.00    -0.128 C  
BRANCH  17  18
HETATM   18  C   UNL     1     -10.408   8.396  67.000  1.00  0.00    -0.315 C  
BRANCH  18  19
HETATM   19  N   UNL     1     -10.620   7.679  68.231  1.00  0.00    -0.165 N  
HETATM   20  C   UNL     1     -10.762   6.281  68.336  1.00  0.00    -0.290 C  
HETATM   21  O   UNL     1     -10.726   5.460  67.436  1.00  0.00    -0.201 OA 
HETATM   22  N   UNL     1     -10.973   6.005  69.696  1.00  0.00    -0.371 NA 
HETATM   23  C   UNL     1     -10.983   7.204  70.404  1.00  0.00    -0.265 A  
HETATM   24  C   UNL     1     -11.161   7.418  71.749  1.00  0.00    -0.277 A  
HETATM   25  C   UNL     1     -11.134   8.748  72.182  1.00  0.00    -0.406 A  
HETATM   26  C   UNL     1     -10.939   9.808  71.271  1.00  0.00    -0.331 A  
HETATM   27  C   UNL     1     -10.758   9.564  69.906  1.00  0.00    -0.268 A  
HETATM   28  C   UNL     1     -10.779   8.248  69.500  1.00  0.00    -0.174 A  
ENDBRANCH  18  19
ENDBRANCH  17  18
ENDBRANCH  14  17
ENDBRANCH   7  11
TORSDOF 4
ENDMDL
MODEL      123
REMARK 921   NORMALIZED FREE ENERGY PREDICTED BY IDOCK:   -5.88 KCAL/MOL
REMARK 922        TOTAL FREE ENERGY PREDICTED BY IDOCK:   -7.87 KCAL/MOL
REMARK 923 INTER-LIGAND FREE ENERGY PREDICTED BY IDOCK:   -7.29 KCAL/MOL
REMARK 924 INTRA-LIGAND FREE ENERGY PREDICTED BY IDOCK:   -0.58 KCAL/MOL
REMARK 927      BINDING AFFINITY PREDICTED BY RF-SCORE:    0.00 PKD
ROOT
HETATM    1  F   UNL     1     -12.860  12.524  64.478  1.00  0.00    -0.520 F  
HETATM    2  C   UNL     1     -12.422  13.567  65.238  1.00  0.00    -0.482 C  
HETATM    3  C   UNL     1     -11.337  13.193  66.214  1.00  0.00    -0.348 A  
HETATM    4  F   UNL     1     -12.029  14.527  64.357  1.00  0.00    -0.412 F  
HETATM    5  F   UNL     1     -13.530  14.060  65.859  1.00  0.00    -0.371 F  
HETATM    6  C   UNL     1     -10.882  11.865  66.292  1.00  0.00    -0.323 A  
HETATM    7  C   UNL     1      -9.910  11.441  67.214  1.00  0.00    -0.189 A  
HETATM    8  C   UNL     1     -10.769  14.150  67.056  1.00  0.00    -0.285 A  
HETATM    9  C   UNL     1      -9.366  12.439  68.037  1.00  0.00    -0.204 A  
HETATM   10  C   UNL     1      -9.781  13.776  67.958  1.00  0.00    -0.232 A  
ENDROOT
BRANCH   7  11
HETATM   11  N   UNL     1      -9.484  10.111  67.232  1.00  0.00    -0.152 NA 
HETATM   12  C   UNL     1      -9.931   7.697  66.819  1.00  0.00    -0.247 C  
HETATM   13  C   UNL     1     -10.525   9.055  67.263  1.00  0.00    -0.273 C  
HETATM   14  N   UNL     1      -8.740   7.251  67.581  1.00  0.00    -0.125 NA 
HETATM   15  C   UNL     1      -7.745   8.352  67.514  1.00  0.00    -0.099 C  
HETATM   16  C   UNL     1      -8.258   9.743  67.969  1.00  0.00    -0.109 C  
BRANCH  14  17
HETATM   17  C   UNL     1      -9.053   6.916  68.985  1.00  0.00    -0.138 C  
BRANCH  17  18
HETATM   18  C   UNL     1     -10.405   6.204  69.169  1.00  0.00    -0.218 C  
BRANCH  18  19
HETATM   19  N   UNL     1     -10.793   6.142  70.555  1.00  0.00    -0.278 N  
HETATM   20  C   UNL     1     -11.468   7.166  71.249  1.00  0.00    -0.282 C  
HETATM   21  O   UNL     1     -11.835   8.244  70.813  1.00  0.00    -0.264 OA 
HETATM   22  N   UNL     1     -11.629   6.712  72.567  1.00  0.00    -0.243 NA 
HETATM   23  C   UNL     1     -11.050   5.452  72.684  1.00  0.00    -0.278 A  
HETATM   24  C   UNL     1     -10.963   4.633  73.784  1.00  0.00    -0.368 A  
HETATM   25  C   UNL     1     -10.303   3.412  73.608  1.00  0.00    -0.232 A  
HETATM   26  C   UNL     1      -9.753   3.053  72.358  1.00  0.00    -0.216 A  
HETATM   27  C   UNL     1      -9.856   3.904  71.253  1.00  0.00    -0.227 A  
HETATM   28  C   UNL     1     -10.516   5.098  71.444  1.00  0.00    -0.179 A  
ENDBRANCH  18  19
ENDBRANCH  17  18
ENDBRANCH  14  17
ENDBRANCH   7  11
TORSDOF 4
ENDMDL
MODEL      124
REMARK 921   NORMALIZED FREE ENERGY PREDICTED BY IDOCK:   -5.87 KCAL/MOL
REMARK 922        TOTAL FREE ENERGY PREDICTED BY IDOCK:   -7.87 KCAL/MOL
REMARK 923 INTER-LIGAND FREE ENERGY PREDICTED BY IDOCK:   -7.24 KCAL/MOL
REMARK 924 INTRA-LIGAND FREE ENERGY PREDICTED BY IDOCK:   -0.62 KCAL/MOL
REMARK 927      BINDING AFFINITY PREDICTED BY RF-SCORE:    0.00 PKD
ROOT
HETATM    1  F   UNL     1     -11.614   7.454  72.767  1.00  0.00    -0.315 F  
HETATM    2  C   UNL     1     -11.271   6.151  72.560  1.00  0.00    -0.287 C  
HETATM    3  C   UNL     1     -10.567   5.910  71.250  1.00  0.00    -0.311 A  
HETATM    4  F   UNL     1     -10.519   5.790  73.635  1.00  0.00    -0.197 F  
HETATM    5  F   UNL     1     -12.432   5.445  72.661  1.00  0.00    -0.271 F  
HETATM    6  C   UNL     1     -10.337   6.977  70.363  1.00  0.00    -0.219 A  
HETATM    7  C   UNL     1      -9.732   6.810  69.106  1.00  0.00    -0.146 A  
HETATM    8  C   UNL     1     -10.136   4.632  70.892  1.00  0.00    -0.257 A  
HETATM    9  C   UNL     1      -9.312   5.508  68.792  1.00  0.00    -0.152 A  
HETATM   10  C   UNL     1      -9.503   4.434  69.671  1.00  0.00    -0.252 A  
ENDROOT
BRANCH   7  11
HETATM   11  N   UNL     1      -9.512   7.912  68.275  1.00  0.00    -0.143 NA 
HETATM   12  C   UNL     1      -8.007   9.697  67.413  1.00  0.00    -0.106 C  
HETATM   13  C   UNL     1      -8.409   8.836  68.633  1.00  0.00    -0.128 C  
HETATM   14  N   UNL     1      -9.115  10.456  66.784  1.00  0.00    -0.143 NA 
HETATM   15  C   UNL     1     -10.181   9.476  66.457  1.00  0.00    -0.237 C  
HETATM   16  C   UNL     1     -10.659   8.590  67.638  1.00  0.00    -0.198 C  
BRANCH  14  17
HETATM   17  C   UNL     1      -9.640  11.526  67.656  1.00  0.00    -0.171 C  
BRANCH  17  18
HETATM   18  C   UNL     1     -10.897  12.221  67.103  1.00  0.00    -0.244 C  
BRANCH  18  19
HETATM   19  N   UNL     1     -11.348  13.280  67.968  1.00  0.00    -0.273 N  
HETATM   20  C   UNL     1     -11.253  14.656  67.676  1.00  0.00    -0.321 C  
HETATM   21  O   UNL     1     -10.794  15.173  66.672  1.00  0.00    -0.311 OA 
HETATM   22  N   UNL     1     -11.782  15.334  68.785  1.00  0.00    -0.355 NA 
HETATM   23  C   UNL     1     -12.170  14.400  69.742  1.00  0.00    -0.321 A  
HETATM   24  C   UNL     1     -12.729  14.605  70.980  1.00  0.00    -0.406 A  
HETATM   25  C   UNL     1     -13.007  13.464  71.740  1.00  0.00    -0.435 A  
HETATM   26  C   UNL     1     -12.717  12.172  71.250  1.00  0.00    -0.363 A  
HETATM   27  C   UNL     1     -12.149  11.990  69.985  1.00  0.00    -0.355 A  
HETATM   28  C   UNL     1     -11.891  13.125  69.248  1.00  0.00    -0.323 A  
ENDBRANCH  18  19
ENDBRANCH  17  18
ENDBRANCH  14  17
ENDBRANCH   7  11
TORSDOF 4
ENDMDL
MODEL      125
REMARK 921   NORMALIZED FREE ENERGY PREDICTED BY IDOCK:   -5.86 KCAL/MOL
REMARK 922        TOTAL FREE ENERGY PREDICTED BY IDOCK:   -7.85 KCAL/MOL
REMARK 923 INTER-LIGAND FREE ENERGY PREDICTED BY IDOCK:   -7.18 KCAL/MOL
REMARK 924 INTRA-LIGAND FREE ENERGY PREDICTED BY IDOCK:   -0.68 KCAL/MOL
REMARK 927      BINDING AFFINITY PREDICTED BY RF-SCORE:    0.00 PKD
ROOT
HETATM    1  F   UNL     1     -11.081  10.787  63.924  1.00  0.00    -0.316 F  
HETATM    2  C   UNL     1     -11.540  12.070  63.947  1.00  0.00    -0.449 C  
HETATM    3  C   UNL     1     -11.688  12.638  65.334  1.00  0.00    -0.428 A  
HETATM    4  F   UNL     1     -10.676  12.786  63.175  1.00  0.00    -0.366 F  
HETATM    5  F   UNL     1     -12.720  12.049  63.266  1.00  0.00    -0.644 F  
HETATM    6  C   UNL     1     -11.382  11.850  66.458  1.00  0.00    -0.403 A  
HETATM    7  C   UNL     1     -11.546  12.303  67.777  1.00  0.00    -0.351 A  
HETATM    8  C   UNL     1     -12.133  13.946  65.529  1.00  0.00    -0.425 A  
HETATM    9  C   UNL     1     -11.993  13.626  67.924  1.00  0.00    -0.382 A  
HETATM   10  C   UNL     1     -12.277  14.441  66.820  1.00  0.00    -0.319 A  
ENDROOT
BRANCH   7  11
HETATM   11  N   UNL     1     -11.207  11.481  68.855  1.00  0.00    -0.224 NA 
HETATM   12  C   UNL     1      -9.533  10.093  70.065  1.00  0.00    -0.036 C  
HETATM   13  C   UNL     1     -10.051  10.568  68.687  1.00  0.00    -0.180 C  
HETATM   14  N   UNL     1     -10.551   9.460  70.938  1.00  0.00    -0.295 NA 
HETATM   15  C   UNL     1     -11.677  10.421  71.059  1.00  0.00    -0.337 C  
HETATM   16  C   UNL     1     -12.270  10.926  69.717  1.00  0.00    -0.311 C  
BRANCH  14  17
HETATM   17  C   UNL     1     -11.026   8.164  70.413  1.00  0.00    -0.247 C  
BRANCH  17  18
HETATM   18  C   UNL     1      -9.943   7.071  70.377  1.00  0.00    -0.179 C  
BRANCH  18  19
HETATM   19  N   UNL     1      -9.529   6.683  71.700  1.00  0.00    -0.160 N  
HETATM   20  C   UNL     1     -10.261   5.839  72.559  1.00  0.00    -0.188 C  
HETATM   21  O   UNL     1     -11.333   5.302  72.339  1.00  0.00    -0.213 OA 
HETATM   22  N   UNL     1      -9.518   5.741  73.746  1.00  0.00    -0.138 NA 
HETATM   23  C   UNL     1      -8.372   6.521  73.627  1.00  0.00    -0.118 A  
HETATM   24  C   UNL     1      -7.364   6.731  74.537  1.00  0.00    -0.105 A  
HETATM   25  C   UNL     1      -6.330   7.587  74.143  1.00  0.00    -0.077 A  
HETATM   26  C   UNL     1      -6.337   8.204  72.873  1.00  0.00    -0.084 A  
HETATM   27  C   UNL     1      -7.374   7.973  71.964  1.00  0.00    -0.094 A  
HETATM   28  C   UNL     1      -8.379   7.120  72.366  1.00  0.00    -0.108 A  
ENDBRANCH  18  19
ENDBRANCH  17  18
ENDBRANCH  14  17
ENDBRANCH   7  11
TORSDOF 4
ENDMDL
MODEL      126
REMARK 921   NORMALIZED FREE ENERGY PREDICTED BY IDOCK:   -5.85 KCAL/MOL
REMARK 922        TOTAL FREE ENERGY PREDICTED BY IDOCK:   -7.84 KCAL/MOL
REMARK 923 INTER-LIGAND FREE ENERGY PREDICTED BY IDOCK:   -7.25 KCAL/MOL
REMARK 924 INTRA-LIGAND FREE ENERGY PREDICTED BY IDOCK:   -0.59 KCAL/MOL
REMARK 927      BINDING AFFINITY PREDICTED BY RF-SCORE:    0.00 PKD
ROOT
HETATM    1  F   UNL     1     -11.216   5.748  67.673  1.00  0.00    -0.319 F  
HETATM    2  C   UNL     1     -10.124   5.189  67.077  1.00  0.00    -0.217 C  
HETATM    3  C   UNL     1      -9.241   6.185  66.372  1.00  0.00    -0.166 A  
HETATM    4  F   UNL     1      -9.472   4.511  68.061  1.00  0.00    -0.140 F  
HETATM    5  F   UNL     1     -10.614   4.240  66.231  1.00  0.00    -0.233 F  
HETATM    6  C   UNL     1      -9.585   7.548  66.355  1.00  0.00    -0.194 A  
HETATM    7  C   UNL     1      -8.831   8.519  65.674  1.00  0.00    -0.173 A  
HETATM    8  C   UNL     1      -8.074   5.776  65.725  1.00  0.00    -0.116 A  
HETATM    9  C   UNL     1      -7.665   8.062  65.041  1.00  0.00    -0.112 A  
HETATM   10  C   UNL     1      -7.285   6.713  65.069  1.00  0.00    -0.074 A  
ENDROOT
BRANCH   7  11
HETATM   11  N   UNL     1      -9.213   9.863  65.707  1.00  0.00    -0.166 NA 
HETATM   12  C   UNL     1      -9.374  12.029  66.922  1.00  0.00    -0.200 C  
HETATM   13  C   UNL     1      -9.419  10.487  67.037  1.00  0.00    -0.163 C  
HETATM   14  N   UNL     1     -10.316  12.616  65.940  1.00  0.00    -0.271 NA 
HETATM   15  C   UNL     1     -10.060  11.946  64.640  1.00  0.00    -0.269 C  
HETATM   16  C   UNL     1     -10.114  10.396  64.666  1.00  0.00    -0.308 C  
BRANCH  14  17
HETATM   17  C   UNL     1     -11.729  12.458  66.339  1.00  0.00    -0.391 C  
BRANCH  17  18
HETATM   18  C   UNL     1     -12.429  13.781  66.697  1.00  0.00    -0.260 C  
BRANCH  18  19
HETATM   19  N   UNL     1     -11.721  14.920  66.173  1.00  0.00    -0.247 N  
HETATM   20  C   UNL     1     -11.798  15.374  64.841  1.00  0.00    -0.095 C  
HETATM   21  O   UNL     1     -12.460  14.903  63.932  1.00  0.00    -0.806 OA 
HETATM   22  N   UNL     1     -10.943  16.483  64.750  1.00  0.00    -0.696 NA 
HETATM   23  C   UNL     1     -10.340  16.691  65.987  1.00  0.00    -0.340 A  
HETATM   24  C   UNL     1      -9.431  17.651  66.362  1.00  0.00    -0.274 A  
HETATM   25  C   UNL     1      -8.981  17.608  67.686  1.00  0.00    -0.240 A  
HETATM   26  C   UNL     1      -9.442  16.618  68.581  1.00  0.00    -0.249 A  
HETATM   27  C   UNL     1     -10.369  15.653  68.176  1.00  0.00    -0.246 A  
HETATM   28  C   UNL     1     -10.806  15.716  66.871  1.00  0.00    -0.282 A  
ENDBRANCH  18  19
ENDBRANCH  17  18
ENDBRANCH  14  17
ENDBRANCH   7  11
TORSDOF 4
ENDMDL
MODEL      127
REMARK 921   NORMALIZED FREE ENERGY PREDICTED BY IDOCK:   -5.84 KCAL/MOL
REMARK 922        TOTAL FREE ENERGY PREDICTED BY IDOCK:   -7.83 KCAL/MOL
REMARK 923 INTER-LIGAND FREE ENERGY PREDICTED BY IDOCK:   -7.24 KCAL/MOL
REMARK 924 INTRA-LIGAND FREE ENERGY PREDICTED BY IDOCK:   -0.59 KCAL/MOL
REMARK 927      BINDING AFFINITY PREDICTED BY RF-SCORE:    0.00 PKD
ROOT
HETATM    1  F   UNL     1      -5.820  18.186  67.579  1.00  0.00    -0.142 F  
HETATM    2  C   UNL     1      -6.855  19.024  67.289  1.00  0.00    -0.206 C  
HETATM    3  C   UNL     1      -8.116  18.311  66.876  1.00  0.00    -0.259 A  
HETATM    4  F   UNL     1      -7.027  19.797  68.397  1.00  0.00    -0.298 F  
HETATM    5  F   UNL     1      -6.391  19.860  66.319  1.00  0.00    -0.178 F  
HETATM    6  C   UNL     1      -8.143  16.907  66.798  1.00  0.00    -0.276 A  
HETATM    7  C   UNL     1      -9.270  16.185  66.372  1.00  0.00    -0.300 A  
HETATM    8  C   UNL     1      -9.273  19.025  66.561  1.00  0.00    -0.357 A  
HETATM    9  C   UNL     1     -10.410  16.945  66.069  1.00  0.00    -0.335 A  
HETATM   10  C   UNL     1     -10.418  18.344  66.167  1.00  0.00    -0.422 A  
ENDROOT
BRANCH   7  11
HETATM   11  N   UNL     1      -9.243  14.789  66.333  1.00  0.00    -0.283 NA 
HETATM   12  C   UNL     1     -10.102  12.640  65.416  1.00  0.00    -0.261 C  
HETATM   13  C   UNL     1     -10.449  14.091  65.824  1.00  0.00    -0.309 C  
HETATM   14  N   UNL     1      -9.457  11.824  66.473  1.00  0.00    -0.208 NA 
HETATM   15  C   UNL     1      -8.267  12.580  66.938  1.00  0.00    -0.068 C  
HETATM   16  C   UNL     1      -8.538  14.039  67.392  1.00  0.00    -0.203 C  
BRANCH  14  17
HETATM   17  C   UNL     1     -10.364  11.533  67.601  1.00  0.00    -0.186 C  
BRANCH  17  18
HETATM   18  C   UNL     1      -9.644  11.042  68.870  1.00  0.00    -0.163 C  
BRANCH  18  19
HETATM   19  N   UNL     1     -10.005   9.688  69.201  1.00  0.00    -0.177 N  
HETATM   20  C   UNL     1      -9.495   8.540  68.562  1.00  0.00    -0.142 C  
HETATM   21  O   UNL     1      -8.684   8.491  67.654  1.00  0.00    -0.134 OA 
HETATM   22  N   UNL     1     -10.120   7.439  69.169  1.00  0.00    -0.184 NA 
HETATM   23  C   UNL     1     -11.006   7.901  70.138  1.00  0.00    -0.233 A  
HETATM   24  C   UNL     1     -11.833   7.187  70.972  1.00  0.00    -0.373 A  
HETATM   25  C   UNL     1     -12.633   7.927  71.848  1.00  0.00    -0.348 A  
HETATM   26  C   UNL     1     -12.588   9.338  71.861  1.00  0.00    -0.468 A  
HETATM   27  C   UNL     1     -11.737  10.042  71.003  1.00  0.00    -0.479 A  
HETATM   28  C   UNL     1     -10.950   9.295  70.154  1.00  0.00    -0.246 A  
ENDBRANCH  18  19
ENDBRANCH  17  18
ENDBRANCH  14  17
ENDBRANCH   7  11
TORSDOF 4
ENDMDL
MODEL      128
REMARK 921   NORMALIZED FREE ENERGY PREDICTED BY IDOCK:   -5.83 KCAL/MOL
REMARK 922        TOTAL FREE ENERGY PREDICTED BY IDOCK:   -7.82 KCAL/MOL
REMARK 923 INTER-LIGAND FREE ENERGY PREDICTED BY IDOCK:   -7.27 KCAL/MOL
REMARK 924 INTRA-LIGAND FREE ENERGY PREDICTED BY IDOCK:   -0.55 KCAL/MOL
REMARK 927      BINDING AFFINITY PREDICTED BY RF-SCORE:    0.00 PKD
ROOT
HETATM    1  F   UNL     1     -10.947  10.730  63.993  1.00  0.00    -0.396 F  
HETATM    2  C   UNL     1     -11.514  11.965  64.102  1.00  0.00    -0.370 C  
HETATM    3  C   UNL     1     -11.626  12.457  65.522  1.00  0.00    -0.432 A  
HETATM    4  F   UNL     1     -10.764  12.787  63.318  1.00  0.00    -0.405 F  
HETATM    5  F   UNL     1     -12.727  11.868  63.490  1.00  0.00    -0.619 F  
HETATM    6  C   UNL     1     -11.185  11.653  66.587  1.00  0.00    -0.362 A  
HETATM    7  C   UNL     1     -11.308  12.033  67.934  1.00  0.00    -0.305 A  
HETATM    8  C   UNL     1     -12.171  13.711  65.804  1.00  0.00    -0.503 A  
HETATM    9  C   UNL     1     -11.857  13.302  68.169  1.00  0.00    -0.388 A  
HETATM   10  C   UNL     1     -12.277  14.135  67.123  1.00  0.00    -0.348 A  
ENDROOT
BRANCH   7  11
HETATM   11  N   UNL     1     -10.834  11.199  68.950  1.00  0.00    -0.203 NA 
HETATM   12  C   UNL     1      -8.946  10.034  70.080  1.00  0.00    -0.081 C  
HETATM   13  C   UNL     1      -9.533  10.520  68.733  1.00  0.00    -0.180 C  
HETATM   14  N   UNL     1      -9.840   9.164  70.880  1.00  0.00    -0.267 NA 
HETATM   15  C   UNL     1     -11.119   9.898  71.054  1.00  0.00    -0.331 C  
HETATM   16  C   UNL     1     -11.786  10.397  69.745  1.00  0.00    -0.237 C  
BRANCH  14  17
HETATM   17  C   UNL     1     -10.076   7.851  70.246  1.00  0.00    -0.196 C  
BRANCH  17  18
HETATM   18  C   UNL     1      -8.916   7.371  69.355  1.00  0.00    -0.139 C  
BRANCH  18  19
HETATM   19  N   UNL     1      -9.343   6.371  68.411  1.00  0.00    -0.122 N  
HETATM   20  C   UNL     1     -10.182   6.613  67.304  1.00  0.00    -0.198 C  
HETATM   21  O   UNL     1     -10.671   7.675  66.960  1.00  0.00    -0.348 OA 
HETATM   22  N   UNL     1     -10.366   5.375  66.668  1.00  0.00    -0.248 NA 
HETATM   23  C   UNL     1      -9.677   4.396  67.378  1.00  0.00    -0.174 A  
HETATM   24  C   UNL     1      -9.579   3.049  67.130  1.00  0.00    -0.002 A  
HETATM   25  C   UNL     1      -8.819   2.297  68.032  1.00  0.00    -0.154 A  
HETATM   26  C   UNL     1      -8.193   2.904  69.142  1.00  0.00    -0.077 A  
HETATM   27  C   UNL     1      -8.306   4.279  69.372  1.00  0.00    -0.078 A  
HETATM   28  C   UNL     1      -9.052   5.004  68.469  1.00  0.00    -0.111 A  
ENDBRANCH  18  19
ENDBRANCH  17  18
ENDBRANCH  14  17
ENDBRANCH   7  11
TORSDOF 4
ENDMDL
MODEL      129
REMARK 921   NORMALIZED FREE ENERGY PREDICTED BY IDOCK:   -5.82 KCAL/MOL
REMARK 922        TOTAL FREE ENERGY PREDICTED BY IDOCK:   -7.81 KCAL/MOL
REMARK 923 INTER-LIGAND FREE ENERGY PREDICTED BY IDOCK:   -7.09 KCAL/MOL
REMARK 924 INTRA-LIGAND FREE ENERGY PREDICTED BY IDOCK:   -0.72 KCAL/MOL
REMARK 927      BINDING AFFINITY PREDICTED BY RF-SCORE:    0.00 PKD
ROOT
HETATM    1  F   UNL     1      -9.334   3.970  67.424  1.00  0.00    -0.146 F  
HETATM    2  C   UNL     1      -9.229   3.057  68.431  1.00  0.00    -0.185 C  
HETATM    3  C   UNL     1      -9.608   3.600  69.784  1.00  0.00    -0.228 A  
HETATM    4  F   UNL     1      -9.998   1.999  68.054  1.00  0.00    -0.176 F  
HETATM    5  F   UNL     1      -7.940   2.615  68.392  1.00  0.00    -0.054 F  
HETATM    6  C   UNL     1     -10.005   4.941  69.923  1.00  0.00    -0.317 A  
HETATM    7  C   UNL     1     -10.322   5.521  71.163  1.00  0.00    -0.234 A  
HETATM    8  C   UNL     1      -9.568   2.787  70.918  1.00  0.00    -0.202 A  
HETATM    9  C   UNL     1     -10.272   4.665  72.274  1.00  0.00    -0.256 A  
HETATM   10  C   UNL     1      -9.908   3.317  72.157  1.00  0.00    -0.237 A  
ENDROOT
BRANCH   7  11
HETATM   11  N   UNL     1     -10.728   6.856  71.237  1.00  0.00    -0.221 NA 
HETATM   12  C   UNL     1     -12.537   8.549  71.473  1.00  0.00    -0.316 C  
HETATM   13  C   UNL     1     -12.141   7.164  70.909  1.00  0.00    -0.326 C  
HETATM   14  N   UNL     1     -11.667   9.673  71.052  1.00  0.00    -0.325 NA 
HETATM   15  C   UNL     1     -10.273   9.298  71.404  1.00  0.00    -0.301 C  
HETATM   16  C   UNL     1      -9.792   7.930  70.852  1.00  0.00    -0.178 C  
BRANCH  14  17
HETATM   17  C   UNL     1     -11.778   9.973  69.610  1.00  0.00    -0.034 C  
BRANCH  17  18
HETATM   18  C   UNL     1     -10.737  10.986  69.101  1.00  0.00    -0.234 C  
BRANCH  18  19
HETATM   19  N   UNL     1     -10.595  10.934  67.669  1.00  0.00    -0.208 N  
HETATM   20  C   UNL     1      -9.816   9.991  66.970  1.00  0.00    -0.189 C  
HETATM   21  O   UNL     1      -9.152   9.081  67.437  1.00  0.00    -0.130 OA 
HETATM   22  N   UNL     1      -9.935  10.310  65.608  1.00  0.00    -0.269 NA 
HETATM   23  C   UNL     1     -10.748  11.433  65.477  1.00  0.00    -0.253 A  
HETATM   24  C   UNL     1     -11.134  12.099  64.339  1.00  0.00    -0.387 A  
HETATM   25  C   UNL     1     -11.955  13.218  64.514  1.00  0.00    -0.449 A  
HETATM   26  C   UNL     1     -12.356  13.634  65.802  1.00  0.00    -0.524 A  
HETATM   27  C   UNL     1     -11.951  12.938  66.945  1.00  0.00    -0.402 A  
HETATM   28  C   UNL     1     -11.150  11.834  66.752  1.00  0.00    -0.306 A  
ENDBRANCH  18  19
ENDBRANCH  17  18
ENDBRANCH  14  17
ENDBRANCH   7  11
TORSDOF 4
ENDMDL
MODEL      130
REMARK 921   NORMALIZED FREE ENERGY PREDICTED BY IDOCK:   -5.77 KCAL/MOL
REMARK 922        TOTAL FREE ENERGY PREDICTED BY IDOCK:   -7.74 KCAL/MOL
REMARK 923 INTER-LIGAND FREE ENERGY PREDICTED BY IDOCK:   -6.95 KCAL/MOL
REMARK 924 INTRA-LIGAND FREE ENERGY PREDICTED BY IDOCK:   -0.80 KCAL/MOL
REMARK 927      BINDING AFFINITY PREDICTED BY RF-SCORE:    0.00 PKD
ROOT
HETATM    1  F   UNL     1      -9.848  15.697  68.568  1.00  0.00    -0.195 F  
HETATM    2  C   UNL     1     -10.984  15.792  67.821  1.00  0.00    -0.314 C  
HETATM    3  C   UNL     1     -11.229  14.599  66.935  1.00  0.00    -0.345 A  
HETATM    4  F   UNL     1     -11.994  16.006  68.708  1.00  0.00    -0.390 F  
HETATM    5  F   UNL     1     -10.859  16.949  67.110  1.00  0.00    -0.303 F  
HETATM    6  C   UNL     1     -10.316  13.530  66.917  1.00  0.00    -0.265 A  
HETATM    7  C   UNL     1     -10.462  12.413  66.078  1.00  0.00    -0.254 A  
HETATM    8  C   UNL     1     -12.359  14.535  66.117  1.00  0.00    -0.229 A  
HETATM    9  C   UNL     1     -11.614  12.390  65.276  1.00  0.00    -0.419 A  
HETATM   10  C   UNL     1     -12.554  13.429  65.297  1.00  0.00    -0.518 A  
ENDROOT
BRANCH   7  11
HETATM   11  N   UNL     1      -9.531  11.372  66.118  1.00  0.00    -0.210 NA 
HETATM   12  C   UNL     1      -8.156   9.662  64.943  1.00  0.00    -0.133 C  
HETATM   13  C   UNL     1      -9.495  10.436  64.968  1.00  0.00    -0.253 C  
HETATM   14  N   UNL     1      -7.824   8.936  66.192  1.00  0.00    -0.101 NA 
HETATM   15  C   UNL     1      -7.883   9.925  67.298  1.00  0.00    -0.102 C  
HETATM   16  C   UNL     1      -9.207  10.726  67.406  1.00  0.00    -0.147 C  
BRANCH  14  17
HETATM   17  C   UNL     1      -8.737   7.805  66.455  1.00  0.00    -0.150 C  
BRANCH  17  18
HETATM   18  C   UNL     1      -8.373   6.987  67.707  1.00  0.00    -0.117 C  
BRANCH  18  19
HETATM   19  N   UNL     1      -9.486   6.871  68.613  1.00  0.00    -0.135 N  
HETATM   20  C   UNL     1     -10.676   6.166  68.342  1.00  0.00    -0.293 C  
HETATM   21  O   UNL     1     -10.960   5.546  67.332  1.00  0.00    -0.139 OA 
HETATM   22  N   UNL     1     -11.496   6.325  69.470  1.00  0.00    -0.411 NA 
HETATM   23  C   UNL     1     -10.837   7.125  70.398  1.00  0.00    -0.246 A  
HETATM   24  C   UNL     1     -11.257   7.549  71.636  1.00  0.00    -0.275 A  
HETATM   25  C   UNL     1     -10.377   8.367  72.353  1.00  0.00    -0.399 A  
HETATM   26  C   UNL     1      -9.125   8.737  71.817  1.00  0.00    -0.305 A  
HETATM   27  C   UNL     1      -8.719   8.291  70.554  1.00  0.00    -0.140 A  
HETATM   28  C   UNL     1      -9.595   7.480  69.868  1.00  0.00    -0.160 A  
ENDBRANCH  18  19
ENDBRANCH  17  18
ENDBRANCH  14  17
ENDBRANCH   7  11
TORSDOF 4
ENDMDL
MODEL      131
REMARK 921   NORMALIZED FREE ENERGY PREDICTED BY IDOCK:   -5.77 KCAL/MOL
REMARK 922        TOTAL FREE ENERGY PREDICTED BY IDOCK:   -7.74 KCAL/MOL
REMARK 923 INTER-LIGAND FREE ENERGY PREDICTED BY IDOCK:   -7.50 KCAL/MOL
REMARK 924 INTRA-LIGAND FREE ENERGY PREDICTED BY IDOCK:   -0.24 KCAL/MOL
REMARK 927      BINDING AFFINITY PREDICTED BY RF-SCORE:    0.00 PKD
ROOT
HETATM    1  F   UNL     1     -10.609   7.777  69.711  1.00  0.00    -0.222 F  
HETATM    2  C   UNL     1     -10.325   7.486  68.410  1.00  0.00    -0.195 C  
HETATM    3  C   UNL     1     -10.162   8.703  67.537  1.00  0.00    -0.308 A  
HETATM    4  F   UNL     1      -9.210   6.706  68.439  1.00  0.00    -0.126 F  
HETATM    5  F   UNL     1     -11.336   6.676  67.986  1.00  0.00    -0.304 F  
HETATM    6  C   UNL     1     -10.323   9.990  68.079  1.00  0.00    -0.238 A  
HETATM    7  C   UNL     1     -10.233  11.161  67.309  1.00  0.00    -0.193 A  
HETATM    8  C   UNL     1      -9.855   8.576  66.181  1.00  0.00    -0.227 A  
HETATM    9  C   UNL     1      -9.919  10.985  65.953  1.00  0.00    -0.289 A  
HETATM   10  C   UNL     1      -9.725   9.714  65.394  1.00  0.00    -0.365 A  
ENDROOT
BRANCH   7  11
HETATM   11  N   UNL     1     -10.383  12.415  67.908  1.00  0.00    -0.205 NA 
HETATM   12  C   UNL     1     -11.832  14.139  68.967  1.00  0.00    -0.348 C  
HETATM   13  C   UNL     1     -11.735  13.024  67.899  1.00  0.00    -0.357 C  
HETATM   14  N   UNL     1     -10.802  15.200  68.867  1.00  0.00    -0.231 NA 
HETATM   15  C   UNL     1      -9.480  14.524  68.876  1.00  0.00    -0.144 C  
HETATM   16  C   UNL     1      -9.295  13.408  67.814  1.00  0.00    -0.211 C  
BRANCH  14  17
HETATM   17  C   UNL     1     -10.955  16.031  67.655  1.00  0.00    -0.284 C  
BRANCH  17  18
HETATM   18  C   UNL     1      -9.620  16.493  67.043  1.00  0.00    -0.242 C  
BRANCH  18  19
HETATM   19  N   UNL     1      -9.186  17.751  67.594  1.00  0.00    -0.248 N  
HETATM   20  C   UNL     1      -9.831  18.987  67.388  1.00  0.00    -0.324 C  
HETATM   21  O   UNL     1     -10.839  19.201  66.736  1.00  0.00    -0.419 OA 
HETATM   22  N   UNL     1      -9.074  19.949  68.075  1.00  0.00    -0.323 NA 
HETATM   23  C   UNL     1      -7.981  19.323  68.668  1.00  0.00    -0.370 A  
HETATM   24  C   UNL     1      -6.974  19.867  69.428  1.00  0.00    -0.295 A  
HETATM   25  C   UNL     1      -5.987  18.987  69.887  1.00  0.00    -0.271 A  
HETATM   26  C   UNL     1      -6.032  17.612  69.571  1.00  0.00    -0.243 A  
HETATM   27  C   UNL     1      -7.069  17.082  68.796  1.00  0.00    -0.219 A  
HETATM   28  C   UNL     1      -8.036  17.962  68.361  1.00  0.00    -0.298 A  
ENDBRANCH  18  19
ENDBRANCH  17  18
ENDBRANCH  14  17
ENDBRANCH   7  11
TORSDOF 4
ENDMDL
MODEL      132
REMARK 921   NORMALIZED FREE ENERGY PREDICTED BY IDOCK:   -5.77 KCAL/MOL
REMARK 922        TOTAL FREE ENERGY PREDICTED BY IDOCK:   -7.74 KCAL/MOL
REMARK 923 INTER-LIGAND FREE ENERGY PREDICTED BY IDOCK:   -7.04 KCAL/MOL
REMARK 924 INTRA-LIGAND FREE ENERGY PREDICTED BY IDOCK:   -0.70 KCAL/MOL
REMARK 927      BINDING AFFINITY PREDICTED BY RF-SCORE:    0.00 PKD
ROOT
HETATM    1  F   UNL     1      -9.083  19.565  69.354  1.00  0.00    -0.348 F  
HETATM    2  C   UNL     1      -9.589  19.883  68.129  1.00  0.00    -0.354 C  
HETATM    3  C   UNL     1      -9.970  18.684  67.300  1.00  0.00    -0.360 A  
HETATM    4  F   UNL     1     -10.641  20.713  68.368  1.00  0.00    -0.356 F  
HETATM    5  F   UNL     1      -8.638  20.649  67.526  1.00  0.00    -0.381 F  
HETATM    6  C   UNL     1      -9.773  17.386  67.801  1.00  0.00    -0.268 A  
HETATM    7  C   UNL     1     -10.061  16.227  67.060  1.00  0.00    -0.270 A  
HETATM    8  C   UNL     1     -10.519  18.839  66.026  1.00  0.00    -0.483 A  
HETATM    9  C   UNL     1     -10.614  16.432  65.786  1.00  0.00    -0.327 A  
HETATM   10  C   UNL     1     -10.847  17.717  65.276  1.00  0.00     0.193 A  
ENDROOT
BRANCH   7  11
HETATM   11  N   UNL     1      -9.862  14.962  67.618  1.00  0.00    -0.217 NA 
HETATM   12  C   UNL     1      -8.331  13.118  68.291  1.00  0.00    -0.152 C  
HETATM   13  C   UNL     1      -8.612  14.244  67.268  1.00  0.00    -0.215 C  
HETATM   14  N   UNL     1      -9.434  12.146  68.477  1.00  0.00    -0.167 NA 
HETATM   15  C   UNL     1     -10.649  12.928  68.819  1.00  0.00    -0.190 C  
HETATM   16  C   UNL     1     -11.014  14.062  67.825  1.00  0.00    -0.258 C  
BRANCH  14  17
HETATM   17  C   UNL     1      -9.670  11.313  67.281  1.00  0.00    -0.174 C  
BRANCH  17  18
HETATM   18  C   UNL     1     -10.597  10.110  67.530  1.00  0.00    -0.273 C  
BRANCH  18  19
HETATM   19  N   UNL     1     -10.070   9.228  68.539  1.00  0.00    -0.183 N  
HETATM   20  C   UNL     1      -8.979   8.354  68.356  1.00  0.00    -0.136 C  
HETATM   21  O   UNL     1      -8.309   8.202  67.350  1.00  0.00    -0.120 OA 
HETATM   22  N   UNL     1      -8.814   7.668  69.570  1.00  0.00    -0.139 NA 
HETATM   23  C   UNL     1      -9.791   8.093  70.465  1.00  0.00    -0.186 A  
HETATM   24  C   UNL     1     -10.018   7.692  71.760  1.00  0.00    -0.208 A  
HETATM   25  C   UNL     1     -11.095   8.290  72.423  1.00  0.00    -0.447 A  
HETATM   26  C   UNL     1     -11.905   9.250  71.780  1.00  0.00    -0.454 A  
HETATM   27  C   UNL     1     -11.653   9.642  70.462  1.00  0.00    -0.341 A  
HETATM   28  C   UNL     1     -10.583   9.050  69.828  1.00  0.00    -0.228 A  
ENDBRANCH  18  19
ENDBRANCH  17  18
ENDBRANCH  14  17
ENDBRANCH   7  11
TORSDOF 4
ENDMDL
MODEL      133
REMARK 921   NORMALIZED FREE ENERGY PREDICTED BY IDOCK:   -5.77 KCAL/MOL
REMARK 922        TOTAL FREE ENERGY PREDICTED BY IDOCK:   -7.74 KCAL/MOL
REMARK 923 INTER-LIGAND FREE ENERGY PREDICTED BY IDOCK:   -7.64 KCAL/MOL
REMARK 924 INTRA-LIGAND FREE ENERGY PREDICTED BY IDOCK:   -0.10 KCAL/MOL
REMARK 927      BINDING AFFINITY PREDICTED BY RF-SCORE:    0.00 PKD
ROOT
HETATM    1  F   UNL     1      -5.307  18.975  64.765  1.00  0.00    -0.180 F  
HETATM    2  C   UNL     1      -6.066  20.048  65.126  1.00  0.00    -0.237 C  
HETATM    3  C   UNL     1      -7.177  19.711  66.085  1.00  0.00    -0.287 A  
HETATM    4  F   UNL     1      -5.195  20.964  65.631  1.00  0.00    -0.206 F  
HETATM    5  F   UNL     1      -6.531  20.578  63.960  1.00  0.00    -0.306 F  
HETATM    6  C   UNL     1      -7.367  18.385  66.510  1.00  0.00    -0.262 A  
HETATM    7  C   UNL     1      -8.414  17.997  67.363  1.00  0.00    -0.240 A  
HETATM    8  C   UNL     1      -8.036  20.702  66.564  1.00  0.00    -0.048 A  
HETATM    9  C   UNL     1      -9.249  19.027  67.822  1.00  0.00    -0.339 A  
HETATM   10  C   UNL     1      -9.063  20.362  67.436  1.00  0.00    -0.484 A  
ENDROOT
BRANCH   7  11
HETATM   11  N   UNL     1      -8.542  16.665  67.767  1.00  0.00    -0.190 NA 
HETATM   12  C   UNL     1      -7.663  14.337  67.832  1.00  0.00    -0.152 C  
HETATM   13  C   UNL     1      -7.788  15.640  67.006  1.00  0.00    -0.231 C  
HETATM   14  N   UNL     1      -8.946  13.767  68.308  1.00  0.00    -0.185 NA 
HETATM   15  C   UNL     1      -9.648  14.843  69.054  1.00  0.00    -0.204 C  
HETATM   16  C   UNL     1      -9.836  16.175  68.282  1.00  0.00    -0.224 C  
BRANCH  14  17
HETATM   17  C   UNL     1      -9.789  13.260  67.207  1.00  0.00    -0.233 C  
BRANCH  17  18
HETATM   18  C   UNL     1     -11.295  13.259  67.524  1.00  0.00    -0.296 C  
BRANCH  18  19
HETATM   19  N   UNL     1     -11.623  12.322  68.567  1.00  0.00    -0.289 N  
HETATM   20  C   UNL     1     -11.426  10.928  68.489  1.00  0.00    -0.310 C  
HETATM   21  O   UNL     1     -10.955  10.294  67.561  1.00  0.00    -0.297 OA 
HETATM   22  N   UNL     1     -11.897  10.394  69.699  1.00  0.00    -0.217 NA 
HETATM   23  C   UNL     1     -12.390  11.429  70.488  1.00  0.00    -0.349 A  
HETATM   24  C   UNL     1     -12.953  11.376  71.740  1.00  0.00    -0.519 A  
HETATM   25  C   UNL     1     -13.376  12.591  72.292  1.00  0.00    -0.475 A  
HETATM   26  C   UNL     1     -13.232  13.803  71.582  1.00  0.00    -0.450 A  
HETATM   27  C   UNL     1     -12.655  13.831  70.308  1.00  0.00    -0.288 A  
HETATM   28  C   UNL     1     -12.237  12.626  69.786  1.00  0.00    -0.143 A  
ENDBRANCH  18  19
ENDBRANCH  17  18
ENDBRANCH  14  17
ENDBRANCH   7  11
TORSDOF 4
ENDMDL
MODEL      134
REMARK 921   NORMALIZED FREE ENERGY PREDICTED BY IDOCK:   -5.76 KCAL/MOL
REMARK 922        TOTAL FREE ENERGY PREDICTED BY IDOCK:   -7.73 KCAL/MOL
REMARK 923 INTER-LIGAND FREE ENERGY PREDICTED BY IDOCK:   -7.18 KCAL/MOL
REMARK 924 INTRA-LIGAND FREE ENERGY PREDICTED BY IDOCK:   -0.55 KCAL/MOL
REMARK 927      BINDING AFFINITY PREDICTED BY RF-SCORE:    0.00 PKD
ROOT
HETATM    1  F   UNL     1     -11.382  11.473  63.081  1.00  0.00    -0.420 F  
HETATM    2  C   UNL     1     -12.154  12.430  63.669  1.00  0.00    -0.556 C  
HETATM    3  C   UNL     1     -11.657  12.866  65.022  1.00  0.00    -0.367 A  
HETATM    4  F   UNL     1     -12.216  13.455  62.776  1.00  0.00    -0.498 F  
HETATM    5  F   UNL     1     -13.411  11.905  63.723  1.00  0.00    -0.526 F  
HETATM    6  C   UNL     1     -10.505  12.279  65.575  1.00  0.00    -0.296 A  
HETATM    7  C   UNL     1     -10.018  12.605  66.852  1.00  0.00    -0.230 A  
HETATM    8  C   UNL     1     -12.328  13.850  65.749  1.00  0.00    -0.518 A  
HETATM    9  C   UNL     1     -10.723  13.602  67.545  1.00  0.00    -0.266 A  
HETATM   10  C   UNL     1     -11.857  14.223  67.002  1.00  0.00    -0.455 A  
ENDROOT
BRANCH   7  11
HETATM   11  N   UNL     1      -8.857  12.003  67.342  1.00  0.00    -0.171 NA 
HETATM   12  C   UNL     1      -7.165  10.179  67.240  1.00  0.00    -0.089 C  
HETATM   13  C   UNL     1      -8.652  10.563  67.049  1.00  0.00    -0.127 C  
HETATM   14  N   UNL     1      -6.595  10.508  68.568  1.00  0.00    -0.055 NA 
HETATM   15  C   UNL     1      -6.838  11.955  68.799  1.00  0.00    -0.093 C  
HETATM   16  C   UNL     1      -8.312  12.415  68.651  1.00  0.00     0.006 C  
BRANCH  14  17
HETATM   17  C   UNL     1      -7.181   9.701  69.657  1.00  0.00    -0.084 C  
BRANCH  17  18
HETATM   18  C   UNL     1      -7.507   8.252  69.254  1.00  0.00    -0.085 C  
BRANCH  18  19
HETATM   19  N   UNL     1      -8.831   7.865  69.669  1.00  0.00    -0.138 N  
HETATM   20  C   UNL     1      -9.883   7.526  68.794  1.00  0.00    -0.166 C  
HETATM   21  O   UNL     1      -9.858   7.495  67.576  1.00  0.00    -0.145 OA 
HETATM   22  N   UNL     1     -10.994   7.239  69.603  1.00  0.00    -0.219 NA 
HETATM   23  C   UNL     1     -10.639   7.419  70.937  1.00  0.00    -0.223 A  
HETATM   24  C   UNL     1     -11.402   7.261  72.069  1.00  0.00    -0.295 A  
HETATM   25  C   UNL     1     -10.775   7.528  73.291  1.00  0.00    -0.437 A  
HETATM   26  C   UNL     1      -9.427   7.945  73.345  1.00  0.00    -0.341 A  
HETATM   27  C   UNL     1      -8.672   8.097  72.178  1.00  0.00    -0.234 A  
HETATM   28  C   UNL     1      -9.303   7.821  70.985  1.00  0.00    -0.152 A  
ENDBRANCH  18  19
ENDBRANCH  17  18
ENDBRANCH  14  17
ENDBRANCH   7  11
TORSDOF 4
ENDMDL
MODEL      135
REMARK 921   NORMALIZED FREE ENERGY PREDICTED BY IDOCK:   -5.74 KCAL/MOL
REMARK 922        TOTAL FREE ENERGY PREDICTED BY IDOCK:   -7.71 KCAL/MOL
REMARK 923 INTER-LIGAND FREE ENERGY PREDICTED BY IDOCK:   -7.07 KCAL/MOL
REMARK 924 INTRA-LIGAND FREE ENERGY PREDICTED BY IDOCK:   -0.64 KCAL/MOL
REMARK 927      BINDING AFFINITY PREDICTED BY RF-SCORE:    0.00 PKD
ROOT
HETATM    1  F   UNL     1     -10.382   9.038  66.120  1.00  0.00    -0.360 F  
HETATM    2  C   UNL     1      -9.175   8.440  66.326  1.00  0.00    -0.208 C  
HETATM    3  C   UNL     1      -8.079   9.400  66.708  1.00  0.00    -0.109 A  
HETATM    4  F   UNL     1      -9.391   7.485  67.272  1.00  0.00    -0.131 F  
HETATM    5  F   UNL     1      -8.897   7.768  65.173  1.00  0.00    -0.124 F  
HETATM    6  C   UNL     1      -8.346  10.777  66.805  1.00  0.00    -0.136 A  
HETATM    7  C   UNL     1      -7.358  11.729  67.107  1.00  0.00    -0.146 A  
HETATM    8  C   UNL     1      -6.786   8.944  66.968  1.00  0.00    -0.069 A  
HETATM    9  C   UNL     1      -6.074  11.224  67.364  1.00  0.00    -0.066 A  
HETATM   10  C   UNL     1      -5.789   9.853  67.304  1.00  0.00    -0.050 A  
ENDROOT
BRANCH   7  11
HETATM   11  N   UNL     1      -7.687  13.083  67.208  1.00  0.00    -0.142 NA 
HETATM   12  C   UNL     1      -7.119  15.391  67.948  1.00  0.00    -0.140 C  
HETATM   13  C   UNL     1      -7.009  13.879  68.259  1.00  0.00    -0.108 C  
HETATM   14  N   UNL     1      -8.499  15.894  67.746  1.00  0.00    -0.157 NA 
HETATM   15  C   UNL     1      -9.118  15.054  66.690  1.00  0.00    -0.280 C  
HETATM   16  C   UNL     1      -9.071  13.524  66.943  1.00  0.00    -0.239 C  
BRANCH  14  17
HETATM   17  C   UNL     1      -9.306  15.857  68.982  1.00  0.00    -0.243 C  
BRANCH  17  18
HETATM   18  C   UNL     1     -10.822  15.980  68.742  1.00  0.00    -0.302 C  
BRANCH  18  19
HETATM   19  N   UNL     1     -11.569  15.054  69.553  1.00  0.00    -0.292 N  
HETATM   20  C   UNL     1     -12.085  13.822  69.103  1.00  0.00    -0.333 C  
HETATM   21  O   UNL     1     -11.987  13.337  67.989  1.00  0.00    -0.350 OA 
HETATM   22  N   UNL     1     -12.760  13.253  70.194  1.00  0.00    -0.012 NA 
HETATM   23  C   UNL     1     -12.679  14.122  71.278  1.00  0.00    -0.361 A  
HETATM   24  C   UNL     1     -13.196  13.984  72.544  1.00  0.00    -0.602 A  
HETATM   25  C   UNL     1     -12.966  15.038  73.435  1.00  0.00    -0.622 A  
HETATM   26  C   UNL     1     -12.243  16.184  73.038  1.00  0.00    -0.641 A  
HETATM   27  C   UNL     1     -11.726  16.300  71.744  1.00  0.00    -0.504 A  
HETATM   28  C   UNL     1     -11.955  15.248  70.884  1.00  0.00    -0.342 A  
ENDBRANCH  18  19
ENDBRANCH  17  18
ENDBRANCH  14  17
ENDBRANCH   7  11
TORSDOF 4
ENDMDL
MODEL      136
REMARK 921   NORMALIZED FREE ENERGY PREDICTED BY IDOCK:   -5.74 KCAL/MOL
REMARK 922        TOTAL FREE ENERGY PREDICTED BY IDOCK:   -7.71 KCAL/MOL
REMARK 923 INTER-LIGAND FREE ENERGY PREDICTED BY IDOCK:   -6.88 KCAL/MOL
REMARK 924 INTRA-LIGAND FREE ENERGY PREDICTED BY IDOCK:   -0.83 KCAL/MOL
REMARK 927      BINDING AFFINITY PREDICTED BY RF-SCORE:    0.00 PKD
ROOT
HETATM    1  F   UNL     1     -11.246   7.833  67.468  1.00  0.00    -0.180 F  
HETATM    2  C   UNL     1     -10.007   7.318  67.230  1.00  0.00    -0.192 C  
HETATM    3  C   UNL     1      -8.954   8.365  66.972  1.00  0.00    -0.161 A  
HETATM    4  F   UNL     1      -9.718   6.535  68.305  1.00  0.00    -0.131 F  
HETATM    5  F   UNL     1     -10.160   6.467  66.177  1.00  0.00    -0.156 F  
HETATM    6  C   UNL     1      -9.296   9.728  66.972  1.00  0.00    -0.178 A  
HETATM    7  C   UNL     1      -8.373  10.749  66.690  1.00  0.00    -0.141 A  
HETATM    8  C   UNL     1      -7.629   8.002  66.725  1.00  0.00    -0.094 A  
HETATM    9  C   UNL     1      -7.053  10.337  66.451  1.00  0.00    -0.112 A  
HETATM   10  C   UNL     1      -6.680   8.986  66.474  1.00  0.00    -0.075 A  
ENDROOT
BRANCH   7  11
HETATM   11  N   UNL     1      -8.767  12.089  66.724  1.00  0.00    -0.196 NA 
HETATM   12  C   UNL     1      -8.262  14.473  67.230  1.00  0.00    -0.208 C  
HETATM   13  C   UNL     1      -8.036  12.999  67.639  1.00  0.00    -0.169 C  
HETATM   14  N   UNL     1      -9.682  14.891  67.134  1.00  0.00    -0.224 NA 
HETATM   15  C   UNL     1     -10.352  13.940  66.212  1.00  0.00    -0.293 C  
HETATM   16  C   UNL     1     -10.194  12.439  66.570  1.00  0.00    -0.227 C  
BRANCH  14  17
HETATM   17  C   UNL     1     -10.360  14.911  68.446  1.00  0.00    -0.233 C  
BRANCH  17  18
HETATM   18  C   UNL     1     -11.871  14.626  68.372  1.00  0.00    -0.295 C  
BRANCH  18  19
HETATM   19  N   UNL     1     -12.362  14.020  69.582  1.00  0.00    -0.316 N  
HETATM   20  C   UNL     1     -12.974  14.718  70.642  1.00  0.00    -0.324 C  
HETATM   21  O   UNL     1     -13.195  15.915  70.716  1.00  0.00    -0.491 OA 
HETATM   22  N   UNL     1     -13.276  13.761  71.624  1.00  0.00    -0.363 NA 
HETATM   23  C   UNL     1     -12.841  12.513  71.188  1.00  0.00    -0.211 A  
HETATM   24  C   UNL     1     -12.919  11.295  71.819  1.00  0.00    -0.519 A  
HETATM   25  C   UNL     1     -12.379  10.199  71.137  1.00  0.00    -0.488 A  
HETATM   26  C   UNL     1     -11.780  10.352  69.868  1.00  0.00    -0.341 A  
HETATM   27  C   UNL     1     -11.715  11.603  69.246  1.00  0.00    -0.396 A  
HETATM   28  C   UNL     1     -12.259  12.668  69.928  1.00  0.00    -0.168 A  
ENDBRANCH  18  19
ENDBRANCH  17  18
ENDBRANCH  14  17
ENDBRANCH   7  11
TORSDOF 4
ENDMDL
MODEL      137
REMARK 921   NORMALIZED FREE ENERGY PREDICTED BY IDOCK:   -5.74 KCAL/MOL
REMARK 922        TOTAL FREE ENERGY PREDICTED BY IDOCK:   -7.70 KCAL/MOL
REMARK 923 INTER-LIGAND FREE ENERGY PREDICTED BY IDOCK:   -7.04 KCAL/MOL
REMARK 924 INTRA-LIGAND FREE ENERGY PREDICTED BY IDOCK:   -0.67 KCAL/MOL
REMARK 927      BINDING AFFINITY PREDICTED BY RF-SCORE:    0.00 PKD
ROOT
HETATM    1  F   UNL     1      -9.993  18.191  65.834  1.00  0.00    -0.309 F  
HETATM    2  C   UNL     1     -10.234  18.335  67.168  1.00  0.00    -0.373 C  
HETATM    3  C   UNL     1     -10.501  17.035  67.881  1.00  0.00    -0.354 A  
HETATM    4  F   UNL     1      -9.157  18.999  67.669  1.00  0.00    -0.294 F  
HETATM    5  F   UNL     1     -11.282  19.201  67.259  1.00  0.00    -0.531 F  
HETATM    6  C   UNL     1     -10.505  15.824  67.167  1.00  0.00    -0.309 A  
HETATM    7  C   UNL     1     -10.796  14.586  67.763  1.00  0.00    -0.264 A  
HETATM    8  C   UNL     1     -10.752  17.010  69.254  1.00  0.00    -0.226 A  
HETATM    9  C   UNL     1     -11.038  14.608  69.145  1.00  0.00    -0.285 A  
HETATM   10  C   UNL     1     -11.011  15.799  69.884  1.00  0.00    -0.335 A  
ENDROOT
BRANCH   7  11
HETATM   11  N   UNL     1     -10.767  13.412  67.006  1.00  0.00    -0.267 NA 
HETATM   12  C   UNL     1     -10.917  10.931  66.867  1.00  0.00    -0.223 C  
HETATM   13  C   UNL     1     -10.464  12.144  67.713  1.00  0.00    -0.205 C  
HETATM   14  N   UNL     1     -10.369  10.882  65.490  1.00  0.00    -0.263 NA 
HETATM   15  C   UNL     1     -10.702  12.177  64.845  1.00  0.00    -0.295 C  
HETATM   16  C   UNL     1     -10.256  13.444  65.621  1.00  0.00    -0.292 C  
BRANCH  14  17
HETATM   17  C   UNL     1      -8.911  10.647  65.465  1.00  0.00    -0.188 C  
BRANCH  17  18
HETATM   18  C   UNL     1      -8.518   9.159  65.516  1.00  0.00    -0.147 C  
BRANCH  18  19
HETATM   19  N   UNL     1      -8.413   8.679  66.869  1.00  0.00    -0.111 N  
HETATM   20  C   UNL     1      -7.352   8.975  67.749  1.00  0.00    -0.084 C  
HETATM   21  O   UNL     1      -6.376   9.671  67.530  1.00  0.00    -0.062 OA 
HETATM   22  N   UNL     1      -7.628   8.294  68.945  1.00  0.00    -0.092 NA 
HETATM   23  C   UNL     1      -8.814   7.581  68.795  1.00  0.00    -0.131 A  
HETATM   24  C   UNL     1      -9.462   6.771  69.697  1.00  0.00    -0.146 A  
HETATM   25  C   UNL     1     -10.645   6.165  69.260  1.00  0.00    -0.348 A  
HETATM   26  C   UNL     1     -11.134   6.378  67.953  1.00  0.00    -0.370 A  
HETATM   27  C   UNL     1     -10.457   7.208  67.054  1.00  0.00    -0.392 A  
HETATM   28  C   UNL     1      -9.299   7.803  67.505  1.00  0.00    -0.139 A  
ENDBRANCH  18  19
ENDBRANCH  17  18
ENDBRANCH  14  17
ENDBRANCH   7  11
TORSDOF 4
ENDMDL
MODEL      138
REMARK 921   NORMALIZED FREE ENERGY PREDICTED BY IDOCK:   -5.74 KCAL/MOL
REMARK 922        TOTAL FREE ENERGY PREDICTED BY IDOCK:   -7.70 KCAL/MOL
REMARK 923 INTER-LIGAND FREE ENERGY PREDICTED BY IDOCK:   -7.05 KCAL/MOL
REMARK 924 INTRA-LIGAND FREE ENERGY PREDICTED BY IDOCK:   -0.65 KCAL/MOL
REMARK 927      BINDING AFFINITY PREDICTED BY RF-SCORE:    0.00 PKD
ROOT
HETATM    1  F   UNL     1      -7.212   6.627  65.001  1.00  0.00    -0.062 F  
HETATM    2  C   UNL     1      -7.341   7.096  63.728  1.00  0.00    -0.089 C  
HETATM    3  C   UNL     1      -8.125   8.379  63.631  1.00  0.00    -0.142 A  
HETATM    4  F   UNL     1      -6.073   7.216  63.248  1.00  0.00    -0.041 F  
HETATM    5  F   UNL     1      -7.914   6.083  63.020  1.00  0.00    -0.084 F  
HETATM    6  C   UNL     1      -8.662   8.970  64.788  1.00  0.00    -0.187 A  
HETATM    7  C   UNL     1      -9.444  10.137  64.758  1.00  0.00    -0.295 A  
HETATM    8  C   UNL     1      -8.334   8.998  62.398  1.00  0.00    -0.191 A  
HETATM    9  C   UNL     1      -9.624  10.726  63.497  1.00  0.00    -0.359 A  
HETATM   10  C   UNL     1      -9.074  10.172  62.333  1.00  0.00    -0.306 A  
ENDROOT
BRANCH   7  11
HETATM   11  N   UNL     1      -9.936  10.689  65.944  1.00  0.00    -0.243 NA 
HETATM   12  C   UNL     1     -11.786  11.760  67.219  1.00  0.00    -0.217 C  
HETATM   13  C   UNL     1     -11.090  11.615  65.845  1.00  0.00    -0.264 C  
HETATM   14  N   UNL     1     -10.900  12.178  68.332  1.00  0.00    -0.214 NA 
HETATM   15  C   UNL     1      -9.769  11.217  68.372  1.00  0.00    -0.191 C  
HETATM   16  C   UNL     1      -9.003  11.034  67.035  1.00  0.00    -0.148 C  
BRANCH  14  17
HETATM   17  C   UNL     1     -10.405  13.561  68.180  1.00  0.00    -0.247 C  
BRANCH  17  18
HETATM   18  C   UNL     1     -11.516  14.626  68.182  1.00  0.00    -0.323 C  
BRANCH  18  19
HETATM   19  N   UNL     1     -11.604  15.306  69.448  1.00  0.00    -0.309 N  
HETATM   20  C   UNL     1     -10.963  16.523  69.755  1.00  0.00    -0.292 C  
HETATM   21  O   UNL     1     -10.252  17.195  69.026  1.00  0.00    -0.302 OA 
HETATM   22  N   UNL     1     -11.290  16.818  71.088  1.00  0.00     0.080 NA 
HETATM   23  C   UNL     1     -12.091  15.798  71.592  1.00  0.00    -0.452 A  
HETATM   24  C   UNL     1     -12.639  15.660  72.845  1.00  0.00    -0.551 A  
HETATM   25  C   UNL     1     -13.400  14.509  73.075  1.00  0.00    -0.510 A  
HETATM   26  C   UNL     1     -13.584  13.542  72.063  1.00  0.00    -0.589 A  
HETATM   27  C   UNL     1     -13.017  13.706  70.795  1.00  0.00    -0.205 A  
HETATM   28  C   UNL     1     -12.278  14.849  70.585  1.00  0.00    -0.318 A  
ENDBRANCH  18  19
ENDBRANCH  17  18
ENDBRANCH  14  17
ENDBRANCH   7  11
TORSDOF 4
ENDMDL
MODEL      139
REMARK 921   NORMALIZED FREE ENERGY PREDICTED BY IDOCK:   -5.74 KCAL/MOL
REMARK 922        TOTAL FREE ENERGY PREDICTED BY IDOCK:   -7.70 KCAL/MOL
REMARK 923 INTER-LIGAND FREE ENERGY PREDICTED BY IDOCK:   -7.09 KCAL/MOL
REMARK 924 INTRA-LIGAND FREE ENERGY PREDICTED BY IDOCK:   -0.61 KCAL/MOL
REMARK 927      BINDING AFFINITY PREDICTED BY RF-SCORE:    0.00 PKD
ROOT
HETATM    1  F   UNL     1     -12.254  14.502  66.839  1.00  0.00    -0.426 F  
HETATM    2  C   UNL     1     -12.384  14.135  65.533  1.00  0.00    -0.458 C  
HETATM    3  C   UNL     1     -11.484  12.996  65.130  1.00  0.00    -0.338 A  
HETATM    4  F   UNL     1     -13.703  13.850  65.357  1.00  0.00    -0.167 F  
HETATM    5  F   UNL     1     -12.146  15.264  64.809  1.00  0.00    -0.332 F  
HETATM    6  C   UNL     1     -10.602  12.426  66.065  1.00  0.00    -0.286 A  
HETATM    7  C   UNL     1      -9.702  11.397  65.740  1.00  0.00    -0.233 A  
HETATM    8  C   UNL     1     -11.506  12.491  63.829  1.00  0.00    -0.542 A  
HETATM    9  C   UNL     1      -9.763  10.919  64.422  1.00  0.00    -0.342 A  
HETATM   10  C   UNL     1     -10.654  11.450  63.479  1.00  0.00    -0.468 A  
ENDROOT
BRANCH   7  11
HETATM   11  N   UNL     1      -8.862  10.857  66.717  1.00  0.00    -0.142 NA 
HETATM   12  C   UNL     1      -6.691   9.825  67.363  1.00  0.00    -0.074 C  
HETATM   13  C   UNL     1      -7.775   9.954  66.267  1.00  0.00    -0.105 C  
HETATM   14  N   UNL     1      -7.186   9.393  68.692  1.00  0.00    -0.074 NA 
HETATM   15  C   UNL     1      -8.269  10.332  69.078  1.00  0.00    -0.139 C  
HETATM   16  C   UNL     1      -9.410  10.496  68.039  1.00  0.00    -0.145 C  
BRANCH  14  17
HETATM   17  C   UNL     1      -7.678   8.000  68.692  1.00  0.00    -0.105 C  
BRANCH  17  18
HETATM   18  C   UNL     1      -7.450   7.258  70.021  1.00  0.00    -0.085 C  
BRANCH  18  19
HETATM   19  N   UNL     1      -8.331   7.732  71.057  1.00  0.00    -0.112 N  
HETATM   20  C   UNL     1      -7.928   8.501  72.168  1.00  0.00    -0.088 C  
HETATM   21  O   UNL     1      -6.805   8.892  72.435  1.00  0.00    -0.287 OA 
HETATM   22  N   UNL     1      -9.083   8.726  72.934  1.00  0.00    -0.246 NA 
HETATM   23  C   UNL     1     -10.161   8.092  72.321  1.00  0.00    -0.269 A  
HETATM   24  C   UNL     1     -11.476   8.037  72.715  1.00  0.00    -0.420 A  
HETATM   25  C   UNL     1     -12.347   7.307  71.899  1.00  0.00    -0.346 A  
HETATM   26  C   UNL     1     -11.883   6.659  70.734  1.00  0.00    -0.441 A  
HETATM   27  C   UNL     1     -10.539   6.732  70.353  1.00  0.00    -0.262 A  
HETATM   28  C   UNL     1      -9.699   7.462  71.164  1.00  0.00    -0.163 A  
ENDBRANCH  18  19
ENDBRANCH  17  18
ENDBRANCH  14  17
ENDBRANCH   7  11
TORSDOF 4
ENDMDL
MODEL      140
REMARK 921   NORMALIZED FREE ENERGY PREDICTED BY IDOCK:   -5.72 KCAL/MOL
REMARK 922        TOTAL FREE ENERGY PREDICTED BY IDOCK:   -7.67 KCAL/MOL
REMARK 923 INTER-LIGAND FREE ENERGY PREDICTED BY IDOCK:   -7.15 KCAL/MOL
REMARK 924 INTRA-LIGAND FREE ENERGY PREDICTED BY IDOCK:   -0.53 KCAL/MOL
REMARK 927      BINDING AFFINITY PREDICTED BY RF-SCORE:    0.00 PKD
ROOT
HETATM    1  F   UNL     1     -10.169   3.622  74.554  1.00  0.00    -0.166 F  
HETATM    2  C   UNL     1      -9.945   2.771  73.513  1.00  0.00    -0.105 C  
HETATM    3  C   UNL     1      -9.848   3.459  72.177  1.00  0.00    -0.236 A  
HETATM    4  F   UNL     1      -8.816   2.082  73.834  1.00  0.00    -0.060 F  
HETATM    5  F   UNL     1     -10.961   1.863  73.556  1.00  0.00    -0.187 F  
HETATM    6  C   UNL     1     -10.004   4.853  72.086  1.00  0.00    -0.235 A  
HETATM    7  C   UNL     1      -9.974   5.548  70.865  1.00  0.00    -0.199 A  
HETATM    8  C   UNL     1      -9.605   2.730  71.012  1.00  0.00    -0.215 A  
HETATM    9  C   UNL     1      -9.724   4.775  69.721  1.00  0.00    -0.272 A  
HETATM   10  C   UNL     1      -9.535   3.387  69.789  1.00  0.00    -0.229 A  
ENDROOT
BRANCH   7  11
HETATM   11  N   UNL     1     -10.117   6.938  70.838  1.00  0.00    -0.194 NA 
HETATM   12  C   UNL     1     -11.512   8.970  71.188  1.00  0.00    -0.308 C  
HETATM   13  C   UNL     1     -11.492   7.487  70.748  1.00  0.00    -0.284 C  
HETATM   14  N   UNL     1     -10.568   9.855  70.465  1.00  0.00    -0.300 NA 
HETATM   15  C   UNL     1      -9.219   9.247  70.591  1.00  0.00    -0.264 C  
HETATM   16  C   UNL     1      -9.111   7.766  70.143  1.00  0.00    -0.153 C  
BRANCH  14  17
HETATM   17  C   UNL     1     -10.929  10.034  69.044  1.00  0.00    -0.212 C  
BRANCH  17  18
HETATM   18  C   UNL     1      -9.804  10.642  68.186  1.00  0.00    -0.155 C  
BRANCH  18  19
HETATM   19  N   UNL     1     -10.222  10.848  66.823  1.00  0.00    -0.223 N  
HETATM   20  C   UNL     1      -9.846  10.036  65.734  1.00  0.00    -0.278 C  
HETATM   21  O   UNL     1      -9.132   9.048  65.753  1.00  0.00    -0.190 OA 
HETATM   22  N   UNL     1     -10.447  10.597  64.596  1.00  0.00    -0.291 NA 
HETATM   23  C   UNL     1     -11.154  11.735  64.974  1.00  0.00    -0.284 A  
HETATM   24  C   UNL     1     -11.887  12.601  64.199  1.00  0.00    -0.483 A  
HETATM   25  C   UNL     1     -12.487  13.680  64.857  1.00  0.00    -0.423 A  
HETATM   26  C   UNL     1     -12.333  13.863  66.249  1.00  0.00    -0.489 A  
HETATM   27  C   UNL     1     -11.582  12.966  67.016  1.00  0.00    -0.419 A  
HETATM   28  C   UNL     1     -11.007  11.905  66.352  1.00  0.00    -0.292 A  
ENDBRANCH  18  19
ENDBRANCH  17  18
ENDBRANCH  14  17
ENDBRANCH   7  11
TORSDOF 4
ENDMDL
MODEL      141
REMARK 921   NORMALIZED FREE ENERGY PREDICTED BY IDOCK:   -5.71 KCAL/MOL
REMARK 922        TOTAL FREE ENERGY PREDICTED BY IDOCK:   -7.67 KCAL/MOL
REMARK 923 INTER-LIGAND FREE ENERGY PREDICTED BY IDOCK:   -7.11 KCAL/MOL
REMARK 924 INTRA-LIGAND FREE ENERGY PREDICTED BY IDOCK:   -0.57 KCAL/MOL
REMARK 927      BINDING AFFINITY PREDICTED BY RF-SCORE:    0.00 PKD
ROOT
HETATM    1  F   UNL     1     -13.069  12.385  64.572  1.00  0.00    -0.526 F  
HETATM    2  C   UNL     1     -12.226  13.453  64.491  1.00  0.00    -0.398 C  
HETATM    3  C   UNL     1     -11.130  13.440  65.524  1.00  0.00    -0.296 A  
HETATM    4  F   UNL     1     -11.747  13.450  63.216  1.00  0.00    -0.454 F  
HETATM    5  F   UNL     1     -13.019  14.556  64.590  1.00  0.00    -0.324 F  
HETATM    6  C   UNL     1     -11.058  12.400  66.467  1.00  0.00    -0.346 A  
HETATM    7  C   UNL     1     -10.092  12.356  67.486  1.00  0.00    -0.202 A  
HETATM    8  C   UNL     1     -10.173  14.455  65.566  1.00  0.00    -0.386 A  
HETATM    9  C   UNL     1      -9.149  13.396  67.488  1.00  0.00    -0.215 A  
HETATM   10  C   UNL     1      -9.181  14.428  66.540  1.00  0.00    -0.269 A  
ENDROOT
BRANCH   7  11
HETATM   11  N   UNL     1     -10.059  11.286  68.385  1.00  0.00    -0.188 NA 
HETATM   12  C   UNL     1      -8.785   9.518  69.587  1.00  0.00    -0.182 C  
HETATM   13  C   UNL     1      -8.928  10.334  68.280  1.00  0.00    -0.132 C  
HETATM   14  N   UNL     1     -10.009   8.800  70.018  1.00  0.00    -0.182 NA 
HETATM   15  C   UNL     1     -11.097   9.806  70.097  1.00  0.00    -0.285 C  
HETATM   16  C   UNL     1     -11.321  10.650  68.814  1.00  0.00    -0.277 C  
BRANCH  14  17
HETATM   17  C   UNL     1     -10.379   7.702  69.102  1.00  0.00    -0.213 C  
BRANCH  17  18
HETATM   18  C   UNL     1     -11.390   6.706  69.698  1.00  0.00    -0.329 C  
BRANCH  18  19
HETATM   19  N   UNL     1     -10.735   5.624  70.386  1.00  0.00    -0.292 N  
HETATM   20  C   UNL     1     -10.661   5.486  71.787  1.00  0.00    -0.226 C  
HETATM   21  O   UNL     1     -11.129   6.229  72.633  1.00  0.00    -0.242 OA 
HETATM   22  N   UNL     1      -9.922   4.319  72.032  1.00  0.00    -0.174 NA 
HETATM   23  C   UNL     1      -9.532   3.768  70.815  1.00  0.00    -0.166 A  
HETATM   24  C   UNL     1      -8.793   2.636  70.569  1.00  0.00    -0.144 A  
HETATM   25  C   UNL     1      -8.542   2.328  69.228  1.00  0.00    -0.112 A  
HETATM   26  C   UNL     1      -9.024   3.151  68.187  1.00  0.00    -0.187 A  
HETATM   27  C   UNL     1      -9.776   4.298  68.463  1.00  0.00    -0.164 A  
HETATM   28  C   UNL     1     -10.020   4.580  69.789  1.00  0.00    -0.198 A  
ENDBRANCH  18  19
ENDBRANCH  17  18
ENDBRANCH  14  17
ENDBRANCH   7  11
TORSDOF 4
ENDMDL
MODEL      142
REMARK 921   NORMALIZED FREE ENERGY PREDICTED BY IDOCK:   -5.71 KCAL/MOL
REMARK 922        TOTAL FREE ENERGY PREDICTED BY IDOCK:   -7.66 KCAL/MOL
REMARK 923 INTER-LIGAND FREE ENERGY PREDICTED BY IDOCK:   -6.86 KCAL/MOL
REMARK 924 INTRA-LIGAND FREE ENERGY PREDICTED BY IDOCK:   -0.81 KCAL/MOL
REMARK 927      BINDING AFFINITY PREDICTED BY RF-SCORE:    0.00 PKD
ROOT
HETATM    1  F   UNL     1     -12.597  12.459  71.495  1.00  0.00    -0.412 F  
HETATM    2  C   UNL     1     -12.510  13.705  70.949  1.00  0.00    -0.371 C  
HETATM    3  C   UNL     1     -11.932  13.719  69.558  1.00  0.00    -0.399 A  
HETATM    4  F   UNL     1     -13.768  14.221  71.001  1.00  0.00    -0.390 F  
HETATM    5  F   UNL     1     -11.768  14.438  71.826  1.00  0.00    -0.365 F  
HETATM    6  C   UNL     1     -11.523  12.520  68.949  1.00  0.00    -0.355 A  
HETATM    7  C   UNL     1     -10.932  12.472  67.675  1.00  0.00    -0.242 A  
HETATM    8  C   UNL     1     -11.790  14.916  68.854  1.00  0.00    -0.334 A  
HETATM    9  C   UNL     1     -10.812  13.698  67.004  1.00  0.00    -0.291 A  
HETATM   10  C   UNL     1     -11.239  14.904  67.577  1.00  0.00    -0.334 A  
ENDROOT
BRANCH   7  11
HETATM   11  N   UNL     1     -10.562  11.247  67.113  1.00  0.00    -0.223 NA 
HETATM   12  C   UNL     1     -10.815   8.775  66.970  1.00  0.00     0.039 C  
HETATM   13  C   UNL     1     -10.848  10.018  67.891  1.00  0.00    -0.271 C  
HETATM   14  N   UNL     1      -9.565   8.599  66.193  1.00  0.00    -0.247 NA 
HETATM   15  C   UNL     1      -9.337   9.861  65.445  1.00  0.00    -0.239 C  
HETATM   16  C   UNL     1      -9.329  11.153  66.305  1.00  0.00    -0.195 C  
BRANCH  14  17
HETATM   17  C   UNL     1      -8.403   8.281  67.047  1.00  0.00    -0.122 C  
BRANCH  17  18
HETATM   18  C   UNL     1      -8.408   6.844  67.598  1.00  0.00    -0.123 C  
BRANCH  18  19
HETATM   19  N   UNL     1      -8.453   6.823  69.038  1.00  0.00    -0.127 N  
HETATM   20  C   UNL     1      -7.323   6.863  69.880  1.00  0.00    -0.088 C  
HETATM   21  O   UNL     1      -6.151   6.927  69.550  1.00  0.00    -0.031 OA 
HETATM   22  N   UNL     1      -7.808   6.799  71.196  1.00  0.00    -0.100 NA 
HETATM   23  C   UNL     1      -9.196   6.700  71.161  1.00  0.00    -0.159 A  
HETATM   24  C   UNL     1     -10.087   6.606  72.202  1.00  0.00    -0.194 A  
HETATM   25  C   UNL     1     -11.441   6.505  71.864  1.00  0.00    -0.345 A  
HETATM   26  C   UNL     1     -11.857   6.493  70.514  1.00  0.00    -0.393 A  
HETATM   27  C   UNL     1     -10.929   6.591  69.472  1.00  0.00    -0.398 A  
HETATM   28  C   UNL     1      -9.602   6.699  69.825  1.00  0.00    -0.149 A  
ENDBRANCH  18  19
ENDBRANCH  17  18
ENDBRANCH  14  17
ENDBRANCH   7  11
TORSDOF 4
ENDMDL
MODEL      143
REMARK 921   NORMALIZED FREE ENERGY PREDICTED BY IDOCK:   -5.68 KCAL/MOL
REMARK 922        TOTAL FREE ENERGY PREDICTED BY IDOCK:   -7.63 KCAL/MOL
REMARK 923 INTER-LIGAND FREE ENERGY PREDICTED BY IDOCK:   -7.21 KCAL/MOL
REMARK 924 INTRA-LIGAND FREE ENERGY PREDICTED BY IDOCK:   -0.42 KCAL/MOL
REMARK 927      BINDING AFFINITY PREDICTED BY RF-SCORE:    0.00 PKD
ROOT
HETATM    1  F   UNL     1     -10.904   8.126  68.545  1.00  0.00    -0.196 F  
HETATM    2  C   UNL     1     -10.366   7.473  67.477  1.00  0.00    -0.252 C  
HETATM    3  C   UNL     1      -9.703   8.386  66.478  1.00  0.00    -0.330 A  
HETATM    4  F   UNL     1      -9.508   6.553  67.998  1.00  0.00    -0.124 F  
HETATM    5  F   UNL     1     -11.389   6.760  66.928  1.00  0.00    -0.484 F  
HETATM    6  C   UNL     1      -9.698   9.776  66.686  1.00  0.00    -0.257 A  
HETATM    7  C   UNL     1      -9.141  10.685  65.770  1.00  0.00    -0.186 A  
HETATM    8  C   UNL     1      -9.089   7.873  65.335  1.00  0.00     0.135 A  
HETATM    9  C   UNL     1      -8.532  10.123  64.637  1.00  0.00    -0.178 A  
HETATM   10  C   UNL     1      -8.499   8.738  64.422  1.00  0.00    -0.146 A  
ENDROOT
BRANCH   7  11
HETATM   11  N   UNL     1      -9.149  12.056  66.039  1.00  0.00    -0.150 NA 
HETATM   12  C   UNL     1      -8.096  14.054  67.086  1.00  0.00    -0.099 C  
HETATM   13  C   UNL     1      -8.360  12.534  67.200  1.00  0.00    -0.179 C  
HETATM   14  N   UNL     1      -9.307  14.893  66.921  1.00  0.00    -0.229 NA 
HETATM   15  C   UNL     1     -10.050  14.359  65.751  1.00  0.00    -0.340 C  
HETATM   16  C   UNL     1     -10.375  12.843  65.803  1.00  0.00    -0.284 C  
BRANCH  14  17
HETATM   17  C   UNL     1     -10.165  14.899  68.124  1.00  0.00    -0.226 C  
BRANCH  17  18
HETATM   18  C   UNL     1      -9.575  15.689  69.306  1.00  0.00    -0.268 C  
BRANCH  18  19
HETATM   19  N   UNL     1      -8.808  16.824  68.863  1.00  0.00    -0.253 N  
HETATM   20  C   UNL     1      -7.416  16.969  69.024  1.00  0.00    -0.211 C  
HETATM   21  O   UNL     1      -6.641  16.183  69.543  1.00  0.00    -0.187 OA 
HETATM   22  N   UNL     1      -7.081  18.218  68.478  1.00  0.00    -0.259 NA 
HETATM   23  C   UNL     1      -8.240  18.833  68.015  1.00  0.00    -0.291 A  
HETATM   24  C   UNL     1      -8.394  20.060  67.415  1.00  0.00    -0.382 A  
HETATM   25  C   UNL     1      -9.697  20.427  67.061  1.00  0.00    -0.588 A  
HETATM   26  C   UNL     1     -10.791  19.574  67.319  1.00  0.00    -0.557 A  
HETATM   27  C   UNL     1     -10.608  18.329  67.930  1.00  0.00    -0.392 A  
HETATM   28  C   UNL     1      -9.318  17.981  68.263  1.00  0.00    -0.295 A  
ENDBRANCH  18  19
ENDBRANCH  17  18
ENDBRANCH  14  17
ENDBRANCH   7  11
TORSDOF 4
ENDMDL
MODEL      144
REMARK 921   NORMALIZED FREE ENERGY PREDICTED BY IDOCK:   -5.67 KCAL/MOL
REMARK 922        TOTAL FREE ENERGY PREDICTED BY IDOCK:   -7.62 KCAL/MOL
REMARK 923 INTER-LIGAND FREE ENERGY PREDICTED BY IDOCK:   -6.79 KCAL/MOL
REMARK 924 INTRA-LIGAND FREE ENERGY PREDICTED BY IDOCK:   -0.83 KCAL/MOL
REMARK 927      BINDING AFFINITY PREDICTED BY RF-SCORE:    0.00 PKD
ROOT
HETATM    1  F   UNL     1     -10.827   7.061  74.055  1.00  0.00    -0.371 F  
HETATM    2  C   UNL     1     -10.850   6.057  73.134  1.00  0.00    -0.259 C  
HETATM    3  C   UNL     1     -10.852   6.541  71.707  1.00  0.00    -0.277 A  
HETATM    4  F   UNL     1      -9.778   5.268  73.420  1.00  0.00    -0.142 F  
HETATM    5  F   UNL     1     -11.952   5.312  73.430  1.00  0.00    -0.244 F  
HETATM    6  C   UNL     1     -10.852   7.919  71.428  1.00  0.00    -0.259 A  
HETATM    7  C   UNL     1     -10.904   8.435  70.122  1.00  0.00    -0.236 A  
HETATM    8  C   UNL     1     -10.859   5.637  70.644  1.00  0.00    -0.304 A  
HETATM    9  C   UNL     1     -10.906   7.489  69.085  1.00  0.00    -0.105 A  
HETATM   10  C   UNL     1     -10.877   6.110  69.337  1.00  0.00    -0.420 A  
ENDROOT
BRANCH   7  11
HETATM   11  N   UNL     1     -10.882   9.815  69.905  1.00  0.00    -0.255 NA 
HETATM   12  C   UNL     1     -11.925  12.058  70.179  1.00  0.00    -0.321 C  
HETATM   13  C   UNL     1     -12.171  10.544  69.979  1.00  0.00    -0.250 C  
HETATM   14  N   UNL     1     -11.046  12.693  69.168  1.00  0.00    -0.228 NA 
HETATM   15  C   UNL     1      -9.782  11.914  69.142  1.00  0.00     0.318 C  
HETATM   16  C   UNL     1      -9.943  10.388  68.919  1.00  0.00    -0.199 C  
BRANCH  14  17
HETATM   17  C   UNL     1     -11.659  12.737  67.825  1.00  0.00    -0.353 C  
BRANCH  17  18
HETATM   18  C   UNL     1     -10.840  13.529  66.791  1.00  0.00    -0.282 C  
BRANCH  18  19
HETATM   19  N   UNL     1     -10.872  12.908  65.492  1.00  0.00    -0.271 N  
HETATM   20  C   UNL     1     -11.941  13.004  64.579  1.00  0.00    -0.394 C  
HETATM   21  O   UNL     1     -12.987  13.613  64.719  1.00  0.00    -0.685 OA 
HETATM   22  N   UNL     1     -11.576  12.238  63.460  1.00  0.00    -0.471 NA 
HETATM   23  C   UNL     1     -10.327  11.670  63.690  1.00  0.00    -0.419 A  
HETATM   24  C   UNL     1      -9.584  10.846  62.880  1.00  0.00    -0.371 A  
HETATM   25  C   UNL     1      -8.353  10.412  63.384  1.00  0.00    -0.158 A  
HETATM   26  C   UNL     1      -7.911  10.804  64.666  1.00  0.00     0.157 A  
HETATM   27  C   UNL     1      -8.686  11.645  65.472  1.00  0.00     0.188 A  
HETATM   28  C   UNL     1      -9.890  12.069  64.955  1.00  0.00    -0.175 A  
ENDBRANCH  18  19
ENDBRANCH  17  18
ENDBRANCH  14  17
ENDBRANCH   7  11
TORSDOF 4
ENDMDL
MODEL      145
REMARK 921   NORMALIZED FREE ENERGY PREDICTED BY IDOCK:   -5.65 KCAL/MOL
REMARK 922        TOTAL FREE ENERGY PREDICTED BY IDOCK:   -7.60 KCAL/MOL
REMARK 923 INTER-LIGAND FREE ENERGY PREDICTED BY IDOCK:   -7.06 KCAL/MOL
REMARK 924 INTRA-LIGAND FREE ENERGY PREDICTED BY IDOCK:   -0.54 KCAL/MOL
REMARK 927      BINDING AFFINITY PREDICTED BY RF-SCORE:    0.00 PKD
ROOT
HETATM    1  F   UNL     1      -8.220   3.673  65.967  1.00  0.00    -0.097 F  
HETATM    2  C   UNL     1      -8.636   3.187  67.171  1.00  0.00    -0.112 C  
HETATM    3  C   UNL     1      -9.093   4.253  68.131  1.00  0.00    -0.168 A  
HETATM    4  F   UNL     1      -9.611   2.281  66.887  1.00  0.00    -0.087 F  
HETATM    5  F   UNL     1      -7.586   2.466  67.657  1.00  0.00    -0.057 F  
HETATM    6  C   UNL     1      -9.048   5.608  67.758  1.00  0.00    -0.106 A  
HETATM    7  C   UNL     1      -9.412   6.653  68.624  1.00  0.00    -0.128 A  
HETATM    8  C   UNL     1      -9.564   3.919  69.402  1.00  0.00    -0.239 A  
HETATM    9  C   UNL     1      -9.882   6.269  69.890  1.00  0.00    -0.198 A  
HETATM   10  C   UNL     1      -9.965   4.924  70.274  1.00  0.00    -0.321 A  
ENDROOT
BRANCH   7  11
HETATM   11  N   UNL     1      -9.364   7.980  68.191  1.00  0.00    -0.140 NA 
HETATM   12  C   UNL     1      -8.121  10.121  67.934  1.00  0.00    -0.109 C  
HETATM   13  C   UNL     1      -8.357   8.872  68.815  1.00  0.00    -0.123 C  
HETATM   14  N   UNL     1      -9.340  10.896  67.599  1.00  0.00    -0.155 NA 
HETATM   15  C   UNL     1     -10.303   9.947  66.986  1.00  0.00    -0.239 C  
HETATM   16  C   UNL     1     -10.613   8.678  67.823  1.00  0.00    -0.183 C  
BRANCH  14  17
HETATM   17  C   UNL     1      -9.937  11.557  68.778  1.00  0.00    -0.157 C  
BRANCH  17  18
HETATM   18  C   UNL     1     -11.446  11.829  68.643  1.00  0.00    -0.288 C  
BRANCH  18  19
HETATM   19  N   UNL     1     -12.075  12.005  69.926  1.00  0.00    -0.290 N  
HETATM   20  C   UNL     1     -12.441  10.958  70.796  1.00  0.00    -0.394 C  
HETATM   21  O   UNL     1     -12.288   9.761  70.624  1.00  0.00    -0.253 OA 
HETATM   22  N   UNL     1     -13.039  11.561  71.913  1.00  0.00    -0.459 NA 
HETATM   23  C   UNL     1     -13.060  12.940  71.724  1.00  0.00    -0.360 A  
HETATM   24  C   UNL     1     -13.553  13.924  72.547  1.00  0.00    -0.680 A  
HETATM   25  C   UNL     1     -13.448  15.241  72.086  1.00  0.00    -0.546 A  
HETATM   26  C   UNL     1     -12.869  15.530  70.832  1.00  0.00    -0.535 A  
HETATM   27  C   UNL     1     -12.374  14.511  70.012  1.00  0.00    -0.376 A  
HETATM   28  C   UNL     1     -12.477  13.222  70.487  1.00  0.00    -0.260 A  
ENDBRANCH  18  19
ENDBRANCH  17  18
ENDBRANCH  14  17
ENDBRANCH   7  11
TORSDOF 4
ENDMDL
MODEL      146
REMARK 921   NORMALIZED FREE ENERGY PREDICTED BY IDOCK:   -5.65 KCAL/MOL
REMARK 922        TOTAL FREE ENERGY PREDICTED BY IDOCK:   -7.59 KCAL/MOL
REMARK 923 INTER-LIGAND FREE ENERGY PREDICTED BY IDOCK:   -7.71 KCAL/MOL
REMARK 924 INTRA-LIGAND FREE ENERGY PREDICTED BY IDOCK:    0.12 KCAL/MOL
REMARK 927      BINDING AFFINITY PREDICTED BY RF-SCORE:    0.00 PKD
ROOT
HETATM    1  F   UNL     1     -11.259  19.024  67.220  1.00  0.00    -0.498 F  
HETATM    2  C   UNL     1     -10.223  19.782  67.676  1.00  0.00    -0.434 C  
HETATM    3  C   UNL     1      -8.998  18.983  68.035  1.00  0.00    -0.348 A  
HETATM    4  F   UNL     1      -9.982  20.704  66.703  1.00  0.00    -0.562 F  
HETATM    5  F   UNL     1     -10.717  20.479  68.737  1.00  0.00    -0.399 F  
HETATM    6  C   UNL     1      -9.003  17.583  67.906  1.00  0.00    -0.251 A  
HETATM    7  C   UNL     1      -7.912  16.777  68.271  1.00  0.00    -0.200 A  
HETATM    8  C   UNL     1      -7.844  19.612  68.504  1.00  0.00    -0.358 A  
HETATM    9  C   UNL     1      -6.773  17.454  68.734  1.00  0.00    -0.219 A  
HETATM   10  C   UNL     1      -6.732  18.850  68.844  1.00  0.00    -0.312 A  
ENDROOT
BRANCH   7  11
HETATM   11  N   UNL     1      -7.968  15.391  68.103  1.00  0.00    -0.129 NA 
HETATM   12  C   UNL     1      -8.734  13.404  66.813  1.00  0.00    -0.078 C  
HETATM   13  C   UNL     1      -9.070  14.842  67.276  1.00  0.00    -0.201 C  
HETATM   14  N   UNL     1      -8.401  12.454  67.901  1.00  0.00    -0.154 NA 
HETATM   15  C   UNL     1      -7.300  13.065  68.688  1.00  0.00    -0.097 C  
HETATM   16  C   UNL     1      -7.571  14.500  69.211  1.00  0.00    -0.073 C  
BRANCH  14  17
HETATM   17  C   UNL     1      -9.557  12.151  68.769  1.00  0.00     0.039 C  
BRANCH  17  18
HETATM   18  C   UNL     1     -10.433  10.993  68.258  1.00  0.00    -0.186 C  
BRANCH  18  19
HETATM   19  N   UNL     1     -10.381  10.874  66.824  1.00  0.00    -0.232 N  
HETATM   20  C   UNL     1      -9.498  10.034  66.117  1.00  0.00    -0.190 C  
HETATM   21  O   UNL     1      -8.656   9.282  66.578  1.00  0.00    -0.127 OA 
HETATM   22  N   UNL     1      -9.762  10.239  64.753  1.00  0.00    -0.311 NA 
HETATM   23  C   UNL     1     -10.765  11.195  64.627  1.00  0.00    -0.280 A  
HETATM   24  C   UNL     1     -11.337  11.711  63.489  1.00  0.00    -0.447 A  
HETATM   25  C   UNL     1     -12.328  12.683  63.669  1.00  0.00    -0.584 A  
HETATM   26  C   UNL     1     -12.707  13.108  64.960  1.00  0.00    -0.456 A  
HETATM   27  C   UNL     1     -12.111  12.566  66.103  1.00  0.00    -0.357 A  
HETATM   28  C   UNL     1     -11.144  11.604  65.907  1.00  0.00    -0.264 A  
ENDBRANCH  18  19
ENDBRANCH  17  18
ENDBRANCH  14  17
ENDBRANCH   7  11
TORSDOF 4
ENDMDL
MODEL      147
REMARK 921   NORMALIZED FREE ENERGY PREDICTED BY IDOCK:   -5.64 KCAL/MOL
REMARK 922        TOTAL FREE ENERGY PREDICTED BY IDOCK:   -7.58 KCAL/MOL
REMARK 923 INTER-LIGAND FREE ENERGY PREDICTED BY IDOCK:   -6.86 KCAL/MOL
REMARK 924 INTRA-LIGAND FREE ENERGY PREDICTED BY IDOCK:   -0.72 KCAL/MOL
REMARK 927      BINDING AFFINITY PREDICTED BY RF-SCORE:    0.00 PKD
ROOT
HETATM    1  F   UNL     1      -8.993   5.222  65.333  1.00  0.00    -0.150 F  
HETATM    2  C   UNL     1      -9.013   4.099  66.105  1.00  0.00    -0.126 C  
HETATM    3  C   UNL     1      -9.256   4.371  67.567  1.00  0.00    -0.164 A  
HETATM    4  F   UNL     1      -9.960   3.289  65.557  1.00  0.00    -0.103 F  
HETATM    5  F   UNL     1      -7.819   3.480  65.884  1.00  0.00    -0.084 F  
HETATM    6  C   UNL     1      -9.417   5.690  68.024  1.00  0.00    -0.121 A  
HETATM    7  C   UNL     1      -9.597   6.015  69.379  1.00  0.00    -0.134 A  
HETATM    8  C   UNL     1      -9.321   3.325  68.489  1.00  0.00    -0.237 A  
HETATM    9  C   UNL     1      -9.659   4.931  70.269  1.00  0.00    -0.265 A  
HETATM   10  C   UNL     1      -9.530   3.605  69.834  1.00  0.00    -0.262 A  
ENDROOT
BRANCH   7  11
HETATM   11  N   UNL     1      -9.771   7.344  69.772  1.00  0.00    -0.170 NA 
HETATM   12  C   UNL     1     -11.108   9.092  70.935  1.00  0.00    -0.280 C  
HETATM   13  C   UNL     1     -11.147   7.791  70.098  1.00  0.00    -0.209 C  
HETATM   14  N   UNL     1     -10.347  10.210  70.328  1.00  0.00    -0.239 NA 
HETATM   15  C   UNL     1      -8.988   9.695  70.023  1.00  0.00    -0.237 C  
HETATM   16  C   UNL     1      -8.941   8.404  69.164  1.00  0.00    -0.147 C  
BRANCH  14  17
HETATM   17  C   UNL     1     -10.989  10.741  69.108  1.00  0.00    -0.244 C  
BRANCH  17  18
HETATM   18  C   UNL     1     -10.322  12.014  68.555  1.00  0.00    -0.217 C  
BRANCH  18  19
HETATM   19  N   UNL     1     -10.905  12.424  67.304  1.00  0.00    -0.236 N  
HETATM   20  C   UNL     1     -11.859  13.451  67.158  1.00  0.00    -0.382 C  
HETATM   21  O   UNL     1     -12.337  14.153  68.033  1.00  0.00    -0.233 OA 
HETATM   22  N   UNL     1     -12.174  13.507  65.791  1.00  0.00    -0.434 NA 
HETATM   23  C   UNL     1     -11.450  12.526  65.121  1.00  0.00    -0.328 A  
HETATM   24  C   UNL     1     -11.444  12.211  63.783  1.00  0.00    -0.548 A  
HETATM   25  C   UNL     1     -10.616  11.154  63.390  1.00  0.00    -0.340 A  
HETATM   26  C   UNL     1      -9.834  10.451  64.332  1.00  0.00    -0.395 A  
HETATM   27  C   UNL     1      -9.856  10.792  65.688  1.00  0.00    -0.299 A  
HETATM   28  C   UNL     1     -10.671  11.840  66.055  1.00  0.00    -0.279 A  
ENDBRANCH  18  19
ENDBRANCH  17  18
ENDBRANCH  14  17
ENDBRANCH   7  11
TORSDOF 4
ENDMDL
MODEL      148
REMARK 921   NORMALIZED FREE ENERGY PREDICTED BY IDOCK:   -5.64 KCAL/MOL
REMARK 922        TOTAL FREE ENERGY PREDICTED BY IDOCK:   -7.58 KCAL/MOL
REMARK 923 INTER-LIGAND FREE ENERGY PREDICTED BY IDOCK:   -7.21 KCAL/MOL
REMARK 924 INTRA-LIGAND FREE ENERGY PREDICTED BY IDOCK:   -0.37 KCAL/MOL
REMARK 927      BINDING AFFINITY PREDICTED BY RF-SCORE:    0.00 PKD
ROOT
HETATM    1  F   UNL     1     -10.872   7.904  71.549  1.00  0.00    -0.232 F  
HETATM    2  C   UNL     1     -10.852   7.091  70.455  1.00  0.00    -0.251 C  
HETATM    3  C   UNL     1     -10.634   7.824  69.158  1.00  0.00    -0.193 A  
HETATM    4  F   UNL     1      -9.888   6.161  70.703  1.00  0.00    -0.182 F  
HETATM    5  F   UNL     1     -12.036   6.416  70.477  1.00  0.00    -0.426 F  
HETATM    6  C   UNL     1     -10.493   9.223  69.150  1.00  0.00    -0.231 A  
HETATM    7  C   UNL     1     -10.338   9.970  67.971  1.00  0.00    -0.198 A  
HETATM    8  C   UNL     1     -10.572   7.134  67.946  1.00  0.00    -0.269 A  
HETATM    9  C   UNL     1     -10.278   9.234  66.778  1.00  0.00    -0.325 A  
HETATM   10  C   UNL     1     -10.386   7.836  66.762  1.00  0.00    -0.348 A  
ENDROOT
BRANCH   7  11
HETATM   11  N   UNL     1     -10.184  11.358  68.027  1.00  0.00    -0.180 NA 
HETATM   12  C   UNL     1     -11.180  13.639  68.061  1.00  0.00    -0.267 C  
HETATM   13  C   UNL     1     -11.296  12.195  67.517  1.00  0.00    -0.326 C  
HETATM   14  N   UNL     1      -9.884  14.309  67.797  1.00  0.00    -0.220 NA 
HETATM   15  C   UNL     1      -8.819  13.419  68.326  1.00  0.00    -0.172 C  
HETATM   16  C   UNL     1      -8.853  11.958  67.806  1.00  0.00    -0.166 C  
BRANCH  14  17
HETATM   17  C   UNL     1      -9.667  14.587  66.363  1.00  0.00    -0.296 C  
BRANCH  17  18
HETATM   18  C   UNL     1      -9.914  16.054  65.967  1.00  0.00    -0.339 C  
BRANCH  18  19
HETATM   19  N   UNL     1      -9.421  16.968  66.965  1.00  0.00    -0.243 N  
HETATM   20  C   UNL     1     -10.151  17.407  68.088  1.00  0.00    -0.328 C  
HETATM   21  O   UNL     1     -11.286  17.095  68.406  1.00  0.00    -0.218 OA 
HETATM   22  N   UNL     1      -9.316  18.299  68.779  1.00  0.00    -0.290 NA 
HETATM   23  C   UNL     1      -8.115  18.422  68.086  1.00  0.00    -0.290 A  
HETATM   24  C   UNL     1      -7.013  19.186  68.386  1.00  0.00    -0.303 A  
HETATM   25  C   UNL     1      -5.940  19.120  67.489  1.00  0.00    -0.193 A  
HETATM   26  C   UNL     1      -6.003  18.309  66.335  1.00  0.00    -0.202 A  
HETATM   27  C   UNL     1      -7.136  17.539  66.054  1.00  0.00    -0.299 A  
HETATM   28  C   UNL     1      -8.178  17.610  66.952  1.00  0.00    -0.225 A  
ENDBRANCH  18  19
ENDBRANCH  17  18
ENDBRANCH  14  17
ENDBRANCH   7  11
TORSDOF 4
ENDMDL
MODEL      149
REMARK 921   NORMALIZED FREE ENERGY PREDICTED BY IDOCK:   -5.62 KCAL/MOL
REMARK 922        TOTAL FREE ENERGY PREDICTED BY IDOCK:   -7.56 KCAL/MOL
REMARK 923 INTER-LIGAND FREE ENERGY PREDICTED BY IDOCK:   -6.71 KCAL/MOL
REMARK 924 INTRA-LIGAND FREE ENERGY PREDICTED BY IDOCK:   -0.85 KCAL/MOL
REMARK 927      BINDING AFFINITY PREDICTED BY RF-SCORE:    0.00 PKD
ROOT
HETATM    1  F   UNL     1     -10.665   7.354  71.439  1.00  0.00    -0.218 F  
HETATM    2  C   UNL     1     -11.610   8.089  72.092  1.00  0.00    -0.342 C  
HETATM    3  C   UNL     1     -11.858   9.442  71.478  1.00  0.00    -0.456 A  
HETATM    4  F   UNL     1     -12.728   7.312  72.121  1.00  0.00    -0.309 F  
HETATM    5  F   UNL     1     -11.181   8.175  73.382  1.00  0.00    -0.322 F  
HETATM    6  C   UNL     1     -11.129   9.851  70.348  1.00  0.00    -0.382 A  
HETATM    7  C   UNL     1     -11.276  11.118  69.759  1.00  0.00    -0.245 A  
HETATM    8  C   UNL     1     -12.807  10.311  72.018  1.00  0.00    -0.457 A  
HETATM    9  C   UNL     1     -12.244  11.956  70.334  1.00  0.00    -0.399 A  
HETATM   10  C   UNL     1     -13.005  11.560  71.443  1.00  0.00    -0.450 A  
ENDROOT
BRANCH   7  11
HETATM   11  N   UNL     1     -10.537  11.462  68.625  1.00  0.00    -0.192 NA 
HETATM   12  C   UNL     1     -10.443  12.310  66.286  1.00  0.00    -0.238 C  
HETATM   13  C   UNL     1     -11.246  11.488  67.322  1.00  0.00    -0.301 C  
HETATM   14  N   UNL     1      -9.040  11.876  66.087  1.00  0.00    -0.197 NA 
HETATM   15  C   UNL     1      -8.394  11.867  67.423  1.00  0.00    -0.163 C  
HETATM   16  C   UNL     1      -9.126  11.041  68.513  1.00  0.00    -0.173 C  
BRANCH  14  17
HETATM   17  C   UNL     1      -8.940  10.547  65.450  1.00  0.00    -0.186 C  
BRANCH  17  18
HETATM   18  C   UNL     1      -7.933   9.603  66.132  1.00  0.00    -0.108 C  
BRANCH  18  19
HETATM   19  N   UNL     1      -8.225   8.220  65.858  1.00  0.00    -0.112 N  
HETATM   20  C   UNL     1      -7.676   7.475  64.794  1.00  0.00    -0.117 C  
HETATM   21  O   UNL     1      -6.880   7.856  63.953  1.00  0.00    -0.061 OA 
HETATM   22  N   UNL     1      -8.239   6.192  64.877  1.00  0.00    -0.138 NA 
HETATM   23  C   UNL     1      -9.125   6.157  65.950  1.00  0.00    -0.085 A  
HETATM   24  C   UNL     1      -9.903   5.118  66.401  1.00  0.00    -0.211 A  
HETATM   25  C   UNL     1     -10.719   5.378  67.507  1.00  0.00    -0.143 A  
HETATM   26  C   UNL     1     -10.738   6.652  68.116  1.00  0.00    -0.320 A  
HETATM   27  C   UNL     1      -9.936   7.693  67.638  1.00  0.00    -0.225 A  
HETATM   28  C   UNL     1      -9.133   7.415  66.554  1.00  0.00    -0.162 A  
ENDBRANCH  18  19
ENDBRANCH  17  18
ENDBRANCH  14  17
ENDBRANCH   7  11
TORSDOF 4
ENDMDL
MODEL      150
REMARK 921   NORMALIZED FREE ENERGY PREDICTED BY IDOCK:   -5.61 KCAL/MOL
REMARK 922        TOTAL FREE ENERGY PREDICTED BY IDOCK:   -7.54 KCAL/MOL
REMARK 923 INTER-LIGAND FREE ENERGY PREDICTED BY IDOCK:   -6.82 KCAL/MOL
REMARK 924 INTRA-LIGAND FREE ENERGY PREDICTED BY IDOCK:   -0.73 KCAL/MOL
REMARK 927      BINDING AFFINITY PREDICTED BY RF-SCORE:    0.00 PKD
ROOT
HETATM    1  F   UNL     1      -8.753   7.185  67.754  1.00  0.00    -0.124 F  
HETATM    2  C   UNL     1      -8.048   6.751  66.672  1.00  0.00    -0.110 C  
HETATM    3  C   UNL     1      -8.240   7.601  65.442  1.00  0.00    -0.137 A  
HETATM    4  F   UNL     1      -6.749   6.693  67.074  1.00  0.00    -0.051 F  
HETATM    5  F   UNL     1      -8.437   5.460  66.475  1.00  0.00    -0.111 F  
HETATM    6  C   UNL     1      -9.098   8.714  65.478  1.00  0.00    -0.190 A  
HETATM    7  C   UNL     1      -9.358   9.516  64.354  1.00  0.00    -0.054 A  
HETATM    8  C   UNL     1      -7.575   7.299  64.253  1.00  0.00    -0.116 A  
HETATM    9  C   UNL     1      -8.665   9.177  63.181  1.00  0.00    -0.155 A  
HETATM   10  C   UNL     1      -7.781   8.090  63.128  1.00  0.00    -0.139 A  
ENDROOT
BRANCH   7  11
HETATM   11  N   UNL     1     -10.207  10.621  64.454  1.00  0.00    -0.354 NA 
HETATM   12  C   UNL     1     -11.611  12.367  63.369  1.00  0.00    -0.462 C  
HETATM   13  C   UNL     1     -10.332  11.502  63.268  1.00  0.00    -0.384 C  
HETATM   14  N   UNL     1     -11.731  13.172  64.609  1.00  0.00    -0.344 NA 
HETATM   15  C   UNL     1     -11.592  12.233  65.751  1.00  0.00    -0.388 C  
HETATM   16  C   UNL     1     -10.319  11.347  65.735  1.00  0.00    -0.255 C  
BRANCH  14  17
HETATM   17  C   UNL     1     -10.721  14.246  64.692  1.00  0.00    -0.365 C  
BRANCH  17  18
HETATM   18  C   UNL     1     -11.235  15.535  65.358  1.00  0.00    -0.228 C  
BRANCH  18  19
HETATM   19  N   UNL     1     -10.568  15.795  66.608  1.00  0.00    -0.310 N  
HETATM   20  C   UNL     1      -9.329  16.454  66.738  1.00  0.00    -0.245 C  
HETATM   21  O   UNL     1      -8.631  16.910  65.849  1.00  0.00    -0.514 OA 
HETATM   22  N   UNL     1      -9.034  16.474  68.110  1.00  0.00    -0.202 NA 
HETATM   23  C   UNL     1     -10.053  15.826  68.801  1.00  0.00    -0.215 A  
HETATM   24  C   UNL     1     -10.184  15.601  70.150  1.00  0.00    -0.210 A  
HETATM   25  C   UNL     1     -11.323  14.901  70.564  1.00  0.00    -0.280 A  
HETATM   26  C   UNL     1     -12.279  14.448  69.629  1.00  0.00    -0.353 A  
HETATM   27  C   UNL     1     -12.124  14.690  68.261  1.00  0.00    -0.214 A  
HETATM   28  C   UNL     1     -11.001  15.388  67.874  1.00  0.00    -0.310 A  
ENDBRANCH  18  19
ENDBRANCH  17  18
ENDBRANCH  14  17
ENDBRANCH   7  11
TORSDOF 4
ENDMDL
MODEL      151
REMARK 921   NORMALIZED FREE ENERGY PREDICTED BY IDOCK:   -5.59 KCAL/MOL
REMARK 922        TOTAL FREE ENERGY PREDICTED BY IDOCK:   -7.52 KCAL/MOL
REMARK 923 INTER-LIGAND FREE ENERGY PREDICTED BY IDOCK:   -7.60 KCAL/MOL
REMARK 924 INTRA-LIGAND FREE ENERGY PREDICTED BY IDOCK:    0.08 KCAL/MOL
REMARK 927      BINDING AFFINITY PREDICTED BY RF-SCORE:    0.00 PKD
ROOT
HETATM    1  F   UNL     1      -9.314   5.657  65.187  1.00  0.00    -0.085 F  
HETATM    2  C   UNL     1      -9.769   5.291  66.419  1.00  0.00    -0.169 C  
HETATM    3  C   UNL     1     -10.063   6.456  67.328  1.00  0.00    -0.207 A  
HETATM    4  F   UNL     1     -10.861   4.510  66.194  1.00  0.00    -0.300 F  
HETATM    5  F   UNL     1      -8.815   4.463  66.930  1.00  0.00    -0.110 F  
HETATM    6  C   UNL     1      -9.846   7.772  66.885  1.00  0.00    -0.305 A  
HETATM    7  C   UNL     1     -10.053   8.898  67.699  1.00  0.00    -0.218 A  
HETATM    8  C   UNL     1     -10.551   6.251  68.620  1.00  0.00    -0.314 A  
HETATM    9  C   UNL     1     -10.546   8.644  68.988  1.00  0.00    -0.179 A  
HETATM   10  C   UNL     1     -10.799   7.342  69.443  1.00  0.00    -0.184 A  
ENDROOT
BRANCH   7  11
HETATM   11  N   UNL     1      -9.837  10.184  67.198  1.00  0.00    -0.179 NA 
HETATM   12  C   UNL     1      -8.944  12.490  67.485  1.00  0.00    -0.185 C  
HETATM   13  C   UNL     1      -9.609  11.275  68.176  1.00  0.00    -0.186 C  
HETATM   14  N   UNL     1      -9.668  13.017  66.303  1.00  0.00    -0.270 NA 
HETATM   15  C   UNL     1      -9.867  11.878  65.372  1.00  0.00    -0.233 C  
HETATM   16  C   UNL     1     -10.553  10.628  65.984  1.00  0.00    -0.125 C  
BRANCH  14  17
HETATM   17  C   UNL     1     -10.962  13.635  66.656  1.00  0.00    -0.292 C  
BRANCH  17  18
HETATM   18  C   UNL     1     -11.116  15.085  66.165  1.00  0.00    -0.329 C  
BRANCH  18  19
HETATM   19  N   UNL     1     -10.836  16.037  67.209  1.00  0.00    -0.293 N  
HETATM   20  C   UNL     1     -10.839  15.745  68.588  1.00  0.00    -0.278 C  
HETATM   21  O   UNL     1     -11.063  14.671  69.120  1.00  0.00    -0.246 OA 
HETATM   22  N   UNL     1     -10.543  16.947  69.248  1.00  0.00    -0.345 NA 
HETATM   23  C   UNL     1     -10.385  17.955  68.301  1.00  0.00    -0.383 A  
HETATM   24  C   UNL     1     -10.098  19.286  68.487  1.00  0.00    -0.513 A  
HETATM   25  C   UNL     1     -10.010  20.077  67.336  1.00  0.00    -0.571 A  
HETATM   26  C   UNL     1     -10.217  19.524  66.054  1.00  0.00    -0.567 A  
HETATM   27  C   UNL     1     -10.507  18.165  65.891  1.00  0.00    -0.292 A  
HETATM   28  C   UNL     1     -10.580  17.401  67.035  1.00  0.00    -0.238 A  
ENDBRANCH  18  19
ENDBRANCH  17  18
ENDBRANCH  14  17
ENDBRANCH   7  11
TORSDOF 4
ENDMDL
MODEL      152
REMARK 921   NORMALIZED FREE ENERGY PREDICTED BY IDOCK:   -5.58 KCAL/MOL
REMARK 922        TOTAL FREE ENERGY PREDICTED BY IDOCK:   -7.50 KCAL/MOL
REMARK 923 INTER-LIGAND FREE ENERGY PREDICTED BY IDOCK:   -6.78 KCAL/MOL
REMARK 924 INTRA-LIGAND FREE ENERGY PREDICTED BY IDOCK:   -0.73 KCAL/MOL
REMARK 927      BINDING AFFINITY PREDICTED BY RF-SCORE:    0.00 PKD
ROOT
HETATM    1  F   UNL     1      -8.832   7.048  67.827  1.00  0.00    -0.123 F  
HETATM    2  C   UNL     1      -8.177   6.642  66.703  1.00  0.00    -0.112 C  
HETATM    3  C   UNL     1      -8.344   7.577  65.533  1.00  0.00    -0.137 A  
HETATM    4  F   UNL     1      -6.875   6.486  67.069  1.00  0.00    -0.056 F  
HETATM    5  F   UNL     1      -8.644   5.390  66.437  1.00  0.00    -0.114 F  
HETATM    6  C   UNL     1      -9.135   8.732  65.657  1.00  0.00    -0.247 A  
HETATM    7  C   UNL     1      -9.371   9.616  64.591  1.00  0.00    -0.207 A  
HETATM    8  C   UNL     1      -7.723   7.312  64.311  1.00  0.00    -0.124 A  
HETATM    9  C   UNL     1      -8.724   9.312  63.383  1.00  0.00    -0.193 A  
HETATM   10  C   UNL     1      -7.907   8.182  63.243  1.00  0.00    -0.149 A  
ENDROOT
BRANCH   7  11
HETATM   11  N   UNL     1     -10.152  10.759  64.779  1.00  0.00    -0.308 NA 
HETATM   12  C   UNL     1     -11.616  12.547  63.854  1.00  0.00    -0.442 C  
HETATM   13  C   UNL     1     -10.400  11.625  63.601  1.00  0.00    -0.419 C  
HETATM   14  N   UNL     1     -11.534  13.377  65.080  1.00  0.00    -0.304 NA 
HETATM   15  C   UNL     1     -11.280  12.453  66.214  1.00  0.00    -0.317 C  
HETATM   16  C   UNL     1     -10.059  11.511  66.047  1.00  0.00    -0.232 C  
BRANCH  14  17
HETATM   17  C   UNL     1     -10.478  14.407  65.001  1.00  0.00    -0.430 C  
BRANCH  17  18
HETATM   18  C   UNL     1     -10.904  15.780  65.552  1.00  0.00    -0.332 C  
BRANCH  18  19
HETATM   19  N   UNL     1     -10.279  16.066  66.818  1.00  0.00    -0.268 N  
HETATM   20  C   UNL     1     -10.817  15.729  68.077  1.00  0.00    -0.309 C  
HETATM   21  O   UNL     1     -11.866  15.152  68.307  1.00  0.00    -0.331 OA 
HETATM   22  N   UNL     1      -9.910  16.206  69.036  1.00  0.00    -0.233 NA 
HETATM   23  C   UNL     1      -8.854  16.837  68.384  1.00  0.00    -0.237 A  
HETATM   24  C   UNL     1      -7.747  17.453  68.916  1.00  0.00    -0.209 A  
HETATM   25  C   UNL     1      -6.847  18.020  68.008  1.00  0.00    -0.206 A  
HETATM   26  C   UNL     1      -7.079  17.962  66.617  1.00  0.00    -0.254 A  
HETATM   27  C   UNL     1      -8.213  17.327  66.100  1.00  0.00    -0.258 A  
HETATM   28  C   UNL     1      -9.084  16.767  67.009  1.00  0.00    -0.224 A  
ENDBRANCH  18  19
ENDBRANCH  17  18
ENDBRANCH  14  17
ENDBRANCH   7  11
TORSDOF 4
ENDMDL
MODEL      153
REMARK 921   NORMALIZED FREE ENERGY PREDICTED BY IDOCK:   -5.58 KCAL/MOL
REMARK 922        TOTAL FREE ENERGY PREDICTED BY IDOCK:   -7.50 KCAL/MOL
REMARK 923 INTER-LIGAND FREE ENERGY PREDICTED BY IDOCK:   -6.95 KCAL/MOL
REMARK 924 INTRA-LIGAND FREE ENERGY PREDICTED BY IDOCK:   -0.55 KCAL/MOL
REMARK 927      BINDING AFFINITY PREDICTED BY RF-SCORE:    0.00 PKD
ROOT
HETATM    1  F   UNL     1     -11.322   7.216  73.254  1.00  0.00    -0.289 F  
HETATM    2  C   UNL     1     -11.014   6.127  72.495  1.00  0.00    -0.259 C  
HETATM    3  C   UNL     1     -10.806   6.444  71.037  1.00  0.00    -0.314 A  
HETATM    4  F   UNL     1      -9.916   5.570  73.074  1.00  0.00    -0.172 F  
HETATM    5  F   UNL     1     -12.032   5.243  72.693  1.00  0.00    -0.313 F  
HETATM    6  C   UNL     1     -10.952   7.762  70.570  1.00  0.00    -0.251 A  
HETATM    7  C   UNL     1     -10.821   8.114  69.216  1.00  0.00    -0.050 A  
HETATM    8  C   UNL     1     -10.470   5.440  70.127  1.00  0.00    -0.361 A  
HETATM    9  C   UNL     1     -10.479   7.072  68.339  1.00  0.00    -0.231 A  
HETATM   10  C   UNL     1     -10.299   5.756  68.784  1.00  0.00    -0.289 A  
ENDROOT
BRANCH   7  11
HETATM   11  N   UNL     1     -10.959   9.444  68.814  1.00  0.00    -0.107 NA 
HETATM   12  C   UNL     1     -10.905  11.173  67.024  1.00  0.00    -0.284 C  
HETATM   13  C   UNL     1     -10.292   9.856  67.555  1.00  0.00    -0.236 C  
HETATM   14  N   UNL     1     -10.904  12.302  67.986  1.00  0.00    -0.211 NA 
HETATM   15  C   UNL     1     -11.578  11.822  69.219  1.00  0.00    -0.315 C  
HETATM   16  C   UNL     1     -11.003  10.517  69.829  1.00  0.00    -0.294 C  
BRANCH  14  17
HETATM   17  C   UNL     1      -9.544  12.789  68.291  1.00  0.00    -0.211 C  
BRANCH  17  18
HETATM   18  C   UNL     1      -8.849  13.484  67.106  1.00  0.00    -0.226 C  
BRANCH  18  19
HETATM   19  N   UNL     1      -8.287  14.755  67.484  1.00  0.00    -0.170 N  
HETATM   20  C   UNL     1      -6.914  15.000  67.688  1.00  0.00    -0.182 C  
HETATM   21  O   UNL     1      -5.993  14.209  67.578  1.00  0.00    -0.337 OA 
HETATM   22  N   UNL     1      -6.804  16.348  68.065  1.00  0.00    -0.132 NA 
HETATM   23  C   UNL     1      -8.077  16.908  68.112  1.00  0.00    -0.201 A  
HETATM   24  C   UNL     1      -8.452  18.190  68.436  1.00  0.00    -0.311 A  
HETATM   25  C   UNL     1      -9.823  18.470  68.410  1.00  0.00    -0.404 A  
HETATM   26  C   UNL     1     -10.764  17.474  68.073  1.00  0.00    -0.342 A  
HETATM   27  C   UNL     1     -10.357  16.176  67.745  1.00  0.00    -0.283 A  
HETATM   28  C   UNL     1      -9.003  15.922  67.767  1.00  0.00    -0.176 A  
ENDBRANCH  18  19
ENDBRANCH  17  18
ENDBRANCH  14  17
ENDBRANCH   7  11
TORSDOF 4
ENDMDL
MODEL      154
REMARK 921   NORMALIZED FREE ENERGY PREDICTED BY IDOCK:   -5.57 KCAL/MOL
REMARK 922        TOTAL FREE ENERGY PREDICTED BY IDOCK:   -7.50 KCAL/MOL
REMARK 923 INTER-LIGAND FREE ENERGY PREDICTED BY IDOCK:   -6.56 KCAL/MOL
REMARK 924 INTRA-LIGAND FREE ENERGY PREDICTED BY IDOCK:   -0.94 KCAL/MOL
REMARK 927      BINDING AFFINITY PREDICTED BY RF-SCORE:    0.00 PKD
ROOT
HETATM    1  F   UNL     1     -10.094  10.377  64.243  1.00  0.00    -0.373 F  
HETATM    2  C   UNL     1      -8.950   9.751  63.847  1.00  0.00    -0.243 C  
HETATM    3  C   UNL     1      -8.326   8.893  64.917  1.00  0.00    -0.181 A  
HETATM    4  F   UNL     1      -9.281   9.044  62.732  1.00  0.00    -0.198 F  
HETATM    5  F   UNL     1      -8.115  10.743  63.427  1.00  0.00    -0.141 F  
HETATM    6  C   UNL     1      -8.916   8.809  66.191  1.00  0.00    -0.225 A  
HETATM    7  C   UNL     1      -8.358   8.067  67.245  1.00  0.00    -0.122 A  
HETATM    8  C   UNL     1      -7.158   8.172  64.667  1.00  0.00    -0.080 A  
HETATM    9  C   UNL     1      -7.186   7.356  66.946  1.00  0.00    -0.088 A  
HETATM   10  C   UNL     1      -6.595   7.399  65.676  1.00  0.00    -0.045 A  
ENDROOT
BRANCH   7  11
HETATM   11  N   UNL     1      -9.000   8.007  68.485  1.00  0.00    -0.134 NA 
HETATM   12  C   UNL     1     -11.062   7.642  69.831  1.00  0.00    -0.150 C  
HETATM   13  C   UNL     1     -10.472   8.186  68.508  1.00  0.00    -0.162 C  
HETATM   14  N   UNL     1     -10.467   8.208  71.065  1.00  0.00    -0.199 NA 
HETATM   15  C   UNL     1      -9.000   8.000  70.975  1.00  0.00    -0.144 C  
HETATM   16  C   UNL     1      -8.328   8.542  69.686  1.00  0.00    -0.121 C  
BRANCH  14  17
HETATM   17  C   UNL     1     -10.782   9.640  71.246  1.00  0.00    -0.247 C  
BRANCH  17  18
HETATM   18  C   UNL     1     -12.174  10.043  70.727  1.00  0.00    -0.315 C  
BRANCH  18  19
HETATM   19  N   UNL     1     -12.229  11.437  70.371  1.00  0.00    -0.357 N  
HETATM   20  C   UNL     1     -12.729  12.462  71.199  1.00  0.00    -0.240 C  
HETATM   21  O   UNL     1     -13.180  12.354  72.326  1.00  0.00    -0.473 OA 
HETATM   22  N   UNL     1     -12.621  13.653  70.464  1.00  0.00    -0.299 NA 
HETATM   23  C   UNL     1     -12.091  13.364  69.210  1.00  0.00    -0.264 A  
HETATM   24  C   UNL     1     -11.818  14.212  68.164  1.00  0.00    -0.387 A  
HETATM   25  C   UNL     1     -11.293  13.631  67.005  1.00  0.00    -0.344 A  
HETATM   26  C   UNL     1     -11.066  12.240  66.924  1.00  0.00    -0.341 A  
HETATM   27  C   UNL     1     -11.350  11.398  68.004  1.00  0.00    -0.372 A  
HETATM   28  C   UNL     1     -11.858  11.989  69.140  1.00  0.00    -0.311 A  
ENDBRANCH  18  19
ENDBRANCH  17  18
ENDBRANCH  14  17
ENDBRANCH   7  11
TORSDOF 4
ENDMDL
MODEL      155
REMARK 921   NORMALIZED FREE ENERGY PREDICTED BY IDOCK:   -5.56 KCAL/MOL
REMARK 922        TOTAL FREE ENERGY PREDICTED BY IDOCK:   -7.49 KCAL/MOL
REMARK 923 INTER-LIGAND FREE ENERGY PREDICTED BY IDOCK:   -6.86 KCAL/MOL
REMARK 924 INTRA-LIGAND FREE ENERGY PREDICTED BY IDOCK:   -0.63 KCAL/MOL
REMARK 927      BINDING AFFINITY PREDICTED BY RF-SCORE:    0.00 PKD
ROOT
HETATM    1  F   UNL     1      -6.094  18.102  68.832  1.00  0.00    -0.182 F  
HETATM    2  C   UNL     1      -6.848  19.226  68.675  1.00  0.00    -0.301 C  
HETATM    3  C   UNL     1      -8.248  18.955  68.188  1.00  0.00    -0.343 A  
HETATM    4  F   UNL     1      -6.824  19.860  69.879  1.00  0.00    -0.375 F  
HETATM    5  F   UNL     1      -6.147  20.022  67.820  1.00  0.00    -0.214 F  
HETATM    6  C   UNL     1      -8.661  17.638  67.921  1.00  0.00    -0.245 A  
HETATM    7  C   UNL     1      -9.935  17.323  67.418  1.00  0.00    -0.278 A  
HETATM    8  C   UNL     1      -9.153  19.999  67.991  1.00  0.00    -0.348 A  
HETATM    9  C   UNL     1     -10.812  18.404  67.239  1.00  0.00    -0.296 A  
HETATM   10  C   UNL     1     -10.433  19.722  67.526  1.00  0.00    -0.569 A  
ENDROOT
BRANCH   7  11
HETATM   11  N   UNL     1     -10.296  15.992  67.190  1.00  0.00    -0.290 NA 
HETATM   12  C   UNL     1     -12.019  14.195  67.187  1.00  0.00    -0.426 C  
HETATM   13  C   UNL     1     -11.503  15.478  67.882  1.00  0.00    -0.272 C  
HETATM   14  N   UNL     1     -11.019  13.110  67.046  1.00  0.00    -0.265 NA 
HETATM   15  C   UNL     1      -9.841  13.691  66.354  1.00  0.00    -0.296 C  
HETATM   16  C   UNL     1      -9.248  14.969  67.005  1.00  0.00    -0.230 C  
BRANCH  14  17
HETATM   17  C   UNL     1     -10.625  12.525  68.343  1.00  0.00    -0.242 C  
BRANCH  17  18
HETATM   18  C   UNL     1     -10.325  11.016  68.283  1.00  0.00    -0.178 C  
BRANCH  18  19
HETATM   19  N   UNL     1      -9.051  10.748  67.667  1.00  0.00    -0.146 N  
HETATM   20  C   UNL     1      -7.800  10.927  68.292  1.00  0.00    -0.118 C  
HETATM   21  O   UNL     1      -7.584  11.322  69.425  1.00  0.00    -0.072 OA 
HETATM   22  N   UNL     1      -6.829  10.575  67.342  1.00  0.00    -0.075 NA 
HETATM   23  C   UNL     1      -7.465  10.211  66.159  1.00  0.00    -0.115 A  
HETATM   24  C   UNL     1      -6.918   9.802  64.967  1.00  0.00    -0.119 A  
HETATM   25  C   UNL     1      -7.813   9.509  63.932  1.00  0.00    -0.133 A  
HETATM   26  C   UNL     1      -9.207   9.637  64.115  1.00  0.00    -0.218 A  
HETATM   27  C   UNL     1      -9.740  10.053  65.340  1.00  0.00    -0.368 A  
HETATM   28  C   UNL     1      -8.843  10.329  66.349  1.00  0.00    -0.145 A  
ENDBRANCH  18  19
ENDBRANCH  17  18
ENDBRANCH  14  17
ENDBRANCH   7  11
TORSDOF 4
ENDMDL
MODEL      156
REMARK 921   NORMALIZED FREE ENERGY PREDICTED BY IDOCK:   -5.56 KCAL/MOL
REMARK 922        TOTAL FREE ENERGY PREDICTED BY IDOCK:   -7.48 KCAL/MOL
REMARK 923 INTER-LIGAND FREE ENERGY PREDICTED BY IDOCK:   -6.85 KCAL/MOL
REMARK 924 INTRA-LIGAND FREE ENERGY PREDICTED BY IDOCK:   -0.62 KCAL/MOL
REMARK 927      BINDING AFFINITY PREDICTED BY RF-SCORE:    0.00 PKD
ROOT
HETATM    1  F   UNL     1     -11.344   5.991  68.061  1.00  0.00    -0.372 F  
HETATM    2  C   UNL     1     -10.107   5.430  68.173  1.00  0.00    -0.166 C  
HETATM    3  C   UNL     1      -8.978   6.407  67.973  1.00  0.00    -0.115 A  
HETATM    4  F   UNL     1     -10.079   4.837  69.397  1.00  0.00    -0.262 F  
HETATM    5  F   UNL     1     -10.081   4.415  67.265  1.00  0.00    -0.222 F  
HETATM    6  C   UNL     1      -9.250   7.754  67.680  1.00  0.00    -0.146 A  
HETATM    7  C   UNL     1      -8.244   8.703  67.434  1.00  0.00    -0.105 A  
HETATM    8  C   UNL     1      -7.648   5.994  68.070  1.00  0.00    -0.093 A  
HETATM    9  C   UNL     1      -6.922   8.243  67.546  1.00  0.00    -0.075 A  
HETATM   10  C   UNL     1      -6.624   6.911  67.866  1.00  0.00    -0.059 A  
ENDROOT
BRANCH   7  11
HETATM   11  N   UNL     1      -8.575  10.034  67.166  1.00  0.00    -0.128 NA 
HETATM   12  C   UNL     1      -7.915  12.427  66.991  1.00  0.00    -0.106 C  
HETATM   13  C   UNL     1      -7.702  11.089  67.736  1.00  0.00    -0.108 C  
HETATM   14  N   UNL     1      -9.317  12.906  66.942  1.00  0.00    -0.234 NA 
HETATM   15  C   UNL     1     -10.132  11.806  66.369  1.00  0.00    -0.210 C  
HETATM   16  C   UNL     1      -9.994  10.434  67.080  1.00  0.00    -0.206 C  
BRANCH  14  17
HETATM   17  C   UNL     1      -9.831  13.300  68.270  1.00  0.00    -0.231 C  
BRANCH  17  18
HETATM   18  C   UNL     1     -11.332  13.643  68.281  1.00  0.00    -0.289 C  
BRANCH  18  19
HETATM   19  N   UNL     1     -11.963  13.245  69.512  1.00  0.00    -0.317 N  
HETATM   20  C   UNL     1     -12.369  11.932  69.823  1.00  0.00    -0.071 C  
HETATM   21  O   UNL     1     -12.254  10.935  69.132  1.00  0.00    -0.421 OA 
HETATM   22  N   UNL     1     -12.954  11.989  71.098  1.00  0.00    -0.237 NA 
HETATM   23  C   UNL     1     -12.928  13.306  71.547  1.00  0.00    -0.337 A  
HETATM   24  C   UNL     1     -13.394  13.831  72.729  1.00  0.00    -0.519 A  
HETATM   25  C   UNL     1     -13.243  15.211  72.906  1.00  0.00    -0.600 A  
HETATM   26  C   UNL     1     -12.647  16.013  71.910  1.00  0.00    -0.433 A  
HETATM   27  C   UNL     1     -12.179  15.455  70.716  1.00  0.00    -0.430 A  
HETATM   28  C   UNL     1     -12.329  14.094  70.563  1.00  0.00    -0.364 A  
ENDBRANCH  18  19
ENDBRANCH  17  18
ENDBRANCH  14  17
ENDBRANCH   7  11
TORSDOF 4
ENDMDL
MODEL      157
REMARK 921   NORMALIZED FREE ENERGY PREDICTED BY IDOCK:   -5.53 KCAL/MOL
REMARK 922        TOTAL FREE ENERGY PREDICTED BY IDOCK:   -7.44 KCAL/MOL
REMARK 923 INTER-LIGAND FREE ENERGY PREDICTED BY IDOCK:   -6.80 KCAL/MOL
REMARK 924 INTRA-LIGAND FREE ENERGY PREDICTED BY IDOCK:   -0.64 KCAL/MOL
REMARK 927      BINDING AFFINITY PREDICTED BY RF-SCORE:    0.00 PKD
ROOT
HETATM    1  F   UNL     1      -7.445   9.259  69.223  1.00  0.00    -0.068 F  
HETATM    2  C   UNL     1      -8.215   8.786  70.243  1.00  0.00    -0.119 C  
HETATM    3  C   UNL     1      -9.575   9.428  70.325  1.00  0.00    -0.294 A  
HETATM    4  F   UNL     1      -8.279   7.438  70.065  1.00  0.00    -0.120 F  
HETATM    5  F   UNL     1      -7.482   8.980  71.376  1.00  0.00    -0.112 F  
HETATM    6  C   UNL     1      -9.941  10.431  69.410  1.00  0.00    -0.240 A  
HETATM    7  C   UNL     1     -11.173  11.103  69.462  1.00  0.00    -0.277 A  
HETATM    8  C   UNL     1     -10.491   9.044  71.306  1.00  0.00    -0.381 A  
HETATM    9  C   UNL     1     -12.063  10.681  70.463  1.00  0.00    -0.448 A  
HETATM   10  C   UNL     1     -11.734   9.663  71.369  1.00  0.00    -0.478 A  
ENDROOT
BRANCH   7  11
HETATM   11  N   UNL     1     -11.489  12.079  68.514  1.00  0.00    -0.268 NA 
HETATM   12  C   UNL     1     -11.598  12.825  66.142  1.00  0.00    -0.379 C  
HETATM   13  C   UNL     1     -10.823  11.994  67.191  1.00  0.00    -0.253 C  
HETATM   14  N   UNL     1     -11.822  14.246  66.502  1.00  0.00    -0.402 NA 
HETATM   15  C   UNL     1     -12.483  14.258  67.832  1.00  0.00     0.237 C  
HETATM   16  C   UNL     1     -11.751  13.466  68.947  1.00  0.00    -0.328 C  
BRANCH  14  17
HETATM   17  C   UNL     1     -10.570  15.030  66.535  1.00  0.00    -0.305 C  
BRANCH  17  18
HETATM   18  C   UNL     1     -10.688  16.361  67.298  1.00  0.00    -0.257 C  
BRANCH  18  19
HETATM   19  N   UNL     1      -9.405  16.988  67.483  1.00  0.00    -0.231 N  
HETATM   20  C   UNL     1      -8.970  18.147  66.809  1.00  0.00    -0.282 C  
HETATM   21  O   UNL     1      -9.584  18.804  65.986  1.00  0.00    -0.477 OA 
HETATM   22  N   UNL     1      -7.665  18.402  67.261  1.00  0.00    -0.221 NA 
HETATM   23  C   UNL     1      -7.302  17.413  68.170  1.00  0.00    -0.205 A  
HETATM   24  C   UNL     1      -6.122  17.255  68.857  1.00  0.00    -0.182 A  
HETATM   25  C   UNL     1      -6.033  16.145  69.705  1.00  0.00    -0.177 A  
HETATM   26  C   UNL     1      -7.107  15.238  69.834  1.00  0.00    -0.102 A  
HETATM   27  C   UNL     1      -8.298  15.422  69.125  1.00  0.00    -0.242 A  
HETATM   28  C   UNL     1      -8.370  16.524  68.302  1.00  0.00    -0.190 A  
ENDBRANCH  18  19
ENDBRANCH  17  18
ENDBRANCH  14  17
ENDBRANCH   7  11
TORSDOF 4
ENDMDL
MODEL      158
REMARK 921   NORMALIZED FREE ENERGY PREDICTED BY IDOCK:   -5.52 KCAL/MOL
REMARK 922        TOTAL FREE ENERGY PREDICTED BY IDOCK:   -7.43 KCAL/MOL
REMARK 923 INTER-LIGAND FREE ENERGY PREDICTED BY IDOCK:   -6.73 KCAL/MOL
REMARK 924 INTRA-LIGAND FREE ENERGY PREDICTED BY IDOCK:   -0.70 KCAL/MOL
REMARK 927      BINDING AFFINITY PREDICTED BY RF-SCORE:    0.00 PKD
ROOT
HETATM    1  F   UNL     1      -9.880   9.941  68.332  1.00  0.00    -0.146 F  
HETATM    2  C   UNL     1     -10.824  10.849  68.712  1.00  0.00    -0.209 C  
HETATM    3  C   UNL     1     -11.510  10.505  70.008  1.00  0.00    -0.393 A  
HETATM    4  F   UNL     1     -10.186  12.050  68.757  1.00  0.00    -0.210 F  
HETATM    5  F   UNL     1     -11.697  10.928  67.669  1.00  0.00    -0.358 F  
HETATM    6  C   UNL     1     -11.170   9.329  70.699  1.00  0.00    -0.333 A  
HETATM    7  C   UNL     1     -11.806   8.926  71.885  1.00  0.00    -0.370 A  
HETATM    8  C   UNL     1     -12.491  11.341  70.543  1.00  0.00    -0.398 A  
HETATM    9  C   UNL     1     -12.784   9.800  72.387  1.00  0.00    -0.214 A  
HETATM   10  C   UNL     1     -13.120  10.993  71.733  1.00  0.00    -0.554 A  
ENDROOT
BRANCH   7  11
HETATM   11  N   UNL     1     -11.413   7.755  72.538  1.00  0.00    -0.355 NA 
HETATM   12  C   UNL     1      -9.999   6.599  74.229  1.00  0.00    -0.345 C  
HETATM   13  C   UNL     1     -10.083   7.746  73.193  1.00  0.00    -0.327 C  
HETATM   14  N   UNL     1     -10.308   5.249  73.700  1.00  0.00    -0.209 NA 
HETATM   15  C   UNL     1     -11.643   5.331  73.056  1.00  0.00    -0.217 C  
HETATM   16  C   UNL     1     -11.800   6.442  71.985  1.00  0.00    -0.333 C  
BRANCH  14  17
HETATM   17  C   UNL     1      -9.295   4.766  72.741  1.00  0.00    -0.128 C  
BRANCH  17  18
HETATM   18  C   UNL     1      -9.816   3.688  71.773  1.00  0.00    -0.165 C  
BRANCH  18  19
HETATM   19  N   UNL     1      -9.175   3.770  70.486  1.00  0.00    -0.124 N  
HETATM   20  C   UNL     1      -8.000   3.080  70.125  1.00  0.00    -0.042 C  
HETATM   21  O   UNL     1      -7.346   2.315  70.812  1.00  0.00    -0.033 OA 
HETATM   22  N   UNL     1      -7.709   3.458  68.804  1.00  0.00    -0.052 NA 
HETATM   23  C   UNL     1      -8.667   4.372  68.375  1.00  0.00    -0.100 A  
HETATM   24  C   UNL     1      -8.777   5.010  67.163  1.00  0.00    -0.103 A  
HETATM   25  C   UNL     1      -9.849   5.898  67.016  1.00  0.00    -0.173 A  
HETATM   26  C   UNL     1     -10.761   6.122  68.071  1.00  0.00    -0.370 A  
HETATM   27  C   UNL     1     -10.627   5.458  69.294  1.00  0.00    -0.271 A  
HETATM   28  C   UNL     1      -9.571   4.581  69.417  1.00  0.00    -0.194 A  
ENDBRANCH  18  19
ENDBRANCH  17  18
ENDBRANCH  14  17
ENDBRANCH   7  11
TORSDOF 4
ENDMDL
MODEL      159
REMARK 921   NORMALIZED FREE ENERGY PREDICTED BY IDOCK:   -5.52 KCAL/MOL
REMARK 922        TOTAL FREE ENERGY PREDICTED BY IDOCK:   -7.43 KCAL/MOL
REMARK 923 INTER-LIGAND FREE ENERGY PREDICTED BY IDOCK:   -7.01 KCAL/MOL
REMARK 924 INTRA-LIGAND FREE ENERGY PREDICTED BY IDOCK:   -0.41 KCAL/MOL
REMARK 927      BINDING AFFINITY PREDICTED BY RF-SCORE:    0.00 PKD
ROOT
HETATM    1  F   UNL     1     -13.105  13.823  71.562  1.00  0.00    -0.383 F  
HETATM    2  C   UNL     1     -12.463  15.020  71.673  1.00  0.00    -0.339 C  
HETATM    3  C   UNL     1     -11.736  15.438  70.421  1.00  0.00    -0.349 A  
HETATM    4  F   UNL     1     -13.414  15.917  72.053  1.00  0.00    -0.513 F  
HETATM    5  F   UNL     1     -11.625  14.889  72.739  1.00  0.00    -0.421 F  
HETATM    6  C   UNL     1     -11.747  14.608  69.286  1.00  0.00    -0.348 A  
HETATM    7  C   UNL     1     -11.049  14.916  68.106  1.00  0.00    -0.283 A  
HETATM    8  C   UNL     1     -11.041  16.647  70.365  1.00  0.00    -0.010 A  
HETATM    9  C   UNL     1     -10.367  16.142  68.095  1.00  0.00    -0.269 A  
HETATM   10  C   UNL     1     -10.366  17.001  69.203  1.00  0.00    -0.313 A  
ENDROOT
BRANCH   7  11
HETATM   11  N   UNL     1     -11.112  14.060  67.003  1.00  0.00    -0.298 NA 
HETATM   12  C   UNL     1     -11.802  11.894  65.990  1.00  0.00    -0.022 C  
HETATM   13  C   UNL     1     -11.298  12.613  67.264  1.00  0.00    -0.318 C  
HETATM   14  N   UNL     1     -10.960  12.083  64.785  1.00  0.00    -0.301 NA 
HETATM   15  C   UNL     1     -10.811  13.547  64.585  1.00  0.00    -0.405 C  
HETATM   16  C   UNL     1     -10.284  14.337  65.812  1.00  0.00    -0.334 C  
BRANCH  14  17
HETATM   17  C   UNL     1      -9.638  11.436  64.904  1.00  0.00    -0.215 C  
BRANCH  17  18
HETATM   18  C   UNL     1      -9.707   9.922  65.176  1.00  0.00    -0.306 C  
BRANCH  18  19
HETATM   19  N   UNL     1      -9.387   9.608  66.544  1.00  0.00    -0.157 N  
HETATM   20  C   UNL     1      -9.995   8.585  67.299  1.00  0.00    -0.225 C  
HETATM   21  O   UNL     1     -10.862   7.808  66.938  1.00  0.00    -0.311 OA 
HETATM   22  N   UNL     1      -9.413   8.636  68.576  1.00  0.00    -0.141 NA 
HETATM   23  C   UNL     1      -8.491   9.678  68.610  1.00  0.00    -0.119 A  
HETATM   24  C   UNL     1      -7.695  10.101  69.647  1.00  0.00    -0.167 A  
HETATM   25  C   UNL     1      -6.862  11.197  69.393  1.00  0.00    -0.125 A  
HETATM   26  C   UNL     1      -6.854  11.830  68.132  1.00  0.00    -0.066 A  
HETATM   27  C   UNL     1      -7.673  11.379  67.091  1.00  0.00    -0.152 A  
HETATM   28  C   UNL     1      -8.480  10.294  67.357  1.00  0.00    -0.125 A  
ENDBRANCH  18  19
ENDBRANCH  17  18
ENDBRANCH  14  17
ENDBRANCH   7  11
TORSDOF 4
ENDMDL
MODEL      160
REMARK 921   NORMALIZED FREE ENERGY PREDICTED BY IDOCK:   -5.51 KCAL/MOL
REMARK 922        TOTAL FREE ENERGY PREDICTED BY IDOCK:   -7.42 KCAL/MOL
REMARK 923 INTER-LIGAND FREE ENERGY PREDICTED BY IDOCK:   -6.82 KCAL/MOL
REMARK 924 INTRA-LIGAND FREE ENERGY PREDICTED BY IDOCK:   -0.60 KCAL/MOL
REMARK 927      BINDING AFFINITY PREDICTED BY RF-SCORE:    0.00 PKD
ROOT
HETATM    1  F   UNL     1     -11.269  19.020  67.228  1.00  0.00    -0.498 F  
HETATM    2  C   UNL     1     -10.179  19.742  67.614  1.00  0.00    -0.434 C  
HETATM    3  C   UNL     1      -8.963  18.899  67.899  1.00  0.00    -0.328 A  
HETATM    4  F   UNL     1      -9.967  20.652  66.625  1.00  0.00    -0.562 F  
HETATM    5  F   UNL     1     -10.579  20.458  68.702  1.00  0.00    -0.485 F  
HETATM    6  C   UNL     1      -9.027  17.500  67.776  1.00  0.00    -0.245 A  
HETATM    7  C   UNL     1      -7.944  16.655  68.075  1.00  0.00    -0.171 A  
HETATM    8  C   UNL     1      -7.759  19.487  68.292  1.00  0.00    -0.356 A  
HETATM    9  C   UNL     1      -6.754  17.291  68.462  1.00  0.00    -0.185 A  
HETATM   10  C   UNL     1      -6.657  18.686  68.564  1.00  0.00    -0.249 A  
ENDROOT
BRANCH   7  11
HETATM   11  N   UNL     1      -8.061  15.272  67.916  1.00  0.00    -0.133 NA 
HETATM   12  C   UNL     1      -9.058  13.312  66.750  1.00  0.00    -0.210 C  
HETATM   13  C   UNL     1      -9.285  14.756  67.256  1.00  0.00    -0.203 C  
HETATM   14  N   UNL     1      -8.596  12.349  67.778  1.00  0.00    -0.162 NA 
HETATM   15  C   UNL     1      -7.377  12.927  68.399  1.00  0.00    -0.119 C  
HETATM   16  C   UNL     1      -7.532  14.367  68.956  1.00  0.00    -0.119 C  
BRANCH  14  17
HETATM   17  C   UNL     1      -9.623  12.072  68.803  1.00  0.00     0.016 C  
BRANCH  17  18
HETATM   18  C   UNL     1     -10.585  10.930  68.431  1.00  0.00    -0.194 C  
BRANCH  18  19
HETATM   19  N   UNL     1     -10.914  10.114  69.571  1.00  0.00    -0.242 N  
HETATM   20  C   UNL     1     -11.994  10.349  70.445  1.00  0.00    -0.320 C  
HETATM   21  O   UNL     1     -12.815  11.248  70.389  1.00  0.00    -0.167 OA 
HETATM   22  N   UNL     1     -11.939   9.342  71.422  1.00  0.00    -0.344 NA 
HETATM   23  C   UNL     1     -10.842   8.525  71.167  1.00  0.00    -0.243 A  
HETATM   24  C   UNL     1     -10.396   7.426  71.860  1.00  0.00    -0.218 A  
HETATM   25  C   UNL     1      -9.243   6.801  71.373  1.00  0.00    -0.153 A  
HETATM   26  C   UNL     1      -8.576   7.289  70.228  1.00  0.00    -0.142 A  
HETATM   27  C   UNL     1      -9.051   8.409  69.539  1.00  0.00    -0.153 A  
HETATM   28  C   UNL     1     -10.193   9.006  70.028  1.00  0.00    -0.203 A  
ENDBRANCH  18  19
ENDBRANCH  17  18
ENDBRANCH  14  17
ENDBRANCH   7  11
TORSDOF 4
ENDMDL
MODEL      161
REMARK 921   NORMALIZED FREE ENERGY PREDICTED BY IDOCK:   -5.51 KCAL/MOL
REMARK 922        TOTAL FREE ENERGY PREDICTED BY IDOCK:   -7.42 KCAL/MOL
REMARK 923 INTER-LIGAND FREE ENERGY PREDICTED BY IDOCK:   -6.79 KCAL/MOL
REMARK 924 INTRA-LIGAND FREE ENERGY PREDICTED BY IDOCK:   -0.63 KCAL/MOL
REMARK 927      BINDING AFFINITY PREDICTED BY RF-SCORE:    0.00 PKD
ROOT
HETATM    1  F   UNL     1      -7.841  19.740  70.054  1.00  0.00    -0.088 F  
HETATM    2  C   UNL     1      -7.145  19.505  68.906  1.00  0.00    -0.359 C  
HETATM    3  C   UNL     1      -7.635  18.307  68.134  1.00  0.00    -0.278 A  
HETATM    4  F   UNL     1      -7.216  20.659  68.187  1.00  0.00    -0.307 F  
HETATM    5  F   UNL     1      -5.843  19.380  69.285  1.00  0.00    -0.234 F  
HETATM    6  C   UNL     1      -8.704  17.538  68.626  1.00  0.00    -0.258 A  
HETATM    7  C   UNL     1      -9.175  16.382  67.980  1.00  0.00    -0.204 A  
HETATM    8  C   UNL     1      -7.038  17.940  66.927  1.00  0.00    -0.212 A  
HETATM    9  C   UNL     1      -8.547  16.053  66.769  1.00  0.00    -0.292 A  
HETATM   10  C   UNL     1      -7.499  16.822  66.243  1.00  0.00    -0.238 A  
ENDROOT
BRANCH   7  11
HETATM   11  N   UNL     1     -10.253  15.667  68.507  1.00  0.00    -0.208 NA 
HETATM   12  C   UNL     1     -11.831  15.210  70.377  1.00  0.00    -0.307 C  
HETATM   13  C   UNL     1     -10.392  15.616  69.982  1.00  0.00    -0.298 C  
HETATM   14  N   UNL     1     -12.313  13.939  69.783  1.00  0.00    -0.316 NA 
HETATM   15  C   UNL     1     -12.142  14.055  68.312  1.00  0.00    -0.277 C  
HETATM   16  C   UNL     1     -10.715  14.436  67.835  1.00  0.00    -0.244 C  
BRANCH  14  17
HETATM   17  C   UNL     1     -11.592  12.759  70.300  1.00  0.00     0.035 C  
BRANCH  17  18
HETATM   18  C   UNL     1     -12.003  11.434  69.633  1.00  0.00    -0.348 C  
BRANCH  18  19
HETATM   19  N   UNL     1     -11.406  10.297  70.284  1.00  0.00    -0.301 N  
HETATM   20  C   UNL     1     -11.847   9.742  71.502  1.00  0.00    -0.399 C  
HETATM   21  O   UNL     1     -12.783  10.109  72.191  1.00  0.00    -0.360 OA 
HETATM   22  N   UNL     1     -10.981   8.675  71.788  1.00  0.00    -0.300 NA 
HETATM   23  C   UNL     1     -10.020   8.592  70.784  1.00  0.00    -0.197 A  
HETATM   24  C   UNL     1      -8.974   7.711  70.652  1.00  0.00    -0.153 A  
HETATM   25  C   UNL     1      -8.152   7.876  69.532  1.00  0.00    -0.121 A  
HETATM   26  C   UNL     1      -8.392   8.904  68.595  1.00  0.00    -0.124 A  
HETATM   27  C   UNL     1      -9.465   9.787  68.751  1.00  0.00    -0.154 A  
HETATM   28  C   UNL     1     -10.269   9.604  69.855  1.00  0.00    -0.245 A  
ENDBRANCH  18  19
ENDBRANCH  17  18
ENDBRANCH  14  17
ENDBRANCH   7  11
TORSDOF 4
ENDMDL
MODEL      162
REMARK 921   NORMALIZED FREE ENERGY PREDICTED BY IDOCK:   -5.50 KCAL/MOL
REMARK 922        TOTAL FREE ENERGY PREDICTED BY IDOCK:   -7.41 KCAL/MOL
REMARK 923 INTER-LIGAND FREE ENERGY PREDICTED BY IDOCK:   -6.50 KCAL/MOL
REMARK 924 INTRA-LIGAND FREE ENERGY PREDICTED BY IDOCK:   -0.90 KCAL/MOL
REMARK 927      BINDING AFFINITY PREDICTED BY RF-SCORE:    0.00 PKD
ROOT
HETATM    1  F   UNL     1     -12.228  12.192  64.963  1.00  0.00    -0.439 F  
HETATM    2  C   UNL     1     -12.186  13.544  64.794  1.00  0.00    -0.409 C  
HETATM    3  C   UNL     1     -10.979  14.195  65.417  1.00  0.00    -0.328 A  
HETATM    4  F   UNL     1     -12.261  13.752  63.451  1.00  0.00    -0.529 F  
HETATM    5  F   UNL     1     -13.355  14.015  65.311  1.00  0.00    -0.423 F  
HETATM    6  C   UNL     1     -10.035  13.419  66.112  1.00  0.00    -0.299 A  
HETATM    7  C   UNL     1      -8.916  13.972  66.758  1.00  0.00    -0.197 A  
HETATM    8  C   UNL     1     -10.779  15.573  65.321  1.00  0.00    -0.440 A  
HETATM    9  C   UNL     1      -8.754  15.360  66.630  1.00  0.00    -0.332 A  
HETATM   10  C   UNL     1      -9.665  16.152  65.918  1.00  0.00    -0.374 A  
ENDROOT
BRANCH   7  11
HETATM   11  N   UNL     1      -8.001  13.148  67.418  1.00  0.00    -0.177 NA 
HETATM   12  C   UNL     1      -6.750  11.001  67.569  1.00  0.00    -0.072 C  
HETATM   13  C   UNL     1      -8.071  11.690  67.153  1.00  0.00    -0.166 C  
HETATM   14  N   UNL     1      -6.330  11.237  68.971  1.00  0.00    -0.055 NA 
HETATM   15  C   UNL     1      -6.285  12.708  69.168  1.00  0.00    -0.098 C  
HETATM   16  C   UNL     1      -7.585  13.471  68.797  1.00  0.00    -0.066 C  
BRANCH  14  17
HETATM   17  C   UNL     1      -7.236  10.606  69.952  1.00  0.00    -0.102 C  
BRANCH  17  18
HETATM   18  C   UNL     1      -7.231   9.068  69.907  1.00  0.00    -0.058 C  
BRANCH  18  19
HETATM   19  N   UNL     1      -8.540   8.535  69.632  1.00  0.00    -0.129 N  
HETATM   20  C   UNL     1      -9.638   8.601  70.514  1.00  0.00    -0.181 C  
HETATM   21  O   UNL     1      -9.673   9.107  71.622  1.00  0.00    -0.292 OA 
HETATM   22  N   UNL     1     -10.702   7.947  69.871  1.00  0.00    -0.247 NA 
HETATM   23  C   UNL     1     -10.262   7.475  68.638  1.00  0.00    -0.197 A  
HETATM   24  C   UNL     1     -10.952   6.774  67.678  1.00  0.00    -0.346 A  
HETATM   25  C   UNL     1     -10.240   6.415  66.529  1.00  0.00    -0.147 A  
HETATM   26  C   UNL     1      -8.879   6.755  66.377  1.00  0.00    -0.153 A  
HETATM   27  C   UNL     1      -8.198   7.470  67.369  1.00  0.00    -0.116 A  
HETATM   28  C   UNL     1      -8.918   7.823  68.489  1.00  0.00    -0.133 A  
ENDBRANCH  18  19
ENDBRANCH  17  18
ENDBRANCH  14  17
ENDBRANCH   7  11
TORSDOF 4
ENDMDL
MODEL      163
REMARK 921   NORMALIZED FREE ENERGY PREDICTED BY IDOCK:   -5.49 KCAL/MOL
REMARK 922        TOTAL FREE ENERGY PREDICTED BY IDOCK:   -7.39 KCAL/MOL
REMARK 923 INTER-LIGAND FREE ENERGY PREDICTED BY IDOCK:   -6.69 KCAL/MOL
REMARK 924 INTRA-LIGAND FREE ENERGY PREDICTED BY IDOCK:   -0.70 KCAL/MOL
REMARK 927      BINDING AFFINITY PREDICTED BY RF-SCORE:    0.00 PKD
ROOT
HETATM    1  F   UNL     1      -9.092  17.011  68.030  1.00  0.00    -0.219 F  
HETATM    2  C   UNL     1      -9.815  17.112  66.879  1.00  0.00    -0.285 C  
HETATM    3  C   UNL     1     -10.324  15.790  66.364  1.00  0.00    -0.306 A  
HETATM    4  F   UNL     1     -10.818  17.993  67.148  1.00  0.00    -0.373 F  
HETATM    5  F   UNL     1      -8.998  17.736  65.986  1.00  0.00    -0.247 F  
HETATM    6  C   UNL     1     -10.023  14.601  67.050  1.00  0.00    -0.246 A  
HETATM    7  C   UNL     1     -10.424  13.333  66.596  1.00  0.00    -0.279 A  
HETATM    8  C   UNL     1     -11.095  15.723  65.203  1.00  0.00    -0.332 A  
HETATM    9  C   UNL     1     -11.200  13.315  65.426  1.00  0.00    -0.306 A  
HETATM   10  C   UNL     1     -11.539  14.490  64.741  1.00  0.00    -0.414 A  
ENDROOT
BRANCH   7  11
HETATM   11  N   UNL     1     -10.112  12.186  67.330  1.00  0.00    -0.202 NA 
HETATM   12  C   UNL     1     -10.492   9.779  67.835  1.00  0.00    -0.239 C  
HETATM   13  C   UNL     1     -11.137  11.118  67.408  1.00  0.00    -0.307 C  
HETATM   14  N   UNL     1      -9.717   9.826  69.098  1.00  0.00    -0.175 NA 
HETATM   15  C   UNL     1      -8.717  10.914  68.954  1.00  0.00    -0.140 C  
HETATM   16  C   UNL     1      -9.291  12.298  68.552  1.00  0.00    -0.099 C  
BRANCH  14  17
HETATM   17  C   UNL     1     -10.571  10.055  70.282  1.00  0.00    -0.295 C  
BRANCH  17  18
HETATM   18  C   UNL     1     -11.345   8.808  70.744  1.00  0.00    -0.272 C  
BRANCH  18  19
HETATM   19  N   UNL     1     -10.474   7.677  70.933  1.00  0.00    -0.206 N  
HETATM   20  C   UNL     1     -10.349   6.597  70.036  1.00  0.00    -0.199 C  
HETATM   21  O   UNL     1     -10.930   6.438  68.976  1.00  0.00    -0.289 OA 
HETATM   22  N   UNL     1      -9.423   5.711  70.609  1.00  0.00    -0.161 NA 
HETATM   23  C   UNL     1      -9.008   6.223  71.835  1.00  0.00    -0.139 A  
HETATM   24  C   UNL     1      -8.120   5.697  72.742  1.00  0.00    -0.105 A  
HETATM   25  C   UNL     1      -7.903   6.435  73.911  1.00  0.00    -0.094 A  
HETATM   26  C   UNL     1      -8.575   7.656  74.137  1.00  0.00    -0.296 A  
HETATM   27  C   UNL     1      -9.473   8.172  73.198  1.00  0.00    -0.316 A  
HETATM   28  C   UNL     1      -9.667   7.435  72.050  1.00  0.00    -0.154 A  
ENDBRANCH  18  19
ENDBRANCH  17  18
ENDBRANCH  14  17
ENDBRANCH   7  11
TORSDOF 4
ENDMDL
MODEL      164
REMARK 921   NORMALIZED FREE ENERGY PREDICTED BY IDOCK:   -5.48 KCAL/MOL
REMARK 922        TOTAL FREE ENERGY PREDICTED BY IDOCK:   -7.39 KCAL/MOL
REMARK 923 INTER-LIGAND FREE ENERGY PREDICTED BY IDOCK:   -6.94 KCAL/MOL
REMARK 924 INTRA-LIGAND FREE ENERGY PREDICTED BY IDOCK:   -0.45 KCAL/MOL
REMARK 927      BINDING AFFINITY PREDICTED BY RF-SCORE:    0.00 PKD
ROOT
HETATM    1  F   UNL     1     -11.369  11.515  65.238  1.00  0.00    -0.336 F  
HETATM    2  C   UNL     1     -11.609  12.800  65.624  1.00  0.00    -0.370 C  
HETATM    3  C   UNL     1     -11.660  12.985  67.119  1.00  0.00    -0.411 A  
HETATM    4  F   UNL     1     -10.640  13.552  65.034  1.00  0.00    -0.299 F  
HETATM    5  F   UNL     1     -12.777  13.153  65.018  1.00  0.00    -0.467 F  
HETATM    6  C   UNL     1     -11.487  11.883  67.974  1.00  0.00    -0.389 A  
HETATM    7  C   UNL     1     -11.573  11.980  69.373  1.00  0.00    -0.330 A  
HETATM    8  C   UNL     1     -11.882  14.244  67.678  1.00  0.00    -0.420 A  
HETATM    9  C   UNL     1     -11.794  13.266  69.890  1.00  0.00    -0.380 A  
HETATM   10  C   UNL     1     -11.940  14.385  69.059  1.00  0.00    -0.342 A  
ENDROOT
BRANCH   7  11
HETATM   11  N   UNL     1     -11.373  10.852  70.174  1.00  0.00    -0.298 NA 
HETATM   12  C   UNL     1      -9.847   9.156  71.169  1.00  0.00    -0.301 C  
HETATM   13  C   UNL     1     -10.146  10.053  69.944  1.00  0.00    -0.246 C  
HETATM   14  N   UNL     1     -10.957   8.265  71.584  1.00  0.00    -0.250 NA 
HETATM   15  C   UNL     1     -12.150   9.125  71.791  1.00  0.00    -0.376 C  
HETATM   16  C   UNL     1     -12.530  10.037  70.595  1.00  0.00    -0.236 C  
BRANCH  14  17
HETATM   17  C   UNL     1     -11.242   7.209  70.591  1.00  0.00    -0.280 C  
BRANCH  17  18
HETATM   18  C   UNL     1     -10.079   6.224  70.377  1.00  0.00    -0.185 C  
BRANCH  18  19
HETATM   19  N   UNL     1      -9.353   6.506  69.166  1.00  0.00    -0.134 N  
HETATM   20  C   UNL     1      -9.762   6.123  67.873  1.00  0.00    -0.116 C  
HETATM   21  O   UNL     1     -10.770   5.512  67.562  1.00  0.00    -0.219 OA 
HETATM   22  N   UNL     1      -8.765   6.572  66.993  1.00  0.00    -0.112 NA 
HETATM   23  C   UNL     1      -7.761   7.194  67.728  1.00  0.00    -0.112 A  
HETATM   24  C   UNL     1      -6.595   7.774  67.290  1.00  0.00    -0.063 A  
HETATM   25  C   UNL     1      -5.757   8.318  68.270  1.00  0.00    -0.034 A  
HETATM   26  C   UNL     1      -6.101   8.261  69.638  1.00  0.00    -0.029 A  
HETATM   27  C   UNL     1      -7.295   7.667  70.058  1.00  0.00    -0.080 A  
HETATM   28  C   UNL     1      -8.111   7.144  69.079  1.00  0.00    -0.121 A  
ENDBRANCH  18  19
ENDBRANCH  17  18
ENDBRANCH  14  17
ENDBRANCH   7  11
TORSDOF 4
ENDMDL
MODEL      165
REMARK 921   NORMALIZED FREE ENERGY PREDICTED BY IDOCK:   -5.48 KCAL/MOL
REMARK 922        TOTAL FREE ENERGY PREDICTED BY IDOCK:   -7.38 KCAL/MOL
REMARK 923 INTER-LIGAND FREE ENERGY PREDICTED BY IDOCK:   -6.90 KCAL/MOL
REMARK 924 INTRA-LIGAND FREE ENERGY PREDICTED BY IDOCK:   -0.48 KCAL/MOL
REMARK 927      BINDING AFFINITY PREDICTED BY RF-SCORE:    0.00 PKD
ROOT
HETATM    1  F   UNL     1      -6.109  11.448  69.330  1.00  0.00    -0.052 F  
HETATM    2  C   UNL     1      -6.850  10.400  69.788  1.00  0.00    -0.130 C  
HETATM    3  C   UNL     1      -8.278  10.411  69.308  1.00  0.00    -0.163 A  
HETATM    4  F   UNL     1      -6.177   9.278  69.412  1.00  0.00    -0.039 F  
HETATM    5  F   UNL     1      -6.760  10.452  71.147  1.00  0.00     0.043 F  
HETATM    6  C   UNL     1      -8.739  11.450  68.482  1.00  0.00    -0.149 A  
HETATM    7  C   UNL     1     -10.070  11.545  68.041  1.00  0.00    -0.186 A  
HETATM    8  C   UNL     1      -9.165   9.398  69.675  1.00  0.00    -0.195 A  
HETATM    9  C   UNL     1     -10.925  10.502  68.432  1.00  0.00    -0.310 A  
HETATM   10  C   UNL     1     -10.481   9.439  69.231  1.00  0.00    -0.230 A  
ENDROOT
BRANCH   7  11
HETATM   11  N   UNL     1     -10.467  12.592  67.205  1.00  0.00    -0.227 NA 
HETATM   12  C   UNL     1     -10.378  13.743  65.000  1.00  0.00    -0.382 C  
HETATM   13  C   UNL     1      -9.596  12.917  66.050  1.00  0.00    -0.165 C  
HETATM   14  N   UNL     1     -11.011  14.980  65.516  1.00  0.00    -0.342 NA 
HETATM   15  C   UNL     1     -11.860  14.585  66.669  1.00  0.00    -0.366 C  
HETATM   16  C   UNL     1     -11.141  13.774  67.779  1.00  0.00    -0.268 C  
BRANCH  14  17
HETATM   17  C   UNL     1     -10.024  16.001  65.921  1.00  0.00    -0.352 C  
BRANCH  17  18
HETATM   18  C   UNL     1     -10.522  16.947  67.029  1.00  0.00    -0.281 C  
BRANCH  18  19
HETATM   19  N   UNL     1      -9.867  18.228  66.975  1.00  0.00    -0.311 N  
HETATM   20  C   UNL     1     -10.253  19.296  66.140  1.00  0.00    -0.470 C  
HETATM   21  O   UNL     1     -11.180  19.325  65.349  1.00  0.00    -0.256 OA 
HETATM   22  N   UNL     1      -9.342  20.337  66.382  1.00  0.00    -0.313 NA 
HETATM   23  C   UNL     1      -8.410  19.911  67.323  1.00  0.00    -0.322 A  
HETATM   24  C   UNL     1      -7.338  20.587  67.854  1.00  0.00    -0.254 A  
HETATM   25  C   UNL     1      -6.555  19.895  68.784  1.00  0.00    -0.355 A  
HETATM   26  C   UNL     1      -6.859  18.564  69.146  1.00  0.00    -0.268 A  
HETATM   27  C   UNL     1      -7.956  17.897  68.592  1.00  0.00    -0.285 A  
HETATM   28  C   UNL     1      -8.720  18.598  67.685  1.00  0.00    -0.272 A  
ENDBRANCH  18  19
ENDBRANCH  17  18
ENDBRANCH  14  17
ENDBRANCH   7  11
TORSDOF 4
ENDMDL
MODEL      166
REMARK 921   NORMALIZED FREE ENERGY PREDICTED BY IDOCK:   -5.47 KCAL/MOL
REMARK 922        TOTAL FREE ENERGY PREDICTED BY IDOCK:   -7.37 KCAL/MOL
REMARK 923 INTER-LIGAND FREE ENERGY PREDICTED BY IDOCK:   -6.56 KCAL/MOL
REMARK 924 INTRA-LIGAND FREE ENERGY PREDICTED BY IDOCK:   -0.81 KCAL/MOL
REMARK 927      BINDING AFFINITY PREDICTED BY RF-SCORE:    0.00 PKD
ROOT
HETATM    1  F   UNL     1     -12.149   9.039  70.699  1.00  0.00    -0.275 F  
HETATM    2  C   UNL     1     -11.422   8.249  71.538  1.00  0.00    -0.275 C  
HETATM    3  C   UNL     1      -9.935   8.466  71.440  1.00  0.00    -0.275 A  
HETATM    4  F   UNL     1     -11.908   8.490  72.787  1.00  0.00    -0.443 F  
HETATM    5  F   UNL     1     -11.780   6.968  71.239  1.00  0.00    -0.286 F  
HETATM    6  C   UNL     1      -9.415   9.401  70.528  1.00  0.00    -0.327 A  
HETATM    7  C   UNL     1      -8.037   9.614  70.353  1.00  0.00    -0.168 A  
HETATM    8  C   UNL     1      -9.051   7.745  72.245  1.00  0.00    -0.201 A  
HETATM    9  C   UNL     1      -7.187   8.870  71.186  1.00  0.00    -0.111 A  
HETATM   10  C   UNL     1      -7.682   7.953  72.124  1.00  0.00    -0.119 A  
ENDROOT
BRANCH   7  11
HETATM   11  N   UNL     1      -7.579  10.571  69.444  1.00  0.00    -0.136 NA 
HETATM   12  C   UNL     1      -5.807  12.141  68.674  1.00  0.00    -0.053 C  
HETATM   13  C   UNL     1      -6.501  11.486  69.892  1.00  0.00    -0.106 C  
HETATM   14  N   UNL     1      -6.712  12.850  67.738  1.00  0.00    -0.124 NA 
HETATM   15  C   UNL     1      -7.764  11.882  67.335  1.00  0.00    -0.158 C  
HETATM   16  C   UNL     1      -8.526  11.201  68.502  1.00  0.00    -0.156 C  
BRANCH  14  17
HETATM   17  C   UNL     1      -7.315  14.059  68.334  1.00  0.00    -0.113 C  
BRANCH  17  18
HETATM   18  C   UNL     1      -8.398  14.713  67.456  1.00  0.00    -0.190 C  
BRANCH  18  19
HETATM   19  N   UNL     1      -9.375  15.416  68.247  1.00  0.00    -0.190 N  
HETATM   20  C   UNL     1      -9.377  16.807  68.475  1.00  0.00    -0.246 C  
HETATM   21  O   UNL     1      -8.585  17.631  68.053  1.00  0.00    -0.235 OA 
HETATM   22  N   UNL     1     -10.476  17.070  69.308  1.00  0.00    -0.326 NA 
HETATM   23  C   UNL     1     -11.118  15.870  69.601  1.00  0.00    -0.320 A  
HETATM   24  C   UNL     1     -12.228  15.644  70.379  1.00  0.00    -0.429 A  
HETATM   25  C   UNL     1     -12.646  14.315  70.507  1.00  0.00    -0.418 A  
HETATM   26  C   UNL     1     -11.950  13.267  69.867  1.00  0.00    -0.400 A  
HETATM   27  C   UNL     1     -10.824  13.523  69.079  1.00  0.00    -0.227 A  
HETATM   28  C   UNL     1     -10.432  14.838  68.958  1.00  0.00    -0.249 A  
ENDBRANCH  18  19
ENDBRANCH  17  18
ENDBRANCH  14  17
ENDBRANCH   7  11
TORSDOF 4
ENDMDL
MODEL      167
REMARK 921   NORMALIZED FREE ENERGY PREDICTED BY IDOCK:   -5.46 KCAL/MOL
REMARK 922        TOTAL FREE ENERGY PREDICTED BY IDOCK:   -7.36 KCAL/MOL
REMARK 923 INTER-LIGAND FREE ENERGY PREDICTED BY IDOCK:   -6.55 KCAL/MOL
REMARK 924 INTRA-LIGAND FREE ENERGY PREDICTED BY IDOCK:   -0.81 KCAL/MOL
REMARK 927      BINDING AFFINITY PREDICTED BY RF-SCORE:    0.00 PKD
ROOT
HETATM    1  F   UNL     1      -6.259   5.751  64.431  1.00  0.00    -0.023 F  
HETATM    2  C   UNL     1      -7.300   4.877  64.333  1.00  0.00    -0.059 C  
HETATM    3  C   UNL     1      -8.457   5.206  65.240  1.00  0.00    -0.144 A  
HETATM    4  F   UNL     1      -7.650   4.864  63.018  1.00  0.00    -0.054 F  
HETATM    5  F   UNL     1      -6.772   3.648  64.591  1.00  0.00    -0.039 F  
HETATM    6  C   UNL     1      -8.390   6.318  66.098  1.00  0.00    -0.130 A  
HETATM    7  C   UNL     1      -9.412   6.650  67.002  1.00  0.00    -0.144 A  
HETATM    8  C   UNL     1      -9.608   4.417  65.249  1.00  0.00    -0.186 A  
HETATM    9  C   UNL     1     -10.551   5.830  66.973  1.00  0.00    -0.373 A  
HETATM   10  C   UNL     1     -10.654   4.733  66.107  1.00  0.00    -0.282 A  
ENDROOT
BRANCH   7  11
HETATM   11  N   UNL     1      -9.298   7.779  67.818  1.00  0.00    -0.142 NA 
HETATM   12  C   UNL     1      -9.860   8.987  69.920  1.00  0.00    -0.183 C  
HETATM   13  C   UNL     1     -10.356   8.006  68.831  1.00  0.00    -0.209 C  
HETATM   14  N   UNL     1      -9.358  10.288  69.416  1.00  0.00    -0.211 NA 
HETATM   15  C   UNL     1      -8.311   9.988  68.407  1.00  0.00    -0.111 C  
HETATM   16  C   UNL     1      -8.740   9.030  67.265  1.00  0.00    -0.118 C  
BRANCH  14  17
HETATM   17  C   UNL     1     -10.426  11.121  68.827  1.00  0.00    -0.203 C  
BRANCH  17  18
HETATM   18  C   UNL     1      -9.916  12.415  68.168  1.00  0.00    -0.215 C  
BRANCH  18  19
HETATM   19  N   UNL     1     -10.858  12.937  67.212  1.00  0.00    -0.252 N  
HETATM   20  C   UNL     1     -11.813  13.937  67.485  1.00  0.00    -0.396 C  
HETATM   21  O   UNL     1     -11.998  14.521  68.539  1.00  0.00    -0.327 OA 
HETATM   22  N   UNL     1     -12.536  14.130  66.297  1.00  0.00    -0.439 NA 
HETATM   23  C   UNL     1     -12.052  13.255  65.328  1.00  0.00    -0.418 A  
HETATM   24  C   UNL     1     -12.460  13.088  64.027  1.00  0.00    -0.369 A  
HETATM   25  C   UNL     1     -11.791  12.113  63.279  1.00  0.00    -0.466 A  
HETATM   26  C   UNL     1     -10.755  11.341  63.848  1.00  0.00    -0.451 A  
HETATM   27  C   UNL     1     -10.357  11.532  65.175  1.00  0.00    -0.329 A  
HETATM   28  C   UNL     1     -11.021  12.502  65.892  1.00  0.00    -0.279 A  
ENDBRANCH  18  19
ENDBRANCH  17  18
ENDBRANCH  14  17
ENDBRANCH   7  11
TORSDOF 4
ENDMDL
MODEL      168
REMARK 921   NORMALIZED FREE ENERGY PREDICTED BY IDOCK:   -5.46 KCAL/MOL
REMARK 922        TOTAL FREE ENERGY PREDICTED BY IDOCK:   -7.36 KCAL/MOL
REMARK 923 INTER-LIGAND FREE ENERGY PREDICTED BY IDOCK:   -6.69 KCAL/MOL
REMARK 924 INTRA-LIGAND FREE ENERGY PREDICTED BY IDOCK:   -0.67 KCAL/MOL
REMARK 927      BINDING AFFINITY PREDICTED BY RF-SCORE:    0.00 PKD
ROOT
HETATM    1  F   UNL     1     -13.026  12.472  64.940  1.00  0.00    -0.569 F  
HETATM    2  C   UNL     1     -12.184  12.416  63.870  1.00  0.00    -0.513 C  
HETATM    3  C   UNL     1     -10.981  11.535  64.089  1.00  0.00    -0.434 A  
HETATM    4  F   UNL     1     -12.948  12.010  62.819  1.00  0.00    -0.446 F  
HETATM    5  F   UNL     1     -11.840  13.707  63.605  1.00  0.00    -0.443 F  
HETATM    6  C   UNL     1     -10.799  10.879  65.319  1.00  0.00    -0.123 A  
HETATM    7  C   UNL     1      -9.675  10.085  65.603  1.00  0.00    -0.272 A  
HETATM    8  C   UNL     1     -10.030  11.359  63.083  1.00  0.00    -0.402 A  
HETATM    9  C   UNL     1      -8.747   9.934  64.561  1.00  0.00    -0.219 A  
HETATM   10  C   UNL     1      -8.921  10.554  63.316  1.00  0.00    -0.236 A  
ENDROOT
BRANCH   7  11
HETATM   11  N   UNL     1      -9.558   9.442  66.838  1.00  0.00    -0.155 NA 
HETATM   12  C   UNL     1      -9.941   7.446  68.275  1.00  0.00    -0.163 C  
HETATM   13  C   UNL     1     -10.486   8.321  67.121  1.00  0.00    -0.316 C  
HETATM   14  N   UNL     1      -9.636   8.175  69.529  1.00  0.00    -0.167 NA 
HETATM   15  C   UNL     1      -8.711   9.281  69.174  1.00  0.00    -0.139 C  
HETATM   16  C   UNL     1      -9.199  10.221  68.040  1.00  0.00    -0.135 C  
BRANCH  14  17
HETATM   17  C   UNL     1     -10.847   8.700  70.193  1.00  0.00    -0.233 C  
BRANCH  17  18
HETATM   18  C   UNL     1     -10.802   8.617  71.729  1.00  0.00    -0.325 C  
BRANCH  18  19
HETATM   19  N   UNL     1     -10.118   7.433  72.181  1.00  0.00    -0.186 N  
HETATM   20  C   UNL     1     -10.678   6.140  72.210  1.00  0.00    -0.229 C  
HETATM   21  O   UNL     1     -11.798   5.806  71.863  1.00  0.00    -0.167 OA 
HETATM   22  N   UNL     1      -9.691   5.292  72.737  1.00  0.00    -0.149 NA 
HETATM   23  C   UNL     1      -8.564   6.049  73.045  1.00  0.00    -0.123 A  
HETATM   24  C   UNL     1      -7.367   5.645  73.585  1.00  0.00    -0.087 A  
HETATM   25  C   UNL     1      -6.407   6.641  73.800  1.00  0.00    -0.065 A  
HETATM   26  C   UNL     1      -6.672   7.990  73.479  1.00  0.00    -0.120 A  
HETATM   27  C   UNL     1      -7.898   8.375  72.929  1.00  0.00    -0.143 A  
HETATM   28  C   UNL     1      -8.827   7.380  72.717  1.00  0.00    -0.131 A  
ENDBRANCH  18  19
ENDBRANCH  17  18
ENDBRANCH  14  17
ENDBRANCH   7  11
TORSDOF 4
ENDMDL
MODEL      169
REMARK 921   NORMALIZED FREE ENERGY PREDICTED BY IDOCK:   -5.46 KCAL/MOL
REMARK 922        TOTAL FREE ENERGY PREDICTED BY IDOCK:   -7.35 KCAL/MOL
REMARK 923 INTER-LIGAND FREE ENERGY PREDICTED BY IDOCK:   -7.35 KCAL/MOL
REMARK 924 INTRA-LIGAND FREE ENERGY PREDICTED BY IDOCK:   -0.01 KCAL/MOL
REMARK 927      BINDING AFFINITY PREDICTED BY RF-SCORE:    0.00 PKD
ROOT
HETATM    1  F   UNL     1      -8.253   4.233  70.066  1.00  0.00    -0.060 F  
HETATM    2  C   UNL     1      -9.224   4.199  71.023  1.00  0.00    -0.135 C  
HETATM    3  C   UNL     1     -10.084   5.435  71.060  1.00  0.00    -0.281 A  
HETATM    4  F   UNL     1      -9.940   3.067  70.783  1.00  0.00    -0.228 F  
HETATM    5  F   UNL     1      -8.571   3.986  72.200  1.00  0.00    -0.097 F  
HETATM    6  C   UNL     1      -9.836   6.496  70.171  1.00  0.00    -0.185 A  
HETATM    7  C   UNL     1     -10.569   7.695  70.188  1.00  0.00    -0.236 A  
HETATM    8  C   UNL     1     -11.133   5.551  71.973  1.00  0.00    -0.249 A  
HETATM    9  C   UNL     1     -11.616   7.765  71.120  1.00  0.00    -0.301 A  
HETATM   10  C   UNL     1     -11.901   6.709  71.997  1.00  0.00    -0.365 A  
ENDROOT
BRANCH   7  11
HETATM   11  N   UNL     1     -10.290   8.708  69.267  1.00  0.00    -0.219 NA 
HETATM   12  C   UNL     1      -9.533  11.029  68.778  1.00  0.00    -0.183 C  
HETATM   13  C   UNL     1     -10.293  10.107  69.761  1.00  0.00    -0.259 C  
HETATM   14  N   UNL     1     -10.015  10.989  67.376  1.00  0.00    -0.180 NA 
HETATM   15  C   UNL     1      -9.992   9.567  66.949  1.00  0.00    -0.216 C  
HETATM   16  C   UNL     1     -10.755   8.581  67.872  1.00  0.00    -0.082 C  
BRANCH  14  17
HETATM   17  C   UNL     1     -11.370  11.557  67.223  1.00  0.00    -0.290 C  
BRANCH  17  18
HETATM   18  C   UNL     1     -11.458  12.689  66.183  1.00  0.00    -0.365 C  
BRANCH  18  19
HETATM   19  N   UNL     1     -11.253  13.983  66.782  1.00  0.00    -0.307 N  
HETATM   20  C   UNL     1     -10.676  15.091  66.130  1.00  0.00    -0.327 C  
HETATM   21  O   UNL     1     -10.268  15.150  64.982  1.00  0.00    -0.364 OA 
HETATM   22  N   UNL     1     -10.643  16.132  67.071  1.00  0.00    -0.310 NA 
HETATM   23  C   UNL     1     -11.165  15.668  68.275  1.00  0.00    -0.353 A  
HETATM   24  C   UNL     1     -11.322  16.332  69.468  1.00  0.00    -0.276 A  
HETATM   25  C   UNL     1     -11.871  15.600  70.527  1.00  0.00    -0.402 A  
HETATM   26  C   UNL     1     -12.234  14.246  70.366  1.00  0.00    -0.411 A  
HETATM   27  C   UNL     1     -12.065  13.593  69.141  1.00  0.00    -0.361 A  
HETATM   28  C   UNL     1     -11.532  14.332  68.108  1.00  0.00    -0.308 A  
ENDBRANCH  18  19
ENDBRANCH  17  18
ENDBRANCH  14  17
ENDBRANCH   7  11
TORSDOF 4
ENDMDL
MODEL      170
REMARK 921   NORMALIZED FREE ENERGY PREDICTED BY IDOCK:   -5.44 KCAL/MOL
REMARK 922        TOTAL FREE ENERGY PREDICTED BY IDOCK:   -7.34 KCAL/MOL
REMARK 923 INTER-LIGAND FREE ENERGY PREDICTED BY IDOCK:   -6.79 KCAL/MOL
REMARK 924 INTRA-LIGAND FREE ENERGY PREDICTED BY IDOCK:   -0.55 KCAL/MOL
REMARK 927      BINDING AFFINITY PREDICTED BY RF-SCORE:    0.00 PKD
ROOT
HETATM    1  F   UNL     1      -6.050  18.729  68.292  1.00  0.00    -0.198 F  
HETATM    2  C   UNL     1      -7.265  19.346  68.274  1.00  0.00    -0.296 C  
HETATM    3  C   UNL     1      -8.421  18.403  68.064  1.00  0.00    -0.291 A  
HETATM    4  F   UNL     1      -7.351  20.030  69.447  1.00  0.00    -0.332 F  
HETATM    5  F   UNL     1      -7.183  20.291  67.295  1.00  0.00    -0.263 F  
HETATM    6  C   UNL     1      -8.190  17.027  67.890  1.00  0.00    -0.200 A  
HETATM    7  C   UNL     1      -9.219  16.104  67.641  1.00  0.00    -0.205 A  
HETATM    8  C   UNL     1      -9.734  18.875  68.036  1.00  0.00    -0.386 A  
HETATM    9  C   UNL     1     -10.523  16.623  67.625  1.00  0.00    -0.320 A  
HETATM   10  C   UNL     1     -10.782  17.986  67.825  1.00  0.00    -0.350 A  
ENDROOT
BRANCH   7  11
HETATM   11  N   UNL     1      -8.930  14.745  67.495  1.00  0.00    -0.180 NA 
HETATM   12  C   UNL     1      -9.543  12.490  66.635  1.00  0.00    -0.239 C  
HETATM   13  C   UNL     1     -10.061  13.827  67.217  1.00  0.00    -0.239 C  
HETATM   14  N   UNL     1      -8.524  11.797  67.459  1.00  0.00    -0.147 NA 
HETATM   15  C   UNL     1      -7.428  12.770  67.703  1.00  0.00    -0.144 C  
HETATM   16  C   UNL     1      -7.865  14.128  68.311  1.00  0.00    -0.138 C  
BRANCH  14  17
HETATM   17  C   UNL     1      -9.068  11.295  68.737  1.00  0.00    -0.116 C  
BRANCH  17  18
HETATM   18  C   UNL     1      -8.254  10.142  69.352  1.00  0.00    -0.166 C  
BRANCH  18  19
HETATM   19  N   UNL     1      -9.084   9.007  69.663  1.00  0.00    -0.149 N  
HETATM   20  C   UNL     1      -9.408   8.578  70.966  1.00  0.00    -0.185 C  
HETATM   21  O   UNL     1      -9.060   9.078  72.022  1.00  0.00    -0.375 OA 
HETATM   22  N   UNL     1     -10.209   7.435  70.819  1.00  0.00    -0.197 NA 
HETATM   23  C   UNL     1     -10.355   7.157  69.463  1.00  0.00    -0.215 A  
HETATM   24  C   UNL     1     -11.044   6.137  68.853  1.00  0.00    -0.417 A  
HETATM   25  C   UNL     1     -11.004   6.099  67.455  1.00  0.00    -0.409 A  
HETATM   26  C   UNL     1     -10.282   7.064  66.719  1.00  0.00    -0.282 A  
HETATM   27  C   UNL     1      -9.589   8.093  67.364  1.00  0.00    -0.204 A  
HETATM   28  C   UNL     1      -9.647   8.119  68.740  1.00  0.00    -0.149 A  
ENDBRANCH  18  19
ENDBRANCH  17  18
ENDBRANCH  14  17
ENDBRANCH   7  11
TORSDOF 4
ENDMDL
MODEL      171
REMARK 921   NORMALIZED FREE ENERGY PREDICTED BY IDOCK:   -5.43 KCAL/MOL
REMARK 922        TOTAL FREE ENERGY PREDICTED BY IDOCK:   -7.32 KCAL/MOL
REMARK 923 INTER-LIGAND FREE ENERGY PREDICTED BY IDOCK:   -6.73 KCAL/MOL
REMARK 924 INTRA-LIGAND FREE ENERGY PREDICTED BY IDOCK:   -0.59 KCAL/MOL
REMARK 927      BINDING AFFINITY PREDICTED BY RF-SCORE:    0.00 PKD
ROOT
HETATM    1  F   UNL     1     -10.060   4.195  66.893  1.00  0.00    -0.241 F  
HETATM    2  C   UNL     1      -9.294   4.316  65.772  1.00  0.00    -0.164 C  
HETATM    3  C   UNL     1      -8.876   5.733  65.473  1.00  0.00    -0.119 A  
HETATM    4  F   UNL     1      -8.234   3.483  65.956  1.00  0.00    -0.094 F  
HETATM    5  F   UNL     1     -10.029   3.769  64.764  1.00  0.00    -0.163 F  
HETATM    6  C   UNL     1      -9.294   6.785  66.306  1.00  0.00    -0.141 A  
HETATM    7  C   UNL     1      -8.980   8.131  66.055  1.00  0.00    -0.171 A  
HETATM    8  C   UNL     1      -8.076   6.025  64.367  1.00  0.00    -0.119 A  
HETATM    9  C   UNL     1      -8.171   8.377  64.935  1.00  0.00    -0.155 A  
HETATM   10  C   UNL     1      -7.718   7.342  64.105  1.00  0.00    -0.120 A  
ENDROOT
BRANCH   7  11
HETATM   11  N   UNL     1      -9.407   9.133  66.930  1.00  0.00    -0.149 NA 
HETATM   12  C   UNL     1     -11.239  10.509  67.904  1.00  0.00    -0.289 C  
HETATM   13  C   UNL     1     -10.704   9.792  66.641  1.00  0.00    -0.036 C  
HETATM   14  N   UNL     1     -10.306  11.483  68.518  1.00  0.00    -0.205 NA 
HETATM   15  C   UNL     1      -9.033  10.763  68.775  1.00  0.00    -0.170 C  
HETATM   16  C   UNL     1      -8.418  10.038  67.548  1.00  0.00    -0.118 C  
BRANCH  14  17
HETATM   17  C   UNL     1     -10.072  12.666  67.665  1.00  0.00    -0.218 C  
BRANCH  17  18
HETATM   18  C   UNL     1     -11.338  13.498  67.393  1.00  0.00    -0.311 C  
BRANCH  18  19
HETATM   19  N   UNL     1     -11.041  14.702  66.659  1.00  0.00    -0.327 N  
HETATM   20  C   UNL     1     -10.957  14.790  65.255  1.00  0.00    -0.374 C  
HETATM   21  O   UNL     1     -11.122  13.897  64.442  1.00  0.00    -0.376 OA 
HETATM   22  N   UNL     1     -10.627  16.122  64.961  1.00  0.00    -0.634 NA 
HETATM   23  C   UNL     1     -10.490  16.827  66.154  1.00  0.00    -0.277 A  
HETATM   24  C   UNL     1     -10.169  18.148  66.351  1.00  0.00    -0.405 A  
HETATM   25  C   UNL     1     -10.089  18.584  67.678  1.00  0.00    -0.390 A  
HETATM   26  C   UNL     1     -10.322  17.698  68.752  1.00  0.00    -0.348 A  
HETATM   27  C   UNL     1     -10.648  16.357  68.525  1.00  0.00    -0.304 A  
HETATM   28  C   UNL     1     -10.731  15.949  67.212  1.00  0.00    -0.306 A  
ENDBRANCH  18  19
ENDBRANCH  17  18
ENDBRANCH  14  17
ENDBRANCH   7  11
TORSDOF 4
ENDMDL
MODEL      172
REMARK 921   NORMALIZED FREE ENERGY PREDICTED BY IDOCK:   -5.42 KCAL/MOL
REMARK 922        TOTAL FREE ENERGY PREDICTED BY IDOCK:   -7.31 KCAL/MOL
REMARK 923 INTER-LIGAND FREE ENERGY PREDICTED BY IDOCK:   -6.69 KCAL/MOL
REMARK 924 INTRA-LIGAND FREE ENERGY PREDICTED BY IDOCK:   -0.62 KCAL/MOL
REMARK 927      BINDING AFFINITY PREDICTED BY RF-SCORE:    0.00 PKD
ROOT
HETATM    1  F   UNL     1      -9.054  16.702  67.778  1.00  0.00    -0.205 F  
HETATM    2  C   UNL     1      -9.682  16.785  66.572  1.00  0.00    -0.283 C  
HETATM    3  C   UNL     1     -10.196  15.463  66.064  1.00  0.00    -0.343 A  
HETATM    4  F   UNL     1     -10.671  17.707  66.731  1.00  0.00    -0.328 F  
HETATM    5  F   UNL     1      -8.777  17.350  65.724  1.00  0.00    -0.179 F  
HETATM    6  C   UNL     1      -9.992  14.290  66.810  1.00  0.00    -0.266 A  
HETATM    7  C   UNL     1     -10.402  13.021  66.369  1.00  0.00    -0.281 A  
HETATM    8  C   UNL     1     -10.878  15.379  64.848  1.00  0.00    -0.445 A  
HETATM    9  C   UNL     1     -11.086  12.985  65.143  1.00  0.00    -0.317 A  
HETATM   10  C   UNL     1     -11.328  14.145  64.395  1.00  0.00    -0.310 A  
ENDROOT
BRANCH   7  11
HETATM   11  N   UNL     1     -10.187  11.891  67.163  1.00  0.00    -0.207 NA 
HETATM   12  C   UNL     1     -10.839   9.594  67.867  1.00  0.00    -0.215 C  
HETATM   13  C   UNL     1     -11.335  10.979  67.386  1.00  0.00    -0.230 C  
HETATM   14  N   UNL     1      -9.974   9.618  69.071  1.00  0.00    -0.177 NA 
HETATM   15  C   UNL     1      -8.854  10.549  68.782  1.00  0.00    -0.158 C  
HETATM   16  C   UNL     1      -9.271  11.970  68.318  1.00  0.00    -0.192 C  
BRANCH  14  17
HETATM   17  C   UNL     1     -10.699  10.036  70.287  1.00  0.00    -0.309 C  
BRANCH  17  18
HETATM   18  C   UNL     1     -11.227   8.863  71.133  1.00  0.00    -0.284 C  
BRANCH  18  19
HETATM   19  N   UNL     1     -10.241   7.823  71.281  1.00  0.00    -0.193 N  
HETATM   20  C   UNL     1      -9.187   7.839  72.216  1.00  0.00    -0.154 C  
HETATM   21  O   UNL     1      -8.936   8.702  73.040  1.00  0.00    -0.326 OA 
HETATM   22  N   UNL     1      -8.455   6.659  72.008  1.00  0.00    -0.116 NA 
HETATM   23  C   UNL     1      -9.032   5.950  70.959  1.00  0.00    -0.142 A  
HETATM   24  C   UNL     1      -8.651   4.750  70.408  1.00  0.00    -0.117 A  
HETATM   25  C   UNL     1      -9.421   4.277  69.339  1.00  0.00    -0.256 A  
HETATM   26  C   UNL     1     -10.528   5.009  68.858  1.00  0.00    -0.061 A  
HETATM   27  C   UNL     1     -10.896   6.228  69.437  1.00  0.00    -0.404 A  
HETATM   28  C   UNL     1     -10.132   6.673  70.493  1.00  0.00    -0.187 A  
ENDBRANCH  18  19
ENDBRANCH  17  18
ENDBRANCH  14  17
ENDBRANCH   7  11
TORSDOF 4
ENDMDL
MODEL      173
REMARK 921   NORMALIZED FREE ENERGY PREDICTED BY IDOCK:   -5.41 KCAL/MOL
REMARK 922        TOTAL FREE ENERGY PREDICTED BY IDOCK:   -7.30 KCAL/MOL
REMARK 923 INTER-LIGAND FREE ENERGY PREDICTED BY IDOCK:   -6.64 KCAL/MOL
REMARK 924 INTRA-LIGAND FREE ENERGY PREDICTED BY IDOCK:   -0.67 KCAL/MOL
REMARK 927      BINDING AFFINITY PREDICTED BY RF-SCORE:    0.00 PKD
ROOT
HETATM    1  F   UNL     1     -12.177   6.218  72.397  1.00  0.00    -0.326 F  
HETATM    2  C   UNL     1     -11.073   5.563  72.855  1.00  0.00    -0.299 C  
HETATM    3  C   UNL     1      -9.810   5.907  72.109  1.00  0.00    -0.185 A  
HETATM    4  F   UNL     1     -10.995   5.851  74.183  1.00  0.00    -0.197 F  
HETATM    5  F   UNL     1     -11.375   4.236  72.777  1.00  0.00    -0.199 F  
HETATM    6  C   UNL     1      -9.846   6.815  71.037  1.00  0.00    -0.192 A  
HETATM    7  C   UNL     1      -8.714   7.141  70.271  1.00  0.00    -0.144 A  
HETATM    8  C   UNL     1      -8.589   5.333  72.465  1.00  0.00    -0.121 A  
HETATM    9  C   UNL     1      -7.508   6.541  70.667  1.00  0.00    -0.080 A  
HETATM   10  C   UNL     1      -7.441   5.656  71.751  1.00  0.00    -0.094 A  
ENDROOT
BRANCH   7  11
HETATM   11  N   UNL     1      -8.807   8.065  69.227  1.00  0.00    -0.141 NA 
HETATM   12  C   UNL     1      -7.770   9.261  67.307  1.00  0.00    -0.095 C  
HETATM   13  C   UNL     1      -7.546   8.648  68.709  1.00  0.00    -0.096 C  
HETATM   14  N   UNL     1      -8.859  10.264  67.224  1.00  0.00    -0.132 NA 
HETATM   15  C   UNL     1     -10.084   9.620  67.760  1.00  0.00    -0.187 C  
HETATM   16  C   UNL     1      -9.947   9.002  69.177  1.00  0.00    -0.185 C  
BRANCH  14  17
HETATM   17  C   UNL     1      -8.552  11.502  67.968  1.00  0.00    -0.150 C  
BRANCH  17  18
HETATM   18  C   UNL     1      -8.729  12.788  67.141  1.00  0.00    -0.202 C  
BRANCH  18  19
HETATM   19  N   UNL     1     -10.103  12.997  66.764  1.00  0.00    -0.242 N  
HETATM   20  C   UNL     1     -11.087  13.577  67.590  1.00  0.00    -0.269 C  
HETATM   21  O   UNL     1     -10.951  13.994  68.727  1.00  0.00    -0.246 OA 
HETATM   22  N   UNL     1     -12.280  13.570  66.850  1.00  0.00    -0.366 NA 
HETATM   23  C   UNL     1     -12.039  12.981  65.612  1.00  0.00    -0.454 A  
HETATM   24  C   UNL     1     -12.909  12.757  64.572  1.00  0.00    -0.323 A  
HETATM   25  C   UNL     1     -12.384  12.126  63.439  1.00  0.00    -0.648 A  
HETATM   26  C   UNL     1     -11.028  11.740  63.381  1.00  0.00    -0.458 A  
HETATM   27  C   UNL     1     -10.162  11.981  64.453  1.00  0.00    -0.332 A  
HETATM   28  C   UNL     1     -10.694  12.610  65.556  1.00  0.00    -0.274 A  
ENDBRANCH  18  19
ENDBRANCH  17  18
ENDBRANCH  14  17
ENDBRANCH   7  11
TORSDOF 4
ENDMDL
MODEL      174
REMARK 921   NORMALIZED FREE ENERGY PREDICTED BY IDOCK:   -5.41 KCAL/MOL
REMARK 922        TOTAL FREE ENERGY PREDICTED BY IDOCK:   -7.29 KCAL/MOL
REMARK 923 INTER-LIGAND FREE ENERGY PREDICTED BY IDOCK:   -6.57 KCAL/MOL
REMARK 924 INTRA-LIGAND FREE ENERGY PREDICTED BY IDOCK:   -0.73 KCAL/MOL
REMARK 927      BINDING AFFINITY PREDICTED BY RF-SCORE:    0.00 PKD
ROOT
HETATM    1  F   UNL     1     -11.008   4.290  63.325  1.00  0.00    -0.174 F  
HETATM    2  C   UNL     1     -10.288   3.199  63.711  1.00  0.00    -0.213 C  
HETATM    3  C   UNL     1      -9.657   3.339  65.072  1.00  0.00    -0.125 A  
HETATM    4  F   UNL     1     -11.144   2.144  63.635  1.00  0.00    -0.189 F  
HETATM    5  F   UNL     1      -9.364   3.002  62.729  1.00  0.00    -0.094 F  
HETATM    6  C   UNL     1      -9.822   4.524  65.810  1.00  0.00    -0.231 A  
HETATM    7  C   UNL     1      -9.219   4.737  67.061  1.00  0.00    -0.126 A  
HETATM    8  C   UNL     1      -8.898   2.303  65.620  1.00  0.00    -0.124 A  
HETATM    9  C   UNL     1      -8.468   3.667  67.573  1.00  0.00    -0.104 A  
HETATM   10  C   UNL     1      -8.314   2.464  66.870  1.00  0.00    -0.090 A  
ENDROOT
BRANCH   7  11
HETATM   11  N   UNL     1      -9.434   5.929  67.757  1.00  0.00    -0.113 NA 
HETATM   12  C   UNL     1     -10.840   7.321  69.267  1.00  0.00    -0.159 C  
HETATM   13  C   UNL     1     -10.827   6.259  68.142  1.00  0.00    -0.320 C  
HETATM   14  N   UNL     1     -10.092   8.565  68.969  1.00  0.00    -0.195 NA 
HETATM   15  C   UNL     1      -8.714   8.163  68.588  1.00  0.00    -0.134 C  
HETATM   16  C   UNL     1      -8.616   7.118  67.445  1.00  0.00    -0.121 C  
BRANCH  14  17
HETATM   17  C   UNL     1     -10.718   9.364  67.895  1.00  0.00    -0.210 C  
BRANCH  17  18
HETATM   18  C   UNL     1      -9.814  10.480  67.340  1.00  0.00    -0.174 C  
BRANCH  18  19
HETATM   19  N   UNL     1     -10.205  10.874  66.011  1.00  0.00    -0.247 N  
HETATM   20  C   UNL     1      -9.772  10.249  64.825  1.00  0.00    -0.332 C  
HETATM   21  O   UNL     1      -9.021   9.294  64.718  1.00  0.00    -0.205 OA 
HETATM   22  N   UNL     1     -10.365  10.954  63.766  1.00  0.00    -0.354 NA 
HETATM   23  C   UNL     1     -11.124  11.997  64.288  1.00  0.00    -0.351 A  
HETATM   24  C   UNL     1     -11.870  12.945  63.629  1.00  0.00    -0.599 A  
HETATM   25  C   UNL     1     -12.526  13.892  64.423  1.00  0.00    -0.321 A  
HETATM   26  C   UNL     1     -12.414  13.868  65.830  1.00  0.00    -0.530 A  
HETATM   27  C   UNL     1     -11.649  12.892  66.477  1.00  0.00    -0.425 A  
HETATM   28  C   UNL     1     -11.018  11.963  65.680  1.00  0.00    -0.304 A  
ENDBRANCH  18  19
ENDBRANCH  17  18
ENDBRANCH  14  17
ENDBRANCH   7  11
TORSDOF 4
ENDMDL
MODEL      175
REMARK 921   NORMALIZED FREE ENERGY PREDICTED BY IDOCK:   -5.38 KCAL/MOL
REMARK 922        TOTAL FREE ENERGY PREDICTED BY IDOCK:   -7.26 KCAL/MOL
REMARK 923 INTER-LIGAND FREE ENERGY PREDICTED BY IDOCK:   -6.54 KCAL/MOL
REMARK 924 INTRA-LIGAND FREE ENERGY PREDICTED BY IDOCK:   -0.72 KCAL/MOL
REMARK 927      BINDING AFFINITY PREDICTED BY RF-SCORE:    0.00 PKD
ROOT
HETATM    1  F   UNL     1      -9.952  15.130  68.750  1.00  0.00    -0.200 F  
HETATM    2  C   UNL     1     -11.031  15.308  67.937  1.00  0.00    -0.306 C  
HETATM    3  C   UNL     1     -11.278  14.158  66.996  1.00  0.00    -0.328 A  
HETATM    4  F   UNL     1     -12.084  15.546  68.765  1.00  0.00    -0.349 F  
HETATM    5  F   UNL     1     -10.803  16.478  67.277  1.00  0.00    -0.320 F  
HETATM    6  C   UNL     1     -10.421  13.044  66.999  1.00  0.00    -0.249 A  
HETATM    7  C   UNL     1     -10.567  11.963  66.113  1.00  0.00    -0.258 A  
HETATM    8  C   UNL     1     -12.354  14.179  66.107  1.00  0.00    -0.463 A  
HETATM    9  C   UNL     1     -11.665  12.026  65.240  1.00  0.00    -0.312 A  
HETATM   10  C   UNL     1     -12.551  13.112  65.238  1.00  0.00    -0.531 A  
ENDROOT
BRANCH   7  11
HETATM   11  N   UNL     1      -9.695  10.874  66.176  1.00  0.00    -0.202 NA 
HETATM   12  C   UNL     1      -9.311   8.414  66.157  1.00  0.00    -0.201 C  
HETATM   13  C   UNL     1     -10.259   9.562  66.578  1.00  0.00    -0.237 C  
HETATM   14  N   UNL     1      -7.917   8.535  66.648  1.00  0.00    -0.099 NA 
HETATM   15  C   UNL     1      -7.418   9.865  66.218  1.00  0.00    -0.102 C  
HETATM   16  C   UNL     1      -8.303  11.073  66.626  1.00  0.00    -0.155 C  
BRANCH  14  17
HETATM   17  C   UNL     1      -7.815   8.389  68.115  1.00  0.00    -0.111 C  
BRANCH  17  18
HETATM   18  C   UNL     1      -8.003   6.945  68.613  1.00  0.00    -0.120 C  
BRANCH  18  19
HETATM   19  N   UNL     1      -8.402   6.903  69.996  1.00  0.00    -0.137 N  
HETATM   20  C   UNL     1      -7.515   6.831  71.089  1.00  0.00    -0.087 C  
HETATM   21  O   UNL     1      -6.297   6.800  71.058  1.00  0.00    -0.039 OA 
HETATM   22  N   UNL     1      -8.313   6.787  72.244  1.00  0.00    -0.107 NA 
HETATM   23  C   UNL     1      -9.653   6.808  71.868  1.00  0.00    -0.148 A  
HETATM   24  C   UNL     1     -10.778   6.773  72.656  1.00  0.00    -0.271 A  
HETATM   25  C   UNL     1     -12.010   6.794  71.993  1.00  0.00    -0.355 A  
HETATM   26  C   UNL     1     -12.080   6.841  70.584  1.00  0.00    -0.371 A  
HETATM   27  C   UNL     1     -10.919   6.877  69.804  1.00  0.00    -0.310 A  
HETATM   28  C   UNL     1      -9.716   6.865  70.474  1.00  0.00    -0.172 A  
ENDBRANCH  18  19
ENDBRANCH  17  18
ENDBRANCH  14  17
ENDBRANCH   7  11
TORSDOF 4
ENDMDL
MODEL      176
REMARK 921   NORMALIZED FREE ENERGY PREDICTED BY IDOCK:   -5.38 KCAL/MOL
REMARK 922        TOTAL FREE ENERGY PREDICTED BY IDOCK:   -7.26 KCAL/MOL
REMARK 923 INTER-LIGAND FREE ENERGY PREDICTED BY IDOCK:   -6.69 KCAL/MOL
REMARK 924 INTRA-LIGAND FREE ENERGY PREDICTED BY IDOCK:   -0.57 KCAL/MOL
REMARK 927      BINDING AFFINITY PREDICTED BY RF-SCORE:    0.00 PKD
ROOT
HETATM    1  F   UNL     1      -9.005   3.357  63.422  1.00  0.00    -0.092 F  
HETATM    2  C   UNL     1      -9.072   2.649  64.585  1.00  0.00    -0.129 C  
HETATM    3  C   UNL     1      -9.138   3.512  65.818  1.00  0.00    -0.150 A  
HETATM    4  F   UNL     1     -10.151   1.829  64.458  1.00  0.00    -0.067 F  
HETATM    5  F   UNL     1      -7.980   1.833  64.581  1.00  0.00    -0.065 F  
HETATM    6  C   UNL     1      -9.108   4.912  65.704  1.00  0.00    -0.151 A  
HETATM    7  C   UNL     1      -9.116   5.771  66.816  1.00  0.00    -0.126 A  
HETATM    8  C   UNL     1      -9.225   2.940  67.088  1.00  0.00    -0.189 A  
HETATM    9  C   UNL     1      -9.208   5.152  68.072  1.00  0.00    -0.132 A  
HETATM   10  C   UNL     1      -9.269   3.759  68.211  1.00  0.00    -0.215 A  
ENDROOT
BRANCH   7  11
HETATM   11  N   UNL     1      -9.104   7.157  66.640  1.00  0.00    -0.144 NA 
HETATM   12  C   UNL     1     -10.086   9.398  67.099  1.00  0.00    -0.231 C  
HETATM   13  C   UNL     1     -10.369   7.893  66.881  1.00  0.00    -0.330 C  
HETATM   14  N   UNL     1      -9.319  10.058  66.016  1.00  0.00    -0.164 NA 
HETATM   15  C   UNL     1      -8.074   9.272  65.824  1.00  0.00    -0.115 C  
HETATM   16  C   UNL     1      -8.276   7.754  65.573  1.00  0.00    -0.137 C  
BRANCH  14  17
HETATM   17  C   UNL     1     -10.079  10.149  64.752  1.00  0.00    -0.180 C  
BRANCH  17  18
HETATM   18  C   UNL     1     -10.182  11.577  64.188  1.00  0.00    -0.325 C  
BRANCH  18  19
HETATM   19  N   UNL     1     -11.075  12.397  64.965  1.00  0.00    -0.295 N  
HETATM   20  C   UNL     1     -12.445  12.581  64.692  1.00  0.00    -0.463 C  
HETATM   21  O   UNL     1     -13.095  12.090  63.785  1.00  0.00    -0.730 OA 
HETATM   22  N   UNL     1     -12.930  13.464  65.670  1.00  0.00    -0.482 NA 
HETATM   23  C   UNL     1     -11.880  13.830  66.507  1.00  0.00    -0.407 A  
HETATM   24  C   UNL     1     -11.886  14.675  67.590  1.00  0.00    -0.366 A  
HETATM   25  C   UNL     1     -10.663  14.868  68.244  1.00  0.00    -0.249 A  
HETATM   26  C   UNL     1      -9.488  14.225  67.797  1.00  0.00    -0.216 A  
HETATM   27  C   UNL     1      -9.509  13.368  66.692  1.00  0.00    -0.264 A  
HETATM   28  C   UNL     1     -10.723  13.184  66.068  1.00  0.00    -0.276 A  
ENDBRANCH  18  19
ENDBRANCH  17  18
ENDBRANCH  14  17
ENDBRANCH   7  11
TORSDOF 4
ENDMDL
MODEL      177
REMARK 921   NORMALIZED FREE ENERGY PREDICTED BY IDOCK:   -5.38 KCAL/MOL
REMARK 922        TOTAL FREE ENERGY PREDICTED BY IDOCK:   -7.25 KCAL/MOL
REMARK 923 INTER-LIGAND FREE ENERGY PREDICTED BY IDOCK:   -6.55 KCAL/MOL
REMARK 924 INTRA-LIGAND FREE ENERGY PREDICTED BY IDOCK:   -0.70 KCAL/MOL
REMARK 927      BINDING AFFINITY PREDICTED BY RF-SCORE:    0.00 PKD
ROOT
HETATM    1  F   UNL     1      -5.861   7.057  64.469  1.00  0.00    -0.033 F  
HETATM    2  C   UNL     1      -6.396   7.536  63.310  1.00  0.00    -0.054 C  
HETATM    3  C   UNL     1      -7.488   8.552  63.521  1.00  0.00    -0.112 A  
HETATM    4  F   UNL     1      -5.348   8.030  62.595  1.00  0.00    -0.057 F  
HETATM    5  F   UNL     1      -6.831   6.441  62.627  1.00  0.00    -0.035 F  
HETATM    6  C   UNL     1      -7.881   8.909  64.823  1.00  0.00    -0.121 A  
HETATM    7  C   UNL     1      -8.925   9.811  65.086  1.00  0.00    -0.197 A  
HETATM    8  C   UNL     1      -8.129   9.150  62.435  1.00  0.00    -0.143 A  
HETATM    9  C   UNL     1      -9.538  10.390  63.964  1.00  0.00    -0.376 A  
HETATM   10  C   UNL     1      -9.144  10.073  62.657  1.00  0.00    -0.304 A  
ENDROOT
BRANCH   7  11
HETATM   11  N   UNL     1      -9.259  10.143  66.402  1.00  0.00    -0.155 NA 
HETATM   12  C   UNL     1     -10.919  10.201  68.256  1.00  0.00    -0.248 C  
HETATM   13  C   UNL     1     -10.697  10.299  66.728  1.00  0.00    -0.146 C  
HETATM   14  N   UNL     1     -10.113  11.141  69.072  1.00  0.00    -0.189 NA 
HETATM   15  C   UNL     1      -8.692  10.936  68.693  1.00  0.00    -0.154 C  
HETATM   16  C   UNL     1      -8.383  11.045  67.176  1.00  0.00    -0.132 C  
BRANCH  14  17
HETATM   17  C   UNL     1     -10.507  12.550  68.874  1.00  0.00    -0.080 C  
BRANCH  17  18
HETATM   18  C   UNL     1     -12.016  12.805  69.039  1.00  0.00    -0.242 C  
BRANCH  18  19
HETATM   19  N   UNL     1     -12.386  12.958  70.422  1.00  0.00    -0.299 N  
HETATM   20  C   UNL     1     -12.925  11.936  71.230  1.00  0.00    -0.236 C  
HETATM   21  O   UNL     1     -13.159  10.783  70.913  1.00  0.00    -0.331 OA 
HETATM   22  N   UNL     1     -13.162  12.510  72.489  1.00  0.00    -0.282 NA 
HETATM   23  C   UNL     1     -12.798  13.853  72.448  1.00  0.00    -0.286 A  
HETATM   24  C   UNL     1     -12.862  14.802  73.439  1.00  0.00    -0.597 A  
HETATM   25  C   UNL     1     -12.435  16.092  73.104  1.00  0.00    -0.633 A  
HETATM   26  C   UNL     1     -11.970  16.391  71.805  1.00  0.00    -0.335 A  
HETATM   27  C   UNL     1     -11.914  15.407  70.813  1.00  0.00    -0.402 A  
HETATM   28  C   UNL     1     -12.330  14.142  71.165  1.00  0.00    -0.372 A  
ENDBRANCH  18  19
ENDBRANCH  17  18
ENDBRANCH  14  17
ENDBRANCH   7  11
TORSDOF 4
ENDMDL
MODEL      178
REMARK 921   NORMALIZED FREE ENERGY PREDICTED BY IDOCK:   -5.37 KCAL/MOL
REMARK 922        TOTAL FREE ENERGY PREDICTED BY IDOCK:   -7.25 KCAL/MOL
REMARK 923 INTER-LIGAND FREE ENERGY PREDICTED BY IDOCK:   -6.57 KCAL/MOL
REMARK 924 INTRA-LIGAND FREE ENERGY PREDICTED BY IDOCK:   -0.67 KCAL/MOL
REMARK 927      BINDING AFFINITY PREDICTED BY RF-SCORE:    0.00 PKD
ROOT
HETATM    1  F   UNL     1     -11.613  11.230  63.139  1.00  0.00    -0.371 F  
HETATM    2  C   UNL     1     -12.333  12.211  63.754  1.00  0.00    -0.532 C  
HETATM    3  C   UNL     1     -11.765  12.639  65.082  1.00  0.00    -0.407 A  
HETATM    4  F   UNL     1     -12.404  13.234  62.858  1.00  0.00    -0.577 F  
HETATM    5  F   UNL     1     -13.600  11.722  63.865  1.00  0.00    -0.351 F  
HETATM    6  C   UNL     1     -10.607  12.023  65.588  1.00  0.00    -0.303 A  
HETATM    7  C   UNL     1     -10.057  12.341  66.841  1.00  0.00    -0.211 A  
HETATM    8  C   UNL     1     -12.376  13.645  65.831  1.00  0.00    -0.516 A  
HETATM    9  C   UNL     1     -10.703  13.360  67.557  1.00  0.00    -0.263 A  
HETATM   10  C   UNL     1     -11.841  14.010  67.061  1.00  0.00    -0.458 A  
ENDROOT
BRANCH   7  11
HETATM   11  N   UNL     1      -8.892  11.708  67.284  1.00  0.00    -0.159 NA 
HETATM   12  C   UNL     1      -7.505   9.653  67.504  1.00  0.00    -0.091 C  
HETATM   13  C   UNL     1      -8.937  10.238  67.472  1.00  0.00    -0.134 C  
HETATM   14  N   UNL     1      -6.598  10.261  68.507  1.00  0.00    -0.052 NA 
HETATM   15  C   UNL     1      -6.604  11.726  68.266  1.00  0.00    -0.056 C  
HETATM   16  C   UNL     1      -8.005  12.393  68.245  1.00  0.00    -0.160 C  
BRANCH  14  17
HETATM   17  C   UNL     1      -6.999   9.960  69.896  1.00  0.00    -0.105 C  
BRANCH  17  18
HETATM   18  C   UNL     1      -7.013   8.457  70.229  1.00  0.00    -0.036 C  
BRANCH  18  19
HETATM   19  N   UNL     1      -7.572   8.202  71.532  1.00  0.00    -0.076 N  
HETATM   20  C   UNL     1      -6.854   8.259  72.743  1.00  0.00    -0.096 C  
HETATM   21  O   UNL     1      -5.675   8.530  72.897  1.00  0.00    -0.061 OA 
HETATM   22  N   UNL     1      -7.762   7.923  73.759  1.00  0.00    -0.151 NA 
HETATM   23  C   UNL     1      -8.999   7.646  73.184  1.00  0.00    -0.191 A  
HETATM   24  C   UNL     1     -10.174   7.271  73.789  1.00  0.00    -0.370 A  
HETATM   25  C   UNL     1     -11.270   7.044  72.948  1.00  0.00    -0.273 A  
HETATM   26  C   UNL     1     -11.157   7.191  71.548  1.00  0.00    -0.267 A  
HETATM   27  C   UNL     1      -9.950   7.576  70.957  1.00  0.00    -0.189 A  
HETATM   28  C   UNL     1      -8.885   7.803  71.802  1.00  0.00    -0.119 A  
ENDBRANCH  18  19
ENDBRANCH  17  18
ENDBRANCH  14  17
ENDBRANCH   7  11
TORSDOF 4
ENDMDL
MODEL      179
REMARK 921   NORMALIZED FREE ENERGY PREDICTED BY IDOCK:   -5.32 KCAL/MOL
REMARK 922        TOTAL FREE ENERGY PREDICTED BY IDOCK:   -7.19 KCAL/MOL
REMARK 923 INTER-LIGAND FREE ENERGY PREDICTED BY IDOCK:   -6.59 KCAL/MOL
REMARK 924 INTRA-LIGAND FREE ENERGY PREDICTED BY IDOCK:   -0.59 KCAL/MOL
REMARK 927      BINDING AFFINITY PREDICTED BY RF-SCORE:    0.00 PKD
ROOT
HETATM    1  F   UNL     1      -8.723   4.794  72.328  1.00  0.00    -0.114 F  
HETATM    2  C   UNL     1      -8.952   3.955  71.279  1.00  0.00    -0.107 C  
HETATM    3  C   UNL     1      -9.270   4.667  69.990  1.00  0.00    -0.186 A  
HETATM    4  F   UNL     1      -7.845   3.168  71.185  1.00  0.00    -0.047 F  
HETATM    5  F   UNL     1      -9.961   3.133  71.680  1.00  0.00    -0.228 F  
HETATM    6  C   UNL     1      -9.329   6.071  69.953  1.00  0.00    -0.165 A  
HETATM    7  C   UNL     1      -9.669   6.793  68.797  1.00  0.00    -0.132 A  
HETATM    8  C   UNL     1      -9.515   3.951  68.817  1.00  0.00    -0.224 A  
HETATM    9  C   UNL     1      -9.904   6.031  67.641  1.00  0.00    -0.134 A  
HETATM   10  C   UNL     1      -9.822   4.631  67.645  1.00  0.00    -0.194 A  
ENDROOT
BRANCH   7  11
HETATM   11  N   UNL     1      -9.693   8.190  68.815  1.00  0.00    -0.150 NA 
HETATM   12  C   UNL     1     -10.774  10.319  69.518  1.00  0.00    -0.249 C  
HETATM   13  C   UNL     1     -10.994   8.852  69.078  1.00  0.00     0.054 C  
HETATM   14  N   UNL     1      -9.968  11.143  68.586  1.00  0.00    -0.200 NA 
HETATM   15  C   UNL     1      -8.689  10.423  68.363  1.00  0.00    -0.129 C  
HETATM   16  C   UNL     1      -8.826   8.951  67.894  1.00  0.00    -0.133 C  
BRANCH  14  17
HETATM   17  C   UNL     1     -10.657  11.391  67.303  1.00  0.00    -0.227 C  
BRANCH  17  18
HETATM   18  C   UNL     1     -11.887  12.310  67.422  1.00  0.00    -0.257 C  
BRANCH  18  19
HETATM   19  N   UNL     1     -11.858  13.372  66.450  1.00  0.00    -0.375 N  
HETATM   20  C   UNL     1     -12.501  13.335  65.197  1.00  0.00    -0.470 C  
HETATM   21  O   UNL     1     -13.178  12.433  64.734  1.00  0.00    -0.784 OA 
HETATM   22  N   UNL     1     -12.201  14.551  64.562  1.00  0.00    -0.521 NA 
HETATM   23  C   UNL     1     -11.376  15.303  65.394  1.00  0.00    -0.253 A  
HETATM   24  C   UNL     1     -10.831  16.546  65.184  1.00  0.00    -0.247 A  
HETATM   25  C   UNL     1     -10.020  17.057  66.203  1.00  0.00    -0.314 A  
HETATM   26  C   UNL     1      -9.777  16.318  67.381  1.00  0.00    -0.234 A  
HETATM   27  C   UNL     1     -10.345  15.054  67.572  1.00  0.00    -0.241 A  
HETATM   28  C   UNL     1     -11.147  14.572  66.561  1.00  0.00    -0.332 A  
ENDBRANCH  18  19
ENDBRANCH  17  18
ENDBRANCH  14  17
ENDBRANCH   7  11
TORSDOF 4
ENDMDL
MODEL      180
REMARK 921   NORMALIZED FREE ENERGY PREDICTED BY IDOCK:   -5.32 KCAL/MOL
REMARK 922        TOTAL FREE ENERGY PREDICTED BY IDOCK:   -7.18 KCAL/MOL
REMARK 923 INTER-LIGAND FREE ENERGY PREDICTED BY IDOCK:   -6.48 KCAL/MOL
REMARK 924 INTRA-LIGAND FREE ENERGY PREDICTED BY IDOCK:   -0.70 KCAL/MOL
REMARK 927      BINDING AFFINITY PREDICTED BY RF-SCORE:    0.00 PKD
ROOT
HETATM    1  F   UNL     1     -11.927   6.075  71.774  1.00  0.00    -0.347 F  
HETATM    2  C   UNL     1     -10.762   5.755  72.404  1.00  0.00    -0.235 C  
HETATM    3  C   UNL     1      -9.529   6.204  71.665  1.00  0.00    -0.160 A  
HETATM    4  F   UNL     1     -10.854   6.296  73.650  1.00  0.00    -0.252 F  
HETATM    5  F   UNL     1     -10.798   4.404  72.579  1.00  0.00    -0.250 F  
HETATM    6  C   UNL     1      -9.646   6.869  70.432  1.00  0.00    -0.171 A  
HETATM    7  C   UNL     1      -8.535   7.269  69.669  1.00  0.00    -0.133 A  
HETATM    8  C   UNL     1      -8.255   5.967  72.185  1.00  0.00    -0.108 A  
HETATM    9  C   UNL     1      -7.276   7.013  70.233  1.00  0.00    -0.072 A  
HETATM   10  C   UNL     1      -7.133   6.378  71.475  1.00  0.00    -0.078 A  
ENDROOT
BRANCH   7  11
HETATM   11  N   UNL     1      -8.713   7.944  68.459  1.00  0.00    -0.131 NA 
HETATM   12  C   UNL     1      -7.762   8.947  66.389  1.00  0.00    -0.095 C  
HETATM   13  C   UNL     1      -7.547   8.665  67.894  1.00  0.00    -0.098 C  
HETATM   14  N   UNL     1      -9.011   9.673  66.056  1.00  0.00    -0.154 NA 
HETATM   15  C   UNL     1     -10.133   8.904  66.652  1.00  0.00    -0.287 C  
HETATM   16  C   UNL     1     -10.003   8.602  68.169  1.00  0.00    -0.178 C  
BRANCH  14  17
HETATM   17  C   UNL     1      -9.011  11.064  66.551  1.00  0.00    -0.173 C  
BRANCH  17  18
HETATM   18  C   UNL     1      -9.916  12.014  65.745  1.00  0.00    -0.241 C  
BRANCH  18  19
HETATM   19  N   UNL     1     -10.584  12.966  66.594  1.00  0.00    -0.260 N  
HETATM   20  C   UNL     1     -11.693  12.676  67.415  1.00  0.00    -0.369 C  
HETATM   21  O   UNL     1     -12.258  11.604  67.551  1.00  0.00    -0.501 OA 
HETATM   22  N   UNL     1     -12.043  13.879  68.048  1.00  0.00    -0.343 NA 
HETATM   23  C   UNL     1     -11.186  14.885  67.610  1.00  0.00    -0.323 A  
HETATM   24  C   UNL     1     -11.159  16.215  67.954  1.00  0.00    -0.293 A  
HETATM   25  C   UNL     1     -10.181  17.004  67.338  1.00  0.00    -0.314 A  
HETATM   26  C   UNL     1      -9.277  16.449  66.406  1.00  0.00    -0.335 A  
HETATM   27  C   UNL     1      -9.324  15.091  66.074  1.00  0.00    -0.304 A  
HETATM   28  C   UNL     1     -10.288  14.329  66.697  1.00  0.00    -0.279 A  
ENDBRANCH  18  19
ENDBRANCH  17  18
ENDBRANCH  14  17
ENDBRANCH   7  11
TORSDOF 4
ENDMDL
MODEL      181
REMARK 921   NORMALIZED FREE ENERGY PREDICTED BY IDOCK:   -5.31 KCAL/MOL
REMARK 922        TOTAL FREE ENERGY PREDICTED BY IDOCK:   -7.18 KCAL/MOL
REMARK 923 INTER-LIGAND FREE ENERGY PREDICTED BY IDOCK:   -6.63 KCAL/MOL
REMARK 924 INTRA-LIGAND FREE ENERGY PREDICTED BY IDOCK:   -0.55 KCAL/MOL
REMARK 927      BINDING AFFINITY PREDICTED BY RF-SCORE:    0.00 PKD
ROOT
HETATM    1  F   UNL     1     -11.426  18.622  67.422  1.00  0.00    -0.190 F  
HETATM    2  C   UNL     1     -10.153  18.990  67.740  1.00  0.00    -0.379 C  
HETATM    3  C   UNL     1      -9.181  17.840  67.783  1.00  0.00    -0.256 A  
HETATM    4  F   UNL     1      -9.804  19.940  66.830  1.00  0.00    -0.410 F  
HETATM    5  F   UNL     1     -10.245  19.635  68.937  1.00  0.00    -0.484 F  
HETATM    6  C   UNL     1      -9.624  16.530  67.527  1.00  0.00    -0.231 A  
HETATM    7  C   UNL     1      -8.780  15.409  67.600  1.00  0.00    -0.167 A  
HETATM    8  C   UNL     1      -7.834  18.051  68.079  1.00  0.00    -0.257 A  
HETATM    9  C   UNL     1      -7.433  15.670  67.897  1.00  0.00    -0.147 A  
HETATM   10  C   UNL     1      -6.961  16.970  68.127  1.00  0.00    -0.173 A  
ENDROOT
BRANCH   7  11
HETATM   11  N   UNL     1      -9.272  14.133  67.317  1.00  0.00    -0.210 NA 
HETATM   12  C   UNL     1     -11.087  12.663  66.457  1.00  0.00    -0.280 C  
HETATM   13  C   UNL     1     -10.742  13.970  67.209  1.00  0.00    -0.278 C  
HETATM   14  N   UNL     1     -10.485  11.432  67.023  1.00  0.00    -0.226 NA 
HETATM   15  C   UNL     1      -9.021  11.664  67.108  1.00  0.00    -0.173 C  
HETATM   16  C   UNL     1      -8.592  12.945  67.871  1.00  0.00    -0.185 C  
BRANCH  14  17
HETATM   17  C   UNL     1     -11.036  11.085  68.349  1.00  0.00    -0.230 C  
BRANCH  17  18
HETATM   18  C   UNL     1     -10.046  10.336  69.259  1.00  0.00    -0.227 C  
BRANCH  18  19
HETATM   19  N   UNL     1     -10.405   8.950  69.414  1.00  0.00    -0.210 N  
HETATM   20  C   UNL     1     -11.161   8.428  70.483  1.00  0.00    -0.238 C  
HETATM   21  O   UNL     1     -11.634   9.037  71.427  1.00  0.00    -0.278 OA 
HETATM   22  N   UNL     1     -11.259   7.045  70.261  1.00  0.00    -0.287 NA 
HETATM   23  C   UNL     1     -10.562   6.724  69.100  1.00  0.00    -0.232 A  
HETATM   24  C   UNL     1     -10.382   5.499  68.504  1.00  0.00    -0.247 A  
HETATM   25  C   UNL     1      -9.614   5.476  67.335  1.00  0.00    -0.128 A  
HETATM   26  C   UNL     1      -9.052   6.659  66.807  1.00  0.00    -0.154 A  
HETATM   27  C   UNL     1      -9.252   7.894  67.432  1.00  0.00    -0.160 A  
HETATM   28  C   UNL     1     -10.017   7.899  68.577  1.00  0.00    -0.187 A  
ENDBRANCH  18  19
ENDBRANCH  17  18
ENDBRANCH  14  17
ENDBRANCH   7  11
TORSDOF 4
ENDMDL
MODEL      182
REMARK 921   NORMALIZED FREE ENERGY PREDICTED BY IDOCK:   -5.28 KCAL/MOL
REMARK 922        TOTAL FREE ENERGY PREDICTED BY IDOCK:   -7.14 KCAL/MOL
REMARK 923 INTER-LIGAND FREE ENERGY PREDICTED BY IDOCK:   -6.69 KCAL/MOL
REMARK 924 INTRA-LIGAND FREE ENERGY PREDICTED BY IDOCK:   -0.45 KCAL/MOL
REMARK 927      BINDING AFFINITY PREDICTED BY RF-SCORE:    0.00 PKD
ROOT
HETATM    1  F   UNL     1     -11.260  13.015  63.841  1.00  0.00    -0.376 F  
HETATM    2  C   UNL     1     -11.491  14.028  64.722  1.00  0.00    -0.369 C  
HETATM    3  C   UNL     1     -11.495  13.591  66.163  1.00  0.00    -0.348 A  
HETATM    4  F   UNL     1     -10.543  14.970  64.460  1.00  0.00    -0.392 F  
HETATM    5  F   UNL     1     -12.679  14.579  64.344  1.00  0.00    -0.420 F  
HETATM    6  C   UNL     1     -11.291  12.239  66.493  1.00  0.00    -0.403 A  
HETATM    7  C   UNL     1     -11.332  11.759  67.813  1.00  0.00    -0.289 A  
HETATM    8  C   UNL     1     -11.702  14.512  67.191  1.00  0.00    -0.420 A  
HETATM    9  C   UNL     1     -11.540  12.722  68.813  1.00  0.00    -0.353 A  
HETATM   10  C   UNL     1     -11.716  14.079  68.512  1.00  0.00    -0.387 A  
ENDROOT
BRANCH   7  11
HETATM   11  N   UNL     1     -11.104  10.407  68.082  1.00  0.00    -0.285 NA 
HETATM   12  C   UNL     1     -11.035   8.510  69.692  1.00  0.00    -0.086 C  
HETATM   13  C   UNL     1     -10.802  10.025  69.483  1.00  0.00    -0.253 C  
HETATM   14  N   UNL     1     -10.298   7.624  68.759  1.00  0.00    -0.204 NA 
HETATM   15  C   UNL     1     -10.640   8.063  67.383  1.00  0.00    -0.267 C  
HETATM   16  C   UNL     1     -10.409   9.568  67.085  1.00  0.00    -0.253 C  
BRANCH  14  17
HETATM   17  C   UNL     1      -8.837   7.662  68.971  1.00  0.00    -0.135 C  
BRANCH  17  18
HETATM   18  C   UNL     1      -8.041   6.776  67.995  1.00  0.00    -0.114 C  
BRANCH  18  19
HETATM   19  N   UNL     1      -8.552   5.430  67.956  1.00  0.00    -0.101 N  
HETATM   20  C   UNL     1      -9.083   4.802  66.812  1.00  0.00    -0.117 C  
HETATM   21  O   UNL     1      -9.193   5.268  65.691  1.00  0.00    -0.158 OA 
HETATM   22  N   UNL     1      -9.483   3.518  67.214  1.00  0.00    -0.208 NA 
HETATM   23  C   UNL     1      -9.225   3.371  68.574  1.00  0.00    -0.171 A  
HETATM   24  C   UNL     1      -9.457   2.291  69.391  1.00  0.00    -0.118 A  
HETATM   25  C   UNL     1      -9.104   2.434  70.737  1.00  0.00    -0.182 A  
HETATM   26  C   UNL     1      -8.543   3.636  71.220  1.00  0.00    -0.113 A  
HETATM   27  C   UNL     1      -8.315   4.721  70.368  1.00  0.00    -0.090 A  
HETATM   28  C   UNL     1      -8.661   4.558  69.044  1.00  0.00    -0.083 A  
ENDBRANCH  18  19
ENDBRANCH  17  18
ENDBRANCH  14  17
ENDBRANCH   7  11
TORSDOF 4
ENDMDL
MODEL      183
REMARK 921   NORMALIZED FREE ENERGY PREDICTED BY IDOCK:   -5.26 KCAL/MOL
REMARK 922        TOTAL FREE ENERGY PREDICTED BY IDOCK:   -7.12 KCAL/MOL
REMARK 923 INTER-LIGAND FREE ENERGY PREDICTED BY IDOCK:   -6.50 KCAL/MOL
REMARK 924 INTRA-LIGAND FREE ENERGY PREDICTED BY IDOCK:   -0.61 KCAL/MOL
REMARK 927      BINDING AFFINITY PREDICTED BY RF-SCORE:    0.00 PKD
ROOT
HETATM    1  F   UNL     1     -10.900  10.730  63.581  1.00  0.00    -0.373 F  
HETATM    2  C   UNL     1     -11.574  11.897  63.783  1.00  0.00    -0.462 C  
HETATM    3  C   UNL     1     -11.624  12.327  65.226  1.00  0.00    -0.405 A  
HETATM    4  F   UNL     1     -10.972  12.816  62.981  1.00  0.00    -0.386 F  
HETATM    5  F   UNL     1     -12.816  11.698  63.258  1.00  0.00    -0.691 F  
HETATM    6  C   UNL     1     -11.025  11.536  66.222  1.00  0.00    -0.328 A  
HETATM    7  C   UNL     1     -11.079  11.856  67.589  1.00  0.00    -0.257 A  
HETATM    8  C   UNL     1     -12.265  13.509  65.599  1.00  0.00    -0.500 A  
HETATM    9  C   UNL     1     -11.731  13.055  67.916  1.00  0.00    -0.402 A  
HETATM   10  C   UNL     1     -12.310  13.876  66.939  1.00  0.00    -0.331 A  
ENDROOT
BRANCH   7  11
HETATM   11  N   UNL     1     -10.448  11.041  68.532  1.00  0.00    -0.180 NA 
HETATM   12  C   UNL     1      -8.371  10.048  69.480  1.00  0.00    -0.172 C  
HETATM   13  C   UNL     1      -9.100  10.518  68.199  1.00  0.00    -0.141 C  
HETATM   14  N   UNL     1      -9.109   9.054  70.296  1.00  0.00    -0.184 NA 
HETATM   15  C   UNL     1     -10.443   9.635  70.588  1.00  0.00    -0.312 C  
HETATM   16  C   UNL     1     -11.250  10.108  69.349  1.00  0.00    -0.215 C  
BRANCH  14  17
HETATM   17  C   UNL     1      -9.245   7.748  69.618  1.00  0.00    -0.153 C  
BRANCH  17  18
HETATM   18  C   UNL     1      -7.906   7.031  69.369  1.00  0.00    -0.113 C  
BRANCH  18  19
HETATM   19  N   UNL     1      -8.008   5.613  69.596  1.00  0.00    -0.093 N  
HETATM   20  C   UNL     1      -7.840   4.982  70.845  1.00  0.00    -0.087 C  
HETATM   21  O   UNL     1      -7.595   5.508  71.917  1.00  0.00    -0.095 OA 
HETATM   22  N   UNL     1      -7.997   3.606  70.617  1.00  0.00    -0.053 NA 
HETATM   23  C   UNL     1      -8.232   3.396  69.262  1.00  0.00    -0.059 A  
HETATM   24  C   UNL     1      -8.436   2.217  68.586  1.00  0.00    -0.090 A  
HETATM   25  C   UNL     1      -8.637   2.310  67.205  1.00  0.00    -0.119 A  
HETATM   26  C   UNL     1      -8.621   3.560  66.548  1.00  0.00    -0.116 A  
HETATM   27  C   UNL     1      -8.412   4.747  67.259  1.00  0.00    -0.105 A  
HETATM   28  C   UNL     1      -8.225   4.635  68.619  1.00  0.00    -0.082 A  
ENDBRANCH  18  19
ENDBRANCH  17  18
ENDBRANCH  14  17
ENDBRANCH   7  11
TORSDOF 4
ENDMDL
MODEL      184
REMARK 921   NORMALIZED FREE ENERGY PREDICTED BY IDOCK:   -5.25 KCAL/MOL
REMARK 922        TOTAL FREE ENERGY PREDICTED BY IDOCK:   -7.10 KCAL/MOL
REMARK 923 INTER-LIGAND FREE ENERGY PREDICTED BY IDOCK:   -6.29 KCAL/MOL
REMARK 924 INTRA-LIGAND FREE ENERGY PREDICTED BY IDOCK:   -0.81 KCAL/MOL
REMARK 927      BINDING AFFINITY PREDICTED BY RF-SCORE:    0.00 PKD
ROOT
HETATM    1  F   UNL     1      -7.117   4.001  68.792  1.00  0.00    -0.050 F  
HETATM    2  C   UNL     1      -8.417   3.841  69.170  1.00  0.00    -0.073 C  
HETATM    3  C   UNL     1      -9.184   5.133  69.270  1.00  0.00    -0.151 A  
HETATM    4  F   UNL     1      -8.960   2.974  68.272  1.00  0.00    -0.114 F  
HETATM    5  F   UNL     1      -8.374   3.171  70.356  1.00  0.00    -0.056 F  
HETATM    6  C   UNL     1      -8.547   6.357  69.002  1.00  0.00    -0.124 A  
HETATM    7  C   UNL     1      -9.192   7.599  69.125  1.00  0.00    -0.141 A  
HETATM    8  C   UNL     1     -10.532   5.140  69.632  1.00  0.00    -0.262 A  
HETATM    9  C   UNL     1     -10.547   7.556  69.488  1.00  0.00    -0.239 A  
HETATM   10  C   UNL     1     -11.213   6.347  69.732  1.00  0.00    -0.484 A  
ENDROOT
BRANCH   7  11
HETATM   11  N   UNL     1      -8.512   8.783  68.827  1.00  0.00    -0.127 NA 
HETATM   12  C   UNL     1      -7.187  10.755  69.570  1.00  0.00    -0.132 C  
HETATM   13  C   UNL     1      -8.318   9.760  69.925  1.00  0.00    -0.184 C  
HETATM   14  N   UNL     1      -7.358  11.471  68.284  1.00  0.00    -0.085 NA 
HETATM   15  C   UNL     1      -7.552  10.438  67.235  1.00  0.00    -0.095 C  
HETATM   16  C   UNL     1      -8.688   9.417  67.505  1.00  0.00    -0.122 C  
BRANCH  14  17
HETATM   17  C   UNL     1      -8.494  12.414  68.303  1.00  0.00    -0.170 C  
BRANCH  17  18
HETATM   18  C   UNL     1      -8.488  13.422  67.139  1.00  0.00    -0.170 C  
BRANCH  18  19
HETATM   19  N   UNL     1      -9.817  13.683  66.649  1.00  0.00    -0.276 N  
HETATM   20  C   UNL     1     -10.698  14.646  67.180  1.00  0.00    -0.292 C  
HETATM   21  O   UNL     1     -10.496  15.406  68.111  1.00  0.00    -0.239 OA 
HETATM   22  N   UNL     1     -11.882  14.555  66.431  1.00  0.00    -0.375 NA 
HETATM   23  C   UNL     1     -11.739  13.547  65.481  1.00  0.00    -0.340 A  
HETATM   24  C   UNL     1     -12.638  13.105  64.541  1.00  0.00    -0.344 A  
HETATM   25  C   UNL     1     -12.219  12.054  63.717  1.00  0.00    -0.600 A  
HETATM   26  C   UNL     1     -10.937  11.482  63.860  1.00  0.00    -0.474 A  
HETATM   27  C   UNL     1     -10.039  11.951  64.824  1.00  0.00    -0.295 A  
HETATM   28  C   UNL     1     -10.466  12.992  65.620  1.00  0.00    -0.279 A  
ENDBRANCH  18  19
ENDBRANCH  17  18
ENDBRANCH  14  17
ENDBRANCH   7  11
TORSDOF 4
ENDMDL
MODEL      185
REMARK 921   NORMALIZED FREE ENERGY PREDICTED BY IDOCK:   -5.23 KCAL/MOL
REMARK 922        TOTAL FREE ENERGY PREDICTED BY IDOCK:   -7.08 KCAL/MOL
REMARK 923 INTER-LIGAND FREE ENERGY PREDICTED BY IDOCK:   -6.26 KCAL/MOL
REMARK 924 INTRA-LIGAND FREE ENERGY PREDICTED BY IDOCK:   -0.81 KCAL/MOL
REMARK 927      BINDING AFFINITY PREDICTED BY RF-SCORE:    0.00 PKD
ROOT
HETATM    1  F   UNL     1     -10.429  12.242  67.880  1.00  0.00    -0.197 F  
HETATM    2  C   UNL     1     -11.167  13.001  68.738  1.00  0.00    -0.282 C  
HETATM    3  C   UNL     1     -11.800  12.213  69.855  1.00  0.00    -0.392 A  
HETATM    4  F   UNL     1     -10.328  13.973  69.189  1.00  0.00    -0.226 F  
HETATM    5  F   UNL     1     -12.092  13.636  67.963  1.00  0.00    -0.370 F  
HETATM    6  C   UNL     1     -11.618  10.821  69.931  1.00  0.00    -0.410 A  
HETATM    7  C   UNL     1     -12.220  10.023  70.918  1.00  0.00    -0.346 A  
HETATM    8  C   UNL     1     -12.576  12.845  70.828  1.00  0.00    -0.314 A  
HETATM    9  C   UNL     1     -12.989  10.702  71.876  1.00  0.00    -0.542 A  
HETATM   10  C   UNL     1     -13.161  12.093  71.839  1.00  0.00    -0.474 A  
ENDROOT
BRANCH   7  11
HETATM   11  N   UNL     1     -11.987   8.646  70.954  1.00  0.00    -0.242 NA 
HETATM   12  C   UNL     1     -12.050   6.479  72.178  1.00  0.00    -0.264 C  
HETATM   13  C   UNL     1     -11.836   8.008  72.284  1.00  0.00    -0.369 C  
HETATM   14  N   UNL     1     -11.188   5.789  71.188  1.00  0.00    -0.201 NA 
HETATM   15  C   UNL     1     -11.383   6.478  69.887  1.00  0.00    -0.406 C  
HETATM   16  C   UNL     1     -11.161   8.014  69.906  1.00  0.00    -0.108 C  
BRANCH  14  17
HETATM   17  C   UNL     1      -9.762   5.794  71.572  1.00  0.00    -0.159 C  
BRANCH  17  18
HETATM   18  C   UNL     1      -8.843   5.072  70.570  1.00  0.00    -0.121 C  
BRANCH  18  19
HETATM   19  N   UNL     1      -7.979   5.992  69.877  1.00  0.00    -0.110 N  
HETATM   20  C   UNL     1      -7.000   6.798  70.492  1.00  0.00    -0.063 C  
HETATM   21  O   UNL     1      -6.718   6.852  71.677  1.00  0.00    -0.052 OA 
HETATM   22  N   UNL     1      -6.409   7.554  69.468  1.00  0.00    -0.031 NA 
HETATM   23  C   UNL     1      -7.023   7.237  68.260  1.00  0.00    -0.076 A  
HETATM   24  C   UNL     1      -6.777   7.732  67.003  1.00  0.00    -0.068 A  
HETATM   25  C   UNL     1      -7.570   7.232  65.964  1.00  0.00    -0.089 A  
HETATM   26  C   UNL     1      -8.574   6.271  66.210  1.00  0.00    -0.138 A  
HETATM   27  C   UNL     1      -8.805   5.782  67.500  1.00  0.00    -0.106 A  
HETATM   28  C   UNL     1      -8.009   6.280  68.508  1.00  0.00    -0.105 A  
ENDBRANCH  18  19
ENDBRANCH  17  18
ENDBRANCH  14  17
ENDBRANCH   7  11
TORSDOF 4
ENDMDL
MODEL      186
REMARK 921   NORMALIZED FREE ENERGY PREDICTED BY IDOCK:   -5.19 KCAL/MOL
REMARK 922        TOTAL FREE ENERGY PREDICTED BY IDOCK:   -7.03 KCAL/MOL
REMARK 923 INTER-LIGAND FREE ENERGY PREDICTED BY IDOCK:   -6.63 KCAL/MOL
REMARK 924 INTRA-LIGAND FREE ENERGY PREDICTED BY IDOCK:   -0.40 KCAL/MOL
REMARK 927      BINDING AFFINITY PREDICTED BY RF-SCORE:    0.00 PKD
ROOT
HETATM    1  F   UNL     1     -10.990  20.005  67.046  1.00  0.00    -0.523 F  
HETATM    2  C   UNL     1      -9.640  20.064  66.867  1.00  0.00    -0.412 C  
HETATM    3  C   UNL     1      -8.991  18.715  66.698  1.00  0.00    -0.307 A  
HETATM    4  F   UNL     1      -9.443  20.881  65.797  1.00  0.00     0.005 F  
HETATM    5  F   UNL     1      -9.157  20.740  67.948  1.00  0.00    -0.294 F  
HETATM    6  C   UNL     1      -9.768  17.545  66.750  1.00  0.00    -0.296 A  
HETATM    7  C   UNL     1      -9.217  16.256  66.648  1.00  0.00    -0.244 A  
HETATM    8  C   UNL     1      -7.616  18.603  66.490  1.00  0.00    -0.273 A  
HETATM    9  C   UNL     1      -7.831  16.193  66.437  1.00  0.00    -0.197 A  
HETATM   10  C   UNL     1      -7.039  17.346  66.352  1.00  0.00    -0.328 A  
ENDROOT
BRANCH   7  11
HETATM   11  N   UNL     1     -10.042  15.129  66.689  1.00  0.00    -0.257 NA 
HETATM   12  C   UNL     1     -11.542  13.598  67.955  1.00  0.00    -0.341 C  
HETATM   13  C   UNL     1     -10.288  14.503  68.011  1.00  0.00    -0.229 C  
HETATM   14  N   UNL     1     -11.520  12.555  66.901  1.00  0.00    -0.332 NA 
HETATM   15  C   UNL     1     -11.265  13.246  65.612  1.00  0.00    -0.285 C  
HETATM   16  C   UNL     1     -10.008  14.155  65.579  1.00  0.00    -0.295 C  
BRANCH  14  17
HETATM   17  C   UNL     1     -10.499  11.517  67.147  1.00  0.00    -0.224 C  
BRANCH  17  18
HETATM   18  C   UNL     1     -11.024  10.077  66.997  1.00  0.00    -0.049 C  
BRANCH  18  19
HETATM   19  N   UNL     1     -10.052   9.215  66.376  1.00  0.00    -0.289 N  
HETATM   20  C   UNL     1      -9.447   9.451  65.125  1.00  0.00    -0.185 C  
HETATM   21  O   UNL     1      -9.629  10.396  64.377  1.00  0.00    -0.265 OA 
HETATM   22  N   UNL     1      -8.590   8.365  64.888  1.00  0.00    -0.130 NA 
HETATM   23  C   UNL     1      -8.683   7.475  65.955  1.00  0.00    -0.158 A  
HETATM   24  C   UNL     1      -8.035   6.280  66.150  1.00  0.00    -0.112 A  
HETATM   25  C   UNL     1      -8.339   5.584  67.325  1.00  0.00    -0.104 A  
HETATM   26  C   UNL     1      -9.272   6.094  68.254  1.00  0.00    -0.114 A  
HETATM   27  C   UNL     1      -9.918   7.315  68.033  1.00  0.00    -0.186 A  
HETATM   28  C   UNL     1      -9.599   7.989  66.875  1.00  0.00    -0.204 A  
ENDBRANCH  18  19
ENDBRANCH  17  18
ENDBRANCH  14  17
ENDBRANCH   7  11
TORSDOF 4
ENDMDL
MODEL      187
REMARK 921   NORMALIZED FREE ENERGY PREDICTED BY IDOCK:   -5.19 KCAL/MOL
REMARK 922        TOTAL FREE ENERGY PREDICTED BY IDOCK:   -7.02 KCAL/MOL
REMARK 923 INTER-LIGAND FREE ENERGY PREDICTED BY IDOCK:   -6.33 KCAL/MOL
REMARK 924 INTRA-LIGAND FREE ENERGY PREDICTED BY IDOCK:   -0.69 KCAL/MOL
REMARK 927      BINDING AFFINITY PREDICTED BY RF-SCORE:    0.00 PKD
ROOT
HETATM    1  F   UNL     1      -6.020  10.760  68.416  1.00  0.00    -0.044 F  
HETATM    2  C   UNL     1      -6.555   9.538  68.693  1.00  0.00    -0.052 C  
HETATM    3  C   UNL     1      -7.973   9.373  68.212  1.00  0.00    -0.094 A  
HETATM    4  F   UNL     1      -5.704   8.628  68.143  1.00  0.00    -0.036 F  
HETATM    5  F   UNL     1      -6.444   9.386  70.042  1.00  0.00    -0.044 F  
HETATM    6  C   UNL     1      -8.628  10.434  67.562  1.00  0.00    -0.125 A  
HETATM    7  C   UNL     1      -9.964  10.362  67.135  1.00  0.00    -0.195 A  
HETATM    8  C   UNL     1      -8.660   8.174  68.403  1.00  0.00    -0.130 A  
HETATM    9  C   UNL     1     -10.613   9.136  67.346  1.00  0.00    -0.315 A  
HETATM   10  C   UNL     1      -9.973   8.053  67.964  1.00  0.00    -0.216 A  
ENDROOT
BRANCH   7  11
HETATM   11  N   UNL     1     -10.557  11.443  66.478  1.00  0.00    -0.253 NA 
HETATM   12  C   UNL     1     -10.482  13.201  64.717  1.00  0.00    -0.372 C  
HETATM   13  C   UNL     1      -9.668  12.369  65.735  1.00  0.00    -0.200 C  
HETATM   14  N   UNL     1     -11.626  13.952  65.287  1.00  0.00    -0.317 NA 
HETATM   15  C   UNL     1     -12.469  12.971  66.017  1.00  0.00    -0.186 C  
HETATM   16  C   UNL     1     -11.728  12.114  67.078  1.00  0.00    -0.303 C  
BRANCH  14  17
HETATM   17  C   UNL     1     -11.200  15.044  66.185  1.00  0.00    -0.307 C  
BRANCH  17  18
HETATM   18  C   UNL     1      -9.954  15.804  65.697  1.00  0.00    -0.345 C  
BRANCH  18  19
HETATM   19  N   UNL     1      -9.288  16.491  66.773  1.00  0.00    -0.231 N  
HETATM   20  C   UNL     1      -8.195  15.980  67.501  1.00  0.00    -0.152 C  
HETATM   21  O   UNL     1      -7.635  14.909  67.349  1.00  0.00    -0.181 OA 
HETATM   22  N   UNL     1      -7.873  16.950  68.464  1.00  0.00    -0.229 NA 
HETATM   23  C   UNL     1      -8.760  18.016  68.345  1.00  0.00    -0.293 A  
HETATM   24  C   UNL     1      -8.828  19.177  69.077  1.00  0.00    -0.242 A  
HETATM   25  C   UNL     1      -9.845  20.075  68.738  1.00  0.00    -0.335 A  
HETATM   26  C   UNL     1     -10.754  19.788  67.697  1.00  0.00    -0.460 A  
HETATM   27  C   UNL     1     -10.663  18.600  66.965  1.00  0.00    -0.400 A  
HETATM   28  C   UNL     1      -9.650  17.732  67.308  1.00  0.00    -0.272 A  
ENDBRANCH  18  19
ENDBRANCH  17  18
ENDBRANCH  14  17
ENDBRANCH   7  11
TORSDOF 4
ENDMDL
MODEL      188
REMARK 921   NORMALIZED FREE ENERGY PREDICTED BY IDOCK:   -5.16 KCAL/MOL
REMARK 922        TOTAL FREE ENERGY PREDICTED BY IDOCK:   -6.99 KCAL/MOL
REMARK 923 INTER-LIGAND FREE ENERGY PREDICTED BY IDOCK:   -6.33 KCAL/MOL
REMARK 924 INTRA-LIGAND FREE ENERGY PREDICTED BY IDOCK:   -0.66 KCAL/MOL
REMARK 927      BINDING AFFINITY PREDICTED BY RF-SCORE:    0.00 PKD
ROOT
HETATM    1  F   UNL     1     -11.735  12.406  64.935  1.00  0.00    -0.353 F  
HETATM    2  C   UNL     1     -11.969  13.470  65.754  1.00  0.00    -0.403 C  
HETATM    3  C   UNL     1     -11.964  13.121  67.219  1.00  0.00    -0.389 A  
HETATM    4  F   UNL     1     -11.029  14.400  65.432  1.00  0.00    -0.295 F  
HETATM    5  F   UNL     1     -13.163  13.989  65.349  1.00  0.00    -0.516 F  
HETATM    6  C   UNL     1     -11.750  11.793  67.630  1.00  0.00    -0.320 A  
HETATM    7  C   UNL     1     -11.783  11.394  68.976  1.00  0.00    -0.343 A  
HETATM    8  C   UNL     1     -12.174  14.101  68.190  1.00  0.00    -0.179 A  
HETATM    9  C   UNL     1     -11.994  12.414  69.917  1.00  0.00    -0.369 A  
HETATM   10  C   UNL     1     -12.180  13.749  69.535  1.00  0.00    -0.344 A  
ENDROOT
BRANCH   7  11
HETATM   11  N   UNL     1     -11.545  10.062  69.326  1.00  0.00    -0.058 NA 
HETATM   12  C   UNL     1     -11.884   8.146  70.877  1.00  0.00    -0.218 C  
HETATM   13  C   UNL     1     -11.730   9.679  70.746  1.00  0.00    -0.314 C  
HETATM   14  N   UNL     1     -10.785   7.349  70.281  1.00  0.00    -0.232 NA 
HETATM   15  C   UNL     1     -10.651   7.784  68.868  1.00  0.00    -0.150 C  
HETATM   16  C   UNL     1     -10.466   9.309  68.654  1.00  0.00    -0.209 C  
BRANCH  14  17
HETATM   17  C   UNL     1      -9.506   7.512  71.001  1.00  0.00    -0.160 C  
BRANCH  17  18
HETATM   18  C   UNL     1      -8.373   6.614  70.473  1.00  0.00    -0.130 C  
BRANCH  18  19
HETATM   19  N   UNL     1      -8.715   5.217  70.554  1.00  0.00    -0.119 N  
HETATM   20  C   UNL     1      -8.933   4.509  71.753  1.00  0.00    -0.125 C  
HETATM   21  O   UNL     1      -8.878   4.939  72.892  1.00  0.00    -0.117 OA 
HETATM   22  N   UNL     1      -9.215   3.184  71.384  1.00  0.00    -0.107 NA 
HETATM   23  C   UNL     1      -9.151   3.078  69.998  1.00  0.00    -0.124 A  
HETATM   24  C   UNL     1      -9.347   1.976  69.200  1.00  0.00    -0.184 A  
HETATM   25  C   UNL     1      -9.203   2.166  67.821  1.00  0.00    -0.217 A  
HETATM   26  C   UNL     1      -8.865   3.429  67.290  1.00  0.00    -0.152 A  
HETATM   27  C   UNL     1      -8.672   4.535  68.123  1.00  0.00    -0.116 A  
HETATM   28  C   UNL     1      -8.827   4.332  69.477  1.00  0.00    -0.091 A  
ENDBRANCH  18  19
ENDBRANCH  17  18
ENDBRANCH  14  17
ENDBRANCH   7  11
TORSDOF 4
ENDMDL
MODEL      189
REMARK 921   NORMALIZED FREE ENERGY PREDICTED BY IDOCK:   -5.16 KCAL/MOL
REMARK 922        TOTAL FREE ENERGY PREDICTED BY IDOCK:   -6.99 KCAL/MOL
REMARK 923 INTER-LIGAND FREE ENERGY PREDICTED BY IDOCK:   -6.41 KCAL/MOL
REMARK 924 INTRA-LIGAND FREE ENERGY PREDICTED BY IDOCK:   -0.58 KCAL/MOL
REMARK 927      BINDING AFFINITY PREDICTED BY RF-SCORE:    0.00 PKD
ROOT
HETATM    1  F   UNL     1     -11.588  13.380  67.444  1.00  0.00    -0.305 F  
HETATM    2  C   UNL     1     -11.590  13.672  66.112  1.00  0.00    -0.347 C  
HETATM    3  C   UNL     1     -10.959  12.606  65.256  1.00  0.00    -0.320 A  
HETATM    4  F   UNL     1     -12.891  13.906  65.787  1.00  0.00    -0.502 F  
HETATM    5  F   UNL     1     -10.955  14.872  65.998  1.00  0.00    -0.308 F  
HETATM    6  C   UNL     1     -10.418  11.451  65.847  1.00  0.00    -0.309 A  
HETATM    7  C   UNL     1      -9.772  10.444  65.110  1.00  0.00    -0.291 A  
HETATM    8  C   UNL     1     -10.896  12.745  63.869  1.00  0.00    -0.447 A  
HETATM    9  C   UNL     1      -9.736  10.626  63.719  1.00  0.00    -0.382 A  
HETATM   10  C   UNL     1     -10.294  11.754  63.103  1.00  0.00    -0.364 A  
ENDROOT
BRANCH   7  11
HETATM   11  N   UNL     1      -9.271   9.308  65.751  1.00  0.00    -0.207 NA 
HETATM   12  C   UNL     1      -9.553   6.950  66.495  1.00  0.00    -0.143 C  
HETATM   13  C   UNL     1     -10.248   8.309  66.247  1.00  0.00     0.092 C  
HETATM   14  N   UNL     1      -8.379   6.997  67.400  1.00  0.00    -0.122 NA 
HETATM   15  C   UNL     1      -7.448   8.015  66.850  1.00  0.00    -0.091 C  
HETATM   16  C   UNL     1      -8.065   9.416  66.598  1.00  0.00    -0.108 C  
BRANCH  14  17
HETATM   17  C   UNL     1      -8.746   7.323  68.793  1.00  0.00    -0.125 C  
BRANCH  17  18
HETATM   18  C   UNL     1      -7.718   6.850  69.836  1.00  0.00    -0.109 C  
BRANCH  18  19
HETATM   19  N   UNL     1      -8.148   7.135  71.180  1.00  0.00    -0.103 N  
HETATM   20  C   UNL     1      -7.788   8.282  71.916  1.00  0.00    -0.124 C  
HETATM   21  O   UNL     1      -7.080   9.205  71.555  1.00  0.00    -0.258 OA 
HETATM   22  N   UNL     1      -8.398   8.153  73.174  1.00  0.00    -0.193 NA 
HETATM   23  C   UNL     1      -9.095   6.949  73.216  1.00  0.00    -0.135 A  
HETATM   24  C   UNL     1      -9.832   6.406  74.241  1.00  0.00    -0.320 A  
HETATM   25  C   UNL     1     -10.418   5.158  74.001  1.00  0.00    -0.323 A  
HETATM   26  C   UNL     1     -10.249   4.498  72.765  1.00  0.00    -0.233 A  
HETATM   27  C   UNL     1      -9.495   5.073  71.736  1.00  0.00    -0.194 A  
HETATM   28  C   UNL     1      -8.933   6.305  71.988  1.00  0.00    -0.142 A  
ENDBRANCH  18  19
ENDBRANCH  17  18
ENDBRANCH  14  17
ENDBRANCH   7  11
TORSDOF 4
ENDMDL
MODEL      190
REMARK 921   NORMALIZED FREE ENERGY PREDICTED BY IDOCK:   -5.15 KCAL/MOL
REMARK 922        TOTAL FREE ENERGY PREDICTED BY IDOCK:   -6.97 KCAL/MOL
REMARK 923 INTER-LIGAND FREE ENERGY PREDICTED BY IDOCK:   -7.14 KCAL/MOL
REMARK 924 INTRA-LIGAND FREE ENERGY PREDICTED BY IDOCK:    0.17 KCAL/MOL
REMARK 927      BINDING AFFINITY PREDICTED BY RF-SCORE:    0.00 PKD
ROOT
HETATM    1  F   UNL     1      -9.961  19.048  69.655  1.00  0.00    -0.276 F  
HETATM    2  C   UNL     1      -9.090  19.202  68.618  1.00  0.00    -0.369 C  
HETATM    3  C   UNL     1      -9.046  18.022  67.682  1.00  0.00    -0.255 A  
HETATM    4  F   UNL     1      -9.456  20.355  67.994  1.00  0.00    -0.427 F  
HETATM    5  F   UNL     1      -7.879  19.454  69.191  1.00  0.00    -0.380 F  
HETATM    6  C   UNL     1      -9.845  16.892  67.930  1.00  0.00    -0.263 A  
HETATM    7  C   UNL     1      -9.813  15.741  67.124  1.00  0.00    -0.226 A  
HETATM    8  C   UNL     1      -8.215  18.028  66.561  1.00  0.00    -0.298 A  
HETATM    9  C   UNL     1      -8.965  15.794  66.007  1.00  0.00    -0.322 A  
HETATM   10  C   UNL     1      -8.182  16.920  65.722  1.00  0.00     0.288 A  
ENDROOT
BRANCH   7  11
HETATM   11  N   UNL     1     -10.644  14.655  67.410  1.00  0.00    -0.262 NA 
HETATM   12  C   UNL     1     -11.879  13.259  69.059  1.00  0.00    -0.321 C  
HETATM   13  C   UNL     1     -10.616  14.110  68.789  1.00  0.00    -0.253 C  
HETATM   14  N   UNL     1     -12.120  12.163  68.091  1.00  0.00    -0.417 NA 
HETATM   15  C   UNL     1     -12.132  12.774  66.738  1.00  0.00    -0.220 C  
HETATM   16  C   UNL     1     -10.884  13.624  66.379  1.00  0.00    -0.290 C  
BRANCH  14  17
HETATM   17  C   UNL     1     -11.104  11.095  68.172  1.00  0.00    -0.264 C  
BRANCH  17  18
HETATM   18  C   UNL     1     -11.269  10.167  69.389  1.00  0.00    -0.215 C  
BRANCH  18  19
HETATM   19  N   UNL     1      -9.998   9.798  69.958  1.00  0.00    -0.242 N  
HETATM   20  C   UNL     1      -8.743  10.116  69.401  1.00  0.00    -0.176 C  
HETATM   21  O   UNL     1      -8.519  10.741  68.379  1.00  0.00    -0.123 OA 
HETATM   22  N   UNL     1      -7.778   9.552  70.251  1.00  0.00    -0.145 NA 
HETATM   23  C   UNL     1      -8.425   8.888  71.289  1.00  0.00    -0.182 A  
HETATM   24  C   UNL     1      -7.887   8.191  72.344  1.00  0.00    -0.169 A  
HETATM   25  C   UNL     1      -8.791   7.609  73.239  1.00  0.00    -0.251 A  
HETATM   26  C   UNL     1     -10.185   7.735  73.053  1.00  0.00    -0.393 A  
HETATM   27  C   UNL     1     -10.708   8.452  71.972  1.00  0.00    -0.387 A  
HETATM   28  C   UNL     1      -9.802   9.024  71.106  1.00  0.00    -0.300 A  
ENDBRANCH  18  19
ENDBRANCH  17  18
ENDBRANCH  14  17
ENDBRANCH   7  11
TORSDOF 4
ENDMDL
MODEL      191
REMARK 921   NORMALIZED FREE ENERGY PREDICTED BY IDOCK:   -5.13 KCAL/MOL
REMARK 922        TOTAL FREE ENERGY PREDICTED BY IDOCK:   -6.96 KCAL/MOL
REMARK 923 INTER-LIGAND FREE ENERGY PREDICTED BY IDOCK:   -6.26 KCAL/MOL
REMARK 924 INTRA-LIGAND FREE ENERGY PREDICTED BY IDOCK:   -0.70 KCAL/MOL
REMARK 927      BINDING AFFINITY PREDICTED BY RF-SCORE:    0.00 PKD
ROOT
HETATM    1  F   UNL     1      -9.306  16.712  67.186  1.00  0.00    -0.217 F  
HETATM    2  C   UNL     1     -10.263  16.991  68.116  1.00  0.00    -0.322 C  
HETATM    3  C   UNL     1     -10.855  15.767  68.764  1.00  0.00    -0.274 A  
HETATM    4  F   UNL     1      -9.675  17.829  69.013  1.00  0.00    -0.292 F  
HETATM    5  F   UNL     1     -11.200  17.737  67.466  1.00  0.00    -0.267 F  
HETATM    6  C   UNL     1     -10.425  14.485  68.381  1.00  0.00    -0.246 A  
HETATM    7  C   UNL     1     -10.972  13.304  68.910  1.00  0.00    -0.240 A  
HETATM    8  C   UNL     1     -11.837  15.882  69.749  1.00  0.00    -0.303 A  
HETATM    9  C   UNL     1     -11.954  13.469  69.900  1.00  0.00    -0.416 A  
HETATM   10  C   UNL     1     -12.378  14.736  70.321  1.00  0.00    -0.400 A  
ENDROOT
BRANCH   7  11
HETATM   11  N   UNL     1     -10.491  12.056  68.504  1.00  0.00    -0.225 NA 
HETATM   12  C   UNL     1     -10.904   9.674  67.912  1.00  0.00    -0.215 C  
HETATM   13  C   UNL     1     -11.323  10.866  68.804  1.00  0.00    -0.292 C  
HETATM   14  N   UNL     1      -9.468   9.313  67.977  1.00  0.00    -0.137 NA 
HETATM   15  C   UNL     1      -8.696  10.544  67.673  1.00  0.00    -0.121 C  
HETATM   16  C   UNL     1      -9.041  11.780  68.545  1.00  0.00    -0.144 C  
BRANCH  14  17
HETATM   17  C   UNL     1      -9.077   8.763  69.291  1.00  0.00    -0.145 C  
BRANCH  17  18
HETATM   18  C   UNL     1      -9.690   7.385  69.598  1.00  0.00    -0.163 C  
BRANCH  18  19
HETATM   19  N   UNL     1      -9.957   7.219  71.004  1.00  0.00    -0.188 N  
HETATM   20  C   UNL     1     -11.218   7.391  71.610  1.00  0.00    -0.247 C  
HETATM   21  O   UNL     1     -12.268   7.693  71.070  1.00  0.00    -0.301 OA 
HETATM   22  N   UNL     1     -11.032   7.159  72.982  1.00  0.00    -0.315 NA 
HETATM   23  C   UNL     1      -9.690   6.875  73.214  1.00  0.00    -0.185 A  
HETATM   24  C   UNL     1      -9.053   6.592  74.398  1.00  0.00    -0.206 A  
HETATM   25  C   UNL     1      -7.675   6.356  74.330  1.00  0.00    -0.098 A  
HETATM   26  C   UNL     1      -6.985   6.415  73.100  1.00  0.00    -0.075 A  
HETATM   27  C   UNL     1      -7.657   6.704  71.908  1.00  0.00    -0.096 A  
HETATM   28  C   UNL     1      -9.014   6.924  71.994  1.00  0.00    -0.133 A  
ENDBRANCH  18  19
ENDBRANCH  17  18
ENDBRANCH  14  17
ENDBRANCH   7  11
TORSDOF 4
ENDMDL
MODEL      192
REMARK 921   NORMALIZED FREE ENERGY PREDICTED BY IDOCK:   -5.13 KCAL/MOL
REMARK 922        TOTAL FREE ENERGY PREDICTED BY IDOCK:   -6.96 KCAL/MOL
REMARK 923 INTER-LIGAND FREE ENERGY PREDICTED BY IDOCK:   -6.22 KCAL/MOL
REMARK 924 INTRA-LIGAND FREE ENERGY PREDICTED BY IDOCK:   -0.73 KCAL/MOL
REMARK 927      BINDING AFFINITY PREDICTED BY RF-SCORE:    0.00 PKD
ROOT
HETATM    1  F   UNL     1     -13.590  12.204  72.590  1.00  0.00    -0.488 F  
HETATM    2  C   UNL     1     -13.228  13.349  71.945  1.00  0.00    -0.431 C  
HETATM    3  C   UNL     1     -12.369  13.114  70.729  1.00  0.00    -0.404 A  
HETATM    4  F   UNL     1     -14.390  13.993  71.652  1.00  0.00    -0.448 F  
HETATM    5  F   UNL     1     -12.601  14.115  72.882  1.00  0.00    -0.387 F  
HETATM    6  C   UNL     1     -11.999  11.808  70.365  1.00  0.00    -0.422 A  
HETATM    7  C   UNL     1     -11.161  11.526  69.273  1.00  0.00    -0.246 A  
HETATM    8  C   UNL     1     -11.926  14.183  69.949  1.00  0.00    -0.398 A  
HETATM    9  C   UNL     1     -10.742  12.631  68.516  1.00  0.00    -0.271 A  
HETATM   10  C   UNL     1     -11.122  13.941  68.841  1.00  0.00    -0.296 A  
ENDROOT
BRANCH   7  11
HETATM   11  N   UNL     1     -10.841  10.205  68.948  1.00  0.00    -0.215 NA 
HETATM   12  C   UNL     1     -10.361   7.867  69.653  1.00  0.00    -0.216 C  
HETATM   13  C   UNL     1     -10.223   9.367  70.004  1.00  0.00    -0.229 C  
HETATM   14  N   UNL     1      -9.829   7.478  68.325  1.00  0.00    -0.159 NA 
HETATM   15  C   UNL     1     -10.483   8.355  67.321  1.00  0.00    -0.303 C  
HETATM   16  C   UNL     1     -10.365   9.879  67.589  1.00  0.00    -0.225 C  
BRANCH  14  17
HETATM   17  C   UNL     1      -8.359   7.597  68.243  1.00  0.00    -0.125 C  
BRANCH  17  18
HETATM   18  C   UNL     1      -7.615   6.257  68.386  1.00  0.00    -0.096 C  
BRANCH  18  19
HETATM   19  N   UNL     1      -7.285   5.971  69.758  1.00  0.00    -0.072 N  
HETATM   20  C   UNL     1      -6.221   6.561  70.470  1.00  0.00    -0.039 C  
HETATM   21  O   UNL     1      -5.426   7.392  70.067  1.00  0.00    -0.023 OA 
HETATM   22  N   UNL     1      -6.239   5.990  71.753  1.00  0.00    -0.043 NA 
HETATM   23  C   UNL     1      -7.272   5.060  71.818  1.00  0.00    -0.071 A  
HETATM   24  C   UNL     1      -7.657   4.260  72.867  1.00  0.00    -0.080 A  
HETATM   25  C   UNL     1      -8.736   3.400  72.639  1.00  0.00    -0.094 A  
HETATM   26  C   UNL     1      -9.384   3.360  71.385  1.00  0.00    -0.207 A  
HETATM   27  C   UNL     1      -8.974   4.185  70.333  1.00  0.00    -0.152 A  
HETATM   28  C   UNL     1      -7.916   5.031  70.580  1.00  0.00    -0.081 A  
ENDBRANCH  18  19
ENDBRANCH  17  18
ENDBRANCH  14  17
ENDBRANCH   7  11
TORSDOF 4
ENDMDL
MODEL      193
REMARK 921   NORMALIZED FREE ENERGY PREDICTED BY IDOCK:   -5.11 KCAL/MOL
REMARK 922        TOTAL FREE ENERGY PREDICTED BY IDOCK:   -6.92 KCAL/MOL
REMARK 923 INTER-LIGAND FREE ENERGY PREDICTED BY IDOCK:   -6.23 KCAL/MOL
REMARK 924 INTRA-LIGAND FREE ENERGY PREDICTED BY IDOCK:   -0.70 KCAL/MOL
REMARK 927      BINDING AFFINITY PREDICTED BY RF-SCORE:    0.00 PKD
ROOT
HETATM    1  F   UNL     1     -11.386  11.306  63.091  1.00  0.00    -0.387 F  
HETATM    2  C   UNL     1     -12.162  12.282  63.640  1.00  0.00    -0.567 C  
HETATM    3  C   UNL     1     -11.607  12.852  64.919  1.00  0.00    -0.365 A  
HETATM    4  F   UNL     1     -12.316  13.223  62.668  1.00  0.00    -0.352 F  
HETATM    5  F   UNL     1     -13.391  11.720  63.814  1.00  0.00    -0.516 F  
HETATM    6  C   UNL     1     -10.402  12.358  65.449  1.00  0.00    -0.303 A  
HETATM    7  C   UNL     1      -9.857  12.812  66.662  1.00  0.00    -0.250 A  
HETATM    8  C   UNL     1     -12.274  13.872  65.598  1.00  0.00    -0.477 A  
HETATM    9  C   UNL     1     -10.561  13.840  67.308  1.00  0.00    -0.275 A  
HETATM   10  C   UNL     1     -11.748  14.370  66.784  1.00  0.00    -0.415 A  
ENDROOT
BRANCH   7  11
HETATM   11  N   UNL     1      -8.646  12.296  67.131  1.00  0.00    -0.181 NA 
HETATM   12  C   UNL     1      -6.562  10.991  66.740  1.00  0.00    -0.124 C  
HETATM   13  C   UNL     1      -8.067  11.136  66.410  1.00  0.00    -0.159 C  
HETATM   14  N   UNL     1      -6.240  10.898  68.184  1.00  0.00    -0.050 NA 
HETATM   15  C   UNL     1      -6.851  12.081  68.843  1.00  0.00    -0.103 C  
HETATM   16  C   UNL     1      -8.367  12.281  68.581  1.00  0.00    -0.002 C  
BRANCH  14  17
HETATM   17  C   UNL     1      -6.731   9.648  68.799  1.00  0.00    -0.051 C  
BRANCH  17  18
HETATM   18  C   UNL     1      -6.180   8.371  68.139  1.00  0.00    -0.051 C  
BRANCH  18  19
HETATM   19  N   UNL     1      -7.227   7.584  67.539  1.00  0.00    -0.088 N  
HETATM   20  C   UNL     1      -7.269   7.197  66.185  1.00  0.00    -0.074 C  
HETATM   21  O   UNL     1      -6.452   7.445  65.314  1.00  0.00    -0.040 OA 
HETATM   22  N   UNL     1      -8.458   6.470  66.017  1.00  0.00    -0.139 NA 
HETATM   23  C   UNL     1      -9.138   6.431  67.231  1.00  0.00    -0.117 A  
HETATM   24  C   UNL     1     -10.340   5.840  67.535  1.00  0.00    -0.274 A  
HETATM   25  C   UNL     1     -10.792   5.976  68.853  1.00  0.00    -0.400 A  
HETATM   26  C   UNL     1     -10.042   6.694  69.810  1.00  0.00    -0.204 A  
HETATM   27  C   UNL     1      -8.820   7.285  69.475  1.00  0.00    -0.137 A  
HETATM   28  C   UNL     1      -8.388   7.133  68.176  1.00  0.00    -0.124 A  
ENDBRANCH  18  19
ENDBRANCH  17  18
ENDBRANCH  14  17
ENDBRANCH   7  11
TORSDOF 4
ENDMDL
MODEL      194
REMARK 921   NORMALIZED FREE ENERGY PREDICTED BY IDOCK:   -5.08 KCAL/MOL
REMARK 922        TOTAL FREE ENERGY PREDICTED BY IDOCK:   -6.89 KCAL/MOL
REMARK 923 INTER-LIGAND FREE ENERGY PREDICTED BY IDOCK:   -6.19 KCAL/MOL
REMARK 924 INTRA-LIGAND FREE ENERGY PREDICTED BY IDOCK:   -0.70 KCAL/MOL
REMARK 927      BINDING AFFINITY PREDICTED BY RF-SCORE:    0.00 PKD
ROOT
HETATM    1  F   UNL     1      -9.386   3.816  67.684  1.00  0.00    -0.159 F  
HETATM    2  C   UNL     1      -9.230   2.861  68.644  1.00  0.00    -0.173 C  
HETATM    3  C   UNL     1      -9.642   3.311  70.021  1.00  0.00    -0.182 A  
HETATM    4  F   UNL     1      -9.936   1.781  68.210  1.00  0.00    -0.231 F  
HETATM    5  F   UNL     1      -7.918   2.496  68.589  1.00  0.00    -0.053 F  
HETATM    6  C   UNL     1     -10.116   4.619  70.226  1.00  0.00    -0.276 A  
HETATM    7  C   UNL     1     -10.469   5.116  71.492  1.00  0.00    -0.185 A  
HETATM    8  C   UNL     1      -9.559   2.446  71.113  1.00  0.00    -0.215 A  
HETATM    9  C   UNL     1     -10.372   4.209  72.559  1.00  0.00    -0.228 A  
HETATM   10  C   UNL     1      -9.931   2.891  72.375  1.00  0.00    -0.235 A  
ENDROOT
BRANCH   7  11
HETATM   11  N   UNL     1     -10.952   6.419  71.631  1.00  0.00    -0.247 NA 
HETATM   12  C   UNL     1     -12.860   7.996  71.892  1.00  0.00    -0.320 C  
HETATM   13  C   UNL     1     -12.365   6.673  71.260  1.00  0.00    -0.273 C  
HETATM   14  N   UNL     1     -12.037   9.189  71.582  1.00  0.00    -0.338 NA 
HETATM   15  C   UNL     1     -10.641   8.866  71.971  1.00  0.00    -0.318 C  
HETATM   16  C   UNL     1     -10.061   7.565  71.356  1.00  0.00    -0.186 C  
BRANCH  14  17
HETATM   17  C   UNL     1     -12.106   9.576  70.159  1.00  0.00     0.174 C  
BRANCH  17  18
HETATM   18  C   UNL     1     -11.293  10.837  69.814  1.00  0.00    -0.300 C  
BRANCH  18  19
HETATM   19  N   UNL     1     -11.019  10.930  68.404  1.00  0.00    -0.217 N  
HETATM   20  C   UNL     1     -11.505  11.943  67.553  1.00  0.00    -0.326 C  
HETATM   21  O   UNL     1     -12.213  12.889  67.852  1.00  0.00    -0.234 OA 
HETATM   22  N   UNL     1     -11.026  11.644  66.268  1.00  0.00    -0.288 NA 
HETATM   23  C   UNL     1     -10.284  10.468  66.325  1.00  0.00    -0.235 A  
HETATM   24  C   UNL     1      -9.636   9.799  65.315  1.00  0.00    -0.368 A  
HETATM   25  C   UNL     1      -8.972   8.619  65.667  1.00  0.00    -0.231 A  
HETATM   26  C   UNL     1      -8.981   8.147  66.998  1.00  0.00    -0.160 A  
HETATM   27  C   UNL     1      -9.647   8.847  68.008  1.00  0.00    -0.167 A  
HETATM   28  C   UNL     1     -10.288  10.011  67.644  1.00  0.00    -0.224 A  
ENDBRANCH  18  19
ENDBRANCH  17  18
ENDBRANCH  14  17
ENDBRANCH   7  11
TORSDOF 4
ENDMDL
MODEL      195
REMARK 921   NORMALIZED FREE ENERGY PREDICTED BY IDOCK:   -5.08 KCAL/MOL
REMARK 922        TOTAL FREE ENERGY PREDICTED BY IDOCK:   -6.88 KCAL/MOL
REMARK 923 INTER-LIGAND FREE ENERGY PREDICTED BY IDOCK:   -6.12 KCAL/MOL
REMARK 924 INTRA-LIGAND FREE ENERGY PREDICTED BY IDOCK:   -0.76 KCAL/MOL
REMARK 927      BINDING AFFINITY PREDICTED BY RF-SCORE:    0.00 PKD
ROOT
HETATM    1  F   UNL     1     -12.858  12.524  65.196  1.00  0.00    -0.541 F  
HETATM    2  C   UNL     1     -12.281  12.348  63.974  1.00  0.00    -0.490 C  
HETATM    3  C   UNL     1     -10.941  11.661  64.028  1.00  0.00    -0.456 A  
HETATM    4  F   UNL     1     -13.192  11.665  63.228  1.00  0.00    -0.592 F  
HETATM    5  F   UNL     1     -12.204  13.592  63.422  1.00  0.00    -0.551 F  
HETATM    6  C   UNL     1     -10.389  11.283  65.265  1.00  0.00    -0.337 A  
HETATM    7  C   UNL     1      -9.124  10.685  65.388  1.00  0.00    -0.189 A  
HETATM    8  C   UNL     1     -10.225  11.393  62.860  1.00  0.00    -0.213 A  
HETATM    9  C   UNL     1      -8.443  10.431  64.187  1.00  0.00    -0.163 A  
HETATM   10  C   UNL     1      -8.984  10.772  62.940  1.00  0.00    -0.284 A  
ENDROOT
BRANCH   7  11
HETATM   11  N   UNL     1      -8.635  10.314  66.643  1.00  0.00    -0.127 NA 
HETATM   12  C   UNL     1      -7.110   8.929  68.040  1.00  0.00    -0.079 C  
HETATM   13  C   UNL     1      -7.980   8.989  66.762  1.00  0.00    -0.107 C  
HETATM   14  N   UNL     1      -7.819   9.254  69.301  1.00  0.00    -0.083 NA 
HETATM   15  C   UNL     1      -8.453  10.584  69.112  1.00  0.00    -0.147 C  
HETATM   16  C   UNL     1      -9.364  10.716  67.863  1.00  0.00    -0.148 C  
BRANCH  14  17
HETATM   17  C   UNL     1      -8.830   8.241  69.665  1.00  0.00    -0.139 C  
BRANCH  17  18
HETATM   18  C   UNL     1      -8.326   6.791  69.560  1.00  0.00    -0.132 C  
BRANCH  18  19
HETATM   19  N   UNL     1      -9.045   6.044  68.561  1.00  0.00    -0.113 N  
HETATM   20  C   UNL     1     -10.418   5.731  68.622  1.00  0.00    -0.229 C  
HETATM   21  O   UNL     1     -11.212   6.031  69.497  1.00  0.00    -0.398 OA 
HETATM   22  N   UNL     1     -10.704   4.980  67.471  1.00  0.00     0.055 NA 
HETATM   23  C   UNL     1      -9.534   4.818  66.735  1.00  0.00    -0.155 A  
HETATM   24  C   UNL     1      -9.337   4.152  65.549  1.00  0.00    -0.162 A  
HETATM   25  C   UNL     1      -8.033   4.143  65.042  1.00  0.00    -0.093 A  
HETATM   26  C   UNL     1      -6.979   4.785  65.728  1.00  0.00    -0.063 A  
HETATM   27  C   UNL     1      -7.206   5.458  66.933  1.00  0.00    -0.078 A  
HETATM   28  C   UNL     1      -8.498   5.463  67.412  1.00  0.00    -0.106 A  
ENDBRANCH  18  19
ENDBRANCH  17  18
ENDBRANCH  14  17
ENDBRANCH   7  11
TORSDOF 4
ENDMDL
MODEL      196
REMARK 921   NORMALIZED FREE ENERGY PREDICTED BY IDOCK:   -5.07 KCAL/MOL
REMARK 922        TOTAL FREE ENERGY PREDICTED BY IDOCK:   -6.88 KCAL/MOL
REMARK 923 INTER-LIGAND FREE ENERGY PREDICTED BY IDOCK:   -6.02 KCAL/MOL
REMARK 924 INTRA-LIGAND FREE ENERGY PREDICTED BY IDOCK:   -0.86 KCAL/MOL
REMARK 927      BINDING AFFINITY PREDICTED BY RF-SCORE:    0.00 PKD
ROOT
HETATM    1  F   UNL     1     -12.714  11.439  71.017  1.00  0.00    -0.422 F  
HETATM    2  C   UNL     1     -12.876  10.090  71.118  1.00  0.00    -0.385 C  
HETATM    3  C   UNL     1     -11.709   9.297  70.590  1.00  0.00    -0.276 A  
HETATM    4  F   UNL     1     -13.126   9.844  72.433  1.00  0.00    -0.477 F  
HETATM    5  F   UNL     1     -14.034   9.808  70.458  1.00  0.00    -0.254 F  
HETATM    6  C   UNL     1     -10.596   9.957  70.039  1.00  0.00    -0.335 A  
HETATM    7  C   UNL     1      -9.499   9.276  69.485  1.00  0.00    -0.173 A  
HETATM    8  C   UNL     1     -11.711   7.902  70.635  1.00  0.00    -0.169 A  
HETATM    9  C   UNL     1      -9.544   7.875  69.555  1.00  0.00    -0.160 A  
HETATM   10  C   UNL     1     -10.628   7.194  70.126  1.00  0.00    -0.247 A  
ENDROOT
BRANCH   7  11
HETATM   11  N   UNL     1      -8.413   9.986  68.967  1.00  0.00    -0.136 NA 
HETATM   12  C   UNL     1      -6.037  10.711  69.127  1.00  0.00    -0.042 C  
HETATM   13  C   UNL     1      -7.329  10.364  69.905  1.00  0.00    -0.142 C  
HETATM   14  N   UNL     1      -6.189  11.755  68.086  1.00  0.00    -0.049 NA 
HETATM   15  C   UNL     1      -7.288  11.317  67.189  1.00  0.00    -0.130 C  
HETATM   16  C   UNL     1      -8.628  10.976  67.893  1.00  0.00    -0.133 C  
BRANCH  14  17
HETATM   17  C   UNL     1      -6.478  13.088  68.653  1.00  0.00    -0.087 C  
BRANCH  17  18
HETATM   18  C   UNL     1      -6.898  14.135  67.605  1.00  0.00    -0.179 C  
BRANCH  18  19
HETATM   19  N   UNL     1      -7.716  15.170  68.181  1.00  0.00    -0.111 N  
HETATM   20  C   UNL     1      -7.264  16.462  68.517  1.00  0.00    -0.170 C  
HETATM   21  O   UNL     1      -6.141  16.916  68.379  1.00  0.00    -0.134 OA 
HETATM   22  N   UNL     1      -8.365  17.137  69.066  1.00  0.00    -0.174 NA 
HETATM   23  C   UNL     1      -9.458  16.276  69.086  1.00  0.00    -0.246 A  
HETATM   24  C   UNL     1     -10.735  16.503  69.539  1.00  0.00    -0.321 A  
HETATM   25  C   UNL     1     -11.634  15.434  69.446  1.00  0.00    -0.354 A  
HETATM   26  C   UNL     1     -11.233  14.188  68.916  1.00  0.00    -0.294 A  
HETATM   27  C   UNL     1      -9.927  13.983  68.460  1.00  0.00    -0.230 A  
HETATM   28  C   UNL     1      -9.059  15.049  68.552  1.00  0.00    -0.188 A  
ENDBRANCH  18  19
ENDBRANCH  17  18
ENDBRANCH  14  17
ENDBRANCH   7  11
TORSDOF 4
ENDMDL
MODEL      197
REMARK 921   NORMALIZED FREE ENERGY PREDICTED BY IDOCK:   -5.07 KCAL/MOL
REMARK 922        TOTAL FREE ENERGY PREDICTED BY IDOCK:   -6.88 KCAL/MOL
REMARK 923 INTER-LIGAND FREE ENERGY PREDICTED BY IDOCK:   -6.14 KCAL/MOL
REMARK 924 INTRA-LIGAND FREE ENERGY PREDICTED BY IDOCK:   -0.74 KCAL/MOL
REMARK 927      BINDING AFFINITY PREDICTED BY RF-SCORE:    0.00 PKD
ROOT
HETATM    1  F   UNL     1     -12.601  12.437  71.352  1.00  0.00    -0.431 F  
HETATM    2  C   UNL     1     -12.593  13.800  71.339  1.00  0.00    -0.348 C  
HETATM    3  C   UNL     1     -12.168  14.392  70.020  1.00  0.00    -0.408 A  
HETATM    4  F   UNL     1     -13.847  14.181  71.706  1.00  0.00    -0.401 F  
HETATM    5  F   UNL     1     -11.774  14.173  72.362  1.00  0.00    -0.041 F  
HETATM    6  C   UNL     1     -11.807  13.553  68.951  1.00  0.00    -0.384 A  
HETATM    7  C   UNL     1     -11.354  14.041  67.714  1.00  0.00    -0.303 A  
HETATM    8  C   UNL     1     -12.122  15.775  69.837  1.00  0.00    -0.315 A  
HETATM    9  C   UNL     1     -11.328  15.438  67.575  1.00  0.00    -0.269 A  
HETATM   10  C   UNL     1     -11.711  16.295  68.616  1.00  0.00    -0.113 A  
ENDROOT
BRANCH   7  11
HETATM   11  N   UNL     1     -11.027  13.159  66.682  1.00  0.00    -0.280 NA 
HETATM   12  C   UNL     1     -11.157  10.894  65.658  1.00  0.00     0.139 C  
HETATM   13  C   UNL     1     -11.087  11.706  66.973  1.00  0.00    -0.302 C  
HETATM   14  N   UNL     1     -10.068  11.168  64.689  1.00  0.00    -0.277 NA 
HETATM   15  C   UNL     1     -10.060  12.633  64.448  1.00  0.00    -0.256 C  
HETATM   16  C   UNL     1      -9.966  13.517  65.719  1.00  0.00    -0.252 C  
BRANCH  14  17
HETATM   17  C   UNL     1      -8.749  10.711  65.171  1.00  0.00    -0.186 C  
BRANCH  17  18
HETATM   18  C   UNL     1      -8.773   9.324  65.837  1.00  0.00    -0.154 C  
BRANCH  18  19
HETATM   19  N   UNL     1      -8.175   9.348  67.147  1.00  0.00    -0.113 N  
HETATM   20  C   UNL     1      -6.790   9.427  67.399  1.00  0.00    -0.080 C  
HETATM   21  O   UNL     1      -5.888   9.493  66.582  1.00  0.00    -0.053 OA 
HETATM   22  N   UNL     1      -6.640   9.401  68.795  1.00  0.00    -0.052 NA 
HETATM   23  C   UNL     1      -7.896   9.285  69.382  1.00  0.00    -0.083 A  
HETATM   24  C   UNL     1      -8.231   9.216  70.713  1.00  0.00    -0.226 A  
HETATM   25  C   UNL     1      -9.592   9.089  71.012  1.00  0.00    -0.348 A  
HETATM   26  C   UNL     1     -10.562   9.030  69.988  1.00  0.00    -0.246 A  
HETATM   27  C   UNL     1     -10.196   9.104  68.641  1.00  0.00    -0.225 A  
HETATM   28  C   UNL     1      -8.852   9.238  68.366  1.00  0.00    -0.129 A  
ENDBRANCH  18  19
ENDBRANCH  17  18
ENDBRANCH  14  17
ENDBRANCH   7  11
TORSDOF 4
ENDMDL
MODEL      198
REMARK 921   NORMALIZED FREE ENERGY PREDICTED BY IDOCK:   -5.07 KCAL/MOL
REMARK 922        TOTAL FREE ENERGY PREDICTED BY IDOCK:   -6.88 KCAL/MOL
REMARK 923 INTER-LIGAND FREE ENERGY PREDICTED BY IDOCK:   -6.27 KCAL/MOL
REMARK 924 INTRA-LIGAND FREE ENERGY PREDICTED BY IDOCK:   -0.61 KCAL/MOL
REMARK 927      BINDING AFFINITY PREDICTED BY RF-SCORE:    0.00 PKD
ROOT
HETATM    1  F   UNL     1     -11.601  17.023  72.486  1.00  0.00    -0.519 F  
HETATM    2  C   UNL     1     -12.424  16.151  73.135  1.00  0.00    -0.519 C  
HETATM    3  C   UNL     1     -12.635  14.853  72.400  1.00  0.00    -0.425 A  
HETATM    4  F   UNL     1     -11.877  15.974  74.369  1.00  0.00    -0.436 F  
HETATM    5  F   UNL     1     -13.590  16.828  73.336  1.00  0.00    -0.218 F  
HETATM    6  C   UNL     1     -12.022  14.639  71.153  1.00  0.00    -0.405 A  
HETATM    7  C   UNL     1     -12.218  13.472  70.394  1.00  0.00    -0.356 A  
HETATM    8  C   UNL     1     -13.439  13.848  72.938  1.00  0.00    -0.369 A  
HETATM    9  C   UNL     1     -13.032  12.488  70.977  1.00  0.00    -0.154 A  
HETATM   10  C   UNL     1     -13.629  12.666  72.232  1.00  0.00    -0.508 A  
ENDROOT
BRANCH   7  11
HETATM   11  N   UNL     1     -11.567  13.307  69.169  1.00  0.00    -0.299 NA 
HETATM   12  C   UNL     1     -11.476  12.301  66.894  1.00  0.00    -0.356 C  
HETATM   13  C   UNL     1     -11.903  12.105  68.368  1.00  0.00    -0.303 C  
HETATM   14  N   UNL     1     -10.052  12.658  66.692  1.00  0.00    -0.236 NA 
HETATM   15  C   UNL     1      -9.784  13.860  67.522  1.00  0.00    -0.232 C  
HETATM   16  C   UNL     1     -10.161  13.733  69.021  1.00  0.00    -0.026 C  
BRANCH  14  17
HETATM   17  C   UNL     1      -9.132  11.560  67.052  1.00  0.00    -0.175 C  
BRANCH  17  18
HETATM   18  C   UNL     1      -7.644  11.904  66.857  1.00  0.00    -0.093 C  
BRANCH  18  19
HETATM   19  N   UNL     1      -6.827  10.720  66.775  1.00  0.00    -0.106 N  
HETATM   20  C   UNL     1      -6.174  10.115  67.867  1.00  0.00    -0.057 C  
HETATM   21  O   UNL     1      -6.189  10.469  69.033  1.00  0.00    -0.043 OA 
HETATM   22  N   UNL     1      -5.475   9.013  67.348  1.00  0.00    -0.041 NA 
HETATM   23  C   UNL     1      -5.677   8.957  65.972  1.00  0.00    -0.050 A  
HETATM   24  C   UNL     1      -5.185   8.058  65.057  1.00  0.00    -0.032 A  
HETATM   25  C   UNL     1      -5.549   8.259  63.721  1.00  0.00    -0.061 A  
HETATM   26  C   UNL     1      -6.375   9.340  63.345  1.00  0.00    -0.091 A  
HETATM   27  C   UNL     1      -6.864  10.241  64.296  1.00  0.00    -0.057 A  
HETATM   28  C   UNL     1      -6.503  10.022  65.607  1.00  0.00    -0.099 A  
ENDBRANCH  18  19
ENDBRANCH  17  18
ENDBRANCH  14  17
ENDBRANCH   7  11
TORSDOF 4
ENDMDL
MODEL      199
REMARK 921   NORMALIZED FREE ENERGY PREDICTED BY IDOCK:   -5.05 KCAL/MOL
REMARK 922        TOTAL FREE ENERGY PREDICTED BY IDOCK:   -6.85 KCAL/MOL
REMARK 923 INTER-LIGAND FREE ENERGY PREDICTED BY IDOCK:   -6.38 KCAL/MOL
REMARK 924 INTRA-LIGAND FREE ENERGY PREDICTED BY IDOCK:   -0.47 KCAL/MOL
REMARK 927      BINDING AFFINITY PREDICTED BY RF-SCORE:    0.00 PKD
ROOT
HETATM    1  F   UNL     1      -7.515   4.112  67.233  1.00  0.00    -0.069 F  
HETATM    2  C   UNL     1      -7.988   3.397  68.292  1.00  0.00    -0.070 C  
HETATM    3  C   UNL     1      -8.769   4.223  69.282  1.00  0.00    -0.121 A  
HETATM    4  F   UNL     1      -8.723   2.384  67.758  1.00  0.00    -0.092 F  
HETATM    5  F   UNL     1      -6.895   2.809  68.856  1.00  0.00    -0.035 F  
HETATM    6  C   UNL     1      -8.936   5.603  69.076  1.00  0.00    -0.117 A  
HETATM    7  C   UNL     1      -9.609   6.437  69.985  1.00  0.00    -0.158 A  
HETATM    8  C   UNL     1      -9.333   3.637  70.416  1.00  0.00    -0.238 A  
HETATM    9  C   UNL     1     -10.163   5.803  71.108  1.00  0.00    -0.275 A  
HETATM   10  C   UNL     1     -10.035   4.424  71.321  1.00  0.00    -0.245 A  
ENDROOT
BRANCH   7  11
HETATM   11  N   UNL     1      -9.760   7.800  69.717  1.00  0.00    -0.175 NA 
HETATM   12  C   UNL     1     -10.802   9.998  70.243  1.00  0.00    -0.313 C  
HETATM   13  C   UNL     1     -10.994   8.464  70.202  1.00  0.00    -0.215 C  
HETATM   14  N   UNL     1     -10.368  10.614  68.966  1.00  0.00    -0.207 NA 
HETATM   15  C   UNL     1      -9.138   9.902  68.537  1.00  0.00    -0.125 C  
HETATM   16  C   UNL     1      -9.258   8.358  68.445  1.00  0.00    -0.135 C  
BRANCH  14  17
HETATM   17  C   UNL     1     -11.405  10.541  67.917  1.00  0.00    -0.222 C  
BRANCH  17  18
HETATM   18  C   UNL     1     -10.978  11.160  66.573  1.00  0.00    -0.209 C  
BRANCH  18  19
HETATM   19  N   UNL     1     -11.350  12.548  66.480  1.00  0.00    -0.314 N  
HETATM   20  C   UNL     1     -12.378  13.054  65.659  1.00  0.00    -0.446 C  
HETATM   21  O   UNL     1     -13.111  12.427  64.914  1.00  0.00    -0.765 OA 
HETATM   22  N   UNL     1     -12.390  14.444  65.851  1.00  0.00    -0.369 NA 
HETATM   23  C   UNL     1     -11.382  14.785  66.749  1.00  0.00    -0.346 A  
HETATM   24  C   UNL     1     -11.023  16.023  67.224  1.00  0.00    -0.207 A  
HETATM   25  C   UNL     1      -9.948  16.065  68.120  1.00  0.00    -0.228 A  
HETATM   26  C   UNL     1      -9.272  14.886  68.503  1.00  0.00    -0.192 A  
HETATM   27  C   UNL     1      -9.658  13.637  68.006  1.00  0.00    -0.216 A  
HETATM   28  C   UNL     1     -10.724  13.615  67.133  1.00  0.00    -0.277 A  
ENDBRANCH  18  19
ENDBRANCH  17  18
ENDBRANCH  14  17
ENDBRANCH   7  11
TORSDOF 4
ENDMDL
MODEL      200
REMARK 921   NORMALIZED FREE ENERGY PREDICTED BY IDOCK:   -5.04 KCAL/MOL
REMARK 922        TOTAL FREE ENERGY PREDICTED BY IDOCK:   -6.85 KCAL/MOL
REMARK 923 INTER-LIGAND FREE ENERGY PREDICTED BY IDOCK:   -6.64 KCAL/MOL
REMARK 924 INTRA-LIGAND FREE ENERGY PREDICTED BY IDOCK:   -0.21 KCAL/MOL
REMARK 927      BINDING AFFINITY PREDICTED BY RF-SCORE:    0.00 PKD
ROOT
HETATM    1  F   UNL     1      -9.711   3.103  73.459  1.00  0.00    -0.110 F  
HETATM    2  C   UNL     1      -9.608   2.369  72.316  1.00  0.00    -0.112 C  
HETATM    3  C   UNL     1      -9.543   3.203  71.063  1.00  0.00    -0.228 A  
HETATM    4  F   UNL     1      -8.512   1.579  72.479  1.00  0.00    -0.050 F  
HETATM    5  F   UNL     1     -10.680   1.527  72.323  1.00  0.00    -0.225 F  
HETATM    6  C   UNL     1      -9.608   4.605  71.142  1.00  0.00    -0.238 A  
HETATM    7  C   UNL     1      -9.602   5.437  70.009  1.00  0.00    -0.169 A  
HETATM    8  C   UNL     1      -9.421   2.603  69.808  1.00  0.00    -0.145 A  
HETATM    9  C   UNL     1      -9.475   4.789  68.770  1.00  0.00    -0.209 A  
HETATM   10  C   UNL     1      -9.379   3.395  68.667  1.00  0.00    -0.232 A  
ENDROOT
BRANCH   7  11
HETATM   11  N   UNL     1      -9.651   6.826  70.150  1.00  0.00    -0.161 NA 
HETATM   12  C   UNL     1     -10.963   8.937  70.269  1.00  0.00    -0.241 C  
HETATM   13  C   UNL     1     -10.853   7.528  69.640  1.00  0.00    -0.202 C  
HETATM   14  N   UNL     1      -9.768   9.798  70.101  1.00  0.00    -0.254 NA 
HETATM   15  C   UNL     1      -8.607   9.036  70.624  1.00  0.00    -0.210 C  
HETATM   16  C   UNL     1      -8.412   7.620  70.022  1.00  0.00    -0.136 C  
BRANCH  14  17
HETATM   17  C   UNL     1      -9.542  10.193  68.696  1.00  0.00    -0.163 C  
BRANCH  17  18
HETATM   18  C   UNL     1     -10.755   9.954  67.778  1.00  0.00    -0.277 C  
BRANCH  18  19
HETATM   19  N   UNL     1     -10.837  10.940  66.731  1.00  0.00    -0.251 N  
HETATM   20  C   UNL     1     -11.569  12.141  66.811  1.00  0.00    -0.345 C  
HETATM   21  O   UNL     1     -12.233  12.547  67.750  1.00  0.00    -0.372 OA 
HETATM   22  N   UNL     1     -11.401  12.791  65.579  1.00  0.00    -0.301 NA 
HETATM   23  C   UNL     1     -10.605  11.999  64.756  1.00  0.00    -0.297 A  
HETATM   24  C   UNL     1     -10.186  12.229  63.468  1.00  0.00    -0.410 A  
HETATM   25  C   UNL     1      -9.393  11.238  62.878  1.00  0.00    -0.376 A  
HETATM   26  C   UNL     1      -9.054  10.061  63.581  1.00  0.00    -0.301 A  
HETATM   27  C   UNL     1      -9.492   9.852  64.893  1.00  0.00    -0.355 A  
HETATM   28  C   UNL     1     -10.263  10.842  65.459  1.00  0.00    -0.271 A  
ENDBRANCH  18  19
ENDBRANCH  17  18
ENDBRANCH  14  17
ENDBRANCH   7  11
TORSDOF 4
ENDMDL
MODEL      201
REMARK 921   NORMALIZED FREE ENERGY PREDICTED BY IDOCK:   -5.04 KCAL/MOL
REMARK 922        TOTAL FREE ENERGY PREDICTED BY IDOCK:   -6.85 KCAL/MOL
REMARK 923 INTER-LIGAND FREE ENERGY PREDICTED BY IDOCK:   -6.27 KCAL/MOL
REMARK 924 INTRA-LIGAND FREE ENERGY PREDICTED BY IDOCK:   -0.58 KCAL/MOL
REMARK 927      BINDING AFFINITY PREDICTED BY RF-SCORE:    0.00 PKD
ROOT
HETATM    1  F   UNL     1      -5.982   5.658  69.606  1.00  0.00    -0.017 F  
HETATM    2  C   UNL     1      -6.243   4.321  69.612  1.00  0.00    -0.027 C  
HETATM    3  C   UNL     1      -7.577   3.965  70.216  1.00  0.00    -0.045 A  
HETATM    4  F   UNL     1      -6.127   3.914  68.319  1.00  0.00    -0.027 F  
HETATM    5  F   UNL     1      -5.203   3.747  70.280  1.00  0.00    -0.003 F  
HETATM    6  C   UNL     1      -8.415   4.973  70.725  1.00  0.00    -0.119 A  
HETATM    7  C   UNL     1      -9.647   4.704  71.345  1.00  0.00    -0.166 A  
HETATM    8  C   UNL     1      -8.001   2.637  70.285  1.00  0.00    -0.052 A  
HETATM    9  C   UNL     1     -10.033   3.355  71.388  1.00  0.00    -0.135 A  
HETATM   10  C   UNL     1      -9.229   2.335  70.861  1.00  0.00    -0.192 A  
ENDROOT
BRANCH   7  11
HETATM   11  N   UNL     1     -10.446   5.749  71.815  1.00  0.00    -0.221 NA 
HETATM   12  C   UNL     1     -12.639   6.924  71.885  1.00  0.00    -0.297 C  
HETATM   13  C   UNL     1     -11.647   6.107  71.023  1.00  0.00    -0.191 C  
HETATM   14  N   UNL     1     -12.073   8.139  72.517  1.00  0.00    -0.355 NA 
HETATM   15  C   UNL     1     -10.877   7.711  73.286  1.00  0.00    -0.321 C  
HETATM   16  C   UNL     1      -9.820   6.907  72.484  1.00  0.00    -0.157 C  
BRANCH  14  17
HETATM   17  C   UNL     1     -11.714   9.180  71.533  1.00  0.00    -0.363 C  
BRANCH  17  18
HETATM   18  C   UNL     1     -12.919   9.977  71.001  1.00  0.00    -0.360 C  
BRANCH  18  19
HETATM   19  N   UNL     1     -12.553  11.320  70.631  1.00  0.00    -0.309 N  
HETATM   20  C   UNL     1     -12.791  12.465  71.417  1.00  0.00    -0.260 C  
HETATM   21  O   UNL     1     -13.323  12.519  72.512  1.00  0.00    -0.413 OA 
HETATM   22  N   UNL     1     -12.303  13.558  70.683  1.00  0.00    -0.360 NA 
HETATM   23  C   UNL     1     -11.800  13.097  69.469  1.00  0.00    -0.322 A  
HETATM   24  C   UNL     1     -11.233  13.806  68.438  1.00  0.00    -0.300 A  
HETATM   25  C   UNL     1     -10.824  13.070  67.320  1.00  0.00    -0.270 A  
HETATM   26  C   UNL     1     -10.998  11.670  67.265  1.00  0.00    -0.318 A  
HETATM   27  C   UNL     1     -11.577  10.971  68.329  1.00  0.00    -0.354 A  
HETATM   28  C   UNL     1     -11.965  11.711  69.424  1.00  0.00    -0.316 A  
ENDBRANCH  18  19
ENDBRANCH  17  18
ENDBRANCH  14  17
ENDBRANCH   7  11
TORSDOF 4
ENDMDL
MODEL      202
REMARK 921   NORMALIZED FREE ENERGY PREDICTED BY IDOCK:   -5.04 KCAL/MOL
REMARK 922        TOTAL FREE ENERGY PREDICTED BY IDOCK:   -6.84 KCAL/MOL
REMARK 923 INTER-LIGAND FREE ENERGY PREDICTED BY IDOCK:   -6.17 KCAL/MOL
REMARK 924 INTRA-LIGAND FREE ENERGY PREDICTED BY IDOCK:   -0.67 KCAL/MOL
REMARK 927      BINDING AFFINITY PREDICTED BY RF-SCORE:    0.00 PKD
ROOT
HETATM    1  F   UNL     1     -11.758   5.621  72.038  1.00  0.00    -0.308 F  
HETATM    2  C   UNL     1     -10.638   5.165  72.668  1.00  0.00    -0.228 C  
HETATM    3  C   UNL     1      -9.368   5.832  72.206  1.00  0.00    -0.155 A  
HETATM    4  F   UNL     1     -10.867   5.334  73.999  1.00  0.00    -0.292 F  
HETATM    5  F   UNL     1     -10.622   3.819  72.459  1.00  0.00    -0.238 F  
HETATM    6  C   UNL     1      -9.409   6.812  71.200  1.00  0.00    -0.159 A  
HETATM    7  C   UNL     1      -8.257   7.435  70.691  1.00  0.00    -0.112 A  
HETATM    8  C   UNL     1      -8.135   5.489  72.764  1.00  0.00    -0.109 A  
HETATM    9  C   UNL     1      -7.041   7.061  71.284  1.00  0.00    -0.073 A  
HETATM   10  C   UNL     1      -6.977   6.108  72.309  1.00  0.00    -0.075 A  
ENDROOT
BRANCH   7  11
HETATM   11  N   UNL     1      -8.361   8.417  69.702  1.00  0.00    -0.120 NA 
HETATM   12  C   UNL     1      -9.074  10.693  68.990  1.00  0.00    -0.166 C  
HETATM   13  C   UNL     1      -9.389   9.471  69.884  1.00  0.00    -0.223 C  
HETATM   14  N   UNL     1      -8.910  10.394  67.547  1.00  0.00    -0.134 NA 
HETATM   15  C   UNL     1      -7.877   9.333  67.438  1.00  0.00    -0.099 C  
HETATM   16  C   UNL     1      -8.134   8.061  68.287  1.00  0.00    -0.126 C  
BRANCH  14  17
HETATM   17  C   UNL     1     -10.170   9.962  66.908  1.00  0.00    -0.240 C  
BRANCH  17  18
HETATM   18  C   UNL     1     -11.282  11.025  66.938  1.00  0.00    -0.136 C  
BRANCH  18  19
HETATM   19  N   UNL     1     -10.951  12.170  66.130  1.00  0.00    -0.285 N  
HETATM   20  C   UNL     1     -10.808  12.152  64.728  1.00  0.00    -0.307 C  
HETATM   21  O   UNL     1     -10.941  11.200  63.978  1.00  0.00    -0.364 OA 
HETATM   22  N   UNL     1     -10.461  13.459  64.348  1.00  0.00    -0.432 NA 
HETATM   23  C   UNL     1     -10.372  14.251  65.489  1.00  0.00    -0.355 A  
HETATM   24  C   UNL     1     -10.056  15.584  65.600  1.00  0.00    -0.406 A  
HETATM   25  C   UNL     1     -10.030  16.118  66.893  1.00  0.00    -0.258 A  
HETATM   26  C   UNL     1     -10.310  15.315  68.020  1.00  0.00    -0.244 A  
HETATM   27  C   UNL     1     -10.631  13.961  67.880  1.00  0.00    -0.248 A  
HETATM   28  C   UNL     1     -10.660  13.455  66.599  1.00  0.00    -0.282 A  
ENDBRANCH  18  19
ENDBRANCH  17  18
ENDBRANCH  14  17
ENDBRANCH   7  11
TORSDOF 4
ENDMDL
MODEL      203
REMARK 921   NORMALIZED FREE ENERGY PREDICTED BY IDOCK:   -5.04 KCAL/MOL
REMARK 922        TOTAL FREE ENERGY PREDICTED BY IDOCK:   -6.83 KCAL/MOL
REMARK 923 INTER-LIGAND FREE ENERGY PREDICTED BY IDOCK:   -6.66 KCAL/MOL
REMARK 924 INTRA-LIGAND FREE ENERGY PREDICTED BY IDOCK:   -0.17 KCAL/MOL
REMARK 927      BINDING AFFINITY PREDICTED BY RF-SCORE:    0.00 PKD
ROOT
HETATM    1  F   UNL     1     -11.269  19.020  67.213  1.00  0.00    -0.498 F  
HETATM    2  C   UNL     1     -10.162  19.650  67.699  1.00  0.00    -0.435 C  
HETATM    3  C   UNL     1      -8.998  18.727  67.949  1.00  0.00    -0.320 A  
HETATM    4  F   UNL     1      -9.871  20.632  66.802  1.00  0.00    -0.556 F  
HETATM    5  F   UNL     1     -10.570  20.288  68.831  1.00  0.00    -0.521 F  
HETATM    6  C   UNL     1      -9.122  17.349  67.700  1.00  0.00    -0.234 A  
HETATM    7  C   UNL     1      -8.092  16.428  67.960  1.00  0.00    -0.157 A  
HETATM    8  C   UNL     1      -7.785  19.218  68.433  1.00  0.00    -0.362 A  
HETATM    9  C   UNL     1      -6.890  16.969  68.442  1.00  0.00    -0.170 A  
HETATM   10  C   UNL     1      -6.732  18.343  68.670  1.00  0.00    -0.265 A  
ENDROOT
BRANCH   7  11
HETATM   11  N   UNL     1      -8.267  15.072  67.675  1.00  0.00    -0.156 NA 
HETATM   12  C   UNL     1      -9.231  13.274  66.248  1.00  0.00    -0.051 C  
HETATM   13  C   UNL     1      -9.434  14.687  66.844  1.00  0.00    -0.246 C  
HETATM   14  N   UNL     1      -8.944  12.208  67.237  1.00  0.00    -0.177 NA 
HETATM   15  C   UNL     1      -7.775  12.657  68.034  1.00  0.00    -0.139 C  
HETATM   16  C   UNL     1      -7.912  14.058  68.688  1.00  0.00    -0.122 C  
BRANCH  14  17
HETATM   17  C   UNL     1     -10.095  11.921  68.117  1.00  0.00    -0.198 C  
BRANCH  17  18
HETATM   18  C   UNL     1     -11.083  10.892  67.538  1.00  0.00    -0.310 C  
BRANCH  18  19
HETATM   19  N   UNL     1     -10.408   9.715  67.056  1.00  0.00    -0.247 N  
HETATM   20  C   UNL     1     -10.148   8.563  67.826  1.00  0.00    -0.211 C  
HETATM   21  O   UNL     1     -10.444   8.365  68.992  1.00  0.00    -0.222 OA 
HETATM   22  N   UNL     1      -9.457   7.674  66.987  1.00  0.00    -0.154 NA 
HETATM   23  C   UNL     1      -9.278   8.273  65.744  1.00  0.00    -0.078 A  
HETATM   24  C   UNL     1      -8.655   7.780  64.623  1.00  0.00     0.155 A  
HETATM   25  C   UNL     1      -8.614   8.621  63.505  1.00  0.00    -0.009 A  
HETATM   26  C   UNL     1      -9.184   9.912  63.543  1.00  0.00    -0.279 A  
HETATM   27  C   UNL     1      -9.815  10.390  64.696  1.00  0.00    -0.405 A  
HETATM   28  C   UNL     1      -9.852   9.545  65.783  1.00  0.00    -0.293 A  
ENDBRANCH  18  19
ENDBRANCH  17  18
ENDBRANCH  14  17
ENDBRANCH   7  11
TORSDOF 4
ENDMDL
MODEL      204
REMARK 921   NORMALIZED FREE ENERGY PREDICTED BY IDOCK:   -5.03 KCAL/MOL
REMARK 922        TOTAL FREE ENERGY PREDICTED BY IDOCK:   -6.82 KCAL/MOL
REMARK 923 INTER-LIGAND FREE ENERGY PREDICTED BY IDOCK:   -6.33 KCAL/MOL
REMARK 924 INTRA-LIGAND FREE ENERGY PREDICTED BY IDOCK:   -0.49 KCAL/MOL
REMARK 927      BINDING AFFINITY PREDICTED BY RF-SCORE:    0.00 PKD
ROOT
HETATM    1  F   UNL     1     -11.538   8.765  70.933  1.00  0.00    -0.284 F  
HETATM    2  C   UNL     1     -10.701   8.153  71.818  1.00  0.00    -0.251 C  
HETATM    3  C   UNL     1      -9.256   8.547  71.659  1.00  0.00    -0.304 A  
HETATM    4  F   UNL     1     -11.193   8.444  73.054  1.00  0.00    -0.393 F  
HETATM    5  F   UNL     1     -10.897   6.816  71.644  1.00  0.00    -0.236 F  
HETATM    6  C   UNL     1      -8.876   9.452  70.653  1.00  0.00    -0.275 A  
HETATM    7  C   UNL     1      -7.540   9.821  70.420  1.00  0.00    -0.148 A  
HETATM    8  C   UNL     1      -8.273   8.020  72.499  1.00  0.00    -0.198 A  
HETATM    9  C   UNL     1      -6.588   9.270  71.291  1.00  0.00    -0.057 A  
HETATM   10  C   UNL     1      -6.945   8.388  72.320  1.00  0.00    -0.106 A  
ENDROOT
BRANCH   7  11
HETATM   11  N   UNL     1      -7.224  10.741  69.417  1.00  0.00    -0.122 NA 
HETATM   12  C   UNL     1      -5.641  12.380  68.414  1.00  0.00    -0.057 C  
HETATM   13  C   UNL     1      -6.196  11.765  69.721  1.00  0.00    -0.138 C  
HETATM   14  N   UNL     1      -6.663  12.948  67.502  1.00  0.00    -0.154 NA 
HETATM   15  C   UNL     1      -7.659  11.877  67.245  1.00  0.00    -0.154 C  
HETATM   16  C   UNL     1      -8.282  11.228  68.508  1.00  0.00    -0.150 C  
BRANCH  14  17
HETATM   17  C   UNL     1      -7.319  14.148  68.058  1.00  0.00    -0.140 C  
BRANCH  17  18
HETATM   18  C   UNL     1      -7.620  15.236  67.012  1.00  0.00    -0.126 C  
BRANCH  18  19
HETATM   19  N   UNL     1      -8.833  15.952  67.316  1.00  0.00    -0.190 N  
HETATM   20  C   UNL     1     -10.103  15.359  67.463  1.00  0.00    -0.233 C  
HETATM   21  O   UNL     1     -10.388  14.178  67.368  1.00  0.00    -0.253 OA 
HETATM   22  N   UNL     1     -11.000  16.405  67.729  1.00  0.00    -0.302 NA 
HETATM   23  C   UNL     1     -10.302  17.610  67.724  1.00  0.00    -0.365 A  
HETATM   24  C   UNL     1     -10.769  18.886  67.930  1.00  0.00    -0.362 A  
HETATM   25  C   UNL     1      -9.828  19.919  67.851  1.00  0.00    -0.529 A  
HETATM   26  C   UNL     1      -8.471  19.650  67.568  1.00  0.00    -0.346 A  
HETATM   27  C   UNL     1      -8.021  18.342  67.364  1.00  0.00    -0.241 A  
HETATM   28  C   UNL     1      -8.960  17.338  67.454  1.00  0.00    -0.222 A  
ENDBRANCH  18  19
ENDBRANCH  17  18
ENDBRANCH  14  17
ENDBRANCH   7  11
TORSDOF 4
ENDMDL
MODEL      205
REMARK 921   NORMALIZED FREE ENERGY PREDICTED BY IDOCK:   -5.02 KCAL/MOL
REMARK 922        TOTAL FREE ENERGY PREDICTED BY IDOCK:   -6.82 KCAL/MOL
REMARK 923 INTER-LIGAND FREE ENERGY PREDICTED BY IDOCK:   -5.87 KCAL/MOL
REMARK 924 INTRA-LIGAND FREE ENERGY PREDICTED BY IDOCK:   -0.95 KCAL/MOL
REMARK 927      BINDING AFFINITY PREDICTED BY RF-SCORE:    0.00 PKD
ROOT
HETATM    1  F   UNL     1     -10.423  11.368  66.297  1.00  0.00    -0.258 F  
HETATM    2  C   UNL     1     -11.111  12.356  66.935  1.00  0.00    -0.287 C  
HETATM    3  C   UNL     1     -11.433  12.039  68.373  1.00  0.00    -0.356 A  
HETATM    4  F   UNL     1     -10.356  13.481  66.801  1.00  0.00    -0.253 F  
HETATM    5  F   UNL     1     -12.231  12.565  66.187  1.00  0.00    -0.472 F  
HETATM    6  C   UNL     1     -11.045  10.809  68.931  1.00  0.00    -0.307 A  
HETATM    7  C   UNL     1     -11.358  10.433  70.248  1.00  0.00    -0.328 A  
HETATM    8  C   UNL     1     -12.122  12.954  69.171  1.00  0.00    -0.216 A  
HETATM    9  C   UNL     1     -12.048  11.386  71.013  1.00  0.00    -0.303 A  
HETATM   10  C   UNL     1     -12.420  12.632  70.489  1.00  0.00    -0.273 A  
ENDROOT
BRANCH   7  11
HETATM   11  N   UNL     1     -10.928   9.204  70.754  1.00  0.00    -0.249 NA 
HETATM   12  C   UNL     1      -9.089   7.611  71.279  1.00  0.00    -0.137 C  
HETATM   13  C   UNL     1      -9.607   8.700  70.309  1.00  0.00    -0.170 C  
HETATM   14  N   UNL     1     -10.013   6.473  71.501  1.00  0.00    -0.176 NA 
HETATM   15  C   UNL     1     -11.311   7.046  71.937  1.00  0.00    -0.257 C  
HETATM   16  C   UNL     1     -11.910   8.129  71.001  1.00  0.00    -0.260 C  
BRANCH  14  17
HETATM   17  C   UNL     1     -10.190   5.639  70.295  1.00  0.00    -0.243 C  
BRANCH  17  18
HETATM   18  C   UNL     1      -8.876   5.062  69.736  1.00  0.00    -0.098 C  
BRANCH  18  19
HETATM   19  N   UNL     1      -8.888   4.998  68.297  1.00  0.00    -0.101 N  
HETATM   20  C   UNL     1      -9.337   3.895  67.543  1.00  0.00    -0.191 C  
HETATM   21  O   UNL     1      -9.784   2.841  67.961  1.00  0.00    -0.132 OA 
HETATM   22  N   UNL     1      -9.155   4.238  66.194  1.00  0.00    -0.126 NA 
HETATM   23  C   UNL     1      -8.590   5.508  66.123  1.00  0.00    -0.129 A  
HETATM   24  C   UNL     1      -8.233   6.240  65.017  1.00  0.00    -0.132 A  
HETATM   25  C   UNL     1      -7.667   7.498  65.251  1.00  0.00    -0.112 A  
HETATM   26  C   UNL     1      -7.471   7.976  66.565  1.00  0.00    -0.088 A  
HETATM   27  C   UNL     1      -7.844   7.211  67.675  1.00  0.00    -0.113 A  
HETATM   28  C   UNL     1      -8.408   5.980  67.424  1.00  0.00    -0.105 A  
ENDBRANCH  18  19
ENDBRANCH  17  18
ENDBRANCH  14  17
ENDBRANCH   7  11
TORSDOF 4
ENDMDL
MODEL      206
REMARK 921   NORMALIZED FREE ENERGY PREDICTED BY IDOCK:   -5.02 KCAL/MOL
REMARK 922        TOTAL FREE ENERGY PREDICTED BY IDOCK:   -6.82 KCAL/MOL
REMARK 923 INTER-LIGAND FREE ENERGY PREDICTED BY IDOCK:   -6.80 KCAL/MOL
REMARK 924 INTRA-LIGAND FREE ENERGY PREDICTED BY IDOCK:   -0.02 KCAL/MOL
REMARK 927      BINDING AFFINITY PREDICTED BY RF-SCORE:    0.00 PKD
ROOT
HETATM    1  F   UNL     1      -8.101   3.466  71.627  1.00  0.00    -0.057 F  
HETATM    2  C   UNL     1      -8.619   3.885  72.816  1.00  0.00    -0.099 C  
HETATM    3  C   UNL     1      -9.255   5.249  72.755  1.00  0.00    -0.141 A  
HETATM    4  F   UNL     1      -9.492   2.915  73.203  1.00  0.00    -0.097 F  
HETATM    5  F   UNL     1      -7.586   3.834  73.704  1.00  0.00    -0.063 F  
HETATM    6  C   UNL     1      -9.259   5.974  71.551  1.00  0.00    -0.151 A  
HETATM    7  C   UNL     1      -9.790   7.270  71.439  1.00  0.00    -0.186 A  
HETATM    8  C   UNL     1      -9.845   5.816  73.885  1.00  0.00    -0.183 A  
HETATM    9  C   UNL     1     -10.376   7.798  72.600  1.00  0.00    -0.352 A  
HETATM   10  C   UNL     1     -10.411   7.083  73.806  1.00  0.00    -0.408 A  
ENDROOT
BRANCH   7  11
HETATM   11  N   UNL     1      -9.783   7.935  70.211  1.00  0.00    -0.182 NA 
HETATM   12  C   UNL     1      -8.846   9.689  68.713  1.00  0.00    -0.130 C  
HETATM   13  C   UNL     1      -9.195   9.296  70.168  1.00  0.00    -0.225 C  
HETATM   14  N   UNL     1      -9.967   9.595  67.748  1.00  0.00    -0.162 NA 
HETATM   15  C   UNL     1     -10.509   8.216  67.845  1.00  0.00    -0.197 C  
HETATM   16  C   UNL     1     -10.909   7.756  69.272  1.00  0.00    -0.080 C  
BRANCH  14  17
HETATM   17  C   UNL     1     -11.026  10.591  68.005  1.00  0.00    -0.290 C  
BRANCH  17  18
HETATM   18  C   UNL     1     -10.577  12.049  67.795  1.00  0.00    -0.207 C  
BRANCH  18  19
HETATM   19  N   UNL     1     -11.187  12.940  68.746  1.00  0.00    -0.263 N  
HETATM   20  C   UNL     1     -11.132  14.347  68.683  1.00  0.00    -0.251 C  
HETATM   21  O   UNL     1     -10.583  15.033  67.838  1.00  0.00    -0.251 OA 
HETATM   22  N   UNL     1     -11.829  14.822  69.806  1.00  0.00    -0.298 NA 
HETATM   23  C   UNL     1     -12.280  13.735  70.549  1.00  0.00    -0.369 A  
HETATM   24  C   UNL     1     -12.997  13.721  71.721  1.00  0.00    -0.441 A  
HETATM   25  C   UNL     1     -13.304  12.465  72.255  1.00  0.00    -0.427 A  
HETATM   26  C   UNL     1     -12.886  11.278  71.615  1.00  0.00    -0.510 A  
HETATM   27  C   UNL     1     -12.158  11.319  70.421  1.00  0.00    -0.474 A  
HETATM   28  C   UNL     1     -11.873  12.565  69.906  1.00  0.00    -0.303 A  
ENDBRANCH  18  19
ENDBRANCH  17  18
ENDBRANCH  14  17
ENDBRANCH   7  11
TORSDOF 4
ENDMDL
MODEL      207
REMARK 921   NORMALIZED FREE ENERGY PREDICTED BY IDOCK:   -5.02 KCAL/MOL
REMARK 922        TOTAL FREE ENERGY PREDICTED BY IDOCK:   -6.82 KCAL/MOL
REMARK 923 INTER-LIGAND FREE ENERGY PREDICTED BY IDOCK:   -7.82 KCAL/MOL
REMARK 924 INTRA-LIGAND FREE ENERGY PREDICTED BY IDOCK:    1.01 KCAL/MOL
REMARK 927      BINDING AFFINITY PREDICTED BY RF-SCORE:    0.00 PKD
ROOT
HETATM    1  F   UNL     1      -9.386   8.515  67.529  1.00  0.00    -0.143 F  
HETATM    2  C   UNL     1      -8.948   8.278  66.261  1.00  0.00    -0.183 C  
HETATM    3  C   UNL     1      -9.144   9.440  65.323  1.00  0.00    -0.287 A  
HETATM    4  F   UNL     1      -7.642   7.914  66.382  1.00  0.00    -0.084 F  
HETATM    5  F   UNL     1      -9.610   7.161  65.847  1.00  0.00    -0.121 F  
HETATM    6  C   UNL     1      -9.750  10.624  65.780  1.00  0.00    -0.272 A  
HETATM    7  C   UNL     1     -10.006  11.724  64.945  1.00  0.00    -0.247 A  
HETATM    8  C   UNL     1      -8.734   9.363  63.991  1.00  0.00    -0.225 A  
HETATM    9  C   UNL     1      -9.574  11.603  63.615  1.00  0.00    -0.239 A  
HETATM   10  C   UNL     1      -8.941  10.445  63.143  1.00  0.00    -0.245 A  
ENDROOT
BRANCH   7  11
HETATM   11  N   UNL     1     -10.594  12.882  65.460  1.00  0.00    -0.275 NA 
HETATM   12  C   UNL     1     -10.573  15.349  65.788  1.00  0.00    -0.348 C  
HETATM   13  C   UNL     1      -9.722  14.063  65.669  1.00  0.00    -0.151 C  
HETATM   14  N   UNL     1     -11.628  15.313  66.828  1.00  0.00    -0.141 NA 
HETATM   15  C   UNL     1     -12.458  14.111  66.564  1.00  0.00    -0.270 C  
HETATM   16  C   UNL     1     -11.679  12.773  66.456  1.00  0.00    -0.400 C  
BRANCH  14  17
HETATM   17  C   UNL     1     -11.078  15.276  68.198  1.00  0.00    -0.308 C  
BRANCH  17  18
HETATM   18  C   UNL     1     -10.914  13.855  68.766  1.00  0.00    -0.263 C  
BRANCH  18  19
HETATM   19  N   UNL     1     -11.706  13.657  69.952  1.00  0.00    -0.289 N  
HETATM   20  C   UNL     1     -12.441  12.490  70.245  1.00  0.00    -0.084 C  
HETATM   21  O   UNL     1     -12.527  11.476  69.573  1.00  0.00    -0.163 OA 
HETATM   22  N   UNL     1     -13.081  12.723  71.472  1.00  0.00    -0.344 NA 
HETATM   23  C   UNL     1     -12.766  14.006  71.910  1.00  0.00    -0.300 A  
HETATM   24  C   UNL     1     -13.169  14.660  73.049  1.00  0.00    -0.587 A  
HETATM   25  C   UNL     1     -12.698  15.966  73.223  1.00  0.00    -0.650 A  
HETATM   26  C   UNL     1     -11.856  16.572  72.266  1.00  0.00    -0.396 A  
HETATM   27  C   UNL     1     -11.459  15.884  71.115  1.00  0.00    -0.471 A  
HETATM   28  C   UNL     1     -11.925  14.597  70.965  1.00  0.00    -0.339 A  
ENDBRANCH  18  19
ENDBRANCH  17  18
ENDBRANCH  14  17
ENDBRANCH   7  11
TORSDOF 4
ENDMDL
MODEL      208
REMARK 921   NORMALIZED FREE ENERGY PREDICTED BY IDOCK:   -4.99 KCAL/MOL
REMARK 922        TOTAL FREE ENERGY PREDICTED BY IDOCK:   -6.78 KCAL/MOL
REMARK 923 INTER-LIGAND FREE ENERGY PREDICTED BY IDOCK:   -6.19 KCAL/MOL
REMARK 924 INTRA-LIGAND FREE ENERGY PREDICTED BY IDOCK:   -0.58 KCAL/MOL
REMARK 927      BINDING AFFINITY PREDICTED BY RF-SCORE:    0.00 PKD
ROOT
HETATM    1  F   UNL     1      -6.786   8.764  69.772  1.00  0.00    -0.042 F  
HETATM    2  C   UNL     1      -7.712   8.049  69.072  1.00  0.00    -0.100 C  
HETATM    3  C   UNL     1      -8.750   8.903  68.391  1.00  0.00    -0.134 A  
HETATM    4  F   UNL     1      -7.005   7.283  68.197  1.00  0.00    -0.065 F  
HETATM    5  F   UNL     1      -8.261   7.183  69.969  1.00  0.00    -0.124 F  
HETATM    6  C   UNL     1      -8.715  10.302  68.527  1.00  0.00    -0.130 A  
HETATM    7  C   UNL     1      -9.680  11.150  67.959  1.00  0.00    -0.176 A  
HETATM    8  C   UNL     1      -9.760   8.326  67.622  1.00  0.00    -0.201 A  
HETATM    9  C   UNL     1     -10.675  10.525  67.191  1.00  0.00    -0.323 A  
HETATM   10  C   UNL     1     -10.714   9.135  67.017  1.00  0.00    -0.189 A  
ENDROOT
BRANCH   7  11
HETATM   11  N   UNL     1      -9.583  12.536  68.112  1.00  0.00    -0.212 NA 
HETATM   12  C   UNL     1     -10.603  14.801  67.945  1.00  0.00    -0.248 C  
HETATM   13  C   UNL     1     -10.521  13.382  67.334  1.00  0.00    -0.243 C  
HETATM   14  N   UNL     1      -9.303  15.498  68.096  1.00  0.00    -0.196 NA 
HETATM   15  C   UNL     1      -8.415  14.598  68.875  1.00  0.00    -0.136 C  
HETATM   16  C   UNL     1      -8.261  13.161  68.311  1.00  0.00    -0.154 C  
BRANCH  14  17
HETATM   17  C   UNL     1      -8.687  15.843  66.798  1.00  0.00    -0.269 C  
BRANCH  17  18
HETATM   18  C   UNL     1      -9.413  16.971  66.043  1.00  0.00    -0.164 C  
BRANCH  18  19
HETATM   19  N   UNL     1      -9.050  18.271  66.545  1.00  0.00    -0.288 N  
HETATM   20  C   UNL     1      -9.916  19.134  67.247  1.00  0.00    -0.356 C  
HETATM   21  O   UNL     1     -11.081  18.937  67.547  1.00  0.00    -0.356 OA 
HETATM   22  N   UNL     1      -9.176  20.294  67.528  1.00  0.00    -0.370 NA 
HETATM   23  C   UNL     1      -7.898  20.155  66.994  1.00  0.00    -0.319 A  
HETATM   24  C   UNL     1      -6.844  21.036  67.020  1.00  0.00    -0.397 A  
HETATM   25  C   UNL     1      -5.668  20.627  66.382  1.00  0.00    -0.228 A  
HETATM   26  C   UNL     1      -5.584  19.373  65.741  1.00  0.00    -0.178 A  
HETATM   27  C   UNL     1      -6.671  18.493  65.729  1.00  0.00    -0.316 A  
HETATM   28  C   UNL     1      -7.817  18.908  66.370  1.00  0.00    -0.280 A  
ENDBRANCH  18  19
ENDBRANCH  17  18
ENDBRANCH  14  17
ENDBRANCH   7  11
TORSDOF 4
ENDMDL
MODEL      209
REMARK 921   NORMALIZED FREE ENERGY PREDICTED BY IDOCK:   -4.98 KCAL/MOL
REMARK 922        TOTAL FREE ENERGY PREDICTED BY IDOCK:   -6.76 KCAL/MOL
REMARK 923 INTER-LIGAND FREE ENERGY PREDICTED BY IDOCK:   -6.70 KCAL/MOL
REMARK 924 INTRA-LIGAND FREE ENERGY PREDICTED BY IDOCK:   -0.06 KCAL/MOL
REMARK 927      BINDING AFFINITY PREDICTED BY RF-SCORE:    0.00 PKD
ROOT
HETATM    1  F   UNL     1      -9.700   3.473  66.891  1.00  0.00    -0.225 F  
HETATM    2  C   UNL     1      -9.175   3.908  65.711  1.00  0.00    -0.154 C  
HETATM    3  C   UNL     1      -8.913   5.391  65.674  1.00  0.00    -0.160 A  
HETATM    4  F   UNL     1      -8.050   3.170  65.511  1.00  0.00    -0.083 F  
HETATM    5  F   UNL     1     -10.057   3.514  64.749  1.00  0.00    -0.168 F  
HETATM    6  C   UNL     1      -9.225   6.193  66.786  1.00  0.00    -0.143 A  
HETATM    7  C   UNL     1      -9.050   7.587  66.797  1.00  0.00    -0.148 A  
HETATM    8  C   UNL     1      -8.361   5.993  64.542  1.00  0.00    -0.045 A  
HETATM    9  C   UNL     1      -8.490   8.148  65.638  1.00  0.00    -0.170 A  
HETATM   10  C   UNL     1      -8.143   7.366  64.528  1.00  0.00    -0.079 A  
ENDROOT
BRANCH   7  11
HETATM   11  N   UNL     1      -9.361   8.331  67.938  1.00  0.00    -0.138 NA 
HETATM   12  C   UNL     1     -10.132   8.431  70.303  1.00  0.00    -0.189 C  
HETATM   13  C   UNL     1     -10.260   7.709  68.941  1.00  0.00    -0.210 C  
HETATM   14  N   UNL     1     -10.357   9.895  70.265  1.00  0.00    -0.280 NA 
HETATM   15  C   UNL     1      -9.434  10.450  69.243  1.00  0.00    -0.198 C  
HETATM   16  C   UNL     1      -9.521   9.795  67.839  1.00  0.00    -0.130 C  
BRANCH  14  17
HETATM   17  C   UNL     1     -11.757  10.249  69.950  1.00  0.00    -0.225 C  
BRANCH  17  18
HETATM   18  C   UNL     1     -11.981  11.752  69.706  1.00  0.00    -0.322 C  
BRANCH  18  19
HETATM   19  N   UNL     1     -12.519  12.409  70.869  1.00  0.00    -0.342 N  
HETATM   20  C   UNL     1     -13.405  11.817  71.792  1.00  0.00    -0.240 C  
HETATM   21  O   UNL     1     -13.851  10.683  71.772  1.00  0.00     0.004 OA 
HETATM   22  N   UNL     1     -13.696  12.802  72.749  1.00  0.00    -0.365 NA 
HETATM   23  C   UNL     1     -13.024  13.973  72.410  1.00  0.00    -0.381 A  
HETATM   24  C   UNL     1     -13.018  15.189  73.051  1.00  0.00    -0.597 A  
HETATM   25  C   UNL     1     -12.251  16.203  72.467  1.00  0.00    -0.609 A  
HETATM   26  C   UNL     1     -11.528  15.977  71.275  1.00  0.00    -0.475 A  
HETATM   27  C   UNL     1     -11.550  14.730  70.643  1.00  0.00    -0.324 A  
HETATM   28  C   UNL     1     -12.303  13.741  71.237  1.00  0.00    -0.308 A  
ENDBRANCH  18  19
ENDBRANCH  17  18
ENDBRANCH  14  17
ENDBRANCH   7  11
TORSDOF 4
ENDMDL
MODEL      210
REMARK 921   NORMALIZED FREE ENERGY PREDICTED BY IDOCK:   -4.92 KCAL/MOL
REMARK 922        TOTAL FREE ENERGY PREDICTED BY IDOCK:   -6.69 KCAL/MOL
REMARK 923 INTER-LIGAND FREE ENERGY PREDICTED BY IDOCK:   -6.33 KCAL/MOL
REMARK 924 INTRA-LIGAND FREE ENERGY PREDICTED BY IDOCK:   -0.36 KCAL/MOL
REMARK 927      BINDING AFFINITY PREDICTED BY RF-SCORE:    0.00 PKD
ROOT
HETATM    1  F   UNL     1     -10.189  11.962  68.075  1.00  0.00    -0.174 F  
HETATM    2  C   UNL     1     -11.240  12.543  68.720  1.00  0.00    -0.273 C  
HETATM    3  C   UNL     1     -11.706  11.780  69.932  1.00  0.00    -0.399 A  
HETATM    4  F   UNL     1     -10.837  13.809  69.018  1.00  0.00    -0.242 F  
HETATM    5  F   UNL     1     -12.219  12.674  67.782  1.00  0.00    -0.381 F  
HETATM    6  C   UNL     1     -11.079  10.574  70.293  1.00  0.00    -0.359 A  
HETATM    7  C   UNL     1     -11.497   9.790  71.381  1.00  0.00    -0.365 A  
HETATM    8  C   UNL     1     -12.764  12.249  70.712  1.00  0.00    -0.212 A  
HETATM    9  C   UNL     1     -12.562  10.304  72.138  1.00  0.00    -0.169 A  
HETATM   10  C   UNL     1     -13.184  11.518  71.816  1.00  0.00    -0.456 A  
ENDROOT
BRANCH   7  11
HETATM   11  N   UNL     1     -10.823   8.609  71.704  1.00  0.00    -0.278 NA 
HETATM   12  C   UNL     1      -8.717   7.420  72.291  1.00  0.00    -0.116 C  
HETATM   13  C   UNL     1      -9.358   8.570  71.478  1.00  0.00    -0.222 C  
HETATM   14  N   UNL     1      -9.299   6.078  72.052  1.00  0.00    -0.150 NA 
HETATM   15  C   UNL     1     -10.761   6.190  72.288  1.00  0.00    -0.229 C  
HETATM   16  C   UNL     1     -11.483   7.306  71.488  1.00  0.00    -0.263 C  
BRANCH  14  17
HETATM   17  C   UNL     1      -9.029   5.573  70.690  1.00  0.00    -0.144 C  
BRANCH  17  18
HETATM   18  C   UNL     1     -10.281   5.067  69.952  1.00  0.00    -0.270 C  
BRANCH  18  19
HETATM   19  N   UNL     1     -10.141   5.176  68.523  1.00  0.00    -0.164 N  
HETATM   20  C   UNL     1     -10.438   6.329  67.769  1.00  0.00    -0.232 C  
HETATM   21  O   UNL     1     -10.845   7.402  68.181  1.00  0.00    -0.146 OA 
HETATM   22  N   UNL     1     -10.187   6.002  66.428  1.00  0.00    -0.121 NA 
HETATM   23  C   UNL     1      -9.769   4.676  66.357  1.00  0.00    -0.202 A  
HETATM   24  C   UNL     1      -9.422   3.931  65.257  1.00  0.00    -0.170 A  
HETATM   25  C   UNL     1      -9.050   2.602  65.489  1.00  0.00    -0.127 A  
HETATM   26  C   UNL     1      -9.041   2.065  66.795  1.00  0.00    -0.085 A  
HETATM   27  C   UNL     1      -9.396   2.845  67.899  1.00  0.00    -0.256 A  
HETATM   28  C   UNL     1      -9.752   4.153  67.652  1.00  0.00    -0.122 A  
ENDBRANCH  18  19
ENDBRANCH  17  18
ENDBRANCH  14  17
ENDBRANCH   7  11
TORSDOF 4
ENDMDL
MODEL      211
REMARK 921   NORMALIZED FREE ENERGY PREDICTED BY IDOCK:   -4.89 KCAL/MOL
REMARK 922        TOTAL FREE ENERGY PREDICTED BY IDOCK:   -6.66 KCAL/MOL
REMARK 923 INTER-LIGAND FREE ENERGY PREDICTED BY IDOCK:   -5.90 KCAL/MOL
REMARK 924 INTRA-LIGAND FREE ENERGY PREDICTED BY IDOCK:   -0.76 KCAL/MOL
REMARK 927      BINDING AFFINITY PREDICTED BY RF-SCORE:    0.00 PKD
ROOT
HETATM    1  F   UNL     1     -12.524  11.571  69.153  1.00  0.00    -0.306 F  
HETATM    2  C   UNL     1     -11.807  12.406  68.349  1.00  0.00    -0.309 C  
HETATM    3  C   UNL     1     -10.830  11.693  67.451  1.00  0.00    -0.298 A  
HETATM    4  F   UNL     1     -12.726  13.131  67.656  1.00  0.00    -0.012 F  
HETATM    5  F   UNL     1     -11.193  13.285  69.189  1.00  0.00    -0.271 F  
HETATM    6  C   UNL     1     -10.709  10.293  67.507  1.00  0.00    -0.348 A  
HETATM    7  C   UNL     1      -9.783   9.574  66.733  1.00  0.00    -0.197 A  
HETATM    8  C   UNL     1     -10.030  12.404  66.556  1.00  0.00    -0.242 A  
HETATM    9  C   UNL     1      -9.002  10.330  65.845  1.00  0.00    -0.181 A  
HETATM   10  C   UNL     1      -9.125  11.723  65.750  1.00  0.00    -0.088 A  
ENDROOT
BRANCH   7  11
HETATM   11  N   UNL     1      -9.720   8.181  66.817  1.00  0.00    -0.214 NA 
HETATM   12  C   UNL     1     -10.775   6.007  67.414  1.00  0.00    -0.310 C  
HETATM   13  C   UNL     1     -10.638   7.507  67.767  1.00  0.00    -0.206 C  
HETATM   14  N   UNL     1      -9.498   5.259  67.333  1.00  0.00    -0.122 NA 
HETATM   15  C   UNL     1      -8.629   5.987  66.374  1.00  0.00    -0.129 C  
HETATM   16  C   UNL     1      -8.420   7.495  66.676  1.00  0.00    -0.130 C  
BRANCH  14  17
HETATM   17  C   UNL     1      -8.831   5.125  68.644  1.00  0.00    -0.096 C  
BRANCH  17  18
HETATM   18  C   UNL     1      -9.766   4.656  69.774  1.00  0.00    -0.209 C  
BRANCH  18  19
HETATM   19  N   UNL     1      -9.710   5.535  70.914  1.00  0.00    -0.170 N  
HETATM   20  C   UNL     1      -8.691   5.530  71.887  1.00  0.00    -0.135 C  
HETATM   21  O   UNL     1      -7.708   4.810  71.931  1.00  0.00    -0.092 OA 
HETATM   22  N   UNL     1      -9.033   6.517  72.824  1.00  0.00    -0.124 NA 
HETATM   23  C   UNL     1     -10.241   7.097  72.448  1.00  0.00    -0.189 A  
HETATM   24  C   UNL     1     -10.957   8.094  73.065  1.00  0.00    -0.181 A  
HETATM   25  C   UNL     1     -12.160   8.472  72.459  1.00  0.00    -0.395 A  
HETATM   26  C   UNL     1     -12.608   7.847  71.275  1.00  0.00    -0.264 A  
HETATM   27  C   UNL     1     -11.860   6.835  70.665  1.00  0.00    -0.442 A  
HETATM   28  C   UNL     1     -10.675   6.483  71.272  1.00  0.00    -0.237 A  
ENDBRANCH  18  19
ENDBRANCH  17  18
ENDBRANCH  14  17
ENDBRANCH   7  11
TORSDOF 4
ENDMDL
MODEL      212
REMARK 921   NORMALIZED FREE ENERGY PREDICTED BY IDOCK:   -4.88 KCAL/MOL
REMARK 922        TOTAL FREE ENERGY PREDICTED BY IDOCK:   -6.64 KCAL/MOL
REMARK 923 INTER-LIGAND FREE ENERGY PREDICTED BY IDOCK:   -6.23 KCAL/MOL
REMARK 924 INTRA-LIGAND FREE ENERGY PREDICTED BY IDOCK:   -0.41 KCAL/MOL
REMARK 927      BINDING AFFINITY PREDICTED BY RF-SCORE:    0.00 PKD
ROOT
HETATM    1  F   UNL     1      -8.533   3.274  66.118  1.00  0.00    -0.100 F  
HETATM    2  C   UNL     1      -7.775   4.157  65.409  1.00  0.00    -0.086 C  
HETATM    3  C   UNL     1      -7.672   5.518  66.047  1.00  0.00    -0.095 A  
HETATM    4  F   UNL     1      -6.564   3.559  65.246  1.00  0.00    -0.035 F  
HETATM    5  F   UNL     1      -8.337   4.208  64.168  1.00  0.00    -0.090 F  
HETATM    6  C   UNL     1      -8.339   5.785  67.255  1.00  0.00    -0.104 A  
HETATM    7  C   UNL     1      -8.324   7.046  67.875  1.00  0.00    -0.118 A  
HETATM    8  C   UNL     1      -6.920   6.532  65.453  1.00  0.00    -0.052 A  
HETATM    9  C   UNL     1      -7.552   8.034  67.244  1.00  0.00    -0.097 A  
HETATM   10  C   UNL     1      -6.853   7.783  66.055  1.00  0.00    -0.057 A  
ENDROOT
BRANCH   7  11
HETATM   11  N   UNL     1      -8.991   7.248  69.086  1.00  0.00    -0.135 NA 
HETATM   12  C   UNL     1     -11.099   7.268  70.409  1.00  0.00    -0.268 C  
HETATM   13  C   UNL     1     -10.446   7.530  69.031  1.00  0.00    -0.208 C  
HETATM   14  N   UNL     1     -10.488   7.998  71.545  1.00  0.00    -0.212 NA 
HETATM   15  C   UNL     1      -9.039   7.678  71.538  1.00  0.00    -0.132 C  
HETATM   16  C   UNL     1      -8.304   7.938  70.196  1.00  0.00    -0.127 C  
BRANCH  14  17
HETATM   17  C   UNL     1     -10.700   9.458  71.465  1.00  0.00    -0.297 C  
BRANCH  17  18
HETATM   18  C   UNL     1     -11.905   9.868  70.599  1.00  0.00    -0.303 C  
BRANCH  18  19
HETATM   19  N   UNL     1     -11.844  11.255  70.219  1.00  0.00    -0.341 N  
HETATM   20  C   UNL     1     -11.125  11.757  69.115  1.00  0.00    -0.238 C  
HETATM   21  O   UNL     1     -10.457  11.128  68.313  1.00  0.00    -0.176 OA 
HETATM   22  N   UNL     1     -11.313  13.149  69.120  1.00  0.00    -0.279 NA 
HETATM   23  C   UNL     1     -12.107  13.493  70.210  1.00  0.00    -0.355 A  
HETATM   24  C   UNL     1     -12.541  14.732  70.614  1.00  0.00    -0.414 A  
HETATM   25  C   UNL     1     -13.327  14.778  71.770  1.00  0.00    -0.444 A  
HETATM   26  C   UNL     1     -13.646  13.601  72.482  1.00  0.00    -0.675 A  
HETATM   27  C   UNL     1     -13.194  12.350  72.050  1.00  0.00    -0.514 A  
HETATM   28  C   UNL     1     -12.428  12.325  70.905  1.00  0.00    -0.276 A  
ENDBRANCH  18  19
ENDBRANCH  17  18
ENDBRANCH  14  17
ENDBRANCH   7  11
TORSDOF 4
ENDMDL
MODEL      213
REMARK 921   NORMALIZED FREE ENERGY PREDICTED BY IDOCK:   -4.87 KCAL/MOL
REMARK 922        TOTAL FREE ENERGY PREDICTED BY IDOCK:   -6.63 KCAL/MOL
REMARK 923 INTER-LIGAND FREE ENERGY PREDICTED BY IDOCK:   -7.14 KCAL/MOL
REMARK 924 INTRA-LIGAND FREE ENERGY PREDICTED BY IDOCK:    0.51 KCAL/MOL
REMARK 927      BINDING AFFINITY PREDICTED BY RF-SCORE:    0.00 PKD
ROOT
HETATM    1  F   UNL     1      -9.107  12.234  66.460  1.00  0.00    -0.199 F  
HETATM    2  C   UNL     1     -10.257  12.172  65.730  1.00  0.00    -0.254 C  
HETATM    3  C   UNL     1     -10.754  13.515  65.265  1.00  0.00    -0.328 A  
HETATM    4  F   UNL     1      -9.995  11.322  64.699  1.00  0.00    -0.249 F  
HETATM    5  F   UNL     1     -11.161  11.530  66.523  1.00  0.00    -0.305 F  
HETATM    6  C   UNL     1     -10.056  14.686  65.608  1.00  0.00    -0.389 A  
HETATM    7  C   UNL     1     -10.494  15.972  65.249  1.00  0.00    -0.358 A  
HETATM    8  C   UNL     1     -11.912  13.623  64.493  1.00  0.00    -0.454 A  
HETATM    9  C   UNL     1     -11.660  16.030  64.470  1.00  0.00    -0.205 A  
HETATM   10  C   UNL     1     -12.358  14.876  64.090  1.00  0.00    -0.212 A  
ENDROOT
BRANCH   7  11
HETATM   11  N   UNL     1      -9.747  17.099  65.602  1.00  0.00    -0.544 NA 
HETATM   12  C   UNL     1      -7.546  18.226  65.884  1.00  0.00    -0.129 C  
HETATM   13  C   UNL     1      -8.327  16.894  65.976  1.00  0.00    -0.145 C  
HETATM   14  N   UNL     1      -8.116  19.347  66.669  1.00  0.00    -0.280 NA 
HETATM   15  C   UNL     1      -9.534  19.493  66.251  1.00  0.00    -0.384 C  
HETATM   16  C   UNL     1     -10.392  18.204  66.340  1.00  0.00    -0.394 C  
BRANCH  14  17
HETATM   17  C   UNL     1      -8.023  19.128  68.127  1.00  0.00    -0.304 C  
BRANCH  17  18
HETATM   18  C   UNL     1      -9.287  18.505  68.747  1.00  0.00    -0.289 C  
BRANCH  18  19
HETATM   19  N   UNL     1      -9.119  17.098  69.003  1.00  0.00    -0.185 N  
HETATM   20  C   UNL     1      -7.888  16.469  69.277  1.00  0.00    -0.121 C  
HETATM   21  O   UNL     1      -6.787  16.988  69.349  1.00  0.00    -0.235 OA 
HETATM   22  N   UNL     1      -8.168  15.104  69.441  1.00  0.00    -0.217 NA 
HETATM   23  C   UNL     1      -9.532  14.897  69.250  1.00  0.00    -0.114 A  
HETATM   24  C   UNL     1     -10.250  13.727  69.306  1.00  0.00     0.167 A  
HETATM   25  C   UNL     1     -11.623  13.820  69.056  1.00  0.00    -0.356 A  
HETATM   26  C   UNL     1     -12.228  15.060  68.756  1.00  0.00    -0.117 A  
HETATM   27  C   UNL     1     -11.475  16.238  68.707  1.00  0.00    -0.289 A  
HETATM   28  C   UNL     1     -10.126  16.127  68.964  1.00  0.00    -0.247 A  
ENDBRANCH  18  19
ENDBRANCH  17  18
ENDBRANCH  14  17
ENDBRANCH   7  11
TORSDOF 4
ENDMDL
MODEL      214
REMARK 921   NORMALIZED FREE ENERGY PREDICTED BY IDOCK:   -4.86 KCAL/MOL
REMARK 922        TOTAL FREE ENERGY PREDICTED BY IDOCK:   -6.62 KCAL/MOL
REMARK 923 INTER-LIGAND FREE ENERGY PREDICTED BY IDOCK:   -6.70 KCAL/MOL
REMARK 924 INTRA-LIGAND FREE ENERGY PREDICTED BY IDOCK:    0.08 KCAL/MOL
REMARK 927      BINDING AFFINITY PREDICTED BY RF-SCORE:    0.00 PKD
ROOT
HETATM    1  F   UNL     1      -9.364   9.415  67.986  1.00  0.00    -0.130 F  
HETATM    2  C   UNL     1      -9.871   9.245  66.732  1.00  0.00    -0.225 C  
HETATM    3  C   UNL     1     -10.224  10.536  66.040  1.00  0.00    -0.310 A  
HETATM    4  F   UNL     1      -8.942   8.520  66.051  1.00  0.00    -0.158 F  
HETATM    5  F   UNL     1     -10.949   8.425  66.880  1.00  0.00    -0.337 F  
HETATM    6  C   UNL     1     -10.040  11.765  66.697  1.00  0.00    -0.231 A  
HETATM    7  C   UNL     1     -10.395  12.998  66.126  1.00  0.00    -0.278 A  
HETATM    8  C   UNL     1     -10.742  10.535  64.743  1.00  0.00     0.088 A  
HETATM    9  C   UNL     1     -10.908  12.949  64.820  1.00  0.00    -0.350 A  
HETATM   10  C   UNL     1     -11.074  11.739  64.133  1.00  0.00    -0.442 A  
ENDROOT
BRANCH   7  11
HETATM   11  N   UNL     1     -10.170  14.190  66.820  1.00  0.00    -0.259 NA 
HETATM   12  C   UNL     1     -10.757  15.756  68.664  1.00  0.00    -0.263 C  
HETATM   13  C   UNL     1     -11.288  14.739  67.626  1.00  0.00    -0.339 C  
HETATM   14  N   UNL     1      -9.949  16.865  68.104  1.00  0.00    -0.273 NA 
HETATM   15  C   UNL     1      -8.857  16.249  67.309  1.00  0.00    -0.188 C  
HETATM   16  C   UNL     1      -9.311  15.234  66.226  1.00  0.00    -0.310 C  
BRANCH  14  17
HETATM   17  C   UNL     1     -10.746  17.786  67.269  1.00  0.00    -0.242 C  
BRANCH  17  18
HETATM   18  C   UNL     1      -9.944  18.459  66.141  1.00  0.00    -0.319 C  
BRANCH  18  19
HETATM   19  N   UNL     1      -9.038  19.456  66.650  1.00  0.00    -0.329 N  
HETATM   20  C   UNL     1      -9.339  20.367  67.682  1.00  0.00    -0.320 C  
HETATM   21  O   UNL     1     -10.379  20.464  68.309  1.00  0.00    -0.301 OA 
HETATM   22  N   UNL     1      -8.198  21.169  67.848  1.00  0.00     0.222 NA 
HETATM   23  C   UNL     1      -7.232  20.775  66.927  1.00  0.00    -0.276 A  
HETATM   24  C   UNL     1      -5.970  21.279  66.721  1.00  0.00    -0.385 A  
HETATM   25  C   UNL     1      -5.216  20.687  65.702  1.00  0.00    -0.221 A  
HETATM   26  C   UNL     1      -5.739  19.629  64.927  1.00  0.00    -0.249 A  
HETATM   27  C   UNL     1      -7.027  19.134  65.157  1.00  0.00     0.056 A  
HETATM   28  C   UNL     1      -7.751  19.723  66.170  1.00  0.00    -0.332 A  
ENDBRANCH  18  19
ENDBRANCH  17  18
ENDBRANCH  14  17
ENDBRANCH   7  11
TORSDOF 4
ENDMDL
MODEL      215
REMARK 921   NORMALIZED FREE ENERGY PREDICTED BY IDOCK:   -4.86 KCAL/MOL
REMARK 922        TOTAL FREE ENERGY PREDICTED BY IDOCK:   -6.62 KCAL/MOL
REMARK 923 INTER-LIGAND FREE ENERGY PREDICTED BY IDOCK:   -5.87 KCAL/MOL
REMARK 924 INTRA-LIGAND FREE ENERGY PREDICTED BY IDOCK:   -0.75 KCAL/MOL
REMARK 927      BINDING AFFINITY PREDICTED BY RF-SCORE:    0.00 PKD
ROOT
HETATM    1  F   UNL     1      -8.209   4.266  71.827  1.00  0.00    -0.087 F  
HETATM    2  C   UNL     1      -9.037   4.972  72.648  1.00  0.00    -0.131 C  
HETATM    3  C   UNL     1      -9.646   6.186  71.997  1.00  0.00    -0.164 A  
HETATM    4  F   UNL     1      -9.972   4.083  73.083  1.00  0.00    -0.147 F  
HETATM    5  F   UNL     1      -8.287   5.290  73.740  1.00  0.00    -0.109 F  
HETATM    6  C   UNL     1      -9.328   6.512  70.667  1.00  0.00    -0.166 A  
HETATM    7  C   UNL     1      -9.823   7.656  70.020  1.00  0.00    -0.180 A  
HETATM    8  C   UNL     1     -10.530   7.008  72.699  1.00  0.00    -0.254 A  
HETATM    9  C   UNL     1     -10.710   8.450  70.763  1.00  0.00    -0.244 A  
HETATM   10  C   UNL     1     -11.066   8.131  72.081  1.00  0.00    -0.386 A  
ENDROOT
BRANCH   7  11
HETATM   11  N   UNL     1      -9.486   7.918  68.689  1.00  0.00    -0.149 NA 
HETATM   12  C   UNL     1      -8.120   9.152  67.013  1.00  0.00    -0.109 C  
HETATM   13  C   UNL     1      -8.827   9.212  68.388  1.00  0.00    -0.129 C  
HETATM   14  N   UNL     1      -8.985   8.751  65.877  1.00  0.00    -0.184 NA 
HETATM   15  C   UNL     1      -9.614   7.458  66.245  1.00  0.00    -0.051 C  
HETATM   16  C   UNL     1     -10.366   7.445  67.602  1.00  0.00    -0.231 C  
BRANCH  14  17
HETATM   17  C   UNL     1     -10.015   9.761  65.561  1.00  0.00    -0.259 C  
BRANCH  17  18
HETATM   18  C   UNL     1      -9.478  11.203  65.499  1.00  0.00    -0.221 C  
BRANCH  18  19
HETATM   19  N   UNL     1     -10.503  12.169  65.796  1.00  0.00    -0.245 N  
HETATM   20  C   UNL     1     -11.331  12.787  64.837  1.00  0.00    -0.306 C  
HETATM   21  O   UNL     1     -11.330  12.612  63.630  1.00  0.00    -0.427 OA 
HETATM   22  N   UNL     1     -12.164  13.669  65.542  1.00  0.00    -0.413 NA 
HETATM   23  C   UNL     1     -11.841  13.611  66.895  1.00  0.00    -0.411 A  
HETATM   24  C   UNL     1     -12.386  14.302  67.950  1.00  0.00    -0.021 A  
HETATM   25  C   UNL     1     -11.846  14.047  69.215  1.00  0.00    -0.389 A  
HETATM   26  C   UNL     1     -10.787  13.128  69.384  1.00  0.00     0.031 A  
HETATM   27  C   UNL     1     -10.250  12.436  68.294  1.00  0.00    -0.230 A  
HETATM   28  C   UNL     1     -10.801  12.694  67.058  1.00  0.00    -0.253 A  
ENDBRANCH  18  19
ENDBRANCH  17  18
ENDBRANCH  14  17
ENDBRANCH   7  11
TORSDOF 4
ENDMDL
MODEL      216
REMARK 921   NORMALIZED FREE ENERGY PREDICTED BY IDOCK:   -4.85 KCAL/MOL
REMARK 922        TOTAL FREE ENERGY PREDICTED BY IDOCK:   -6.61 KCAL/MOL
REMARK 923 INTER-LIGAND FREE ENERGY PREDICTED BY IDOCK:   -5.79 KCAL/MOL
REMARK 924 INTRA-LIGAND FREE ENERGY PREDICTED BY IDOCK:   -0.82 KCAL/MOL
REMARK 927      BINDING AFFINITY PREDICTED BY RF-SCORE:    0.00 PKD
ROOT
HETATM    1  F   UNL     1      -5.824  10.727  67.802  1.00  0.00    -0.043 F  
HETATM    2  C   UNL     1      -6.229   9.442  68.009  1.00  0.00    -0.057 C  
HETATM    3  C   UNL     1      -7.642   9.171  67.561  1.00  0.00    -0.088 A  
HETATM    4  F   UNL     1      -5.316   8.659  67.373  1.00  0.00    -0.032 F  
HETATM    5  F   UNL     1      -6.055   9.213  69.341  1.00  0.00    -0.036 F  
HETATM    6  C   UNL     1      -8.419  10.203  67.006  1.00  0.00    -0.129 A  
HETATM    7  C   UNL     1      -9.757  10.028  66.615  1.00  0.00    -0.194 A  
HETATM    8  C   UNL     1      -8.203   7.900  67.690  1.00  0.00    -0.124 A  
HETATM    9  C   UNL     1     -10.277   8.733  66.760  1.00  0.00    -0.354 A  
HETATM   10  C   UNL     1      -9.513   7.680  67.283  1.00  0.00    -0.185 A  
ENDROOT
BRANCH   7  11
HETATM   11  N   UNL     1     -10.474  11.087  66.052  1.00  0.00    -0.256 NA 
HETATM   12  C   UNL     1     -11.021  12.521  64.093  1.00  0.00    -0.381 C  
HETATM   13  C   UNL     1      -9.922  11.720  64.830  1.00  0.00    -0.247 C  
HETATM   14  N   UNL     1     -11.718  13.539  64.915  1.00  0.00    -0.343 NA 
HETATM   15  C   UNL     1     -12.239  12.842  66.118  1.00  0.00    -0.317 C  
HETATM   16  C   UNL     1     -11.190  12.036  66.929  1.00  0.00    -0.320 C  
BRANCH  14  17
HETATM   17  C   UNL     1     -10.839  14.661  65.302  1.00  0.00    -0.377 C  
BRANCH  17  18
HETATM   18  C   UNL     1     -11.271  15.375  66.595  1.00  0.00    -0.175 C  
BRANCH  18  19
HETATM   19  N   UNL     1     -10.168  16.052  67.227  1.00  0.00    -0.271 N  
HETATM   20  C   UNL     1      -9.997  17.450  67.268  1.00  0.00    -0.302 C  
HETATM   21  O   UNL     1     -10.729  18.304  66.797  1.00  0.00    -0.342 OA 
HETATM   22  N   UNL     1      -8.793  17.682  67.952  1.00  0.00    -0.241 NA 
HETATM   23  C   UNL     1      -8.230  16.458  68.302  1.00  0.00    -0.177 A  
HETATM   24  C   UNL     1      -7.058  16.200  68.972  1.00  0.00    -0.187 A  
HETATM   25  C   UNL     1      -6.734  14.854  69.174  1.00  0.00    -0.126 A  
HETATM   26  C   UNL     1      -7.574  13.822  68.703  1.00  0.00    -0.125 A  
HETATM   27  C   UNL     1      -8.763  14.112  68.025  1.00  0.00    -0.177 A  
HETATM   28  C   UNL     1      -9.070  15.442  67.843  1.00  0.00    -0.178 A  
ENDBRANCH  18  19
ENDBRANCH  17  18
ENDBRANCH  14  17
ENDBRANCH   7  11
TORSDOF 4
ENDMDL
MODEL      217
REMARK 921   NORMALIZED FREE ENERGY PREDICTED BY IDOCK:   -4.85 KCAL/MOL
REMARK 922        TOTAL FREE ENERGY PREDICTED BY IDOCK:   -6.60 KCAL/MOL
REMARK 923 INTER-LIGAND FREE ENERGY PREDICTED BY IDOCK:   -5.93 KCAL/MOL
REMARK 924 INTRA-LIGAND FREE ENERGY PREDICTED BY IDOCK:   -0.68 KCAL/MOL
REMARK 927      BINDING AFFINITY PREDICTED BY RF-SCORE:    0.00 PKD
ROOT
HETATM    1  F   UNL     1     -13.207  12.187  64.452  1.00  0.00    -0.512 F  
HETATM    2  C   UNL     1     -12.498  13.288  64.833  1.00  0.00    -0.409 C  
HETATM    3  C   UNL     1     -11.224  12.965  65.569  1.00  0.00    -0.319 A  
HETATM    4  F   UNL     1     -12.281  14.000  63.693  1.00  0.00    -0.503 F  
HETATM    5  F   UNL     1     -13.355  14.035  65.583  1.00  0.00    -0.522 F  
HETATM    6  C   UNL     1     -10.873  11.627  65.822  1.00  0.00    -0.334 A  
HETATM    7  C   UNL     1      -9.725  11.262  66.546  1.00  0.00    -0.202 A  
HETATM    8  C   UNL     1     -10.376  13.981  66.013  1.00  0.00    -0.312 A  
HETATM    9  C   UNL     1      -8.901  12.316  66.970  1.00  0.00    -0.205 A  
HETATM   10  C   UNL     1      -9.215  13.656  66.704  1.00  0.00    -0.225 A  
ENDROOT
BRANCH   7  11
HETATM   11  N   UNL     1      -9.417   9.914  66.751  1.00  0.00    -0.163 NA 
HETATM   12  C   UNL     1      -8.450   7.774  65.928  1.00  0.00    -0.142 C  
HETATM   13  C   UNL     1      -9.217   9.064  65.553  1.00  0.00    -0.198 C  
HETATM   14  N   UNL     1      -9.058   6.973  67.017  1.00  0.00    -0.132 NA 
HETATM   15  C   UNL     1      -9.235   7.882  68.178  1.00  0.00    -0.136 C  
HETATM   16  C   UNL     1     -10.019   9.189  67.888  1.00  0.00    -0.186 C  
BRANCH  14  17
HETATM   17  C   UNL     1     -10.348   6.367  66.628  1.00  0.00    -0.155 C  
BRANCH  17  18
HETATM   18  C   UNL     1     -10.390   4.836  66.779  1.00  0.00    -0.181 C  
BRANCH  18  19
HETATM   19  N   UNL     1      -9.622   4.175  65.755  1.00  0.00    -0.175 N  
HETATM   20  C   UNL     1     -10.112   3.825  64.481  1.00  0.00    -0.210 C  
HETATM   21  O   UNL     1     -11.229   4.018  64.034  1.00  0.00    -0.259 OA 
HETATM   22  N   UNL     1      -9.056   3.185  63.813  1.00  0.00    -0.095 NA 
HETATM   23  C   UNL     1      -7.955   3.125  64.663  1.00  0.00    -0.082 A  
HETATM   24  C   UNL     1      -6.712   2.585  64.438  1.00  0.00    -0.035 A  
HETATM   25  C   UNL     1      -5.795   2.658  65.493  1.00  0.00    -0.018 A  
HETATM   26  C   UNL     1      -6.146   3.253  66.724  1.00  0.00    -0.024 A  
HETATM   27  C   UNL     1      -7.418   3.797  66.927  1.00  0.00    -0.079 A  
HETATM   28  C   UNL     1      -8.304   3.724  65.874  1.00  0.00    -0.109 A  
ENDBRANCH  18  19
ENDBRANCH  17  18
ENDBRANCH  14  17
ENDBRANCH   7  11
TORSDOF 4
ENDMDL
MODEL      218
REMARK 921   NORMALIZED FREE ENERGY PREDICTED BY IDOCK:   -4.85 KCAL/MOL
REMARK 922        TOTAL FREE ENERGY PREDICTED BY IDOCK:   -6.60 KCAL/MOL
REMARK 923 INTER-LIGAND FREE ENERGY PREDICTED BY IDOCK:   -6.18 KCAL/MOL
REMARK 924 INTRA-LIGAND FREE ENERGY PREDICTED BY IDOCK:   -0.42 KCAL/MOL
REMARK 927      BINDING AFFINITY PREDICTED BY RF-SCORE:    0.00 PKD
ROOT
HETATM    1  F   UNL     1      -7.529   4.277  68.855  1.00  0.00    -0.054 F  
HETATM    2  C   UNL     1      -8.514   4.189  69.793  1.00  0.00    -0.060 C  
HETATM    3  C   UNL     1      -9.376   5.421  69.885  1.00  0.00    -0.184 A  
HETATM    4  F   UNL     1      -9.224   3.071  69.480  1.00  0.00    -0.153 F  
HETATM    5  F   UNL     1      -7.879   3.912  70.966  1.00  0.00    -0.054 F  
HETATM    6  C   UNL     1      -9.117   6.529  69.060  1.00  0.00    -0.132 A  
HETATM    7  C   UNL     1      -9.852   7.725  69.132  1.00  0.00    -0.173 A  
HETATM    8  C   UNL     1     -10.439   5.485  70.786  1.00  0.00    -0.330 A  
HETATM    9  C   UNL     1     -10.913   7.742  70.050  1.00  0.00    -0.218 A  
HETATM   10  C   UNL     1     -11.210   6.639  70.862  1.00  0.00    -0.352 A  
ENDROOT
BRANCH   7  11
HETATM   11  N   UNL     1      -9.560   8.788  68.273  1.00  0.00    -0.145 NA 
HETATM   12  C   UNL     1      -8.148  10.747  67.669  1.00  0.00    -0.114 C  
HETATM   13  C   UNL     1      -8.764   9.914  68.818  1.00  0.00    -0.132 C  
HETATM   14  N   UNL     1      -9.117  11.254  66.668  1.00  0.00    -0.174 NA 
HETATM   15  C   UNL     1      -9.880  10.081  66.170  1.00  0.00    -0.246 C  
HETATM   16  C   UNL     1     -10.551   9.209  67.263  1.00  0.00    -0.233 C  
BRANCH  14  17
HETATM   17  C   UNL     1     -10.031  12.272  67.224  1.00  0.00    -0.204 C  
BRANCH  17  18
HETATM   18  C   UNL     1      -9.339  13.298  68.140  1.00  0.00    -0.220 C  
BRANCH  18  19
HETATM   19  N   UNL     1     -10.063  14.542  68.194  1.00  0.00    -0.222 N  
HETATM   20  C   UNL     1     -11.331  14.711  68.785  1.00  0.00    -0.281 C  
HETATM   21  O   UNL     1     -12.012  13.867  69.341  1.00  0.00    -0.315 OA 
HETATM   22  N   UNL     1     -11.678  16.059  68.598  1.00  0.00    -0.350 NA 
HETATM   23  C   UNL     1     -10.661  16.693  67.891  1.00  0.00    -0.342 A  
HETATM   24  C   UNL     1     -10.573  18.001  67.479  1.00  0.00    -0.402 A  
HETATM   25  C   UNL     1      -9.423  18.359  66.766  1.00  0.00    -0.297 A  
HETATM   26  C   UNL     1      -8.415  17.412  66.484  1.00  0.00    -0.298 A  
HETATM   27  C   UNL     1      -8.528  16.087  66.916  1.00  0.00    -0.275 A  
HETATM   28  C   UNL     1      -9.662  15.755  67.624  1.00  0.00    -0.222 A  
ENDBRANCH  18  19
ENDBRANCH  17  18
ENDBRANCH  14  17
ENDBRANCH   7  11
TORSDOF 4
ENDMDL
MODEL      219
REMARK 921   NORMALIZED FREE ENERGY PREDICTED BY IDOCK:   -4.84 KCAL/MOL
REMARK 922        TOTAL FREE ENERGY PREDICTED BY IDOCK:   -6.60 KCAL/MOL
REMARK 923 INTER-LIGAND FREE ENERGY PREDICTED BY IDOCK:   -6.46 KCAL/MOL
REMARK 924 INTRA-LIGAND FREE ENERGY PREDICTED BY IDOCK:   -0.14 KCAL/MOL
REMARK 927      BINDING AFFINITY PREDICTED BY RF-SCORE:    0.00 PKD
ROOT
HETATM    1  F   UNL     1     -10.475  12.483  67.705  1.00  0.00    -0.207 F  
HETATM    2  C   UNL     1     -11.215  13.256  68.550  1.00  0.00    -0.271 C  
HETATM    3  C   UNL     1     -11.808  12.494  69.707  1.00  0.00    -0.380 A  
HETATM    4  F   UNL     1     -10.389  14.261  68.950  1.00  0.00    -0.223 F  
HETATM    5  F   UNL     1     -12.168  13.842  67.772  1.00  0.00    -0.386 F  
HETATM    6  C   UNL     1     -11.593  11.110  69.827  1.00  0.00    -0.409 A  
HETATM    7  C   UNL     1     -12.159  10.335  70.853  1.00  0.00    -0.368 A  
HETATM    8  C   UNL     1     -12.580  13.144  70.671  1.00  0.00    -0.286 A  
HETATM    9  C   UNL     1     -12.924  11.031  71.802  1.00  0.00    -0.544 A  
HETATM   10  C   UNL     1     -13.129  12.415  71.720  1.00  0.00    -0.446 A  
ENDROOT
BRANCH   7  11
HETATM   11  N   UNL     1     -11.894   8.965  70.933  1.00  0.00    -0.270 NA 
HETATM   12  C   UNL     1     -11.866   6.847  72.240  1.00  0.00    -0.235 C  
HETATM   13  C   UNL     1     -11.682   8.382  72.280  1.00  0.00    -0.385 C  
HETATM   14  N   UNL     1     -11.024   6.137  71.247  1.00  0.00    -0.271 NA 
HETATM   15  C   UNL     1     -11.280   6.771  69.929  1.00  0.00    -0.326 C  
HETATM   16  C   UNL     1     -11.091   8.310  69.881  1.00  0.00    -0.100 C  
BRANCH  14  17
HETATM   17  C   UNL     1      -9.586   6.187  71.579  1.00  0.00    -0.155 C  
BRANCH  17  18
HETATM   18  C   UNL     1      -8.693   6.654  70.416  1.00  0.00    -0.151 C  
BRANCH  18  19
HETATM   19  N   UNL     1      -7.857   7.764  70.795  1.00  0.00    -0.097 N  
HETATM   20  C   UNL     1      -7.145   7.860  72.008  1.00  0.00    -0.074 C  
HETATM   21  O   UNL     1      -7.108   7.046  72.915  1.00  0.00    -0.073 OA 
HETATM   22  N   UNL     1      -6.485   9.098  71.983  1.00  0.00    -0.278 NA 
HETATM   23  C   UNL     1      -6.801   9.754  70.797  1.00  0.00    -0.058 A  
HETATM   24  C   UNL     1      -6.393  10.988  70.349  1.00  0.00    -0.063 A  
HETATM   25  C   UNL     1      -6.887  11.401  69.107  1.00  0.00    -0.111 A  
HETATM   26  C   UNL     1      -7.767  10.585  68.364  1.00  0.00    -0.104 A  
HETATM   27  C   UNL     1      -8.167   9.333  68.841  1.00  0.00    -0.111 A  
HETATM   28  C   UNL     1      -7.663   8.939  70.061  1.00  0.00    -0.078 A  
ENDBRANCH  18  19
ENDBRANCH  17  18
ENDBRANCH  14  17
ENDBRANCH   7  11
TORSDOF 4
ENDMDL
MODEL      220
REMARK 921   NORMALIZED FREE ENERGY PREDICTED BY IDOCK:   -4.83 KCAL/MOL
REMARK 922        TOTAL FREE ENERGY PREDICTED BY IDOCK:   -6.58 KCAL/MOL
REMARK 923 INTER-LIGAND FREE ENERGY PREDICTED BY IDOCK:   -6.37 KCAL/MOL
REMARK 924 INTRA-LIGAND FREE ENERGY PREDICTED BY IDOCK:   -0.21 KCAL/MOL
REMARK 927      BINDING AFFINITY PREDICTED BY RF-SCORE:    0.00 PKD
ROOT
HETATM    1  F   UNL     1      -7.764   8.022  67.076  1.00  0.00    -0.093 F  
HETATM    2  C   UNL     1      -7.622   7.516  65.819  1.00  0.00    -0.093 C  
HETATM    3  C   UNL     1      -8.143   8.425  64.736  1.00  0.00    -0.155 A  
HETATM    4  F   UNL     1      -6.297   7.238  65.680  1.00  0.00    -0.038 F  
HETATM    5  F   UNL     1      -8.258   6.311  65.834  1.00  0.00    -0.106 F  
HETATM    6  C   UNL     1      -8.728   9.659  65.069  1.00  0.00    -0.202 A  
HETATM    7  C   UNL     1      -9.277  10.529  64.112  1.00  0.00    -0.249 A  
HETATM    8  C   UNL     1      -8.057   8.060  63.392  1.00  0.00    -0.101 A  
HETATM    9  C   UNL     1      -9.165  10.122  62.773  1.00  0.00    -0.322 A  
HETATM   10  C   UNL     1      -8.559   8.910  62.414  1.00  0.00    -0.208 A  
ENDROOT
BRANCH   7  11
HETATM   11  N   UNL     1      -9.829  11.752  64.500  1.00  0.00    -0.232 NA 
HETATM   12  C   UNL     1      -9.594  13.972  65.601  1.00  0.00    -0.057 C  
HETATM   13  C   UNL     1      -9.169  12.485  65.608  1.00  0.00     0.205 C  
HETATM   14  N   UNL     1     -11.057  14.210  65.642  1.00  0.00    -0.301 NA 
HETATM   15  C   UNL     1     -11.653  13.447  64.516  1.00  0.00    -0.371 C  
HETATM   16  C   UNL     1     -11.294  11.939  64.468  1.00  0.00    -0.316 C  
BRANCH  14  17
HETATM   17  C   UNL     1     -11.665  13.804  66.926  1.00  0.00    -0.395 C  
BRANCH  17  18
HETATM   18  C   UNL     1     -10.650  13.640  68.072  1.00  0.00    -0.249 C  
BRANCH  18  19
HETATM   19  N   UNL     1     -10.997  12.545  68.941  1.00  0.00    -0.240 N  
HETATM   20  C   UNL     1     -10.515  11.227  68.807  1.00  0.00    -0.208 C  
HETATM   21  O   UNL     1      -9.742  10.798  67.967  1.00  0.00    -0.157 OA 
HETATM   22  N   UNL     1     -11.114  10.480  69.834  1.00  0.00    -0.288 NA 
HETATM   23  C   UNL     1     -11.957  11.313  70.564  1.00  0.00    -0.371 A  
HETATM   24  C   UNL     1     -12.748  11.015  71.648  1.00  0.00    -0.483 A  
HETATM   25  C   UNL     1     -13.510  12.063  72.176  1.00  0.00    -0.338 A  
HETATM   26  C   UNL     1     -13.465  13.355  71.610  1.00  0.00    -0.378 A  
HETATM   27  C   UNL     1     -12.651  13.633  70.507  1.00  0.00    -0.337 A  
HETATM   28  C   UNL     1     -11.901  12.591  70.007  1.00  0.00    -0.289 A  
ENDBRANCH  18  19
ENDBRANCH  17  18
ENDBRANCH  14  17
ENDBRANCH   7  11
TORSDOF 4
ENDMDL
MODEL      221
REMARK 921   NORMALIZED FREE ENERGY PREDICTED BY IDOCK:   -4.81 KCAL/MOL
REMARK 922        TOTAL FREE ENERGY PREDICTED BY IDOCK:   -6.56 KCAL/MOL
REMARK 923 INTER-LIGAND FREE ENERGY PREDICTED BY IDOCK:   -5.66 KCAL/MOL
REMARK 924 INTRA-LIGAND FREE ENERGY PREDICTED BY IDOCK:   -0.90 KCAL/MOL
REMARK 927      BINDING AFFINITY PREDICTED BY RF-SCORE:    0.00 PKD
ROOT
HETATM    1  F   UNL     1      -7.074   6.861  64.463  1.00  0.00    -0.051 F  
HETATM    2  C   UNL     1      -7.499   7.419  63.294  1.00  0.00    -0.101 C  
HETATM    3  C   UNL     1      -8.319   8.669  63.481  1.00  0.00    -0.117 A  
HETATM    4  F   UNL     1      -6.376   7.632  62.556  1.00  0.00    -0.066 F  
HETATM    5  F   UNL     1      -8.190   6.437  62.649  1.00  0.00    -0.104 F  
HETATM    6  C   UNL     1      -8.598   9.146  64.774  1.00  0.00    -0.209 A  
HETATM    7  C   UNL     1      -9.397  10.275  65.017  1.00  0.00    -0.237 A  
HETATM    8  C   UNL     1      -8.818   9.369  62.382  1.00  0.00    -0.257 A  
HETATM    9  C   UNL     1      -9.873  10.950  63.881  1.00  0.00    -0.385 A  
HETATM   10  C   UNL     1      -9.585  10.511  62.582  1.00  0.00    -0.285 A  
ENDROOT
BRANCH   7  11
HETATM   11  N   UNL     1      -9.624  10.714  66.324  1.00  0.00    -0.179 NA 
HETATM   12  C   UNL     1      -8.849  10.982  68.674  1.00  0.00    -0.164 C  
HETATM   13  C   UNL     1      -8.822  10.095  67.407  1.00  0.00    -0.131 C  
HETATM   14  N   UNL     1     -10.202  11.318  69.179  1.00  0.00    -0.154 NA 
HETATM   15  C   UNL     1     -10.949  11.926  68.049  1.00  0.00    -0.224 C  
HETATM   16  C   UNL     1     -10.990  11.084  66.747  1.00  0.00    -0.217 C  
BRANCH  14  17
HETATM   17  C   UNL     1     -10.922  10.142  69.708  1.00  0.00    -0.280 C  
BRANCH  17  18
HETATM   18  C   UNL     1     -10.239   9.485  70.920  1.00  0.00    -0.286 C  
BRANCH  18  19
HETATM   19  N   UNL     1     -10.563   8.085  71.023  1.00  0.00    -0.211 N  
HETATM   20  C   UNL     1     -11.548   7.547  71.875  1.00  0.00    -0.275 C  
HETATM   21  O   UNL     1     -12.280   8.150  72.641  1.00  0.00    -0.334 OA 
HETATM   22  N   UNL     1     -11.521   6.156  71.682  1.00  0.00    -0.289 NA 
HETATM   23  C   UNL     1     -10.530   5.848  70.755  1.00  0.00    -0.248 A  
HETATM   24  C   UNL     1     -10.145   4.622  70.269  1.00  0.00    -0.276 A  
HETATM   25  C   UNL     1      -9.096   4.615  69.342  1.00  0.00    -0.159 A  
HETATM   26  C   UNL     1      -8.470   5.815  68.940  1.00  0.00    -0.104 A  
HETATM   27  C   UNL     1      -8.882   7.051  69.448  1.00  0.00    -0.136 A  
HETATM   28  C   UNL     1      -9.921   7.039  70.353  1.00  0.00    -0.179 A  
ENDBRANCH  18  19
ENDBRANCH  17  18
ENDBRANCH  14  17
ENDBRANCH   7  11
TORSDOF 4
ENDMDL
MODEL      222
REMARK 921   NORMALIZED FREE ENERGY PREDICTED BY IDOCK:   -4.81 KCAL/MOL
REMARK 922        TOTAL FREE ENERGY PREDICTED BY IDOCK:   -6.55 KCAL/MOL
REMARK 923 INTER-LIGAND FREE ENERGY PREDICTED BY IDOCK:   -6.05 KCAL/MOL
REMARK 924 INTRA-LIGAND FREE ENERGY PREDICTED BY IDOCK:   -0.50 KCAL/MOL
REMARK 927      BINDING AFFINITY PREDICTED BY RF-SCORE:    0.00 PKD
ROOT
HETATM    1  F   UNL     1     -10.956  18.404  67.809  1.00  0.00    -0.420 F  
HETATM    2  C   UNL     1     -10.088  19.424  68.061  1.00  0.00    -0.412 C  
HETATM    3  C   UNL     1      -8.692  18.964  68.393  1.00  0.00    -0.380 A  
HETATM    4  F   UNL     1     -10.130  20.226  66.963  1.00  0.00    -0.518 F  
HETATM    5  F   UNL     1     -10.651  20.143  69.072  1.00  0.00    -0.505 F  
HETATM    6  C   UNL     1      -8.391  17.592  68.440  1.00  0.00    -0.290 A  
HETATM    7  C   UNL     1      -7.123  17.099  68.791  1.00  0.00    -0.229 A  
HETATM    8  C   UNL     1      -7.680  19.887  68.663  1.00  0.00    -0.236 A  
HETATM    9  C   UNL     1      -6.136  18.063  69.050  1.00  0.00    -0.223 A  
HETATM   10  C   UNL     1      -6.404  19.437  68.982  1.00  0.00    -0.314 A  
ENDROOT
BRANCH   7  11
HETATM   11  N   UNL     1      -6.877  15.723  68.803  1.00  0.00    -0.116 NA 
HETATM   12  C   UNL     1      -5.820  13.713  67.784  1.00  0.00    -0.106 C  
HETATM   13  C   UNL     1      -6.490  15.083  67.522  1.00  0.00    -0.092 C  
HETATM   14  N   UNL     1      -6.618  12.766  68.599  1.00  0.00    -0.078 NA 
HETATM   15  C   UNL     1      -6.975  13.470  69.857  1.00  0.00     0.361 C  
HETATM   16  C   UNL     1      -7.676  14.842  69.678  1.00  0.00    -0.072 C  
BRANCH  14  17
HETATM   17  C   UNL     1      -7.832  12.297  67.902  1.00  0.00    -0.146 C  
BRANCH  17  18
HETATM   18  C   UNL     1      -7.666  10.933  67.207  1.00  0.00    -0.112 C  
BRANCH  18  19
HETATM   19  N   UNL     1      -8.732  10.026  67.547  1.00  0.00    -0.125 N  
HETATM   20  C   UNL     1      -9.731   9.587  66.655  1.00  0.00    -0.211 C  
HETATM   21  O   UNL     1      -9.861   9.882  65.479  1.00  0.00    -0.283 OA 
HETATM   22  N   UNL     1     -10.575   8.740  67.391  1.00  0.00    -0.273 NA 
HETATM   23  C   UNL     1     -10.118   8.680  68.705  1.00  0.00    -0.190 A  
HETATM   24  C   UNL     1     -10.632   7.985  69.773  1.00  0.00    -0.238 A  
HETATM   25  C   UNL     1      -9.963   8.124  70.994  1.00  0.00    -0.220 A  
HETATM   26  C   UNL     1      -8.822   8.946  71.111  1.00  0.00    -0.297 A  
HETATM   27  C   UNL     1      -8.317   9.643  70.008  1.00  0.00    -0.197 A  
HETATM   28  C   UNL     1      -8.984   9.486  68.812  1.00  0.00    -0.133 A  
ENDBRANCH  18  19
ENDBRANCH  17  18
ENDBRANCH  14  17
ENDBRANCH   7  11
TORSDOF 4
ENDMDL
MODEL      223
REMARK 921   NORMALIZED FREE ENERGY PREDICTED BY IDOCK:   -4.80 KCAL/MOL
REMARK 922        TOTAL FREE ENERGY PREDICTED BY IDOCK:   -6.54 KCAL/MOL
REMARK 923 INTER-LIGAND FREE ENERGY PREDICTED BY IDOCK:   -6.12 KCAL/MOL
REMARK 924 INTRA-LIGAND FREE ENERGY PREDICTED BY IDOCK:   -0.42 KCAL/MOL
REMARK 927      BINDING AFFINITY PREDICTED BY RF-SCORE:    0.00 PKD
ROOT
HETATM    1  F   UNL     1      -7.931   4.231  70.438  1.00  0.00    -0.051 F  
HETATM    2  C   UNL     1      -7.533   4.552  71.701  1.00  0.00    -0.073 C  
HETATM    3  C   UNL     1      -8.066   5.875  72.188  1.00  0.00    -0.107 A  
HETATM    4  F   UNL     1      -7.916   3.509  72.487  1.00  0.00    -0.063 F  
HETATM    5  F   UNL     1      -6.171   4.520  71.676  1.00  0.00    -0.015 F  
HETATM    6  C   UNL     1      -8.878   6.661  71.352  1.00  0.00    -0.139 A  
HETATM    7  C   UNL     1      -9.366   7.924  71.727  1.00  0.00    -0.150 A  
HETATM    8  C   UNL     1      -7.763   6.342  73.468  1.00  0.00    -0.093 A  
HETATM    9  C   UNL     1      -9.038   8.352  73.023  1.00  0.00    -0.258 A  
HETATM   10  C   UNL     1      -8.255   7.573  73.886  1.00  0.00    -0.206 A  
ENDROOT
BRANCH   7  11
HETATM   11  N   UNL     1     -10.184   8.653  70.860  1.00  0.00    -0.198 NA 
HETATM   12  C   UNL     1     -10.704   9.484  68.572  1.00  0.00    -0.182 C  
HETATM   13  C   UNL     1      -9.591   9.123  69.585  1.00  0.00    -0.176 C  
HETATM   14  N   UNL     1     -11.701  10.468  69.056  1.00  0.00    -0.216 NA 
HETATM   15  C   UNL     1     -12.249   9.941  70.331  1.00  0.00    -0.114 C  
HETATM   16  C   UNL     1     -11.195   9.579  71.410  1.00  0.00    -0.382 C  
BRANCH  14  17
HETATM   17  C   UNL     1     -11.125  11.814  69.252  1.00  0.00    -0.218 C  
BRANCH  17  18
HETATM   18  C   UNL     1     -11.891  12.933  68.524  1.00  0.00    -0.313 C  
BRANCH  18  19
HETATM   19  N   UNL     1     -11.584  14.232  69.064  1.00  0.00    -0.285 N  
HETATM   20  C   UNL     1     -11.879  14.649  70.378  1.00  0.00    -0.303 C  
HETATM   21  O   UNL     1     -12.421  14.004  71.259  1.00  0.00    -0.340 OA 
HETATM   22  N   UNL     1     -11.437  15.977  70.481  1.00  0.00    -0.380 NA 
HETATM   23  C   UNL     1     -10.906  16.372  69.256  1.00  0.00    -0.327 A  
HETATM   24  C   UNL     1     -10.364  17.581  68.893  1.00  0.00    -0.338 A  
HETATM   25  C   UNL     1      -9.915  17.697  67.573  1.00  0.00    -0.322 A  
HETATM   26  C   UNL     1     -10.024  16.619  66.668  1.00  0.00    -0.290 A  
HETATM   27  C   UNL     1     -10.578  15.397  67.063  1.00  0.00    -0.309 A  
HETATM   28  C   UNL     1     -11.007  15.299  68.369  1.00  0.00    -0.271 A  
ENDBRANCH  18  19
ENDBRANCH  17  18
ENDBRANCH  14  17
ENDBRANCH   7  11
TORSDOF 4
ENDMDL
MODEL      224
REMARK 921   NORMALIZED FREE ENERGY PREDICTED BY IDOCK:   -4.79 KCAL/MOL
REMARK 922        TOTAL FREE ENERGY PREDICTED BY IDOCK:   -6.53 KCAL/MOL
REMARK 923 INTER-LIGAND FREE ENERGY PREDICTED BY IDOCK:   -5.85 KCAL/MOL
REMARK 924 INTRA-LIGAND FREE ENERGY PREDICTED BY IDOCK:   -0.68 KCAL/MOL
REMARK 927      BINDING AFFINITY PREDICTED BY RF-SCORE:    0.00 PKD
ROOT
HETATM    1  F   UNL     1     -13.585  12.196  72.594  1.00  0.00    -0.488 F  
HETATM    2  C   UNL     1     -13.204  13.324  71.929  1.00  0.00    -0.431 C  
HETATM    3  C   UNL     1     -12.405  13.052  70.681  1.00  0.00    -0.391 A  
HETATM    4  F   UNL     1     -14.352  14.011  71.679  1.00  0.00    -0.448 F  
HETATM    5  F   UNL     1     -12.512  14.069  72.836  1.00  0.00    -0.302 F  
HETATM    6  C   UNL     1     -12.101  11.731  70.310  1.00  0.00    -0.426 A  
HETATM    7  C   UNL     1     -11.318  11.412  69.187  1.00  0.00    -0.288 A  
HETATM    8  C   UNL     1     -11.953  14.099  69.878  1.00  0.00    -0.398 A  
HETATM    9  C   UNL     1     -10.889  12.498  68.407  1.00  0.00    -0.266 A  
HETATM   10  C   UNL     1     -11.204  13.822  68.740  1.00  0.00    -0.303 A  
ENDROOT
BRANCH   7  11
HETATM   11  N   UNL     1     -11.064  10.079  68.856  1.00  0.00    -0.208 NA 
HETATM   12  C   UNL     1     -10.621   7.731  69.553  1.00  0.00    -0.221 C  
HETATM   13  C   UNL     1     -10.412   9.228  69.881  1.00  0.00    -0.227 C  
HETATM   14  N   UNL     1     -10.182   7.314  68.200  1.00  0.00    -0.180 NA 
HETATM   15  C   UNL     1     -10.865   8.205  67.229  1.00  0.00    -0.060 C  
HETATM   16  C   UNL     1     -10.681   9.726  67.474  1.00  0.00    -0.264 C  
BRANCH  14  17
HETATM   17  C   UNL     1      -8.717   7.382  68.030  1.00  0.00    -0.124 C  
BRANCH  17  18
HETATM   18  C   UNL     1      -8.241   7.090  66.595  1.00  0.00    -0.112 C  
BRANCH  18  19
HETATM   19  N   UNL     1      -7.960   5.691  66.398  1.00  0.00    -0.101 N  
HETATM   20  C   UNL     1      -6.802   5.030  66.855  1.00  0.00    -0.063 C  
HETATM   21  O   UNL     1      -5.871   5.506  67.481  1.00  0.00    -0.016 OA 
HETATM   22  N   UNL     1      -6.916   3.696  66.434  1.00  0.00    -0.057 NA 
HETATM   23  C   UNL     1      -8.101   3.548  65.719  1.00  0.00    -0.093 A  
HETATM   24  C   UNL     1      -8.619   2.427  65.117  1.00  0.00    -0.109 A  
HETATM   25  C   UNL     1      -9.839   2.579  64.448  1.00  0.00    -0.052 A  
HETATM   26  C   UNL     1     -10.491   3.830  64.397  1.00  0.00    -0.227 A  
HETATM   27  C   UNL     1      -9.943   4.957  65.020  1.00  0.00     0.136 A  
HETATM   28  C   UNL     1      -8.747   4.785  65.680  1.00  0.00    -0.131 A  
ENDBRANCH  18  19
ENDBRANCH  17  18
ENDBRANCH  14  17
ENDBRANCH   7  11
TORSDOF 4
ENDMDL
MODEL      225
REMARK 921   NORMALIZED FREE ENERGY PREDICTED BY IDOCK:   -4.79 KCAL/MOL
REMARK 922        TOTAL FREE ENERGY PREDICTED BY IDOCK:   -6.53 KCAL/MOL
REMARK 923 INTER-LIGAND FREE ENERGY PREDICTED BY IDOCK:   -5.92 KCAL/MOL
REMARK 924 INTRA-LIGAND FREE ENERGY PREDICTED BY IDOCK:   -0.60 KCAL/MOL
REMARK 927      BINDING AFFINITY PREDICTED BY RF-SCORE:    0.00 PKD
ROOT
HETATM    1  F   UNL     1     -10.444   5.759  72.510  1.00  0.00    -0.207 F  
HETATM    2  C   UNL     1      -9.542   5.026  71.799  1.00  0.00    -0.154 C  
HETATM    3  C   UNL     1      -9.040   5.717  70.558  1.00  0.00    -0.161 A  
HETATM    4  F   UNL     1      -8.542   4.721  72.672  1.00  0.00    -0.110 F  
HETATM    5  F   UNL     1     -10.166   3.847  71.519  1.00  0.00    -0.248 F  
HETATM    6  C   UNL     1      -9.519   6.994  70.217  1.00  0.00    -0.165 A  
HETATM    7  C   UNL     1      -9.130   7.671  69.049  1.00  0.00    -0.144 A  
HETATM    8  C   UNL     1      -8.100   5.106  69.728  1.00  0.00    -0.082 A  
HETATM    9  C   UNL     1      -8.180   7.019  68.247  1.00  0.00    -0.124 A  
HETATM   10  C   UNL     1      -7.665   5.759  68.581  1.00  0.00    -0.090 A  
ENDROOT
BRANCH   7  11
HETATM   11  N   UNL     1      -9.626   8.947  68.771  1.00  0.00    -0.155 NA 
HETATM   12  C   UNL     1     -10.227  10.716  67.127  1.00  0.00    -0.216 C  
HETATM   13  C   UNL     1      -9.258   9.561  67.472  1.00  0.00    -0.126 C  
HETATM   14  N   UNL     1     -10.348  11.769  68.164  1.00  0.00    -0.193 NA 
HETATM   15  C   UNL     1     -10.711  11.088  69.433  1.00  0.00    -0.205 C  
HETATM   16  C   UNL     1      -9.770   9.932  69.862  1.00  0.00    -0.235 C  
BRANCH  14  17
HETATM   17  C   UNL     1      -9.107  12.552  68.329  1.00  0.00    -0.183 C  
BRANCH  17  18
HETATM   18  C   UNL     1      -8.580  13.170  67.021  1.00  0.00    -0.162 C  
BRANCH  18  19
HETATM   19  N   UNL     1      -9.294  14.370  66.670  1.00  0.00    -0.270 N  
HETATM   20  C   UNL     1     -10.123  14.514  65.539  1.00  0.00    -0.366 C  
HETATM   21  O   UNL     1     -10.377  13.675  64.692  1.00  0.00    -0.418 OA 
HETATM   22  N   UNL     1     -10.598  15.834  65.561  1.00  0.00    -0.384 NA 
HETATM   23  C   UNL     1     -10.058  16.490  66.664  1.00  0.00    -0.294 A  
HETATM   24  C   UNL     1     -10.238  17.787  67.078  1.00  0.00    -0.346 A  
HETATM   25  C   UNL     1      -9.550  18.180  68.231  1.00  0.00    -0.324 A  
HETATM   26  C   UNL     1      -8.709  17.280  68.921  1.00  0.00    -0.172 A  
HETATM   27  C   UNL     1      -8.544  15.963  68.480  1.00  0.00    -0.190 A  
HETATM   28  C   UNL     1      -9.237  15.592  67.348  1.00  0.00    -0.198 A  
ENDBRANCH  18  19
ENDBRANCH  17  18
ENDBRANCH  14  17
ENDBRANCH   7  11
TORSDOF 4
ENDMDL
MODEL      226
REMARK 921   NORMALIZED FREE ENERGY PREDICTED BY IDOCK:   -4.78 KCAL/MOL
REMARK 922        TOTAL FREE ENERGY PREDICTED BY IDOCK:   -6.53 KCAL/MOL
REMARK 923 INTER-LIGAND FREE ENERGY PREDICTED BY IDOCK:   -5.97 KCAL/MOL
REMARK 924 INTRA-LIGAND FREE ENERGY PREDICTED BY IDOCK:   -0.55 KCAL/MOL
REMARK 927      BINDING AFFINITY PREDICTED BY RF-SCORE:    0.00 PKD
ROOT
HETATM    1  F   UNL     1      -7.088   7.531  63.830  1.00  0.00    -0.058 F  
HETATM    2  C   UNL     1      -7.874   8.526  63.330  1.00  0.00    -0.153 C  
HETATM    3  C   UNL     1      -8.729   9.204  64.368  1.00  0.00    -0.184 A  
HETATM    4  F   UNL     1      -7.028   9.387  62.701  1.00  0.00    -0.098 F  
HETATM    5  F   UNL     1      -8.617   7.946  62.345  1.00  0.00    -0.162 F  
HETATM    6  C   UNL     1      -8.682   8.783  65.709  1.00  0.00    -0.209 A  
HETATM    7  C   UNL     1      -9.489   9.340  66.715  1.00  0.00    -0.175 A  
HETATM    8  C   UNL     1      -9.580  10.255  64.021  1.00  0.00    -0.365 A  
HETATM    9  C   UNL     1     -10.326  10.395  66.320  1.00  0.00    -0.270 A  
HETATM   10  C   UNL     1     -10.369  10.853  64.995  1.00  0.00    -0.356 A  
ENDROOT
BRANCH   7  11
HETATM   11  N   UNL     1      -9.385   8.893  68.034  1.00  0.00    -0.142 NA 
HETATM   12  C   UNL     1      -9.370   7.030  69.685  1.00  0.00    -0.149 C  
HETATM   13  C   UNL     1      -9.959   7.564  68.358  1.00  0.00    -0.170 C  
HETATM   14  N   UNL     1      -9.515   7.937  70.849  1.00  0.00    -0.156 NA 
HETATM   15  C   UNL     1      -8.928   9.244  70.457  1.00  0.00    -0.250 C  
HETATM   16  C   UNL     1      -9.486   9.859  69.147  1.00  0.00    -0.196 C  
BRANCH  14  17
HETATM   17  C   UNL     1     -10.920   8.103  71.272  1.00  0.00    -0.240 C  
BRANCH  17  18
HETATM   18  C   UNL     1     -11.120   8.069  72.798  1.00  0.00    -0.381 C  
BRANCH  18  19
HETATM   19  N   UNL     1     -10.223   7.141  73.436  1.00  0.00    -0.287 N  
HETATM   20  C   UNL     1      -8.956   7.473  73.957  1.00  0.00    -0.242 C  
HETATM   21  O   UNL     1      -8.419   8.567  73.965  1.00  0.00    -0.298 OA 
HETATM   22  N   UNL     1      -8.411   6.282  74.462  1.00  0.00    -0.124 NA 
HETATM   23  C   UNL     1      -9.309   5.243  74.236  1.00  0.00    -0.131 A  
HETATM   24  C   UNL     1      -9.195   3.911  74.553  1.00  0.00    -0.115 A  
HETATM   25  C   UNL     1     -10.264   3.085  74.188  1.00  0.00    -0.202 A  
HETATM   26  C   UNL     1     -11.395   3.606  73.523  1.00  0.00    -0.233 A  
HETATM   27  C   UNL     1     -11.487   4.967  73.213  1.00  0.00    -0.359 A  
HETATM   28  C   UNL     1     -10.429   5.766  73.587  1.00  0.00    -0.265 A  
ENDBRANCH  18  19
ENDBRANCH  17  18
ENDBRANCH  14  17
ENDBRANCH   7  11
TORSDOF 4
ENDMDL
MODEL      227
REMARK 921   NORMALIZED FREE ENERGY PREDICTED BY IDOCK:   -4.74 KCAL/MOL
REMARK 922        TOTAL FREE ENERGY PREDICTED BY IDOCK:   -6.47 KCAL/MOL
REMARK 923 INTER-LIGAND FREE ENERGY PREDICTED BY IDOCK:   -5.63 KCAL/MOL
REMARK 924 INTRA-LIGAND FREE ENERGY PREDICTED BY IDOCK:   -0.84 KCAL/MOL
REMARK 927      BINDING AFFINITY PREDICTED BY RF-SCORE:    0.00 PKD
ROOT
HETATM    1  F   UNL     1     -10.646  11.214  65.619  1.00  0.00    -0.298 F  
HETATM    2  C   UNL     1     -11.204  11.985  66.595  1.00  0.00    -0.327 C  
HETATM    3  C   UNL     1     -11.296  11.299  67.933  1.00  0.00    -0.367 A  
HETATM    4  F   UNL     1     -10.461  13.124  66.637  1.00  0.00    -0.265 F  
HETATM    5  F   UNL     1     -12.426  12.353  66.117  1.00  0.00    -0.383 F  
HETATM    6  C   UNL     1     -10.844   9.976  68.083  1.00  0.00    -0.303 A  
HETATM    7  C   UNL     1     -10.947   9.264  69.290  1.00  0.00    -0.085 A  
HETATM    8  C   UNL     1     -11.830  11.959  69.041  1.00  0.00    -0.368 A  
HETATM    9  C   UNL     1     -11.487   9.969  70.377  1.00  0.00    -0.389 A  
HETATM   10  C   UNL     1     -11.917  11.298  70.260  1.00  0.00    -0.466 A  
ENDROOT
BRANCH   7  11
HETATM   11  N   UNL     1     -10.464   7.957  69.384  1.00  0.00    -0.221 NA 
HETATM   12  C   UNL     1      -8.555   6.360  69.415  1.00  0.00    -0.130 C  
HETATM   13  C   UNL     1      -9.115   7.680  68.835  1.00  0.00    -0.140 C  
HETATM   14  N   UNL     1      -9.425   5.173  69.234  1.00  0.00    -0.130 NA 
HETATM   15  C   UNL     1     -10.754   5.518  69.797  1.00  0.00    -0.285 C  
HETATM   16  C   UNL     1     -11.395   6.819  69.245  1.00  0.00    -0.163 C  
BRANCH  14  17
HETATM   17  C   UNL     1      -9.547   4.767  67.819  1.00  0.00    -0.154 C  
BRANCH  17  18
HETATM   18  C   UNL     1      -8.200   4.474  67.134  1.00  0.00    -0.101 C  
BRANCH  18  19
HETATM   19  N   UNL     1      -8.210   4.859  65.747  1.00  0.00    -0.112 N  
HETATM   20  C   UNL     1      -8.385   3.973  64.665  1.00  0.00    -0.102 C  
HETATM   21  O   UNL     1      -8.560   2.767  64.712  1.00  0.00    -0.091 OA 
HETATM   22  N   UNL     1      -8.305   4.749  63.499  1.00  0.00    -0.111 NA 
HETATM   23  C   UNL     1      -8.064   6.073  63.854  1.00  0.00    -0.084 A  
HETATM   24  C   UNL     1      -7.906   7.175  63.049  1.00  0.00    -0.118 A  
HETATM   25  C   UNL     1      -7.659   8.393  63.691  1.00  0.00    -0.132 A  
HETATM   26  C   UNL     1      -7.572   8.472  65.098  1.00  0.00    -0.094 A  
HETATM   27  C   UNL     1      -7.738   7.335  65.897  1.00  0.00    -0.097 A  
HETATM   28  C   UNL     1      -7.989   6.147  65.247  1.00  0.00    -0.115 A  
ENDBRANCH  18  19
ENDBRANCH  17  18
ENDBRANCH  14  17
ENDBRANCH   7  11
TORSDOF 4
ENDMDL
MODEL      228
REMARK 921   NORMALIZED FREE ENERGY PREDICTED BY IDOCK:   -4.73 KCAL/MOL
REMARK 922        TOTAL FREE ENERGY PREDICTED BY IDOCK:   -6.45 KCAL/MOL
REMARK 923 INTER-LIGAND FREE ENERGY PREDICTED BY IDOCK:   -5.75 KCAL/MOL
REMARK 924 INTRA-LIGAND FREE ENERGY PREDICTED BY IDOCK:   -0.70 KCAL/MOL
REMARK 927      BINDING AFFINITY PREDICTED BY RF-SCORE:    0.00 PKD
ROOT
HETATM    1  F   UNL     1      -8.709  16.101  67.742  1.00  0.00    -0.168 F  
HETATM    2  C   UNL     1      -9.294  16.032  66.513  1.00  0.00    -0.268 C  
HETATM    3  C   UNL     1      -9.784  14.654  66.151  1.00  0.00    -0.344 A  
HETATM    4  F   UNL     1     -10.291  16.958  66.524  1.00  0.00    -0.288 F  
HETATM    5  F   UNL     1      -8.360  16.497  65.636  1.00  0.00    -0.248 F  
HETATM    6  C   UNL     1      -9.602  13.581  67.041  1.00  0.00    -0.248 A  
HETATM    7  C   UNL     1      -9.990  12.264  66.743  1.00  0.00    -0.205 A  
HETATM    8  C   UNL     1     -10.420  14.417  64.931  1.00  0.00    -0.448 A  
HETATM    9  C   UNL     1     -10.629  12.075  65.507  1.00  0.00    -0.313 A  
HETATM   10  C   UNL     1     -10.848  13.134  64.615  1.00  0.00    -0.383 A  
ENDROOT
BRANCH   7  11
HETATM   11  N   UNL     1      -9.800  11.242  67.675  1.00  0.00    -0.173 NA 
HETATM   12  C   UNL     1      -8.404  10.147  69.422  1.00  0.00    -0.168 C  
HETATM   13  C   UNL     1      -8.410  10.941  68.094  1.00  0.00    -0.123 C  
HETATM   14  N   UNL     1      -9.208   8.901  69.414  1.00  0.00    -0.145 NA 
HETATM   15  C   UNL     1     -10.580   9.272  68.984  1.00  0.00    -0.205 C  
HETATM   16  C   UNL     1     -10.671  10.050  67.645  1.00  0.00    -0.284 C  
BRANCH  14  17
HETATM   17  C   UNL     1      -8.645   7.864  68.526  1.00  0.00    -0.128 C  
BRANCH  17  18
HETATM   18  C   UNL     1      -9.128   6.438  68.847  1.00  0.00    -0.129 C  
BRANCH  18  19
HETATM   19  N   UNL     1      -9.331   5.660  67.652  1.00  0.00    -0.109 N  
HETATM   20  C   UNL     1     -10.452   5.764  66.804  1.00  0.00    -0.287 C  
HETATM   21  O   UNL     1     -11.410   6.508  66.924  1.00  0.00    -0.330 OA 
HETATM   22  N   UNL     1     -10.264   4.820  65.781  1.00  0.00    -0.233 NA 
HETATM   23  C   UNL     1      -9.070   4.141  66.009  1.00  0.00    -0.136 A  
HETATM   24  C   UNL     1      -8.490   3.134  65.276  1.00  0.00    -0.101 A  
HETATM   25  C   UNL     1      -7.278   2.625  65.757  1.00  0.00    -0.066 A  
HETATM   26  C   UNL     1      -6.696   3.126  66.941  1.00  0.00    -0.045 A  
HETATM   27  C   UNL     1      -7.306   4.153  67.669  1.00  0.00    -0.068 A  
HETATM   28  C   UNL     1      -8.494   4.647  67.175  1.00  0.00    -0.105 A  
ENDBRANCH  18  19
ENDBRANCH  17  18
ENDBRANCH  14  17
ENDBRANCH   7  11
TORSDOF 4
ENDMDL
MODEL      229
REMARK 921   NORMALIZED FREE ENERGY PREDICTED BY IDOCK:   -4.72 KCAL/MOL
REMARK 922        TOTAL FREE ENERGY PREDICTED BY IDOCK:   -6.44 KCAL/MOL
REMARK 923 INTER-LIGAND FREE ENERGY PREDICTED BY IDOCK:   -6.44 KCAL/MOL
REMARK 924 INTRA-LIGAND FREE ENERGY PREDICTED BY IDOCK:   -0.00 KCAL/MOL
REMARK 927      BINDING AFFINITY PREDICTED BY RF-SCORE:    0.00 PKD
ROOT
HETATM    1  F   UNL     1     -11.772  16.849  68.681  1.00  0.00    -0.149 F  
HETATM    2  C   UNL     1     -10.552  17.323  68.301  1.00  0.00    -0.383 C  
HETATM    3  C   UNL     1      -9.570  16.242  67.929  1.00  0.00    -0.227 A  
HETATM    4  F   UNL     1     -10.792  18.189  67.280  1.00  0.00    -0.396 F  
HETATM    5  F   UNL     1     -10.113  18.084  69.342  1.00  0.00    -0.307 F  
HETATM    6  C   UNL     1      -9.943  14.889  68.010  1.00  0.00    -0.220 A  
HETATM    7  C   UNL     1      -9.061  13.833  67.725  1.00  0.00    -0.193 A  
HETATM    8  C   UNL     1      -8.280  16.561  67.503  1.00  0.00    -0.170 A  
HETATM    9  C   UNL     1      -7.776  14.202  67.298  1.00  0.00    -0.132 A  
HETATM   10  C   UNL     1      -7.389  15.544  67.181  1.00  0.00    -0.226 A  
ENDROOT
BRANCH   7  11
HETATM   11  N   UNL     1      -9.494  12.507  67.805  1.00  0.00    -0.190 NA 
HETATM   12  C   UNL     1      -9.873  10.439  69.137  1.00  0.00    -0.223 C  
HETATM   13  C   UNL     1      -8.974  11.679  68.920  1.00  0.00     0.085 C  
HETATM   14  N   UNL     1     -10.080   9.593  67.937  1.00  0.00    -0.170 NA 
HETATM   15  C   UNL     1     -10.593  10.481  66.863  1.00  0.00    -0.243 C  
HETATM   16  C   UNL     1      -9.732  11.737  66.568  1.00  0.00    -0.206 C  
BRANCH  14  17
HETATM   17  C   UNL     1      -8.846   8.908  67.501  1.00  0.00    -0.130 C  
BRANCH  17  18
HETATM   18  C   UNL     1      -8.473   7.688  68.362  1.00  0.00    -0.125 C  
BRANCH  18  19
HETATM   19  N   UNL     1      -9.582   7.238  69.163  1.00  0.00    -0.155 N  
HETATM   20  C   UNL     1     -10.722   6.577  68.663  1.00  0.00    -0.271 C  
HETATM   21  O   UNL     1     -10.959   6.274  67.506  1.00  0.00    -0.320 OA 
HETATM   22  N   UNL     1     -11.558   6.340  69.765  1.00  0.00    -0.389 NA 
HETATM   23  C   UNL     1     -10.957   6.862  70.907  1.00  0.00    -0.253 A  
HETATM   24  C   UNL     1     -11.412   6.867  72.204  1.00  0.00    -0.316 A  
HETATM   25  C   UNL     1     -10.591   7.483  73.155  1.00  0.00    -0.442 A  
HETATM   26  C   UNL     1      -9.362   8.071  72.787  1.00  0.00    -0.330 A  
HETATM   27  C   UNL     1      -8.920   8.051  71.460  1.00  0.00    -0.180 A  
HETATM   28  C   UNL     1      -9.738   7.433  70.539  1.00  0.00    -0.175 A  
ENDBRANCH  18  19
ENDBRANCH  17  18
ENDBRANCH  14  17
ENDBRANCH   7  11
TORSDOF 4
ENDMDL
MODEL      230
REMARK 921   NORMALIZED FREE ENERGY PREDICTED BY IDOCK:   -4.71 KCAL/MOL
REMARK 922        TOTAL FREE ENERGY PREDICTED BY IDOCK:   -6.43 KCAL/MOL
REMARK 923 INTER-LIGAND FREE ENERGY PREDICTED BY IDOCK:   -6.60 KCAL/MOL
REMARK 924 INTRA-LIGAND FREE ENERGY PREDICTED BY IDOCK:    0.17 KCAL/MOL
REMARK 927      BINDING AFFINITY PREDICTED BY RF-SCORE:    0.00 PKD
ROOT
HETATM    1  F   UNL     1     -12.457   6.614  70.378  1.00  0.00    -0.419 F  
HETATM    2  C   UNL     1     -12.151   6.753  71.698  1.00  0.00    -0.359 C  
HETATM    3  C   UNL     1     -10.807   7.386  71.947  1.00  0.00    -0.262 A  
HETATM    4  F   UNL     1     -13.176   7.464  72.243  1.00  0.00    -0.216 F  
HETATM    5  F   UNL     1     -12.240   5.501  72.230  1.00  0.00    -0.251 F  
HETATM    6  C   UNL     1      -9.988   7.755  70.866  1.00  0.00    -0.190 A  
HETATM    7  C   UNL     1      -8.704   8.304  71.030  1.00  0.00    -0.146 A  
HETATM    8  C   UNL     1     -10.351   7.613  73.246  1.00  0.00    -0.405 A  
HETATM    9  C   UNL     1      -8.290   8.517  72.354  1.00  0.00    -0.177 A  
HETATM   10  C   UNL     1      -9.100   8.184  73.448  1.00  0.00    -0.309 A  
ENDROOT
BRANCH   7  11
HETATM   11  N   UNL     1      -7.943   8.669  69.917  1.00  0.00    -0.101 NA 
HETATM   12  C   UNL     1      -5.906   9.722  68.949  1.00  0.00    -0.035 C  
HETATM   13  C   UNL     1      -6.951   9.758  70.089  1.00  0.00    -0.118 C  
HETATM   14  N   UNL     1      -6.467   9.765  67.577  1.00  0.00    -0.067 NA 
HETATM   15  C   UNL     1      -7.450   8.657  67.476  1.00  0.00    -0.090 C  
HETATM   16  C   UNL     1      -8.549   8.639  68.571  1.00  0.00    -0.135 C  
BRANCH  14  17
HETATM   17  C   UNL     1      -7.105  11.059  67.261  1.00  0.00    -0.097 C  
BRANCH  17  18
HETATM   18  C   UNL     1      -7.995  11.025  66.007  1.00  0.00    -0.094 C  
BRANCH  18  19
HETATM   19  N   UNL     1      -9.049  12.005  66.071  1.00  0.00    -0.150 N  
HETATM   20  C   UNL     1      -9.246  12.908  67.136  1.00  0.00    -0.225 C  
HETATM   21  O   UNL     1      -8.579  13.019  68.150  1.00  0.00    -0.176 OA 
HETATM   22  N   UNL     1     -10.385  13.661  66.811  1.00  0.00    -0.265 NA 
HETATM   23  C   UNL     1     -10.886  13.217  65.591  1.00  0.00    -0.279 A  
HETATM   24  C   UNL     1     -11.984  13.655  64.891  1.00  0.00    -0.410 A  
HETATM   25  C   UNL     1     -12.259  13.006  63.682  1.00  0.00    -0.568 A  
HETATM   26  C   UNL     1     -11.444  11.950  63.219  1.00  0.00    -0.376 A  
HETATM   27  C   UNL     1     -10.331  11.523  63.950  1.00  0.00    -0.422 A  
HETATM   28  C   UNL     1     -10.071  12.180  65.133  1.00  0.00    -0.261 A  
ENDBRANCH  18  19
ENDBRANCH  17  18
ENDBRANCH  14  17
ENDBRANCH   7  11
TORSDOF 4
ENDMDL
MODEL      231
REMARK 921   NORMALIZED FREE ENERGY PREDICTED BY IDOCK:   -4.71 KCAL/MOL
REMARK 922        TOTAL FREE ENERGY PREDICTED BY IDOCK:   -6.43 KCAL/MOL
REMARK 923 INTER-LIGAND FREE ENERGY PREDICTED BY IDOCK:   -6.62 KCAL/MOL
REMARK 924 INTRA-LIGAND FREE ENERGY PREDICTED BY IDOCK:    0.20 KCAL/MOL
REMARK 927      BINDING AFFINITY PREDICTED BY RF-SCORE:    0.00 PKD
ROOT
HETATM    1  F   UNL     1     -13.194  12.793  72.292  1.00  0.00    -0.539 F  
HETATM    2  C   UNL     1     -13.071  14.132  72.071  1.00  0.00    -0.387 C  
HETATM    3  C   UNL     1     -12.353  14.472  70.791  1.00  0.00    -0.410 A  
HETATM    4  F   UNL     1     -14.336  14.633  72.114  1.00  0.00    -0.481 F  
HETATM    5  F   UNL     1     -12.435  14.628  73.169  1.00  0.00    -0.434 F  
HETATM    6  C   UNL     1     -11.864  13.449  69.960  1.00  0.00    -0.364 A  
HETATM    7  C   UNL     1     -11.144  13.700  68.780  1.00  0.00    -0.270 A  
HETATM    8  C   UNL     1     -12.157  15.801  70.410  1.00  0.00    -0.399 A  
HETATM    9  C   UNL     1     -10.975  15.050  68.436  1.00  0.00    -0.266 A  
HETATM   10  C   UNL     1     -11.478  16.088  69.232  1.00  0.00    -0.350 A  
ENDROOT
BRANCH   7  11
HETATM   11  N   UNL     1     -10.699  12.641  67.984  1.00  0.00    -0.219 NA 
HETATM   12  C   UNL     1     -11.025  11.117  66.043  1.00  0.00    -0.123 C  
HETATM   13  C   UNL     1     -11.710  11.912  67.180  1.00  0.00    -0.236 C  
HETATM   14  N   UNL     1      -9.961  10.182  66.480  1.00  0.00    -0.214 NA 
HETATM   15  C   UNL     1      -8.990  10.972  67.280  1.00  0.00    -0.138 C  
HETATM   16  C   UNL     1      -9.598  11.779  68.458  1.00  0.00    -0.170 C  
BRANCH  14  17
HETATM   17  C   UNL     1     -10.486   9.048  67.269  1.00  0.00    -0.273 C  
BRANCH  17  18
HETATM   18  C   UNL     1      -9.683   7.746  67.100  1.00  0.00    -0.186 C  
BRANCH  18  19
HETATM   19  N   UNL     1      -9.377   7.137  68.368  1.00  0.00    -0.136 N  
HETATM   20  C   UNL     1      -9.546   7.758  69.622  1.00  0.00    -0.163 C  
HETATM   21  O   UNL     1      -9.972   8.878  69.847  1.00  0.00    -0.179 OA 
HETATM   22  N   UNL     1      -9.110   6.833  70.584  1.00  0.00    -0.155 NA 
HETATM   23  C   UNL     1      -8.664   5.684  69.936  1.00  0.00    -0.125 A  
HETATM   24  C   UNL     1      -8.147   4.529  70.471  1.00  0.00    -0.067 A  
HETATM   25  C   UNL     1      -7.765   3.533  69.566  1.00  0.00    -0.051 A  
HETATM   26  C   UNL     1      -7.904   3.721  68.174  1.00  0.00    -0.072 A  
HETATM   27  C   UNL     1      -8.435   4.906  67.654  1.00  0.00    -0.104 A  
HETATM   28  C   UNL     1      -8.813   5.871  68.561  1.00  0.00    -0.111 A  
ENDBRANCH  18  19
ENDBRANCH  17  18
ENDBRANCH  14  17
ENDBRANCH   7  11
TORSDOF 4
ENDMDL
MODEL      232
REMARK 921   NORMALIZED FREE ENERGY PREDICTED BY IDOCK:   -4.70 KCAL/MOL
REMARK 922        TOTAL FREE ENERGY PREDICTED BY IDOCK:   -6.43 KCAL/MOL
REMARK 923 INTER-LIGAND FREE ENERGY PREDICTED BY IDOCK:   -5.54 KCAL/MOL
REMARK 924 INTRA-LIGAND FREE ENERGY PREDICTED BY IDOCK:   -0.89 KCAL/MOL
REMARK 927      BINDING AFFINITY PREDICTED BY RF-SCORE:    0.00 PKD
ROOT
HETATM    1  F   UNL     1      -6.113   6.028  66.360  1.00  0.00    -0.027 F  
HETATM    2  C   UNL     1      -6.620   4.883  65.822  1.00  0.00    -0.044 C  
HETATM    3  C   UNL     1      -7.567   4.150  66.737  1.00  0.00    -0.088 A  
HETATM    4  F   UNL     1      -7.203   5.251  64.648  1.00  0.00    -0.053 F  
HETATM    5  F   UNL     1      -5.539   4.126  65.482  1.00  0.00    -0.015 F  
HETATM    6  C   UNL     1      -7.839   4.651  68.022  1.00  0.00    -0.081 A  
HETATM    7  C   UNL     1      -8.672   3.990  68.941  1.00  0.00    -0.093 A  
HETATM    8  C   UNL     1      -8.184   2.966  66.330  1.00  0.00    -0.088 A  
HETATM    9  C   UNL     1      -9.273   2.806  68.487  1.00  0.00    -0.241 A  
HETATM   10  C   UNL     1      -9.041   2.302  67.200  1.00  0.00    -0.149 A  
ENDROOT
BRANCH   7  11
HETATM   11  N   UNL     1      -8.920   4.546  70.198  1.00  0.00    -0.086 NA 
HETATM   12  C   UNL     1      -9.872   4.357  72.490  1.00  0.00    -0.159 C  
HETATM   13  C   UNL     1     -10.025   3.968  71.001  1.00  0.00    -0.106 C  
HETATM   14  N   UNL     1      -9.768   5.812  72.754  1.00  0.00    -0.156 NA 
HETATM   15  C   UNL     1      -8.652   6.325  71.920  1.00  0.00    -0.128 C  
HETATM   16  C   UNL     1      -8.746   5.998  70.406  1.00  0.00    -0.144 C  
BRANCH  14  17
HETATM   17  C   UNL     1     -11.019   6.537  72.456  1.00  0.00    -0.248 C  
BRANCH  17  18
HETATM   18  C   UNL     1     -11.027   7.996  72.948  1.00  0.00    -0.330 C  
BRANCH  18  19
HETATM   19  N   UNL     1     -11.701   8.869  72.022  1.00  0.00    -0.367 N  
HETATM   20  C   UNL     1     -13.083   9.147  72.037  1.00  0.00    -0.429 C  
HETATM   21  O   UNL     1     -13.921   8.717  72.811  1.00  0.00    -0.368 OA 
HETATM   22  N   UNL     1     -13.323  10.017  70.961  1.00  0.00    -0.346 NA 
HETATM   23  C   UNL     1     -12.125  10.249  70.292  1.00  0.00    -0.249 A  
HETATM   24  C   UNL     1     -11.884  11.025  69.184  1.00  0.00    -0.407 A  
HETATM   25  C   UNL     1     -10.565  11.061  68.717  1.00  0.00    -0.232 A  
HETATM   26  C   UNL     1      -9.544  10.326  69.358  1.00  0.00    -0.237 A  
HETATM   27  C   UNL     1      -9.815   9.545  70.486  1.00  0.00    -0.331 A  
HETATM   28  C   UNL     1     -11.117   9.529  70.936  1.00  0.00    -0.336 A  
ENDBRANCH  18  19
ENDBRANCH  17  18
ENDBRANCH  14  17
ENDBRANCH   7  11
TORSDOF 4
ENDMDL
MODEL      233
REMARK 921   NORMALIZED FREE ENERGY PREDICTED BY IDOCK:   -4.68 KCAL/MOL
REMARK 922        TOTAL FREE ENERGY PREDICTED BY IDOCK:   -6.40 KCAL/MOL
REMARK 923 INTER-LIGAND FREE ENERGY PREDICTED BY IDOCK:   -6.66 KCAL/MOL
REMARK 924 INTRA-LIGAND FREE ENERGY PREDICTED BY IDOCK:    0.26 KCAL/MOL
REMARK 927      BINDING AFFINITY PREDICTED BY RF-SCORE:    0.00 PKD
ROOT
HETATM    1  F   UNL     1     -11.660   6.707  69.511  1.00  0.00    -0.360 F  
HETATM    2  C   UNL     1     -10.577   5.949  69.176  1.00  0.00    -0.299 C  
HETATM    3  C   UNL     1      -9.364   6.758  68.796  1.00  0.00    -0.132 A  
HETATM    4  F   UNL     1     -10.353   5.133  70.242  1.00  0.00    -0.295 F  
HETATM    5  F   UNL     1     -10.997   5.138  68.165  1.00  0.00    -0.101 F  
HETATM    6  C   UNL     1      -9.423   8.162  68.791  1.00  0.00    -0.148 A  
HETATM    7  C   UNL     1      -8.344   8.972  68.399  1.00  0.00    -0.124 A  
HETATM    8  C   UNL     1      -8.169   6.132  68.441  1.00  0.00    -0.115 A  
HETATM    9  C   UNL     1      -7.162   8.299  68.054  1.00  0.00    -0.094 A  
HETATM   10  C   UNL     1      -7.069   6.901  68.080  1.00  0.00    -0.086 A  
ENDROOT
BRANCH   7  11
HETATM   11  N   UNL     1      -8.455  10.365  68.432  1.00  0.00    -0.119 NA 
HETATM   12  C   UNL     1      -9.865  12.416  68.461  1.00  0.00    -0.151 C  
HETATM   13  C   UNL     1      -9.718  10.966  67.940  1.00  0.00    -0.165 C  
HETATM   14  N   UNL     1      -8.727  13.314  68.154  1.00  0.00    -0.175 NA 
HETATM   15  C   UNL     1      -7.500  12.652  68.666  1.00  0.00    -0.094 C  
HETATM   16  C   UNL     1      -7.268  11.202  68.167  1.00  0.00    -0.080 C  
BRANCH  14  17
HETATM   17  C   UNL     1      -8.600  13.602  66.710  1.00  0.00    -0.029 C  
BRANCH  17  18
HETATM   18  C   UNL     1      -9.128  14.989  66.302  1.00  0.00    -0.253 C  
BRANCH  18  19
HETATM   19  N   UNL     1     -10.227  14.892  65.376  1.00  0.00    -0.363 N  
HETATM   20  C   UNL     1     -11.030  15.974  64.963  1.00  0.00    -0.380 C  
HETATM   21  O   UNL     1     -10.936  17.142  65.300  1.00  0.00    -0.457 OA 
HETATM   22  N   UNL     1     -11.988  15.444  64.085  1.00  0.00    -0.482 NA 
HETATM   23  C   UNL     1     -11.792  14.070  63.979  1.00  0.00    -0.308 A  
HETATM   24  C   UNL     1     -12.492  13.145  63.242  1.00  0.00    -0.252 A  
HETATM   25  C   UNL     1     -12.072  11.814  63.342  1.00  0.00    -0.449 A  
HETATM   26  C   UNL     1     -10.985  11.452  64.167  1.00  0.00    -0.411 A  
HETATM   27  C   UNL     1     -10.287  12.412  64.906  1.00  0.00    -0.319 A  
HETATM   28  C   UNL     1     -10.710  13.718  64.789  1.00  0.00    -0.416 A  
ENDBRANCH  18  19
ENDBRANCH  17  18
ENDBRANCH  14  17
ENDBRANCH   7  11
TORSDOF 4
ENDMDL
MODEL      234
REMARK 921   NORMALIZED FREE ENERGY PREDICTED BY IDOCK:   -4.68 KCAL/MOL
REMARK 922        TOTAL FREE ENERGY PREDICTED BY IDOCK:   -6.40 KCAL/MOL
REMARK 923 INTER-LIGAND FREE ENERGY PREDICTED BY IDOCK:   -5.99 KCAL/MOL
REMARK 924 INTRA-LIGAND FREE ENERGY PREDICTED BY IDOCK:   -0.41 KCAL/MOL
REMARK 927      BINDING AFFINITY PREDICTED BY RF-SCORE:    0.00 PKD
ROOT
HETATM    1  F   UNL     1     -12.712  13.385  71.972  1.00  0.00    -0.377 F  
HETATM    2  C   UNL     1     -12.427  14.695  71.725  1.00  0.00    -0.345 C  
HETATM    3  C   UNL     1     -11.639  14.917  70.461  1.00  0.00    -0.336 A  
HETATM    4  F   UNL     1     -13.625  15.340  71.718  1.00  0.00    -0.393 F  
HETATM    5  F   UNL     1     -11.768  15.142  72.831  1.00  0.00    -0.468 F  
HETATM    6  C   UNL     1     -11.250  13.823  69.668  1.00  0.00    -0.175 A  
HETATM    7  C   UNL     1     -10.473  13.958  68.505  1.00  0.00    -0.250 A  
HETATM    8  C   UNL     1     -11.279  16.203  70.057  1.00  0.00    -0.359 A  
HETATM    9  C   UNL     1     -10.138  15.270  68.137  1.00  0.00    -0.229 A  
HETATM   10  C   UNL     1     -10.538  16.379  68.894  1.00  0.00    -0.307 A  
ENDROOT
BRANCH   7  11
HETATM   11  N   UNL     1     -10.133  12.835  67.747  1.00  0.00    -0.219 NA 
HETATM   12  C   UNL     1     -10.698  11.171  65.983  1.00  0.00    -0.211 C  
HETATM   13  C   UNL     1     -11.237  12.062  67.128  1.00  0.00    -0.316 C  
HETATM   14  N   UNL     1      -9.594  10.257  66.362  1.00  0.00    -0.177 NA 
HETATM   15  C   UNL     1      -8.530  11.091  66.977  1.00  0.00    -0.141 C  
HETATM   16  C   UNL     1      -8.987  11.995  68.152  1.00  0.00    -0.190 C  
BRANCH  14  17
HETATM   17  C   UNL     1     -10.027   9.195  67.293  1.00  0.00    -0.211 C  
BRANCH  17  18
HETATM   18  C   UNL     1      -8.869   8.512  68.043  1.00  0.00    -0.142 C  
BRANCH  18  19
HETATM   19  N   UNL     1      -8.115   7.638  67.182  1.00  0.00    -0.116 N  
HETATM   20  C   UNL     1      -6.762   7.821  66.833  1.00  0.00    -0.067 C  
HETATM   21  O   UNL     1      -6.015   8.716  67.192  1.00  0.00    -0.051 OA 
HETATM   22  N   UNL     1      -6.430   6.768  65.966  1.00  0.00    -0.049 NA 
HETATM   23  C   UNL     1      -7.555   5.973  65.770  1.00  0.00    -0.084 A  
HETATM   24  C   UNL     1      -7.700   4.845  65.000  1.00  0.00    -0.083 A  
HETATM   25  C   UNL     1      -8.968   4.254  64.983  1.00  0.00    -0.141 A  
HETATM   26  C   UNL     1     -10.039   4.803  65.720  1.00  0.00    -0.236 A  
HETATM   27  C   UNL     1      -9.866   5.952  66.498  1.00  0.00    -0.189 A  
HETATM   28  C   UNL     1      -8.609   6.515  66.510  1.00  0.00    -0.123 A  
ENDBRANCH  18  19
ENDBRANCH  17  18
ENDBRANCH  14  17
ENDBRANCH   7  11
TORSDOF 4
ENDMDL
MODEL      235
REMARK 921   NORMALIZED FREE ENERGY PREDICTED BY IDOCK:   -4.68 KCAL/MOL
REMARK 922        TOTAL FREE ENERGY PREDICTED BY IDOCK:   -6.40 KCAL/MOL
REMARK 923 INTER-LIGAND FREE ENERGY PREDICTED BY IDOCK:   -6.18 KCAL/MOL
REMARK 924 INTRA-LIGAND FREE ENERGY PREDICTED BY IDOCK:   -0.21 KCAL/MOL
REMARK 927      BINDING AFFINITY PREDICTED BY RF-SCORE:    0.00 PKD
ROOT
HETATM    1  F   UNL     1     -13.074  12.410  64.834  1.00  0.00    -0.535 F  
HETATM    2  C   UNL     1     -12.310  12.224  63.721  1.00  0.00    -0.538 C  
HETATM    3  C   UNL     1     -10.991  11.550  63.995  1.00  0.00    -0.454 A  
HETATM    4  F   UNL     1     -13.088  11.524  62.851  1.00  0.00    -0.517 F  
HETATM    5  F   UNL     1     -12.156  13.462  63.171  1.00  0.00    -0.577 F  
HETATM    6  C   UNL     1     -10.639  11.193  65.308  1.00  0.00    -0.303 A  
HETATM    7  C   UNL     1      -9.405  10.607  65.637  1.00  0.00    -0.201 A  
HETATM    8  C   UNL     1     -10.099  11.274  62.958  1.00  0.00    -0.327 A  
HETATM    9  C   UNL     1      -8.541  10.345  64.562  1.00  0.00    -0.187 A  
HETATM   10  C   UNL     1      -8.881  10.666  63.241  1.00  0.00    -0.202 A  
ENDROOT
BRANCH   7  11
HETATM   11  N   UNL     1      -9.117  10.256  66.958  1.00  0.00    -0.139 NA 
HETATM   12  C   UNL     1      -8.147  10.824  69.179  1.00  0.00    -0.131 C  
HETATM   13  C   UNL     1      -8.029  10.993  67.646  1.00  0.00    -0.115 C  
HETATM   14  N   UNL     1      -8.185   9.422  69.658  1.00  0.00    -0.123 NA 
HETATM   15  C   UNL     1      -9.287   8.744  68.929  1.00  0.00    -0.145 C  
HETATM   16  C   UNL     1      -9.226   8.845  67.382  1.00  0.00    -0.135 C  
BRANCH  14  17
HETATM   17  C   UNL     1      -6.907   8.712  69.448  1.00  0.00    -0.049 C  
BRANCH  17  18
HETATM   18  C   UNL     1      -6.803   7.376  70.206  1.00  0.00    -0.052 C  
BRANCH  18  19
HETATM   19  N   UNL     1      -7.211   7.507  71.580  1.00  0.00    -0.066 N  
HETATM   20  C   UNL     1      -6.774   8.520  72.458  1.00  0.00    -0.067 C  
HETATM   21  O   UNL     1      -6.006   9.435  72.215  1.00  0.00    -0.253 OA 
HETATM   22  N   UNL     1      -7.389   8.265  73.694  1.00  0.00    -0.212 NA 
HETATM   23  C   UNL     1      -8.165   7.115  73.584  1.00  0.00    -0.124 A  
HETATM   24  C   UNL     1      -8.934   6.490  74.535  1.00  0.00    -0.197 A  
HETATM   25  C   UNL     1      -9.602   5.327  74.139  1.00  0.00    -0.147 A  
HETATM   26  C   UNL     1      -9.479   4.827  72.824  1.00  0.00    -0.154 A  
HETATM   27  C   UNL     1      -8.691   5.483  71.873  1.00  0.00    -0.135 A  
HETATM   28  C   UNL     1      -8.048   6.631  72.279  1.00  0.00    -0.100 A  
ENDBRANCH  18  19
ENDBRANCH  17  18
ENDBRANCH  14  17
ENDBRANCH   7  11
TORSDOF 4
ENDMDL
MODEL      236
REMARK 921   NORMALIZED FREE ENERGY PREDICTED BY IDOCK:   -4.64 KCAL/MOL
REMARK 922        TOTAL FREE ENERGY PREDICTED BY IDOCK:   -6.35 KCAL/MOL
REMARK 923 INTER-LIGAND FREE ENERGY PREDICTED BY IDOCK:   -6.07 KCAL/MOL
REMARK 924 INTRA-LIGAND FREE ENERGY PREDICTED BY IDOCK:   -0.28 KCAL/MOL
REMARK 927      BINDING AFFINITY PREDICTED BY RF-SCORE:    0.00 PKD
ROOT
HETATM    1  F   UNL     1      -9.699  18.014  65.987  1.00  0.00    -0.298 F  
HETATM    2  C   UNL     1     -10.156  18.030  67.271  1.00  0.00    -0.342 C  
HETATM    3  C   UNL     1     -10.627  16.687  67.764  1.00  0.00    -0.342 A  
HETATM    4  F   UNL     1      -9.139  18.538  68.019  1.00  0.00    -0.279 F  
HETATM    5  F   UNL     1     -11.144  18.968  67.297  1.00  0.00    -0.517 F  
HETATM    6  C   UNL     1     -10.589  15.568  66.915  1.00  0.00    -0.307 A  
HETATM    7  C   UNL     1     -11.060  14.300  67.297  1.00  0.00    -0.306 A  
HETATM    8  C   UNL     1     -11.111  16.531  69.064  1.00  0.00    -0.284 A  
HETATM    9  C   UNL     1     -11.533  14.190  68.614  1.00  0.00    -0.332 A  
HETATM   10  C   UNL     1     -11.554  15.284  69.489  1.00  0.00    -0.339 A  
ENDROOT
BRANCH   7  11
HETATM   11  N   UNL     1     -10.979  13.219  66.415  1.00  0.00    -0.287 NA 
HETATM   12  C   UNL     1     -10.627  10.789  66.009  1.00  0.00    -0.156 C  
HETATM   13  C   UNL     1     -10.239  12.017  66.867  1.00  0.00    -0.208 C  
HETATM   14  N   UNL     1     -10.460  10.963  64.546  1.00  0.00    -0.349 NA 
HETATM   15  C   UNL     1     -11.218  12.181  64.165  1.00  0.00    -0.368 C  
HETATM   16  C   UNL     1     -10.866  13.464  64.963  1.00  0.00    -0.328 C  
BRANCH  14  17
HETATM   17  C   UNL     1      -9.044  11.083  64.145  1.00  0.00    -0.097 C  
BRANCH  17  18
HETATM   18  C   UNL     1      -8.346   9.732  63.906  1.00  0.00    -0.173 C  
BRANCH  18  19
HETATM   19  N   UNL     1      -7.661   9.266  65.084  1.00  0.00    -0.105 N  
HETATM   20  C   UNL     1      -6.985  10.094  66.003  1.00  0.00    -0.117 C  
HETATM   21  O   UNL     1      -6.870  11.307  65.967  1.00  0.00    -0.018 OA 
HETATM   22  N   UNL     1      -6.445   9.242  66.979  1.00  0.00    -0.066 NA 
HETATM   23  C   UNL     1      -6.762   7.926  66.656  1.00  0.00    -0.063 A  
HETATM   24  C   UNL     1      -6.439   6.766  67.317  1.00  0.00    -0.049 A  
HETATM   25  C   UNL     1      -6.888   5.570  66.745  1.00  0.00    -0.063 A  
HETATM   26  C   UNL     1      -7.630   5.570  65.544  1.00  0.00    -0.079 A  
HETATM   27  C   UNL     1      -7.947   6.765  64.891  1.00  0.00    -0.124 A  
HETATM   28  C   UNL     1      -7.504   7.932  65.473  1.00  0.00    -0.079 A  
ENDBRANCH  18  19
ENDBRANCH  17  18
ENDBRANCH  14  17
ENDBRANCH   7  11
TORSDOF 4
ENDMDL
MODEL      237
REMARK 921   NORMALIZED FREE ENERGY PREDICTED BY IDOCK:   -4.64 KCAL/MOL
REMARK 922        TOTAL FREE ENERGY PREDICTED BY IDOCK:   -6.35 KCAL/MOL
REMARK 923 INTER-LIGAND FREE ENERGY PREDICTED BY IDOCK:   -6.63 KCAL/MOL
REMARK 924 INTRA-LIGAND FREE ENERGY PREDICTED BY IDOCK:    0.28 KCAL/MOL
REMARK 927      BINDING AFFINITY PREDICTED BY RF-SCORE:    0.00 PKD
ROOT
HETATM    1  F   UNL     1     -12.467  16.262  70.803  1.00  0.00    -0.325 F  
HETATM    2  C   UNL     1     -13.043  15.364  71.651  1.00  0.00    -0.459 C  
HETATM    3  C   UNL     1     -12.752  13.927  71.302  1.00  0.00    -0.444 A  
HETATM    4  F   UNL     1     -12.610  15.700  72.897  1.00  0.00    -0.386 F  
HETATM    5  F   UNL     1     -14.377  15.642  71.631  1.00  0.00    -0.527 F  
HETATM    6  C   UNL     1     -11.967  13.617  70.178  1.00  0.00    -0.407 A  
HETATM    7  C   UNL     1     -11.701  12.299  69.771  1.00  0.00    -0.298 A  
HETATM    8  C   UNL     1     -13.256  12.885  72.081  1.00  0.00    -0.552 A  
HETATM    9  C   UNL     1     -12.225  11.284  70.586  1.00  0.00    -0.489 A  
HETATM   10  C   UNL     1     -12.986  11.568  71.729  1.00  0.00    -0.500 A  
ENDROOT
BRANCH   7  11
HETATM   11  N   UNL     1     -10.898  12.051  68.655  1.00  0.00    -0.228 NA 
HETATM   12  C   UNL     1     -10.614  11.108  66.368  1.00  0.00    -0.261 C  
HETATM   13  C   UNL     1     -11.304  10.953  67.744  1.00  0.00    -0.292 C  
HETATM   14  N   UNL     1      -9.135  11.205  66.412  1.00  0.00    -0.181 NA 
HETATM   15  C   UNL     1      -8.800  12.314  67.340  1.00  0.00    -0.185 C  
HETATM   16  C   UNL     1      -9.434  12.217  68.753  1.00  0.00     0.086 C  
BRANCH  14  17
HETATM   17  C   UNL     1      -8.494   9.948  66.848  1.00  0.00    -0.125 C  
BRANCH  17  18
HETATM   18  C   UNL     1      -9.092   8.685  66.201  1.00  0.00    -0.201 C  
BRANCH  18  19
HETATM   19  N   UNL     1      -8.679   7.487  66.885  1.00  0.00    -0.126 N  
HETATM   20  C   UNL     1      -7.768   7.445  67.959  1.00  0.00    -0.116 C  
HETATM   21  O   UNL     1      -7.194   8.382  68.485  1.00  0.00    -0.078 OA 
HETATM   22  N   UNL     1      -7.631   6.092  68.309  1.00  0.00    -0.096 NA 
HETATM   23  C   UNL     1      -8.419   5.323  67.458  1.00  0.00    -0.105 A  
HETATM   24  C   UNL     1      -8.590   3.960  67.425  1.00  0.00    -0.109 A  
HETATM   25  C   UNL     1      -9.445   3.458  66.438  1.00  0.00    -0.135 A  
HETATM   26  C   UNL     1     -10.089   4.319  65.523  1.00  0.00    -0.235 A  
HETATM   27  C   UNL     1      -9.900   5.704  65.578  1.00  0.00     0.292 A  
HETATM   28  C   UNL     1      -9.061   6.180  66.562  1.00  0.00    -0.148 A  
ENDBRANCH  18  19
ENDBRANCH  17  18
ENDBRANCH  14  17
ENDBRANCH   7  11
TORSDOF 4
ENDMDL
MODEL      238
REMARK 921   NORMALIZED FREE ENERGY PREDICTED BY IDOCK:   -4.63 KCAL/MOL
REMARK 922        TOTAL FREE ENERGY PREDICTED BY IDOCK:   -6.34 KCAL/MOL
REMARK 923 INTER-LIGAND FREE ENERGY PREDICTED BY IDOCK:   -5.69 KCAL/MOL
REMARK 924 INTRA-LIGAND FREE ENERGY PREDICTED BY IDOCK:   -0.65 KCAL/MOL
REMARK 927      BINDING AFFINITY PREDICTED BY RF-SCORE:    0.00 PKD
ROOT
HETATM    1  F   UNL     1     -10.072   4.446  72.302  1.00  0.00    -0.211 F  
HETATM    2  C   UNL     1      -9.352   3.733  71.390  1.00  0.00    -0.138 C  
HETATM    3  C   UNL     1      -8.798   4.570  70.266  1.00  0.00    -0.126 A  
HETATM    4  F   UNL     1      -8.381   3.097  72.101  1.00  0.00    -0.068 F  
HETATM    5  F   UNL     1     -10.191   2.756  70.944  1.00  0.00    -0.084 F  
HETATM    6  C   UNL     1      -9.058   5.950  70.217  1.00  0.00    -0.156 A  
HETATM    7  C   UNL     1      -8.613   6.776  69.171  1.00  0.00    -0.131 A  
HETATM    8  C   UNL     1      -8.025   3.992  69.258  1.00  0.00    -0.057 A  
HETATM    9  C   UNL     1      -7.836   6.153  68.182  1.00  0.00    -0.103 A  
HETATM   10  C   UNL     1      -7.539   4.784  68.224  1.00  0.00    -0.077 A  
ENDROOT
BRANCH   7  11
HETATM   11  N   UNL     1      -8.886   8.146  69.185  1.00  0.00    -0.144 NA 
HETATM   12  C   UNL     1     -10.187  10.077  70.065  1.00  0.00    -0.255 C  
HETATM   13  C   UNL     1     -10.214   8.578  69.683  1.00  0.00    -0.209 C  
HETATM   14  N   UNL     1      -9.729  10.993  68.994  1.00  0.00    -0.174 NA 
HETATM   15  C   UNL     1      -8.403  10.502  68.541  1.00  0.00    -0.129 C  
HETATM   16  C   UNL     1      -8.354   9.012  68.114  1.00  0.00    -0.121 C  
BRANCH  14  17
HETATM   17  C   UNL     1     -10.674  11.064  67.861  1.00  0.00    -0.219 C  
BRANCH  17  18
HETATM   18  C   UNL     1     -12.036  11.684  68.222  1.00  0.00    -0.166 C  
BRANCH  18  19
HETATM   19  N   UNL     1     -11.888  12.958  68.876  1.00  0.00    -0.314 N  
HETATM   20  C   UNL     1     -12.229  13.221  70.218  1.00  0.00    -0.321 C  
HETATM   21  O   UNL     1     -12.688  12.441  71.035  1.00  0.00    -0.326 OA 
HETATM   22  N   UNL     1     -11.951  14.579  70.439  1.00  0.00    -0.298 NA 
HETATM   23  C   UNL     1     -11.473  15.140  69.258  1.00  0.00    -0.311 A  
HETATM   24  C   UNL     1     -11.083  16.433  69.005  1.00  0.00    -0.315 A  
HETATM   25  C   UNL     1     -10.653  16.716  67.704  1.00  0.00    -0.321 A  
HETATM   26  C   UNL     1     -10.632  15.716  66.709  1.00  0.00    -0.307 A  
HETATM   27  C   UNL     1     -11.033  14.406  66.992  1.00  0.00    -0.304 A  
HETATM   28  C   UNL     1     -11.445  14.144  68.280  1.00  0.00    -0.304 A  
ENDBRANCH  18  19
ENDBRANCH  17  18
ENDBRANCH  14  17
ENDBRANCH   7  11
TORSDOF 4
ENDMDL
MODEL      239
REMARK 921   NORMALIZED FREE ENERGY PREDICTED BY IDOCK:   -4.63 KCAL/MOL
REMARK 922        TOTAL FREE ENERGY PREDICTED BY IDOCK:   -6.33 KCAL/MOL
REMARK 923 INTER-LIGAND FREE ENERGY PREDICTED BY IDOCK:   -5.66 KCAL/MOL
REMARK 924 INTRA-LIGAND FREE ENERGY PREDICTED BY IDOCK:   -0.68 KCAL/MOL
REMARK 927      BINDING AFFINITY PREDICTED BY RF-SCORE:    0.00 PKD
ROOT
HETATM    1  F   UNL     1      -7.851   3.476  71.134  1.00  0.00    -0.054 F  
HETATM    2  C   UNL     1      -6.904   3.999  71.963  1.00  0.00    -0.037 C  
HETATM    3  C   UNL     1      -6.921   5.504  72.030  1.00  0.00    -0.080 A  
HETATM    4  F   UNL     1      -7.110   3.416  73.176  1.00  0.00    -0.038 F  
HETATM    5  F   UNL     1      -5.713   3.513  71.512  1.00  0.00    -0.010 F  
HETATM    6  C   UNL     1      -7.844   6.236  71.264  1.00  0.00    -0.108 A  
HETATM    7  C   UNL     1      -7.878   7.641  71.243  1.00  0.00    -0.090 A  
HETATM    8  C   UNL     1      -6.023   6.195  72.845  1.00  0.00    -0.042 A  
HETATM    9  C   UNL     1      -6.960   8.292  72.081  1.00  0.00    -0.098 A  
HETATM   10  C   UNL     1      -6.049   7.584  72.877  1.00  0.00    -0.055 A  
ENDROOT
BRANCH   7  11
HETATM   11  N   UNL     1      -8.832   8.315  70.476  1.00  0.00    -0.141 NA 
HETATM   12  C   UNL     1      -9.435   9.619  68.443  1.00  0.00    -0.137 C  
HETATM   13  C   UNL     1      -8.345   9.319  69.500  1.00  0.00    -0.131 C  
HETATM   14  N   UNL     1     -10.745  10.044  68.992  1.00  0.00    -0.212 NA 
HETATM   15  C   UNL     1     -11.169   9.002  69.960  1.00  0.00    -0.128 C  
HETATM   16  C   UNL     1     -10.139   8.663  71.069  1.00  0.00    -0.215 C  
BRANCH  14  17
HETATM   17  C   UNL     1     -10.688  11.369  69.643  1.00  0.00     0.034 C  
BRANCH  17  18
HETATM   18  C   UNL     1     -11.983  12.188  69.504  1.00  0.00    -0.275 C  
BRANCH  18  19
HETATM   19  N   UNL     1     -12.418  12.721  70.769  1.00  0.00    -0.322 N  
HETATM   20  C   UNL     1     -13.148  12.003  71.738  1.00  0.00    -0.355 C  
HETATM   21  O   UNL     1     -13.520  10.844  71.681  1.00  0.00    -0.276 OA 
HETATM   22  N   UNL     1     -13.384  12.894  72.797  1.00  0.00    -0.344 NA 
HETATM   23  C   UNL     1     -12.833  14.131  72.477  1.00  0.00    -0.343 A  
HETATM   24  C   UNL     1     -12.828  15.296  73.206  1.00  0.00    -0.634 A  
HETATM   25  C   UNL     1     -12.202  16.402  72.620  1.00  0.00    -0.482 A  
HETATM   26  C   UNL     1     -11.615  16.314  71.339  1.00  0.00    -0.424 A  
HETATM   27  C   UNL     1     -11.633  15.116  70.617  1.00  0.00    -0.351 A  
HETATM   28  C   UNL     1     -12.245  14.036  71.214  1.00  0.00    -0.310 A  
ENDBRANCH  18  19
ENDBRANCH  17  18
ENDBRANCH  14  17
ENDBRANCH   7  11
TORSDOF 4
ENDMDL
MODEL      240
REMARK 921   NORMALIZED FREE ENERGY PREDICTED BY IDOCK:   -4.62 KCAL/MOL
REMARK 922        TOTAL FREE ENERGY PREDICTED BY IDOCK:   -6.33 KCAL/MOL
REMARK 923 INTER-LIGAND FREE ENERGY PREDICTED BY IDOCK:   -6.00 KCAL/MOL
REMARK 924 INTRA-LIGAND FREE ENERGY PREDICTED BY IDOCK:   -0.33 KCAL/MOL
REMARK 927      BINDING AFFINITY PREDICTED BY RF-SCORE:    0.00 PKD
ROOT
HETATM    1  F   UNL     1      -6.874   3.604  71.612  1.00  0.00    -0.024 F  
HETATM    2  C   UNL     1      -7.701   2.722  72.242  1.00  0.00    -0.053 C  
HETATM    3  C   UNL     1      -9.037   3.307  72.621  1.00  0.00    -0.119 A  
HETATM    4  F   UNL     1      -7.813   1.656  71.403  1.00  0.00    -0.038 F  
HETATM    5  F   UNL     1      -7.005   2.275  73.324  1.00  0.00    -0.023 F  
HETATM    6  C   UNL     1      -9.326   4.653  72.338  1.00  0.00    -0.160 A  
HETATM    7  C   UNL     1     -10.531   5.272  72.710  1.00  0.00    -0.217 A  
HETATM    8  C   UNL     1     -10.004   2.530  73.260  1.00  0.00    -0.174 A  
HETATM    9  C   UNL     1     -11.475   4.450  73.346  1.00  0.00    -0.297 A  
HETATM   10  C   UNL     1     -11.222   3.098  73.613  1.00  0.00    -0.288 A  
ENDROOT
BRANCH   7  11
HETATM   11  N   UNL     1     -10.770   6.609  72.384  1.00  0.00    -0.215 NA 
HETATM   12  C   UNL     1     -12.362   8.484  71.999  1.00  0.00    -0.365 C  
HETATM   13  C   UNL     1     -12.115   6.962  71.868  1.00  0.00    -0.333 C  
HETATM   14  N   UNL     1     -11.337   9.346  71.364  1.00  0.00    -0.355 NA 
HETATM   15  C   UNL     1     -10.022   8.938  71.920  1.00  0.00    -0.314 C  
HETATM   16  C   UNL     1      -9.688   7.428  71.802  1.00  0.00    -0.153 C  
BRANCH  14  17
HETATM   17  C   UNL     1     -11.337   9.242  69.891  1.00  0.00    -0.061 C  
BRANCH  17  18
HETATM   18  C   UNL     1     -10.221  10.053  69.208  1.00  0.00    -0.214 C  
BRANCH  18  19
HETATM   19  N   UNL     1     -10.714  10.792  68.075  1.00  0.00    -0.209 N  
HETATM   20  C   UNL     1     -11.844  11.634  68.091  1.00  0.00    -0.244 C  
HETATM   21  O   UNL     1     -12.574  11.881  69.035  1.00  0.00     0.032 OA 
HETATM   22  N   UNL     1     -11.984  12.134  66.786  1.00  0.00    -0.615 NA 
HETATM   23  C   UNL     1     -10.980  11.595  65.987  1.00  0.00    -0.286 A  
HETATM   24  C   UNL     1     -10.732  11.795  64.650  1.00  0.00    -0.363 A  
HETATM   25  C   UNL     1      -9.647  11.103  64.102  1.00  0.00    -0.290 A  
HETATM   26  C   UNL     1      -8.858  10.240  64.893  1.00  0.00    -0.213 A  
HETATM   27  C   UNL     1      -9.130  10.055  66.252  1.00  0.00    -0.180 A  
HETATM   28  C   UNL     1     -10.197  10.751  66.775  1.00  0.00    -0.230 A  
ENDBRANCH  18  19
ENDBRANCH  17  18
ENDBRANCH  14  17
ENDBRANCH   7  11
TORSDOF 4
ENDMDL
MODEL      241
REMARK 921   NORMALIZED FREE ENERGY PREDICTED BY IDOCK:   -4.62 KCAL/MOL
REMARK 922        TOTAL FREE ENERGY PREDICTED BY IDOCK:   -6.32 KCAL/MOL
REMARK 923 INTER-LIGAND FREE ENERGY PREDICTED BY IDOCK:   -5.79 KCAL/MOL
REMARK 924 INTRA-LIGAND FREE ENERGY PREDICTED BY IDOCK:   -0.53 KCAL/MOL
REMARK 927      BINDING AFFINITY PREDICTED BY RF-SCORE:    0.00 PKD
ROOT
HETATM    1  F   UNL     1      -9.812  17.779  66.153  1.00  0.00    -0.297 F  
HETATM    2  C   UNL     1     -10.290  17.834  67.428  1.00  0.00    -0.369 C  
HETATM    3  C   UNL     1     -10.658  16.489  67.998  1.00  0.00    -0.328 A  
HETATM    4  F   UNL     1      -9.331  18.469  68.156  1.00  0.00    -0.284 F  
HETATM    5  F   UNL     1     -11.352  18.687  67.385  1.00  0.00    -0.332 F  
HETATM    6  C   UNL     1     -10.513  15.327  67.219  1.00  0.00    -0.275 A  
HETATM    7  C   UNL     1     -10.884  14.050  67.673  1.00  0.00    -0.262 A  
HETATM    8  C   UNL     1     -11.149  16.371  69.299  1.00  0.00    -0.297 A  
HETATM    9  C   UNL     1     -11.369  13.981  68.988  1.00  0.00    -0.319 A  
HETATM   10  C   UNL     1     -11.495  15.120  69.795  1.00  0.00    -0.321 A  
ENDROOT
BRANCH   7  11
HETATM   11  N   UNL     1     -10.700  12.929  66.860  1.00  0.00    -0.256 NA 
HETATM   12  C   UNL     1     -10.495  10.462  66.604  1.00  0.00    -0.215 C  
HETATM   13  C   UNL     1     -10.206  11.687  67.503  1.00  0.00    -0.195 C  
HETATM   14  N   UNL     1      -9.970  10.556  65.221  1.00  0.00    -0.279 NA 
HETATM   15  C   UNL     1     -10.496  11.817  64.641  1.00  0.00    -0.299 C  
HETATM   16  C   UNL     1     -10.223  13.098  65.473  1.00  0.00    -0.287 C  
BRANCH  14  17
HETATM   17  C   UNL     1      -8.494  10.534  65.169  1.00  0.00    -0.166 C  
BRANCH  17  18
HETATM   18  C   UNL     1      -7.890   9.118  65.183  1.00  0.00    -0.106 C  
BRANCH  18  19
HETATM   19  N   UNL     1      -7.897   8.546  66.505  1.00  0.00    -0.095 N  
HETATM   20  C   UNL     1      -8.573   7.364  66.868  1.00  0.00    -0.120 C  
HETATM   21  O   UNL     1      -9.242   6.640  66.151  1.00  0.00    -0.153 OA 
HETATM   22  N   UNL     1      -8.341   7.181  68.240  1.00  0.00    -0.124 NA 
HETATM   23  C   UNL     1      -7.561   8.233  68.710  1.00  0.00    -0.101 A  
HETATM   24  C   UNL     1      -7.097   8.472  69.982  1.00  0.00    -0.046 A  
HETATM   25  C   UNL     1      -6.337   9.632  70.166  1.00  0.00    -0.069 A  
HETATM   26  C   UNL     1      -6.073  10.509  69.092  1.00  0.00    -0.041 A  
HETATM   27  C   UNL     1      -6.555  10.243  67.807  1.00  0.00    -0.066 A  
HETATM   28  C   UNL     1      -7.294   9.092  67.643  1.00  0.00    -0.087 A  
ENDBRANCH  18  19
ENDBRANCH  17  18
ENDBRANCH  14  17
ENDBRANCH   7  11
TORSDOF 4
ENDMDL
MODEL      242
REMARK 921   NORMALIZED FREE ENERGY PREDICTED BY IDOCK:   -4.60 KCAL/MOL
REMARK 922        TOTAL FREE ENERGY PREDICTED BY IDOCK:   -6.30 KCAL/MOL
REMARK 923 INTER-LIGAND FREE ENERGY PREDICTED BY IDOCK:   -5.99 KCAL/MOL
REMARK 924 INTRA-LIGAND FREE ENERGY PREDICTED BY IDOCK:   -0.31 KCAL/MOL
REMARK 927      BINDING AFFINITY PREDICTED BY RF-SCORE:    0.00 PKD
ROOT
HETATM    1  F   UNL     1      -9.380   3.400  67.334  1.00  0.00    -0.171 F  
HETATM    2  C   UNL     1      -8.648   3.232  66.197  1.00  0.00    -0.121 C  
HETATM    3  C   UNL     1      -8.157   4.523  65.595  1.00  0.00    -0.106 A  
HETATM    4  F   UNL     1      -7.634   2.387  66.530  1.00  0.00    -0.066 F  
HETATM    5  F   UNL     1      -9.450   2.535  65.344  1.00  0.00    -0.147 F  
HETATM    6  C   UNL     1      -8.480   5.752  66.195  1.00  0.00    -0.130 A  
HETATM    7  C   UNL     1      -8.095   6.991  65.657  1.00  0.00    -0.129 A  
HETATM    8  C   UNL     1      -7.380   4.522  64.435  1.00  0.00    -0.070 A  
HETATM    9  C   UNL     1      -7.312   6.941  64.493  1.00  0.00    -0.091 A  
HETATM   10  C   UNL     1      -6.952   5.728  63.892  1.00  0.00    -0.050 A  
ENDROOT
BRANCH   7  11
HETATM   11  N   UNL     1      -8.430   8.181  66.309  1.00  0.00    -0.124 NA 
HETATM   12  C   UNL     1      -9.575   9.371  68.171  1.00  0.00    -0.142 C  
HETATM   13  C   UNL     1      -9.615   8.167  67.200  1.00  0.00    -0.174 C  
HETATM   14  N   UNL     1      -9.447  10.699  67.524  1.00  0.00    -0.153 NA 
HETATM   15  C   UNL     1      -8.251  10.641  66.647  1.00  0.00    -0.134 C  
HETATM   16  C   UNL     1      -8.228   9.474  65.625  1.00  0.00    -0.120 C  
BRANCH  14  17
HETATM   17  C   UNL     1     -10.646  11.072  66.746  1.00  0.00    -0.266 C  
BRANCH  17  18
HETATM   18  C   UNL     1     -10.332  11.671  65.363  1.00  0.00    -0.267 C  
BRANCH  18  19
HETATM   19  N   UNL     1     -10.896  12.987  65.209  1.00  0.00    -0.285 N  
HETATM   20  C   UNL     1     -12.133  13.267  64.596  1.00  0.00    -0.408 C  
HETATM   21  O   UNL     1     -12.920  12.472  64.111  1.00  0.00    -0.740 OA 
HETATM   22  N   UNL     1     -12.288  14.662  64.634  1.00  0.00    -0.518 NA 
HETATM   23  C   UNL     1     -11.165  15.224  65.234  1.00  0.00    -0.336 A  
HETATM   24  C   UNL     1     -10.879  16.546  65.477  1.00  0.00    -0.196 A  
HETATM   25  C   UNL     1      -9.652  16.820  66.092  1.00  0.00    -0.302 A  
HETATM   26  C   UNL     1      -8.759  15.782  66.434  1.00  0.00    -0.372 A  
HETATM   27  C   UNL     1      -9.075  14.444  66.178  1.00  0.00    -0.043 A  
HETATM   28  C   UNL     1     -10.290  14.192  65.580  1.00  0.00    -0.333 A  
ENDBRANCH  18  19
ENDBRANCH  17  18
ENDBRANCH  14  17
ENDBRANCH   7  11
TORSDOF 4
ENDMDL
MODEL      243
REMARK 921   NORMALIZED FREE ENERGY PREDICTED BY IDOCK:   -4.59 KCAL/MOL
REMARK 922        TOTAL FREE ENERGY PREDICTED BY IDOCK:   -6.28 KCAL/MOL
REMARK 923 INTER-LIGAND FREE ENERGY PREDICTED BY IDOCK:   -5.30 KCAL/MOL
REMARK 924 INTRA-LIGAND FREE ENERGY PREDICTED BY IDOCK:   -0.99 KCAL/MOL
REMARK 927      BINDING AFFINITY PREDICTED BY RF-SCORE:    0.00 PKD
ROOT
HETATM    1  F   UNL     1     -12.151  12.284  69.710  1.00  0.00    -0.339 F  
HETATM    2  C   UNL     1     -11.645  13.426  69.165  1.00  0.00    -0.315 C  
HETATM    3  C   UNL     1     -10.323  13.232  68.469  1.00  0.00    -0.244 A  
HETATM    4  F   UNL     1     -12.613  13.900  68.334  1.00  0.00    -0.261 F  
HETATM    5  F   UNL     1     -11.564  14.318  70.192  1.00  0.00    -0.293 F  
HETATM    6  C   UNL     1      -9.717  11.964  68.442  1.00  0.00    -0.201 A  
HETATM    7  C   UNL     1      -8.463  11.728  67.853  1.00  0.00    -0.154 A  
HETATM    8  C   UNL     1      -9.679  14.301  67.845  1.00  0.00    -0.222 A  
HETATM    9  C   UNL     1      -7.854  12.831  67.235  1.00  0.00    -0.148 A  
HETATM   10  C   UNL     1      -8.452  14.099  67.223  1.00  0.00    -0.228 A  
ENDROOT
BRANCH   7  11
HETATM   11  N   UNL     1      -7.918  10.441  67.840  1.00  0.00    -0.101 NA 
HETATM   12  C   UNL     1      -8.221   7.971  67.827  1.00  0.00    -0.129 C  
HETATM   13  C   UNL     1      -8.769   9.328  68.327  1.00  0.00    -0.129 C  
HETATM   14  N   UNL     1      -6.802   7.702  68.161  1.00  0.00    -0.062 NA 
HETATM   15  C   UNL     1      -6.011   8.851  67.652  1.00  0.00    -0.047 C  
HETATM   16  C   UNL     1      -6.483  10.249  68.131  1.00  0.00    -0.057 C  
BRANCH  14  17
HETATM   17  C   UNL     1      -6.581   7.518  69.610  1.00  0.00    -0.036 C  
BRANCH  17  18
HETATM   18  C   UNL     1      -7.457   6.420  70.240  1.00  0.00    -0.094 C  
BRANCH  18  19
HETATM   19  N   UNL     1      -8.292   6.938  71.292  1.00  0.00    -0.118 N  
HETATM   20  C   UNL     1      -7.831   7.347  72.560  1.00  0.00    -0.096 C  
HETATM   21  O   UNL     1      -6.683   7.339  72.972  1.00  0.00    -0.064 OA 
HETATM   22  N   UNL     1      -8.963   7.758  73.280  1.00  0.00    -0.203 NA 
HETATM   23  C   UNL     1     -10.091   7.586  72.484  1.00  0.00    -0.211 A  
HETATM   24  C   UNL     1     -11.409   7.847  72.774  1.00  0.00    -0.453 A  
HETATM   25  C   UNL     1     -12.342   7.559  71.772  1.00  0.00    -0.357 A  
HETATM   26  C   UNL     1     -11.937   7.022  70.531  1.00  0.00    -0.315 A  
HETATM   27  C   UNL     1     -10.590   6.766  70.259  1.00  0.00    -0.251 A  
HETATM   28  C   UNL     1      -9.685   7.064  71.254  1.00  0.00    -0.171 A  
ENDBRANCH  18  19
ENDBRANCH  17  18
ENDBRANCH  14  17
ENDBRANCH   7  11
TORSDOF 4
ENDMDL
MODEL      244
REMARK 921   NORMALIZED FREE ENERGY PREDICTED BY IDOCK:   -4.57 KCAL/MOL
REMARK 922        TOTAL FREE ENERGY PREDICTED BY IDOCK:   -6.26 KCAL/MOL
REMARK 923 INTER-LIGAND FREE ENERGY PREDICTED BY IDOCK:   -6.09 KCAL/MOL
REMARK 924 INTRA-LIGAND FREE ENERGY PREDICTED BY IDOCK:   -0.17 KCAL/MOL
REMARK 927      BINDING AFFINITY PREDICTED BY RF-SCORE:    0.00 PKD
ROOT
HETATM    1  F   UNL     1      -7.069   6.857  64.457  1.00  0.00    -0.051 F  
HETATM    2  C   UNL     1      -7.538   7.449  63.322  1.00  0.00    -0.114 C  
HETATM    3  C   UNL     1      -8.375   8.676  63.579  1.00  0.00    -0.117 A  
HETATM    4  F   UNL     1      -6.441   7.711  62.560  1.00  0.00    -0.066 F  
HETATM    5  F   UNL     1      -8.230   6.479  62.661  1.00  0.00    -0.105 F  
HETATM    6  C   UNL     1      -8.624   9.100  64.895  1.00  0.00    -0.208 A  
HETATM    7  C   UNL     1      -9.435  10.205  65.203  1.00  0.00    -0.260 A  
HETATM    8  C   UNL     1      -8.917   9.407  62.521  1.00  0.00    -0.241 A  
HETATM    9  C   UNL     1      -9.956  10.911  64.107  1.00  0.00    -0.403 A  
HETATM   10  C   UNL     1      -9.698  10.525  62.785  1.00  0.00    -0.265 A  
ENDROOT
BRANCH   7  11
HETATM   11  N   UNL     1      -9.632  10.591  66.531  1.00  0.00    -0.170 NA 
HETATM   12  C   UNL     1      -8.782  10.819  68.860  1.00  0.00    -0.152 C  
HETATM   13  C   UNL     1      -8.763   9.975  67.563  1.00  0.00    -0.125 C  
HETATM   14  N   UNL     1     -10.128  11.078  69.424  1.00  0.00    -0.102 NA 
HETATM   15  C   UNL     1     -10.943  11.687  68.343  1.00  0.00    -0.220 C  
HETATM   16  C   UNL     1     -10.996  10.885  67.016  1.00  0.00    -0.247 C  
BRANCH  14  17
HETATM   17  C   UNL     1     -10.775   9.854  69.939  1.00  0.00    -0.280 C  
BRANCH  17  18
HETATM   18  C   UNL     1      -9.996   9.167  71.075  1.00  0.00    -0.297 C  
BRANCH  18  19
HETATM   19  N   UNL     1     -10.246   7.749  71.114  1.00  0.00    -0.195 N  
HETATM   20  C   UNL     1     -10.575   6.957  69.996  1.00  0.00    -0.226 C  
HETATM   21  O   UNL     1     -10.695   7.319  68.838  1.00  0.00    -0.205 OA 
HETATM   22  N   UNL     1     -10.756   5.650  70.475  1.00  0.00    -0.285 NA 
HETATM   23  C   UNL     1     -10.565   5.645  71.853  1.00  0.00    -0.232 A  
HETATM   24  C   UNL     1     -10.648   4.597  72.738  1.00  0.00    -0.273 A  
HETATM   25  C   UNL     1     -10.416   4.893  74.086  1.00  0.00    -0.335 A  
HETATM   26  C   UNL     1     -10.120   6.209  74.504  1.00  0.00    -0.345 A  
HETATM   27  C   UNL     1     -10.040   7.258  73.583  1.00  0.00    -0.387 A  
HETATM   28  C   UNL     1     -10.263   6.946  72.259  1.00  0.00    -0.186 A  
ENDBRANCH  18  19
ENDBRANCH  17  18
ENDBRANCH  14  17
ENDBRANCH   7  11
TORSDOF 4
ENDMDL
MODEL      245
REMARK 921   NORMALIZED FREE ENERGY PREDICTED BY IDOCK:   -4.53 KCAL/MOL
REMARK 922        TOTAL FREE ENERGY PREDICTED BY IDOCK:   -6.21 KCAL/MOL
REMARK 923 INTER-LIGAND FREE ENERGY PREDICTED BY IDOCK:   -5.64 KCAL/MOL
REMARK 924 INTRA-LIGAND FREE ENERGY PREDICTED BY IDOCK:   -0.56 KCAL/MOL
REMARK 927      BINDING AFFINITY PREDICTED BY RF-SCORE:    0.00 PKD
ROOT
HETATM    1  F   UNL     1      -9.275   4.591  63.892  1.00  0.00    -0.148 F  
HETATM    2  C   UNL     1      -9.263   3.447  64.633  1.00  0.00    -0.140 C  
HETATM    3  C   UNL     1      -9.163   3.687  66.117  1.00  0.00    -0.171 A  
HETATM    4  F   UNL     1     -10.389   2.768  64.284  1.00  0.00    -0.138 F  
HETATM    5  F   UNL     1      -8.220   2.712  64.156  1.00  0.00    -0.079 F  
HETATM    6  C   UNL     1      -9.073   4.997  66.618  1.00  0.00    -0.119 A  
HETATM    7  C   UNL     1      -8.928   5.285  67.986  1.00  0.00    -0.109 A  
HETATM    8  C   UNL     1      -9.154   2.619  67.016  1.00  0.00    -0.171 A  
HETATM    9  C   UNL     1      -8.928   4.181  68.852  1.00  0.00    -0.162 A  
HETATM   10  C   UNL     1      -9.045   2.866  68.379  1.00  0.00    -0.217 A  
ENDROOT
BRANCH   7  11
HETATM   11  N   UNL     1      -8.863   6.609  68.427  1.00  0.00    -0.122 NA 
HETATM   12  C   UNL     1      -9.826   8.498  69.731  1.00  0.00    -0.186 C  
HETATM   13  C   UNL     1     -10.126   7.252  68.864  1.00  0.00    -0.180 C  
HETATM   14  N   UNL     1      -8.940   9.506  69.102  1.00  0.00    -0.141 NA 
HETATM   15  C   UNL     1      -7.703   8.798  68.686  1.00  0.00    -0.098 C  
HETATM   16  C   UNL     1      -7.919   7.549  67.790  1.00  0.00    -0.118 C  
BRANCH  14  17
HETATM   17  C   UNL     1      -9.569  10.178  67.948  1.00  0.00    -0.148 C  
BRANCH  17  18
HETATM   18  C   UNL     1     -10.423  11.402  68.327  1.00  0.00    -0.198 C  
BRANCH  18  19
HETATM   19  N   UNL     1     -10.191  12.512  67.439  1.00  0.00    -0.212 N  
HETATM   20  C   UNL     1      -9.175  13.476  67.603  1.00  0.00    -0.214 C  
HETATM   21  O   UNL     1      -8.340  13.534  68.488  1.00  0.00    -0.155 OA 
HETATM   22  N   UNL     1      -9.317  14.384  66.542  1.00  0.00    -0.283 NA 
HETATM   23  C   UNL     1     -10.404  14.001  65.761  1.00  0.00    -0.319 A  
HETATM   24  C   UNL     1     -10.916  14.592  64.632  1.00  0.00    -0.340 A  
HETATM   25  C   UNL     1     -12.038  13.985  64.058  1.00  0.00    -0.413 A  
HETATM   26  C   UNL     1     -12.611  12.826  64.625  1.00  0.00    -0.491 A  
HETATM   27  C   UNL     1     -12.070  12.242  65.775  1.00  0.00    -0.287 A  
HETATM   28  C   UNL     1     -10.960  12.848  66.320  1.00  0.00    -0.281 A  
ENDBRANCH  18  19
ENDBRANCH  17  18
ENDBRANCH  14  17
ENDBRANCH   7  11
TORSDOF 4
ENDMDL
MODEL      246
REMARK 921   NORMALIZED FREE ENERGY PREDICTED BY IDOCK:   -4.52 KCAL/MOL
REMARK 922        TOTAL FREE ENERGY PREDICTED BY IDOCK:   -6.20 KCAL/MOL
REMARK 923 INTER-LIGAND FREE ENERGY PREDICTED BY IDOCK:   -5.49 KCAL/MOL
REMARK 924 INTRA-LIGAND FREE ENERGY PREDICTED BY IDOCK:   -0.72 KCAL/MOL
REMARK 927      BINDING AFFINITY PREDICTED BY RF-SCORE:    0.00 PKD
ROOT
HETATM    1  F   UNL     1     -10.280  12.172  68.851  1.00  0.00    -0.214 F  
HETATM    2  C   UNL     1     -11.449  12.307  69.538  1.00  0.00    -0.249 C  
HETATM    3  C   UNL     1     -11.823  11.090  70.344  1.00  0.00    -0.460 A  
HETATM    4  F   UNL     1     -11.301  13.421  70.306  1.00  0.00    -0.207 F  
HETATM    5  F   UNL     1     -12.390  12.620  68.604  1.00  0.00    -0.270 F  
HETATM    6  C   UNL     1     -11.003   9.949  70.324  1.00  0.00    -0.366 A  
HETATM    7  C   UNL     1     -11.321   8.766  71.012  1.00  0.00    -0.278 A  
HETATM    8  C   UNL     1     -12.985  11.073  71.117  1.00  0.00    -0.421 A  
HETATM    9  C   UNL     1     -12.497   8.796  71.779  1.00  0.00    -0.407 A  
HETATM   10  C   UNL     1     -13.316   9.932  71.838  1.00  0.00    -0.524 A  
ENDROOT
BRANCH   7  11
HETATM   11  N   UNL     1     -10.458   7.668  70.970  1.00  0.00    -0.210 NA 
HETATM   12  C   UNL     1      -8.188   6.724  70.582  1.00  0.00    -0.120 C  
HETATM   13  C   UNL     1      -9.221   7.796  70.162  1.00  0.00    -0.153 C  
HETATM   14  N   UNL     1      -8.677   5.325  70.536  1.00  0.00    -0.119 NA 
HETATM   15  C   UNL     1      -9.913   5.270  71.357  1.00  0.00    -0.185 C  
HETATM   16  C   UNL     1     -11.010   6.299  70.979  1.00  0.00    -0.283 C  
BRANCH  14  17
HETATM   17  C   UNL     1      -8.943   4.859  69.160  1.00  0.00    -0.098 C  
BRANCH  17  18
HETATM   18  C   UNL     1      -7.676   4.481  68.372  1.00  0.00    -0.079 C  
BRANCH  18  19
HETATM   19  N   UNL     1      -7.937   4.365  66.961  1.00  0.00    -0.100 N  
HETATM   20  C   UNL     1      -8.182   3.154  66.283  1.00  0.00    -0.090 C  
HETATM   21  O   UNL     1      -8.222   2.031  66.756  1.00  0.00    -0.076 OA 
HETATM   22  N   UNL     1      -8.361   3.486  64.931  1.00  0.00    -0.096 NA 
HETATM   23  C   UNL     1      -8.208   4.861  64.779  1.00  0.00    -0.126 A  
HETATM   24  C   UNL     1      -8.289   5.625  63.640  1.00  0.00    -0.048 A  
HETATM   25  C   UNL     1      -8.074   7.000  63.789  1.00  0.00     0.007 A  
HETATM   26  C   UNL     1      -7.783   7.560  65.052  1.00  0.00    -0.116 A  
HETATM   27  C   UNL     1      -7.707   6.761  66.197  1.00  0.00    -0.091 A  
HETATM   28  C   UNL     1      -7.930   5.411  66.032  1.00  0.00    -0.105 A  
ENDBRANCH  18  19
ENDBRANCH  17  18
ENDBRANCH  14  17
ENDBRANCH   7  11
TORSDOF 4
ENDMDL
MODEL      247
REMARK 921   NORMALIZED FREE ENERGY PREDICTED BY IDOCK:   -4.52 KCAL/MOL
REMARK 922        TOTAL FREE ENERGY PREDICTED BY IDOCK:   -6.20 KCAL/MOL
REMARK 923 INTER-LIGAND FREE ENERGY PREDICTED BY IDOCK:   -5.45 KCAL/MOL
REMARK 924 INTRA-LIGAND FREE ENERGY PREDICTED BY IDOCK:   -0.75 KCAL/MOL
REMARK 927      BINDING AFFINITY PREDICTED BY RF-SCORE:    0.00 PKD
ROOT
HETATM    1  F   UNL     1      -9.868   4.370  62.629  1.00  0.00    -0.148 F  
HETATM    2  C   UNL     1      -9.851   3.442  63.627  1.00  0.00    -0.153 C  
HETATM    3  C   UNL     1      -9.330   3.970  64.938  1.00  0.00    -0.163 A  
HETATM    4  F   UNL     1     -11.126   2.974  63.718  1.00  0.00    -0.247 F  
HETATM    5  F   UNL     1      -9.105   2.406  63.152  1.00  0.00    -0.090 F  
HETATM    6  C   UNL     1      -8.898   5.304  65.043  1.00  0.00    -0.111 A  
HETATM    7  C   UNL     1      -8.356   5.843  66.221  1.00  0.00    -0.117 A  
HETATM    8  C   UNL     1      -9.262   3.149  66.065  1.00  0.00    -0.138 A  
HETATM    9  C   UNL     1      -8.311   4.982  67.329  1.00  0.00    -0.106 A  
HETATM   10  C   UNL     1      -8.763   3.657  67.258  1.00  0.00    -0.127 A  
ENDROOT
BRANCH   7  11
HETATM   11  N   UNL     1      -7.961   7.182  66.271  1.00  0.00    -0.106 NA 
HETATM   12  C   UNL     1      -6.945   9.086  67.512  1.00  0.00    -0.078 C  
HETATM   13  C   UNL     1      -7.806   7.805  67.608  1.00  0.00    -0.123 C  
HETATM   14  N   UNL     1      -7.424  10.096  66.538  1.00  0.00    -0.105 NA 
HETATM   15  C   UNL     1      -7.561   9.408  65.230  1.00  0.00    -0.107 C  
HETATM   16  C   UNL     1      -8.434   8.126  65.239  1.00  0.00    -0.139 C  
BRANCH  14  17
HETATM   17  C   UNL     1      -8.705  10.712  66.940  1.00  0.00    -0.132 C  
BRANCH  17  18
HETATM   18  C   UNL     1      -8.695  11.303  68.362  1.00  0.00    -0.159 C  
BRANCH  18  19
HETATM   19  N   UNL     1     -10.028  11.506  68.867  1.00  0.00    -0.153 N  
HETATM   20  C   UNL     1     -10.841  12.618  68.571  1.00  0.00    -0.252 C  
HETATM   21  O   UNL     1     -10.572  13.567  67.855  1.00  0.00    -0.240 OA 
HETATM   22  N   UNL     1     -12.039  12.433  69.280  1.00  0.00    -0.221 NA 
HETATM   23  C   UNL     1     -11.953  11.251  70.009  1.00  0.00    -0.368 A  
HETATM   24  C   UNL     1     -12.879  10.677  70.847  1.00  0.00    -0.473 A  
HETATM   25  C   UNL     1     -12.509   9.476  71.463  1.00  0.00    -0.463 A  
HETATM   26  C   UNL     1     -11.242   8.897  71.233  1.00  0.00    -0.368 A  
HETATM   27  C   UNL     1     -10.318   9.501  70.374  1.00  0.00    -0.334 A  
HETATM   28  C   UNL     1     -10.703  10.677  69.770  1.00  0.00    -0.230 A  
ENDBRANCH  18  19
ENDBRANCH  17  18
ENDBRANCH  14  17
ENDBRANCH   7  11
TORSDOF 4
ENDMDL
MODEL      248
REMARK 921   NORMALIZED FREE ENERGY PREDICTED BY IDOCK:   -4.52 KCAL/MOL
REMARK 922        TOTAL FREE ENERGY PREDICTED BY IDOCK:   -6.19 KCAL/MOL
REMARK 923 INTER-LIGAND FREE ENERGY PREDICTED BY IDOCK:   -5.59 KCAL/MOL
REMARK 924 INTRA-LIGAND FREE ENERGY PREDICTED BY IDOCK:   -0.60 KCAL/MOL
REMARK 927      BINDING AFFINITY PREDICTED BY RF-SCORE:    0.00 PKD
ROOT
HETATM    1  F   UNL     1     -11.824  16.221  68.533  1.00  0.00    -0.362 F  
HETATM    2  C   UNL     1     -10.648  16.554  67.931  1.00  0.00    -0.329 C  
HETATM    3  C   UNL     1      -9.681  15.404  67.810  1.00  0.00    -0.211 A  
HETATM    4  F   UNL     1     -10.986  17.085  66.724  1.00  0.00    -0.208 F  
HETATM    5  F   UNL     1     -10.139  17.584  68.663  1.00  0.00    -0.281 F  
HETATM    6  C   UNL     1     -10.022  14.137  68.314  1.00  0.00    -0.241 A  
HETATM    7  C   UNL     1      -9.147  13.038  68.277  1.00  0.00    -0.179 A  
HETATM    8  C   UNL     1      -8.436  15.576  67.203  1.00  0.00    -0.239 A  
HETATM    9  C   UNL     1      -7.908  13.257  67.655  1.00  0.00    -0.168 A  
HETATM   10  C   UNL     1      -7.556  14.504  67.118  1.00  0.00    -0.045 A  
ENDROOT
BRANCH   7  11
HETATM   11  N   UNL     1      -9.548  11.797  68.777  1.00  0.00    -0.105 NA 
HETATM   12  C   UNL     1      -8.985   9.606  69.815  1.00  0.00    -0.211 C  
HETATM   13  C   UNL     1      -8.531  10.720  68.842  1.00  0.00    -0.149 C  
HETATM   14  N   UNL     1     -10.317   9.022  69.528  1.00  0.00    -0.204 NA 
HETATM   15  C   UNL     1     -11.282  10.150  69.471  1.00  0.00    -0.238 C  
HETATM   16  C   UNL     1     -10.909  11.298  68.497  1.00  0.00    -0.205 C  
BRANCH  14  17
HETATM   17  C   UNL     1     -10.343   8.251  68.269  1.00  0.00    -0.198 C  
BRANCH  17  18
HETATM   18  C   UNL     1     -10.939   6.839  68.414  1.00  0.00    -0.187 C  
BRANCH  18  19
HETATM   19  N   UNL     1     -10.661   6.271  69.708  1.00  0.00    -0.235 N  
HETATM   20  C   UNL     1     -11.522   6.342  70.821  1.00  0.00    -0.353 C  
HETATM   21  O   UNL     1     -12.618   6.873  70.882  1.00  0.00    -0.357 OA 
HETATM   22  N   UNL     1     -10.863   5.688  71.874  1.00  0.00    -0.244 NA 
HETATM   23  C   UNL     1      -9.622   5.247  71.425  1.00  0.00    -0.158 A  
HETATM   24  C   UNL     1      -8.641   4.568  72.107  1.00  0.00    -0.119 A  
HETATM   25  C   UNL     1      -7.476   4.263  71.395  1.00  0.00    -0.059 A  
HETATM   26  C   UNL     1      -7.327   4.644  70.044  1.00  0.00    -0.054 A  
HETATM   27  C   UNL     1      -8.341   5.333  69.371  1.00  0.00    -0.095 A  
HETATM   28  C   UNL     1      -9.483   5.618  70.086  1.00  0.00    -0.159 A  
ENDBRANCH  18  19
ENDBRANCH  17  18
ENDBRANCH  14  17
ENDBRANCH   7  11
TORSDOF 4
ENDMDL
MODEL      249
REMARK 921   NORMALIZED FREE ENERGY PREDICTED BY IDOCK:   -4.49 KCAL/MOL
REMARK 922        TOTAL FREE ENERGY PREDICTED BY IDOCK:   -6.16 KCAL/MOL
REMARK 923 INTER-LIGAND FREE ENERGY PREDICTED BY IDOCK:   -5.76 KCAL/MOL
REMARK 924 INTRA-LIGAND FREE ENERGY PREDICTED BY IDOCK:   -0.40 KCAL/MOL
REMARK 927      BINDING AFFINITY PREDICTED BY RF-SCORE:    0.00 PKD
ROOT
HETATM    1  F   UNL     1     -10.581  14.218  69.123  1.00  0.00    -0.230 F  
HETATM    2  C   UNL     1     -11.669  14.504  68.354  1.00  0.00    -0.333 C  
HETATM    3  C   UNL     1     -11.702  13.757  67.046  1.00  0.00    -0.420 A  
HETATM    4  F   UNL     1     -12.753  14.245  69.135  1.00  0.00    -0.238 F  
HETATM    5  F   UNL     1     -11.649  15.855  68.179  1.00  0.00    -0.353 F  
HETATM    6  C   UNL     1     -10.660  12.877  66.707  1.00  0.00    -0.268 A  
HETATM    7  C   UNL     1     -10.606  12.189  65.483  1.00  0.00    -0.277 A  
HETATM    8  C   UNL     1     -12.759  13.927  66.151  1.00  0.00    -0.336 A  
HETATM    9  C   UNL     1     -11.692  12.388  64.616  1.00  0.00    -0.426 A  
HETATM   10  C   UNL     1     -12.758  13.238  64.944  1.00  0.00    -0.391 A  
ENDROOT
BRANCH   7  11
HETATM   11  N   UNL     1      -9.554  11.312  65.210  1.00  0.00    -0.227 NA 
HETATM   12  C   UNL     1      -8.279   9.910  63.595  1.00  0.00    -0.157 C  
HETATM   13  C   UNL     1      -9.668  10.455  64.005  1.00  0.00    -0.311 C  
HETATM   14  N   UNL     1      -7.547   9.185  64.661  1.00  0.00    -0.103 NA 
HETATM   15  C   UNL     1      -7.474  10.094  65.833  1.00  0.00    -0.125 C  
HETATM   16  C   UNL     1      -8.832  10.662  66.322  1.00  0.00    -0.161 C  
BRANCH  14  17
HETATM   17  C   UNL     1      -8.193   7.909  65.029  1.00  0.00    -0.131 C  
BRANCH  17  18
HETATM   18  C   UNL     1      -7.364   7.047  65.999  1.00  0.00    -0.075 C  
BRANCH  18  19
HETATM   19  N   UNL     1      -7.730   5.656  65.926  1.00  0.00    -0.093 N  
HETATM   20  C   UNL     1      -7.695   4.873  64.755  1.00  0.00    -0.079 C  
HETATM   21  O   UNL     1      -7.354   5.221  63.637  1.00  0.00    -0.048 OA 
HETATM   22  N   UNL     1      -8.150   3.596  65.118  1.00  0.00    -0.096 NA 
HETATM   23  C   UNL     1      -8.476   3.601  66.471  1.00  0.00    -0.107 A  
HETATM   24  C   UNL     1      -8.965   2.582  67.252  1.00  0.00    -0.182 A  
HETATM   25  C   UNL     1      -9.216   2.883  68.595  1.00  0.00    -0.233 A  
HETATM   26  C   UNL     1      -8.981   4.177  69.108  1.00  0.00    -0.164 A  
HETATM   27  C   UNL     1      -8.482   5.198  68.293  1.00  0.00    -0.095 A  
HETATM   28  C   UNL     1      -8.233   4.880  66.976  1.00  0.00    -0.107 A  
ENDBRANCH  18  19
ENDBRANCH  17  18
ENDBRANCH  14  17
ENDBRANCH   7  11
TORSDOF 4
ENDMDL
MODEL      250
REMARK 921   NORMALIZED FREE ENERGY PREDICTED BY IDOCK:   -4.49 KCAL/MOL
REMARK 922        TOTAL FREE ENERGY PREDICTED BY IDOCK:   -6.16 KCAL/MOL
REMARK 923 INTER-LIGAND FREE ENERGY PREDICTED BY IDOCK:   -5.85 KCAL/MOL
REMARK 924 INTRA-LIGAND FREE ENERGY PREDICTED BY IDOCK:   -0.31 KCAL/MOL
REMARK 927      BINDING AFFINITY PREDICTED BY RF-SCORE:    0.00 PKD
ROOT
HETATM    1  F   UNL     1     -10.104  18.203  65.800  1.00  0.00    -0.296 F  
HETATM    2  C   UNL     1     -10.097  18.609  67.102  1.00  0.00    -0.359 C  
HETATM    3  C   UNL     1     -10.448  17.518  68.079  1.00  0.00    -0.387 A  
HETATM    4  F   UNL     1      -8.859  19.133  67.320  1.00  0.00    -0.288 F  
HETATM    5  F   UNL     1     -10.963  19.659  67.164  1.00  0.00    -0.562 F  
HETATM    6  C   UNL     1     -10.762  16.228  67.617  1.00  0.00    -0.311 A  
HETATM    7  C   UNL     1     -11.146  15.181  68.473  1.00  0.00    -0.276 A  
HETATM    8  C   UNL     1     -10.470  17.767  69.452  1.00  0.00     0.157 A  
HETATM    9  C   UNL     1     -11.151  15.477  69.845  1.00  0.00    -0.318 A  
HETATM   10  C   UNL     1     -10.812  16.747  70.332  1.00  0.00     0.159 A  
ENDROOT
BRANCH   7  11
HETATM   11  N   UNL     1     -11.429  13.914  67.957  1.00  0.00    -0.288 NA 
HETATM   12  C   UNL     1     -12.081  11.538  68.312  1.00  0.00    -0.002 C  
HETATM   13  C   UNL     1     -11.310  12.755  68.875  1.00  0.00    -0.296 C  
HETATM   14  N   UNL     1     -11.702  11.132  66.938  1.00  0.00    -0.322 NA 
HETATM   15  C   UNL     1     -11.838  12.334  66.077  1.00  0.00    -0.341 C  
HETATM   16  C   UNL     1     -11.071  13.592  66.562  1.00  0.00    -0.305 C  
BRANCH  14  17
HETATM   17  C   UNL     1     -10.330  10.589  66.862  1.00  0.00    -0.239 C  
BRANCH  17  18
HETATM   18  C   UNL     1     -10.116   9.315  67.700  1.00  0.00    -0.214 C  
BRANCH  18  19
HETATM   19  N   UNL     1      -9.042   9.471  68.646  1.00  0.00    -0.131 N  
HETATM   20  C   UNL     1      -7.832  10.146  68.389  1.00  0.00    -0.093 C  
HETATM   21  O   UNL     1      -7.496  10.703  67.358  1.00  0.00    -0.091 OA 
HETATM   22  N   UNL     1      -7.064  10.043  69.559  1.00  0.00    -0.078 NA 
HETATM   23  C   UNL     1      -7.775   9.305  70.502  1.00  0.00    -0.148 A  
HETATM   24  C   UNL     1      -7.415   8.950  71.779  1.00  0.00    -0.019 A  
HETATM   25  C   UNL     1      -8.337   8.184  72.502  1.00  0.00    -0.230 A  
HETATM   26  C   UNL     1      -9.569   7.798  71.933  1.00  0.00    -0.210 A  
HETATM   27  C   UNL     1      -9.913   8.174  70.630  1.00  0.00    -0.204 A  
HETATM   28  C   UNL     1      -8.997   8.934  69.937  1.00  0.00    -0.156 A  
ENDBRANCH  18  19
ENDBRANCH  17  18
ENDBRANCH  14  17
ENDBRANCH   7  11
TORSDOF 4
ENDMDL
MODEL      251
REMARK 921   NORMALIZED FREE ENERGY PREDICTED BY IDOCK:   -4.47 KCAL/MOL
REMARK 922        TOTAL FREE ENERGY PREDICTED BY IDOCK:   -6.14 KCAL/MOL
REMARK 923 INTER-LIGAND FREE ENERGY PREDICTED BY IDOCK:   -6.13 KCAL/MOL
REMARK 924 INTRA-LIGAND FREE ENERGY PREDICTED BY IDOCK:   -0.02 KCAL/MOL
REMARK 927      BINDING AFFINITY PREDICTED BY RF-SCORE:    0.00 PKD
ROOT
HETATM    1  F   UNL     1      -9.688   4.553  64.216  1.00  0.00    -0.155 F  
HETATM    2  C   UNL     1      -9.449   3.248  64.531  1.00  0.00    -0.148 C  
HETATM    3  C   UNL     1      -9.259   3.005  66.006  1.00  0.00    -0.122 A  
HETATM    4  F   UNL     1     -10.493   2.545  64.013  1.00  0.00    -0.150 F  
HETATM    5  F   UNL     1      -8.356   2.889  63.801  1.00  0.00    -0.083 F  
HETATM    6  C   UNL     1      -9.315   4.077  66.913  1.00  0.00    -0.200 A  
HETATM    7  C   UNL     1      -9.097   3.924  68.293  1.00  0.00    -0.138 A  
HETATM    8  C   UNL     1      -9.020   1.719  66.494  1.00  0.00    -0.103 A  
HETATM    9  C   UNL     1      -8.864   2.614  68.739  1.00  0.00    -0.154 A  
HETATM   10  C   UNL     1      -8.832   1.524  67.858  1.00  0.00    -0.139 A  
ENDROOT
BRANCH   7  11
HETATM   11  N   UNL     1      -9.184   5.024  69.149  1.00  0.00    -0.104 NA 
HETATM   12  C   UNL     1     -10.262   6.180  71.072  1.00  0.00    -0.196 C  
HETATM   13  C   UNL     1     -10.469   5.245  69.857  1.00  0.00    -0.281 C  
HETATM   14  N   UNL     1      -9.627   7.483  70.765  1.00  0.00    -0.167 NA 
HETATM   15  C   UNL     1      -8.355   7.190  70.056  1.00  0.00    -0.138 C  
HETATM   16  C   UNL     1      -8.483   6.278  68.808  1.00  0.00    -0.119 C  
BRANCH  14  17
HETATM   17  C   UNL     1     -10.489   8.360  69.947  1.00  0.00    -0.222 C  
BRANCH  17  18
HETATM   18  C   UNL     1     -11.950   8.422  70.427  1.00  0.00     0.184 C  
BRANCH  18  19
HETATM   19  N   UNL     1     -12.318   9.747  70.855  1.00  0.00    -0.302 N  
HETATM   20  C   UNL     1     -13.166  10.036  71.943  1.00  0.00    -0.452 C  
HETATM   21  O   UNL     1     -13.713   9.245  72.692  1.00  0.00    -0.450 OA 
HETATM   22  N   UNL     1     -13.277  11.435  71.997  1.00  0.00    -0.455 NA 
HETATM   23  C   UNL     1     -12.536  11.987  70.957  1.00  0.00    -0.276 A  
HETATM   24  C   UNL     1     -12.361  13.307  70.619  1.00  0.00    -0.416 A  
HETATM   25  C   UNL     1     -11.562  13.569  69.501  1.00  0.00    -0.355 A  
HETATM   26  C   UNL     1     -10.975  12.520  68.761  1.00  0.00    -0.294 A  
HETATM   27  C   UNL     1     -11.167  11.183  69.127  1.00  0.00    -0.328 A  
HETATM   28  C   UNL     1     -11.950  10.945  70.235  1.00  0.00    -0.361 A  
ENDBRANCH  18  19
ENDBRANCH  17  18
ENDBRANCH  14  17
ENDBRANCH   7  11
TORSDOF 4
ENDMDL
MODEL      252
REMARK 921   NORMALIZED FREE ENERGY PREDICTED BY IDOCK:   -4.46 KCAL/MOL
REMARK 922        TOTAL FREE ENERGY PREDICTED BY IDOCK:   -6.13 KCAL/MOL
REMARK 923 INTER-LIGAND FREE ENERGY PREDICTED BY IDOCK:   -5.56 KCAL/MOL
REMARK 924 INTRA-LIGAND FREE ENERGY PREDICTED BY IDOCK:   -0.57 KCAL/MOL
REMARK 927      BINDING AFFINITY PREDICTED BY RF-SCORE:    0.00 PKD
ROOT
HETATM    1  F   UNL     1     -11.285  18.155  67.938  1.00  0.00    -0.301 F  
HETATM    2  C   UNL     1     -10.206  18.788  67.396  1.00  0.00    -0.395 C  
HETATM    3  C   UNL     1      -8.993  17.905  67.253  1.00  0.00    -0.250 A  
HETATM    4  F   UNL     1     -10.631  19.294  66.207  1.00  0.00    -0.446 F  
HETATM    5  F   UNL     1      -9.971  19.864  68.198  1.00  0.00    -0.445 F  
HETATM    6  C   UNL     1      -9.038  16.566  67.679  1.00  0.00    -0.199 A  
HETATM    7  C   UNL     1      -7.929  15.706  67.618  1.00  0.00    -0.153 A  
HETATM    8  C   UNL     1      -7.810  18.398  66.701  1.00  0.00    -0.269 A  
HETATM    9  C   UNL     1      -6.762  16.244  67.053  1.00  0.00    -0.217 A  
HETATM   10  C   UNL     1      -6.701  17.567  66.594  1.00  0.00    -0.256 A  
ENDROOT
BRANCH   7  11
HETATM   11  N   UNL     1      -8.039  14.379  68.040  1.00  0.00    -0.131 NA 
HETATM   12  C   UNL     1      -6.971  12.256  68.780  1.00  0.00    -0.098 C  
HETATM   13  C   UNL     1      -6.853  13.503  67.873  1.00  0.00    -0.151 C  
HETATM   14  N   UNL     1      -8.210  11.462  68.604  1.00  0.00    -0.154 NA 
HETATM   15  C   UNL     1      -9.352  12.396  68.778  1.00  0.00     0.120 C  
HETATM   16  C   UNL     1      -9.320  13.662  67.882  1.00  0.00    -0.206 C  
BRANCH  14  17
HETATM   17  C   UNL     1      -8.278  10.795  67.288  1.00  0.00    -0.121 C  
BRANCH  17  18
HETATM   18  C   UNL     1      -8.689   9.313  67.360  1.00  0.00    -0.118 C  
BRANCH  18  19
HETATM   19  N   UNL     1      -8.428   8.747  68.658  1.00  0.00    -0.128 N  
HETATM   20  C   UNL     1      -7.232   8.101  69.030  1.00  0.00    -0.074 C  
HETATM   21  O   UNL     1      -6.241   7.918  68.344  1.00  0.00    -0.045 OA 
HETATM   22  N   UNL     1      -7.404   7.683  70.359  1.00  0.00    -0.070 NA 
HETATM   23  C   UNL     1      -8.679   8.045  70.784  1.00  0.00    -0.138 A  
HETATM   24  C   UNL     1      -9.281   7.836  72.001  1.00  0.00    -0.189 A  
HETATM   25  C   UNL     1     -10.593   8.303  72.142  1.00  0.00    -0.380 A  
HETATM   26  C   UNL     1     -11.255   8.949  71.076  1.00  0.00    -0.342 A  
HETATM   27  C   UNL     1     -10.619   9.151  69.847  1.00  0.00    -0.246 A  
HETATM   28  C   UNL     1      -9.325   8.692  69.730  1.00  0.00    -0.165 A  
ENDBRANCH  18  19
ENDBRANCH  17  18
ENDBRANCH  14  17
ENDBRANCH   7  11
TORSDOF 4
ENDMDL
MODEL      253
REMARK 921   NORMALIZED FREE ENERGY PREDICTED BY IDOCK:   -4.45 KCAL/MOL
REMARK 922        TOTAL FREE ENERGY PREDICTED BY IDOCK:   -6.12 KCAL/MOL
REMARK 923 INTER-LIGAND FREE ENERGY PREDICTED BY IDOCK:   -5.78 KCAL/MOL
REMARK 924 INTRA-LIGAND FREE ENERGY PREDICTED BY IDOCK:   -0.34 KCAL/MOL
REMARK 927      BINDING AFFINITY PREDICTED BY RF-SCORE:    0.00 PKD
ROOT
HETATM    1  F   UNL     1     -10.630  13.703  65.940  1.00  0.00    -0.273 F  
HETATM    2  C   UNL     1     -11.486  13.795  66.997  1.00  0.00    -0.346 C  
HETATM    3  C   UNL     1     -11.306  12.704  68.020  1.00  0.00    -0.337 A  
HETATM    4  F   UNL     1     -11.301  15.040  67.516  1.00  0.00    -0.299 F  
HETATM    5  F   UNL     1     -12.737  13.798  66.457  1.00  0.00    -0.408 F  
HETATM    6  C   UNL     1     -10.337  11.705  67.826  1.00  0.00    -0.202 A  
HETATM    7  C   UNL     1     -10.154  10.633  68.716  1.00  0.00    -0.191 A  
HETATM    8  C   UNL     1     -12.095  12.664  69.170  1.00  0.00    -0.191 A  
HETATM    9  C   UNL     1     -10.967  10.636  69.860  1.00  0.00    -0.337 A  
HETATM   10  C   UNL     1     -11.920  11.638  70.091  1.00  0.00    -0.441 A  
ENDROOT
BRANCH   7  11
HETATM   11  N   UNL     1      -9.161   9.679  68.480  1.00  0.00    -0.137 NA 
HETATM   12  C   UNL     1      -8.502   7.328  67.996  1.00  0.00    -0.123 C  
HETATM   13  C   UNL     1      -9.503   8.256  68.724  1.00  0.00    -0.148 C  
HETATM   14  N   UNL     1      -7.074   7.565  68.317  1.00  0.00    -0.081 NA 
HETATM   15  C   UNL     1      -6.803   9.001  68.057  1.00  0.00    -0.069 C  
HETATM   16  C   UNL     1      -7.750   9.999  68.774  1.00  0.00    -0.085 C  
BRANCH  14  17
HETATM   17  C   UNL     1      -6.737   7.215  69.712  1.00  0.00    -0.048 C  
BRANCH  17  18
HETATM   18  C   UNL     1      -6.926   5.723  70.044  1.00  0.00    -0.065 C  
BRANCH  18  19
HETATM   19  N   UNL     1      -8.246   5.450  70.549  1.00  0.00    -0.108 N  
HETATM   20  C   UNL     1      -9.082   4.408  70.098  1.00  0.00    -0.105 C  
HETATM   21  O   UNL     1      -8.840   3.580  69.237  1.00  0.00    -0.081 OA 
HETATM   22  N   UNL     1     -10.275   4.512  70.831  1.00  0.00    -0.155 NA 
HETATM   23  C   UNL     1     -10.182   5.602  71.692  1.00  0.00    -0.208 A  
HETATM   24  C   UNL     1     -11.107   6.084  72.586  1.00  0.00    -0.314 A  
HETATM   25  C   UNL     1     -10.740   7.218  73.319  1.00  0.00    -0.428 A  
HETATM   26  C   UNL     1      -9.481   7.831  73.134  1.00  0.00    -0.325 A  
HETATM   27  C   UNL     1      -8.557   7.319  72.218  1.00  0.00    -0.131 A  
HETATM   28  C   UNL     1      -8.932   6.197  71.512  1.00  0.00    -0.143 A  
ENDBRANCH  18  19
ENDBRANCH  17  18
ENDBRANCH  14  17
ENDBRANCH   7  11
TORSDOF 4
ENDMDL
MODEL      254
REMARK 921   NORMALIZED FREE ENERGY PREDICTED BY IDOCK:   -4.44 KCAL/MOL
REMARK 922        TOTAL FREE ENERGY PREDICTED BY IDOCK:   -6.10 KCAL/MOL
REMARK 923 INTER-LIGAND FREE ENERGY PREDICTED BY IDOCK:   -5.35 KCAL/MOL
REMARK 924 INTRA-LIGAND FREE ENERGY PREDICTED BY IDOCK:   -0.75 KCAL/MOL
REMARK 927      BINDING AFFINITY PREDICTED BY RF-SCORE:    0.00 PKD
ROOT
HETATM    1  F   UNL     1     -10.992   4.310  63.315  1.00  0.00    -0.174 F  
HETATM    2  C   UNL     1     -10.279   3.203  63.667  1.00  0.00    -0.198 C  
HETATM    3  C   UNL     1      -9.665   3.287  65.041  1.00  0.00    -0.084 A  
HETATM    4  F   UNL     1     -11.135   2.154  63.537  1.00  0.00    -0.213 F  
HETATM    5  F   UNL     1      -9.342   3.045  62.690  1.00  0.00    -0.091 F  
HETATM    6  C   UNL     1      -9.838   4.442  65.824  1.00  0.00    -0.232 A  
HETATM    7  C   UNL     1      -9.252   4.602  67.090  1.00  0.00    -0.129 A  
HETATM    8  C   UNL     1      -8.916   2.229  65.556  1.00  0.00    -0.122 A  
HETATM    9  C   UNL     1      -8.511   3.511  67.569  1.00  0.00    -0.105 A  
HETATM   10  C   UNL     1      -8.348   2.338  66.820  1.00  0.00    -0.091 A  
ENDROOT
BRANCH   7  11
HETATM   11  N   UNL     1      -9.475   5.766  67.831  1.00  0.00    -0.109 NA 
HETATM   12  C   UNL     1     -10.953   7.153  69.275  1.00  0.00    -0.136 C  
HETATM   13  C   UNL     1     -10.881   6.155  68.095  1.00  0.00    -0.306 C  
HETATM   14  N   UNL     1     -10.115   8.367  69.126  1.00  0.00    -0.198 NA 
HETATM   15  C   UNL     1      -8.729   7.907  68.860  1.00  0.00    -0.135 C  
HETATM   16  C   UNL     1      -8.569   6.922  67.672  1.00  0.00    -0.121 C  
BRANCH  14  17
HETATM   17  C   UNL     1     -10.586   9.256  68.045  1.00  0.00    -0.208 C  
BRANCH  17  18
HETATM   18  C   UNL     1      -9.687  10.483  67.810  1.00  0.00    -0.160 C  
BRANCH  18  19
HETATM   19  N   UNL     1      -9.886  11.050  66.501  1.00  0.00    -0.197 N  
HETATM   20  C   UNL     1     -10.548  12.267  66.242  1.00  0.00    -0.251 C  
HETATM   21  O   UNL     1     -11.045  13.031  67.051  1.00  0.00    -0.267 OA 
HETATM   22  N   UNL     1     -10.541  12.433  64.848  1.00  0.00    -0.284 NA 
HETATM   23  C   UNL     1      -9.912  11.336  64.266  1.00  0.00    -0.297 A  
HETATM   24  C   UNL     1      -9.684  11.068  62.938  1.00  0.00    -0.353 A  
HETATM   25  C   UNL     1      -9.031   9.865  62.643  1.00  0.00    -0.279 A  
HETATM   26  C   UNL     1      -8.638   8.978  63.668  1.00  0.00    -0.145 A  
HETATM   27  C   UNL     1      -8.880   9.275  65.013  1.00  0.00    -0.238 A  
HETATM   28  C   UNL     1      -9.516  10.467  65.285  1.00  0.00    -0.229 A  
ENDBRANCH  18  19
ENDBRANCH  17  18
ENDBRANCH  14  17
ENDBRANCH   7  11
TORSDOF 4
ENDMDL
MODEL      255
REMARK 921   NORMALIZED FREE ENERGY PREDICTED BY IDOCK:   -4.40 KCAL/MOL
REMARK 922        TOTAL FREE ENERGY PREDICTED BY IDOCK:   -6.05 KCAL/MOL
REMARK 923 INTER-LIGAND FREE ENERGY PREDICTED BY IDOCK:   -5.55 KCAL/MOL
REMARK 924 INTRA-LIGAND FREE ENERGY PREDICTED BY IDOCK:   -0.50 KCAL/MOL
REMARK 927      BINDING AFFINITY PREDICTED BY RF-SCORE:    0.00 PKD
ROOT
HETATM    1  F   UNL     1      -9.875   4.738  68.474  1.00  0.00    -0.190 F  
HETATM    2  C   UNL     1      -8.849   4.294  67.694  1.00  0.00    -0.111 C  
HETATM    3  C   UNL     1      -8.072   5.399  67.026  1.00  0.00    -0.101 A  
HETATM    4  F   UNL     1      -8.074   3.522  68.505  1.00  0.00    -0.068 F  
HETATM    5  F   UNL     1      -9.414   3.441  66.794  1.00  0.00    -0.187 F  
HETATM    6  C   UNL     1      -8.442   6.741  67.220  1.00  0.00    -0.120 A  
HETATM    7  C   UNL     1      -7.790   7.813  66.587  1.00  0.00    -0.102 A  
HETATM    8  C   UNL     1      -6.980   5.111  66.206  1.00  0.00    -0.067 A  
HETATM    9  C   UNL     1      -6.696   7.477  65.775  1.00  0.00    -0.045 A  
HETATM   10  C   UNL     1      -6.290   6.148  65.589  1.00  0.00    -0.038 A  
ENDROOT
BRANCH   7  11
HETATM   11  N   UNL     1      -8.190   9.129  66.833  1.00  0.00    -0.115 NA 
HETATM   12  C   UNL     1      -9.563  10.762  68.116  1.00  0.00    -0.160 C  
HETATM   13  C   UNL     1      -9.489   9.337  67.518  1.00  0.00    -0.132 C  
HETATM   14  N   UNL     1      -9.320  11.863  67.153  1.00  0.00    -0.177 NA 
HETATM   15  C   UNL     1      -8.014  11.591  66.502  1.00  0.00    -0.095 C  
HETATM   16  C   UNL     1      -7.870  10.188  65.855  1.00  0.00    -0.132 C  
BRANCH  14  17
HETATM   17  C   UNL     1     -10.391  11.983  66.142  1.00  0.00    -0.224 C  
BRANCH  17  18
HETATM   18  C   UNL     1     -11.539  12.921  66.558  1.00  0.00    -0.371 C  
BRANCH  18  19
HETATM   19  N   UNL     1     -11.060  14.058  67.300  1.00  0.00    -0.295 N  
HETATM   20  C   UNL     1     -10.141  15.009  66.812  1.00  0.00    -0.254 C  
HETATM   21  O   UNL     1      -9.613  15.040  65.714  1.00  0.00    -0.328 OA 
HETATM   22  N   UNL     1      -9.930  15.926  67.854  1.00  0.00    -0.220 NA 
HETATM   23  C   UNL     1     -10.682  15.535  68.958  1.00  0.00    -0.243 A  
HETATM   24  C   UNL     1     -10.781  16.125  70.195  1.00  0.00    -0.289 A  
HETATM   25  C   UNL     1     -11.614  15.495  71.127  1.00  0.00    -0.446 A  
HETATM   26  C   UNL     1     -12.308  14.310  70.800  1.00  0.00    -0.427 A  
HETATM   27  C   UNL     1     -12.192  13.731  69.532  1.00  0.00    -0.344 A  
HETATM   28  C   UNL     1     -11.374  14.369  68.627  1.00  0.00    -0.273 A  
ENDBRANCH  18  19
ENDBRANCH  17  18
ENDBRANCH  14  17
ENDBRANCH   7  11
TORSDOF 4
ENDMDL
MODEL      256
REMARK 921   NORMALIZED FREE ENERGY PREDICTED BY IDOCK:   -4.38 KCAL/MOL
REMARK 922        TOTAL FREE ENERGY PREDICTED BY IDOCK:   -6.03 KCAL/MOL
REMARK 923 INTER-LIGAND FREE ENERGY PREDICTED BY IDOCK:   -5.66 KCAL/MOL
REMARK 924 INTRA-LIGAND FREE ENERGY PREDICTED BY IDOCK:   -0.37 KCAL/MOL
REMARK 927      BINDING AFFINITY PREDICTED BY RF-SCORE:    0.00 PKD
ROOT
HETATM    1  F   UNL     1      -6.176  17.696  67.618  1.00  0.00    -0.149 F  
HETATM    2  C   UNL     1      -6.809  18.861  67.300  1.00  0.00    -0.206 C  
HETATM    3  C   UNL     1      -8.267  18.687  66.964  1.00  0.00    -0.259 A  
HETATM    4  F   UNL     1      -6.608  19.692  68.358  1.00  0.00    -0.263 F  
HETATM    5  F   UNL     1      -6.099  19.394  66.266  1.00  0.00    -0.163 F  
HETATM    6  C   UNL     1      -8.850  17.408  66.979  1.00  0.00    -0.248 A  
HETATM    7  C   UNL     1     -10.190  17.173  66.628  1.00  0.00    -0.319 A  
HETATM    8  C   UNL     1      -9.061  19.786  66.631  1.00  0.00    -0.452 A  
HETATM    9  C   UNL     1     -10.950  18.307  66.304  1.00  0.00     0.228 A  
HETATM   10  C   UNL     1     -10.400  19.596  66.311  1.00  0.00    -0.619 A  
ENDROOT
BRANCH   7  11
HETATM   11  N   UNL     1     -10.718  15.880  66.679  1.00  0.00    -0.303 NA 
HETATM   12  C   UNL     1     -12.243  14.214  67.725  1.00  0.00    -0.173 C  
HETATM   13  C   UNL     1     -11.320  15.433  67.958  1.00  0.00    -0.341 C  
HETATM   14  N   UNL     1     -11.608  13.064  67.038  1.00  0.00    -0.340 NA 
HETATM   15  C   UNL     1     -11.025  13.581  65.774  1.00  0.00    -0.278 C  
HETATM   16  C   UNL     1     -10.065  14.790  65.928  1.00  0.00    -0.321 C  
BRANCH  14  17
HETATM   17  C   UNL     1     -10.571  12.410  67.861  1.00  0.00    -0.213 C  
BRANCH  17  18
HETATM   18  C   UNL     1      -9.796  11.302  67.125  1.00  0.00    -0.190 C  
BRANCH  18  19
HETATM   19  N   UNL     1      -8.707  10.792  67.918  1.00  0.00    -0.127 N  
HETATM   20  C   UNL     1      -7.710  11.584  68.522  1.00  0.00    -0.134 C  
HETATM   21  O   UNL     1      -7.601  12.798  68.487  1.00  0.00    -0.126 OA 
HETATM   22  N   UNL     1      -6.840  10.696  69.173  1.00  0.00    -0.070 NA 
HETATM   23  C   UNL     1      -7.278   9.393  68.955  1.00  0.00    -0.071 A  
HETATM   24  C   UNL     1      -6.736   8.209  69.392  1.00  0.00    -0.042 A  
HETATM   25  C   UNL     1      -7.393   7.036  69.003  1.00  0.00    -0.093 A  
HETATM   26  C   UNL     1      -8.550   7.081  68.195  1.00  0.00    -0.128 A  
HETATM   27  C   UNL     1      -9.083   8.300  67.765  1.00  0.00    -0.138 A  
HETATM   28  C   UNL     1      -8.428   9.444  68.165  1.00  0.00    -0.120 A  
ENDBRANCH  18  19
ENDBRANCH  17  18
ENDBRANCH  14  17
ENDBRANCH   7  11
TORSDOF 4
ENDMDL
MODEL      257
REMARK 921   NORMALIZED FREE ENERGY PREDICTED BY IDOCK:   -4.37 KCAL/MOL
REMARK 922        TOTAL FREE ENERGY PREDICTED BY IDOCK:   -6.02 KCAL/MOL
REMARK 923 INTER-LIGAND FREE ENERGY PREDICTED BY IDOCK:   -6.23 KCAL/MOL
REMARK 924 INTRA-LIGAND FREE ENERGY PREDICTED BY IDOCK:    0.22 KCAL/MOL
REMARK 927      BINDING AFFINITY PREDICTED BY RF-SCORE:    0.00 PKD
ROOT
HETATM    1  F   UNL     1      -7.391   9.993  65.134  1.00  0.00    -0.113 F  
HETATM    2  C   UNL     1      -6.475   9.725  66.106  1.00  0.00    -0.076 C  
HETATM    3  C   UNL     1      -6.334  10.824  67.127  1.00  0.00    -0.072 A  
HETATM    4  F   UNL     1      -6.855   8.541  66.658  1.00  0.00    -0.066 F  
HETATM    5  F   UNL     1      -5.307   9.475  65.451  1.00  0.00    -0.040 F  
HETATM    6  C   UNL     1      -7.097  11.999  67.012  1.00  0.00    -0.091 A  
HETATM    7  C   UNL     1      -6.977  13.081  67.901  1.00  0.00    -0.127 A  
HETATM    8  C   UNL     1      -5.447  10.699  68.197  1.00  0.00    -0.036 A  
HETATM    9  C   UNL     1      -6.076  12.908  68.963  1.00  0.00    -0.089 A  
HETATM   10  C   UNL     1      -5.325  11.734  69.117  1.00  0.00    -0.047 A  
ENDROOT
BRANCH   7  11
HETATM   11  N   UNL     1      -7.776  14.216  67.746  1.00  0.00    -0.151 NA 
HETATM   12  C   UNL     1      -8.626  16.389  68.613  1.00  0.00    -0.237 C  
HETATM   13  C   UNL     1      -8.164  14.957  68.971  1.00  0.00    -0.168 C  
HETATM   14  N   UNL     1      -9.717  16.468  67.612  1.00  0.00    -0.236 NA 
HETATM   15  C   UNL     1      -9.267  15.705  66.420  1.00  0.00    -0.311 C  
HETATM   16  C   UNL     1      -8.811  14.248  66.693  1.00  0.00    -0.139 C  
BRANCH  14  17
HETATM   17  C   UNL     1     -10.997  15.935  68.120  1.00  0.00    -0.335 C  
BRANCH  17  18
HETATM   18  C   UNL     1     -11.780  15.103  67.088  1.00  0.00    -0.130 C  
BRANCH  18  19
HETATM   19  N   UNL     1     -11.818  13.708  67.442  1.00  0.00    -0.381 N  
HETATM   20  C   UNL     1     -11.731  12.641  66.525  1.00  0.00    -0.400 C  
HETATM   21  O   UNL     1     -11.606  12.708  65.314  1.00  0.00    -0.321 OA 
HETATM   22  N   UNL     1     -11.832  11.461  67.279  1.00  0.00    -0.568 NA 
HETATM   23  C   UNL     1     -12.000  11.796  68.620  1.00  0.00    -0.239 A  
HETATM   24  C   UNL     1     -12.148  10.972  69.710  1.00  0.00    -0.424 A  
HETATM   25  C   UNL     1     -12.313  11.597  70.951  1.00  0.00    -0.436 A  
HETATM   26  C   UNL     1     -12.331  13.004  71.063  1.00  0.00    -0.335 A  
HETATM   27  C   UNL     1     -12.176  13.820  69.939  1.00  0.00    -0.383 A  
HETATM   28  C   UNL     1     -12.007  13.188  68.727  1.00  0.00    -0.280 A  
ENDBRANCH  18  19
ENDBRANCH  17  18
ENDBRANCH  14  17
ENDBRANCH   7  11
TORSDOF 4
ENDMDL
MODEL      258
REMARK 921   NORMALIZED FREE ENERGY PREDICTED BY IDOCK:   -4.37 KCAL/MOL
REMARK 922        TOTAL FREE ENERGY PREDICTED BY IDOCK:   -6.01 KCAL/MOL
REMARK 923 INTER-LIGAND FREE ENERGY PREDICTED BY IDOCK:   -5.46 KCAL/MOL
REMARK 924 INTRA-LIGAND FREE ENERGY PREDICTED BY IDOCK:   -0.54 KCAL/MOL
REMARK 927      BINDING AFFINITY PREDICTED BY RF-SCORE:    0.00 PKD
ROOT
HETATM    1  F   UNL     1      -8.366  15.607  68.368  1.00  0.00    -0.148 F  
HETATM    2  C   UNL     1      -9.348  15.683  67.426  1.00  0.00    -0.210 C  
HETATM    3  C   UNL     1     -10.108  14.397  67.236  1.00  0.00    -0.251 A  
HETATM    4  F   UNL     1     -10.148  16.716  67.807  1.00  0.00    -0.248 F  
HETATM    5  F   UNL     1      -8.729  16.092  66.283  1.00  0.00    -0.266 F  
HETATM    6  C   UNL     1      -9.767  13.256  67.984  1.00  0.00    -0.223 A  
HETATM    7  C   UNL     1     -10.404  12.014  67.819  1.00  0.00    -0.197 A  
HETATM    8  C   UNL     1     -11.156  14.312  66.318  1.00  0.00    -0.323 A  
HETATM    9  C   UNL     1     -11.453  11.978  66.888  1.00  0.00    -0.402 A  
HETATM   10  C   UNL     1     -11.832  13.109  66.152  1.00  0.00    -0.453 A  
ENDROOT
BRANCH   7  11
HETATM   11  N   UNL     1     -10.034  10.920  68.605  1.00  0.00    -0.182 NA 
HETATM   12  C   UNL     1      -8.623   8.901  68.963  1.00  0.00    -0.138 C  
HETATM   13  C   UNL     1      -9.362   9.784  67.930  1.00  0.00    -0.127 C  
HETATM   14  N   UNL     1      -9.462   8.398  70.077  1.00  0.00    -0.163 NA 
HETATM   15  C   UNL     1     -10.107   9.580  70.703  1.00  0.00    -0.286 C  
HETATM   16  C   UNL     1     -10.891  10.504  69.733  1.00  0.00    -0.281 C  
BRANCH  14  17
HETATM   17  C   UNL     1     -10.480   7.425  69.631  1.00  0.00    -0.232 C  
BRANCH  17  18
HETATM   18  C   UNL     1     -11.012   6.518  70.755  1.00  0.00    -0.276 C  
BRANCH  18  19
HETATM   19  N   UNL     1     -10.103   5.441  71.050  1.00  0.00    -0.205 N  
HETATM   20  C   UNL     1      -9.822   4.364  70.185  1.00  0.00    -0.217 C  
HETATM   21  O   UNL     1     -10.276   4.166  69.071  1.00  0.00     0.107 OA 
HETATM   22  N   UNL     1      -8.913   3.538  70.864  1.00  0.00    -0.087 NA 
HETATM   23  C   UNL     1      -8.661   4.081  72.120  1.00  0.00    -0.106 A  
HETATM   24  C   UNL     1      -7.846   3.612  73.123  1.00  0.00    -0.071 A  
HETATM   25  C   UNL     1      -7.798   4.369  74.299  1.00  0.00    -0.088 A  
HETATM   26  C   UNL     1      -8.559   5.550  74.438  1.00  0.00    -0.114 A  
HETATM   27  C   UNL     1      -9.380   6.007  73.402  1.00  0.00    -0.134 A  
HETATM   28  C   UNL     1      -9.407   5.253  72.249  1.00  0.00    -0.142 A  
ENDBRANCH  18  19
ENDBRANCH  17  18
ENDBRANCH  14  17
ENDBRANCH   7  11
TORSDOF 4
ENDMDL
MODEL      259
REMARK 921   NORMALIZED FREE ENERGY PREDICTED BY IDOCK:   -4.36 KCAL/MOL
REMARK 922        TOTAL FREE ENERGY PREDICTED BY IDOCK:   -6.00 KCAL/MOL
REMARK 923 INTER-LIGAND FREE ENERGY PREDICTED BY IDOCK:   -5.56 KCAL/MOL
REMARK 924 INTRA-LIGAND FREE ENERGY PREDICTED BY IDOCK:   -0.44 KCAL/MOL
REMARK 927      BINDING AFFINITY PREDICTED BY RF-SCORE:    0.00 PKD
ROOT
HETATM    1  F   UNL     1      -9.370   8.356  66.275  1.00  0.00    -0.204 F  
HETATM    2  C   UNL     1      -8.301   7.712  66.822  1.00  0.00    -0.125 C  
HETATM    3  C   UNL     1      -7.347   8.626  67.547  1.00  0.00    -0.089 A  
HETATM    4  F   UNL     1      -8.822   6.748  67.630  1.00  0.00    -0.119 F  
HETATM    5  F   UNL     1      -7.703   7.052  65.791  1.00  0.00    -0.086 F  
HETATM    6  C   UNL     1      -7.593  10.009  67.596  1.00  0.00    -0.091 A  
HETATM    7  C   UNL     1      -6.718  10.920  68.213  1.00  0.00    -0.063 A  
HETATM    8  C   UNL     1      -6.209   8.120  68.176  1.00  0.00    -0.050 A  
HETATM    9  C   UNL     1      -5.589  10.366  68.834  1.00  0.00    -0.041 A  
HETATM   10  C   UNL     1      -5.337   8.987  68.825  1.00  0.00    -0.037 A  
ENDROOT
BRANCH   7  11
HETATM   11  N   UNL     1      -7.024  12.283  68.246  1.00  0.00    -0.075 NA 
HETATM   12  C   UNL     1      -6.879  14.499  69.371  1.00  0.00    -0.149 C  
HETATM   13  C   UNL     1      -6.978  12.967  69.562  1.00  0.00     0.188 C  
HETATM   14  N   UNL     1      -7.941  15.099  68.529  1.00  0.00    -0.135 NA 
HETATM   15  C   UNL     1      -7.935  14.369  67.237  1.00  0.00    -0.180 C  
HETATM   16  C   UNL     1      -8.058  12.826  67.342  1.00  0.00    -0.185 C  
BRANCH  14  17
HETATM   17  C   UNL     1      -9.275  15.033  69.160  1.00  0.00    -0.183 C  
BRANCH  17  18
HETATM   18  C   UNL     1     -10.218  16.178  68.747  1.00  0.00    -0.238 C  
BRANCH  18  19
HETATM   19  N   UNL     1     -10.448  16.197  67.326  1.00  0.00    -0.306 N  
HETATM   20  C   UNL     1     -10.047  17.233  66.458  1.00  0.00    -0.309 C  
HETATM   21  O   UNL     1      -9.451  18.256  66.747  1.00  0.00    -0.280 OA 
HETATM   22  N   UNL     1     -10.484  16.867  65.176  1.00  0.00    -0.674 NA 
HETATM   23  C   UNL     1     -11.155  15.650  65.258  1.00  0.00    -0.303 A  
HETATM   24  C   UNL     1     -11.754  14.918  64.261  1.00  0.00    -0.261 A  
HETATM   25  C   UNL     1     -12.372  13.722  64.644  1.00  0.00    -0.410 A  
HETATM   26  C   UNL     1     -12.377  13.303  65.992  1.00  0.00    -0.449 A  
HETATM   27  C   UNL     1     -11.759  14.066  66.988  1.00  0.00    -0.425 A  
HETATM   28  C   UNL     1     -11.149  15.235  66.591  1.00  0.00    -0.276 A  
ENDBRANCH  18  19
ENDBRANCH  17  18
ENDBRANCH  14  17
ENDBRANCH   7  11
TORSDOF 4
ENDMDL
MODEL      260
REMARK 921   NORMALIZED FREE ENERGY PREDICTED BY IDOCK:   -4.35 KCAL/MOL
REMARK 922        TOTAL FREE ENERGY PREDICTED BY IDOCK:   -5.99 KCAL/MOL
REMARK 923 INTER-LIGAND FREE ENERGY PREDICTED BY IDOCK:   -5.31 KCAL/MOL
REMARK 924 INTRA-LIGAND FREE ENERGY PREDICTED BY IDOCK:   -0.67 KCAL/MOL
REMARK 927      BINDING AFFINITY PREDICTED BY RF-SCORE:    0.00 PKD
ROOT
HETATM    1  F   UNL     1     -10.801  14.646  70.166  1.00  0.00    -0.242 F  
HETATM    2  C   UNL     1     -11.764  14.880  69.230  1.00  0.00    -0.316 C  
HETATM    3  C   UNL     1     -11.612  14.051  67.981  1.00  0.00    -0.372 A  
HETATM    4  F   UNL     1     -12.952  14.670  69.860  1.00  0.00    -0.285 F  
HETATM    5  F   UNL     1     -11.708  16.218  68.974  1.00  0.00    -0.337 F  
HETATM    6  C   UNL     1     -10.538  13.152  67.855  1.00  0.00    -0.243 A  
HETATM    7  C   UNL     1     -10.312  12.387  66.698  1.00  0.00    -0.226 A  
HETATM    8  C   UNL     1     -12.526  14.162  66.932  1.00  0.00    -0.142 A  
HETATM    9  C   UNL     1     -11.259  12.529  65.671  1.00  0.00    -0.352 A  
HETATM   10  C   UNL     1     -12.354  13.396  65.785  1.00  0.00    -0.513 A  
ENDROOT
BRANCH   7  11
HETATM   11  N   UNL     1      -9.238  11.496  66.638  1.00  0.00    -0.181 NA 
HETATM   12  C   UNL     1      -7.698  10.062  65.308  1.00  0.00    -0.139 C  
HETATM   13  C   UNL     1      -9.133  10.626  65.441  1.00  0.00    -0.189 C  
HETATM   14  N   UNL     1      -7.190   9.342  66.500  1.00  0.00    -0.085 NA 
HETATM   15  C   UNL     1      -7.329  10.263  67.656  1.00  0.00    -0.088 C  
HETATM   16  C   UNL     1      -8.749  10.852  67.873  1.00  0.00    -0.131 C  
BRANCH  14  17
HETATM   17  C   UNL     1      -7.910   8.077  66.752  1.00  0.00    -0.103 C  
BRANCH  17  18
HETATM   18  C   UNL     1      -7.563   7.419  68.099  1.00  0.00    -0.114 C  
BRANCH  18  19
HETATM   19  N   UNL     1      -8.502   6.383  68.447  1.00  0.00    -0.116 N  
HETATM   20  C   UNL     1      -9.736   6.598  69.092  1.00  0.00    -0.145 C  
HETATM   21  O   UNL     1     -10.214   7.660  69.451  1.00  0.00    -0.195 OA 
HETATM   22  N   UNL     1     -10.320   5.332  69.261  1.00  0.00    -0.233 NA 
HETATM   23  C   UNL     1      -9.456   4.365  68.754  1.00  0.00    -0.162 A  
HETATM   24  C   UNL     1      -9.607   3.001  68.711  1.00  0.00    -0.081 A  
HETATM   25  C   UNL     1      -8.556   2.269  68.147  1.00  0.00    -0.109 A  
HETATM   26  C   UNL     1      -7.400   2.914  67.656  1.00  0.00    -0.053 A  
HETATM   27  C   UNL     1      -7.271   4.305  67.709  1.00  0.00    -0.064 A  
HETATM   28  C   UNL     1      -8.320   5.009  68.260  1.00  0.00    -0.095 A  
ENDBRANCH  18  19
ENDBRANCH  17  18
ENDBRANCH  14  17
ENDBRANCH   7  11
TORSDOF 4
ENDMDL
MODEL      261
REMARK 921   NORMALIZED FREE ENERGY PREDICTED BY IDOCK:   -4.30 KCAL/MOL
REMARK 922        TOTAL FREE ENERGY PREDICTED BY IDOCK:   -5.92 KCAL/MOL
REMARK 923 INTER-LIGAND FREE ENERGY PREDICTED BY IDOCK:   -5.12 KCAL/MOL
REMARK 924 INTRA-LIGAND FREE ENERGY PREDICTED BY IDOCK:   -0.80 KCAL/MOL
REMARK 927      BINDING AFFINITY PREDICTED BY RF-SCORE:    0.00 PKD
ROOT
HETATM    1  F   UNL     1     -10.777  10.324  65.720  1.00  0.00    -0.246 F  
HETATM    2  C   UNL     1     -10.599  11.673  65.784  1.00  0.00    -0.271 C  
HETATM    3  C   UNL     1      -9.461  12.094  66.677  1.00  0.00    -0.226 A  
HETATM    4  F   UNL     1     -10.440  12.088  64.498  1.00  0.00    -0.276 F  
HETATM    5  F   UNL     1     -11.795  12.182  66.195  1.00  0.00    -0.423 F  
HETATM    6  C   UNL     1      -8.707  11.127  67.365  1.00  0.00    -0.133 A  
HETATM    7  C   UNL     1      -7.666  11.456  68.250  1.00  0.00    -0.124 A  
HETATM    8  C   UNL     1      -9.138  13.442  66.839  1.00  0.00    -0.237 A  
HETATM    9  C   UNL     1      -7.375  12.823  68.378  1.00  0.00    -0.118 A  
HETATM   10  C   UNL     1      -8.093  13.804  67.680  1.00  0.00    -0.181 A  
ENDROOT
BRANCH   7  11
HETATM   11  N   UNL     1      -6.939  10.451  68.892  1.00  0.00    -0.063 NA 
HETATM   12  C   UNL     1      -6.173   8.086  69.014  1.00  0.00    -0.039 C  
HETATM   13  C   UNL     1      -7.322   9.044  68.621  1.00  0.00    -0.077 C  
HETATM   14  N   UNL     1      -5.692   8.216  70.410  1.00  0.00    -0.029 NA 
HETATM   15  C   UNL     1      -5.332   9.642  70.614  1.00  0.00    -0.045 C  
HETATM   16  C   UNL     1      -6.444  10.667  70.267  1.00  0.00    -0.138 C  
BRANCH  14  17
HETATM   17  C   UNL     1      -6.698   7.785  71.402  1.00  0.00    -0.045 C  
BRANCH  17  18
HETATM   18  C   UNL     1      -7.170   6.331  71.221  1.00  0.00    -0.079 C  
BRANCH  18  19
HETATM   19  N   UNL     1      -8.518   6.264  70.719  1.00  0.00    -0.133 N  
HETATM   20  C   UNL     1      -8.892   5.693  69.486  1.00  0.00    -0.112 C  
HETATM   21  O   UNL     1      -8.166   5.168  68.659  1.00  0.00    -0.086 OA 
HETATM   22  N   UNL     1     -10.282   5.858  69.378  1.00  0.00    -0.199 NA 
HETATM   23  C   UNL     1     -10.745   6.531  70.505  1.00  0.00    -0.254 A  
HETATM   24  C   UNL     1     -12.025   6.913  70.824  1.00  0.00    -0.424 A  
HETATM   25  C   UNL     1     -12.194   7.597  72.033  1.00  0.00    -0.328 A  
HETATM   26  C   UNL     1     -11.094   7.880  72.871  1.00  0.00    -0.442 A  
HETATM   27  C   UNL     1      -9.800   7.479  72.524  1.00  0.00    -0.226 A  
HETATM   28  C   UNL     1      -9.655   6.800  71.334  1.00  0.00    -0.167 A  
ENDBRANCH  18  19
ENDBRANCH  17  18
ENDBRANCH  14  17
ENDBRANCH   7  11
TORSDOF 4
ENDMDL
MODEL      262
REMARK 921   NORMALIZED FREE ENERGY PREDICTED BY IDOCK:   -4.30 KCAL/MOL
REMARK 922        TOTAL FREE ENERGY PREDICTED BY IDOCK:   -5.92 KCAL/MOL
REMARK 923 INTER-LIGAND FREE ENERGY PREDICTED BY IDOCK:   -5.17 KCAL/MOL
REMARK 924 INTRA-LIGAND FREE ENERGY PREDICTED BY IDOCK:   -0.76 KCAL/MOL
REMARK 927      BINDING AFFINITY PREDICTED BY RF-SCORE:    0.00 PKD
ROOT
HETATM    1  F   UNL     1      -9.985   3.600  66.928  1.00  0.00    -0.223 F  
HETATM    2  C   UNL     1      -9.583   4.565  66.053  1.00  0.00    -0.189 C  
HETATM    3  C   UNL     1      -9.640   5.959  66.620  1.00  0.00    -0.174 A  
HETATM    4  F   UNL     1      -8.331   4.208  65.657  1.00  0.00    -0.106 F  
HETATM    5  F   UNL     1     -10.378   4.419  64.956  1.00  0.00    -0.213 F  
HETATM    6  C   UNL     1     -10.095   6.172  67.933  1.00  0.00    -0.179 A  
HETATM    7  C   UNL     1     -10.218   7.450  68.503  1.00  0.00    -0.183 A  
HETATM    8  C   UNL     1      -9.247   7.060  65.856  1.00  0.00     0.005 A  
HETATM    9  C   UNL     1      -9.809   8.525  67.699  1.00  0.00    -0.222 A  
HETATM   10  C   UNL     1      -9.324   8.337  66.397  1.00  0.00    -0.274 A  
ENDROOT
BRANCH   7  11
HETATM   11  N   UNL     1     -10.659   7.598  69.820  1.00  0.00    -0.242 NA 
HETATM   12  C   UNL     1     -10.377   8.576  72.092  1.00  0.00    -0.339 C  
HETATM   13  C   UNL     1      -9.664   8.022  70.835  1.00  0.00    -0.164 C  
HETATM   14  N   UNL     1     -11.368   7.663  72.709  1.00  0.00    -0.372 NA 
HETATM   15  C   UNL     1     -12.325   7.276  71.642  1.00  0.00    -0.352 C  
HETATM   16  C   UNL     1     -11.688   6.685  70.357  1.00  0.00    -0.386 C  
BRANCH  14  17
HETATM   17  C   UNL     1     -10.744   6.466  73.309  1.00  0.00    -0.263 C  
BRANCH  17  18
HETATM   18  C   UNL     1      -9.742   6.783  74.434  1.00  0.00    -0.278 C  
BRANCH  18  19
HETATM   19  N   UNL     1      -8.382   6.559  74.018  1.00  0.00    -0.118 N  
HETATM   20  C   UNL     1      -7.390   7.557  73.934  1.00  0.00    -0.101 C  
HETATM   21  O   UNL     1      -7.503   8.742  74.196  1.00  0.00    -0.405 OA 
HETATM   22  N   UNL     1      -6.228   6.923  73.468  1.00  0.00    -0.062 NA 
HETATM   23  C   UNL     1      -6.505   5.576  73.251  1.00  0.00    -0.067 A  
HETATM   24  C   UNL     1      -5.676   4.581  72.793  1.00  0.00    -0.008 A  
HETATM   25  C   UNL     1      -6.239   3.306  72.659  1.00  0.00    -0.009 A  
HETATM   26  C   UNL     1      -7.594   3.071  72.976  1.00  0.00    -0.051 A  
HETATM   27  C   UNL     1      -8.417   4.101  73.442  1.00  0.00    -0.089 A  
HETATM   28  C   UNL     1      -7.843   5.346  73.576  1.00  0.00    -0.103 A  
ENDBRANCH  18  19
ENDBRANCH  17  18
ENDBRANCH  14  17
ENDBRANCH   7  11
TORSDOF 4
ENDMDL
MODEL      263
REMARK 921   NORMALIZED FREE ENERGY PREDICTED BY IDOCK:   -4.25 KCAL/MOL
REMARK 922        TOTAL FREE ENERGY PREDICTED BY IDOCK:   -5.87 KCAL/MOL
REMARK 923 INTER-LIGAND FREE ENERGY PREDICTED BY IDOCK:   -5.28 KCAL/MOL
REMARK 924 INTRA-LIGAND FREE ENERGY PREDICTED BY IDOCK:   -0.59 KCAL/MOL
REMARK 927      BINDING AFFINITY PREDICTED BY RF-SCORE:    0.00 PKD
ROOT
HETATM    1  F   UNL     1      -5.531   5.492  65.703  1.00  0.00    -0.011 F  
HETATM    2  C   UNL     1      -6.525   4.579  65.506  1.00  0.00    -0.040 C  
HETATM    3  C   UNL     1      -7.871   5.030  66.009  1.00  0.00    -0.099 A  
HETATM    4  F   UNL     1      -6.523   4.314  64.171  1.00  0.00    -0.035 F  
HETATM    5  F   UNL     1      -6.099   3.437  66.115  1.00  0.00    -0.022 F  
HETATM    6  C   UNL     1      -8.011   6.281  66.633  1.00  0.00    -0.108 A  
HETATM    7  C   UNL     1      -9.228   6.738  67.167  1.00  0.00    -0.134 A  
HETATM    8  C   UNL     1      -8.997   4.216  65.869  1.00  0.00    -0.126 A  
HETATM    9  C   UNL     1     -10.333   5.888  67.000  1.00  0.00    -0.298 A  
HETATM   10  C   UNL     1     -10.225   4.648  66.356  1.00  0.00    -0.293 A  
ENDROOT
BRANCH   7  11
HETATM   11  N   UNL     1      -9.311   8.001  67.760  1.00  0.00    -0.137 NA 
HETATM   12  C   UNL     1     -10.555   9.658  69.139  1.00  0.00    -0.220 C  
HETATM   13  C   UNL     1     -10.660   8.511  68.106  1.00  0.00    -0.124 C  
HETATM   14  N   UNL     1      -9.677  10.785  68.743  1.00  0.00    -0.185 NA 
HETATM   15  C   UNL     1      -8.352  10.206  68.406  1.00  0.00    -0.113 C  
HETATM   16  C   UNL     1      -8.370   9.065  67.355  1.00  0.00    -0.112 C  
BRANCH  14  17
HETATM   17  C   UNL     1     -10.215  11.554  67.602  1.00  0.00    -0.184 C  
BRANCH  17  18
HETATM   18  C   UNL     1     -11.120  12.730  68.013  1.00  0.00    -0.250 C  
BRANCH  18  19
HETATM   19  N   UNL     1     -10.940  13.870  67.152  1.00  0.00    -0.287 N  
HETATM   20  C   UNL     1     -11.722  14.152  66.014  1.00  0.00    -0.382 C  
HETATM   21  O   UNL     1     -12.660  13.508  65.577  1.00  0.00    -0.476 OA 
HETATM   22  N   UNL     1     -11.200  15.331  65.458  1.00  0.00    -0.311 NA 
HETATM   23  C   UNL     1     -10.113  15.747  66.221  1.00  0.00    -0.303 A  
HETATM   24  C   UNL     1      -9.297  16.839  66.048  1.00  0.00    -0.245 A  
HETATM   25  C   UNL     1      -8.261  17.002  66.975  1.00  0.00    -0.232 A  
HETATM   26  C   UNL     1      -8.072  16.080  68.027  1.00  0.00    -0.148 A  
HETATM   27  C   UNL     1      -8.918  14.977  68.182  1.00  0.00    -0.173 A  
HETATM   28  C   UNL     1      -9.936  14.838  67.265  1.00  0.00    -0.231 A  
ENDBRANCH  18  19
ENDBRANCH  17  18
ENDBRANCH  14  17
ENDBRANCH   7  11
TORSDOF 4
ENDMDL
MODEL      264
REMARK 921   NORMALIZED FREE ENERGY PREDICTED BY IDOCK:   -4.25 KCAL/MOL
REMARK 922        TOTAL FREE ENERGY PREDICTED BY IDOCK:   -5.87 KCAL/MOL
REMARK 923 INTER-LIGAND FREE ENERGY PREDICTED BY IDOCK:   -5.20 KCAL/MOL
REMARK 924 INTRA-LIGAND FREE ENERGY PREDICTED BY IDOCK:   -0.66 KCAL/MOL
REMARK 927      BINDING AFFINITY PREDICTED BY RF-SCORE:    0.00 PKD
ROOT
HETATM    1  F   UNL     1      -7.881  15.167  68.493  1.00  0.00    -0.118 F  
HETATM    2  C   UNL     1      -9.061  15.688  68.051  1.00  0.00    -0.183 C  
HETATM    3  C   UNL     1      -9.998  14.661  67.470  1.00  0.00    -0.223 A  
HETATM    4  F   UNL     1      -9.596  16.347  69.115  1.00  0.00    -0.235 F  
HETATM    5  F   UNL     1      -8.722  16.650  67.147  1.00  0.00    -0.187 F  
HETATM    6  C   UNL     1      -9.615  13.310  67.404  1.00  0.00    -0.223 A  
HETATM    7  C   UNL     1     -10.422  12.313  66.830  1.00  0.00    -0.217 A  
HETATM    8  C   UNL     1     -11.255  15.030  66.987  1.00  0.00    -0.328 A  
HETATM    9  C   UNL     1     -11.677  12.730  66.361  1.00  0.00    -0.464 A  
HETATM   10  C   UNL     1     -12.094  14.066  66.442  1.00  0.00    -0.483 A  
ENDROOT
BRANCH   7  11
HETATM   11  N   UNL     1      -9.996  10.982  66.810  1.00  0.00    -0.197 NA 
HETATM   12  C   UNL     1     -10.442   8.568  67.221  1.00  0.00    -0.296 C  
HETATM   13  C   UNL     1     -10.702  10.020  67.690  1.00  0.00    -0.284 C  
HETATM   14  N   UNL     1      -9.013   8.190  67.106  1.00  0.00    -0.136 NA 
HETATM   15  C   UNL     1      -8.368   9.192  66.221  1.00  0.00    -0.119 C  
HETATM   16  C   UNL     1      -8.561  10.674  66.640  1.00  0.00    -0.139 C  
BRANCH  14  17
HETATM   17  C   UNL     1      -8.331   8.134  68.415  1.00  0.00    -0.126 C  
BRANCH  17  18
HETATM   18  C   UNL     1      -7.330   6.971  68.548  1.00  0.00    -0.100 C  
BRANCH  18  19
HETATM   19  N   UNL     1      -7.994   5.694  68.579  1.00  0.00    -0.099 N  
HETATM   20  C   UNL     1      -8.578   5.117  69.724  1.00  0.00    -0.096 C  
HETATM   21  O   UNL     1      -8.629   5.584  70.849  1.00  0.00    -0.124 OA 
HETATM   22  N   UNL     1      -9.089   3.872  69.324  1.00  0.00    -0.118 NA 
HETATM   23  C   UNL     1      -8.805   3.681  67.975  1.00  0.00    -0.116 A  
HETATM   24  C   UNL     1      -9.105   2.611  67.166  1.00  0.00    -0.181 A  
HETATM   25  C   UNL     1      -8.679   2.690  65.836  1.00  0.00    -0.127 A  
HETATM   26  C   UNL     1      -7.970   3.815  65.362  1.00  0.00    -0.093 A  
HETATM   27  C   UNL     1      -7.677   4.892  66.206  1.00  0.00    -0.092 A  
HETATM   28  C   UNL     1      -8.113   4.800  67.509  1.00  0.00    -0.101 A  
ENDBRANCH  18  19
ENDBRANCH  17  18
ENDBRANCH  14  17
ENDBRANCH   7  11
TORSDOF 4
ENDMDL
MODEL      265
REMARK 921   NORMALIZED FREE ENERGY PREDICTED BY IDOCK:   -4.24 KCAL/MOL
REMARK 922        TOTAL FREE ENERGY PREDICTED BY IDOCK:   -5.86 KCAL/MOL
REMARK 923 INTER-LIGAND FREE ENERGY PREDICTED BY IDOCK:   -7.42 KCAL/MOL
REMARK 924 INTRA-LIGAND FREE ENERGY PREDICTED BY IDOCK:    1.56 KCAL/MOL
REMARK 927      BINDING AFFINITY PREDICTED BY RF-SCORE:    0.00 PKD
ROOT
HETATM    1  F   UNL     1     -12.118  14.084  71.494  1.00  0.00    -0.385 F  
HETATM    2  C   UNL     1     -12.051  15.351  70.995  1.00  0.00    -0.365 C  
HETATM    3  C   UNL     1     -11.415  15.433  69.632  1.00  0.00    -0.331 A  
HETATM    4  F   UNL     1     -13.328  15.822  71.009  1.00  0.00    -0.540 F  
HETATM    5  F   UNL     1     -11.375  16.078  71.928  1.00  0.00    -0.431 F  
HETATM    6  C   UNL     1     -10.938  14.271  69.002  1.00  0.00    -0.282 A  
HETATM    7  C   UNL     1     -10.291  14.287  67.755  1.00  0.00    -0.238 A  
HETATM    8  C   UNL     1     -11.285  16.658  68.976  1.00  0.00    -0.165 A  
HETATM    9  C   UNL     1     -10.186  15.540  67.131  1.00  0.00    -0.260 A  
HETATM   10  C   UNL     1     -10.680  16.709  67.726  1.00  0.00    -0.327 A  
ENDROOT
BRANCH   7  11
HETATM   11  N   UNL     1      -9.854  13.096  67.169  1.00  0.00    -0.231 NA 
HETATM   12  C   UNL     1     -10.299  11.101  65.750  1.00  0.00    -0.260 C  
HETATM   13  C   UNL     1     -10.884  12.108  66.769  1.00  0.00    -0.248 C  
HETATM   14  N   UNL     1      -9.072  10.397  66.192  1.00  0.00    -0.156 NA 
HETATM   15  C   UNL     1      -8.090  11.440  66.582  1.00  0.00    -0.155 C  
HETATM   16  C   UNL     1      -8.593  12.475  67.622  1.00  0.00    -0.178 C  
BRANCH  14  17
HETATM   17  C   UNL     1      -9.320   9.469  67.314  1.00  0.00    -0.134 C  
BRANCH  17  18
HETATM   18  C   UNL     1      -9.758  10.165  68.615  1.00  0.00    -0.163 C  
BRANCH  18  19
HETATM   19  N   UNL     1     -10.471   9.269  69.489  1.00  0.00    -0.214 N  
HETATM   20  C   UNL     1     -11.409   9.669  70.462  1.00  0.00    -0.296 C  
HETATM   21  O   UNL     1     -11.774  10.802  70.722  1.00  0.00    -0.328 OA 
HETATM   22  N   UNL     1     -11.842   8.495  71.099  1.00  0.00    -0.287 NA 
HETATM   23  C   UNL     1     -11.172   7.408  70.547  1.00  0.00    -0.274 A  
HETATM   24  C   UNL     1     -11.271   6.074  70.861  1.00  0.00    -0.335 A  
HETATM   25  C   UNL     1     -10.455   5.196  70.140  1.00  0.00    -0.305 A  
HETATM   26  C   UNL     1      -9.573   5.671  69.145  1.00  0.00    -0.176 A  
HETATM   27  C   UNL     1      -9.491   7.034  68.843  1.00  0.00    -0.137 A  
HETATM   28  C   UNL     1     -10.309   7.882  69.557  1.00  0.00    -0.217 A  
ENDBRANCH  18  19
ENDBRANCH  17  18
ENDBRANCH  14  17
ENDBRANCH   7  11
TORSDOF 4
ENDMDL
MODEL      266
REMARK 921   NORMALIZED FREE ENERGY PREDICTED BY IDOCK:   -4.23 KCAL/MOL
REMARK 922        TOTAL FREE ENERGY PREDICTED BY IDOCK:   -5.84 KCAL/MOL
REMARK 923 INTER-LIGAND FREE ENERGY PREDICTED BY IDOCK:   -4.99 KCAL/MOL
REMARK 924 INTRA-LIGAND FREE ENERGY PREDICTED BY IDOCK:   -0.85 KCAL/MOL
REMARK 927      BINDING AFFINITY PREDICTED BY RF-SCORE:    0.00 PKD
ROOT
HETATM    1  F   UNL     1     -10.030  12.643  67.522  1.00  0.00    -0.197 F  
HETATM    2  C   UNL     1     -11.268  12.594  68.090  1.00  0.00    -0.269 C  
HETATM    3  C   UNL     1     -11.383  11.590  69.207  1.00  0.00    -0.353 A  
HETATM    4  F   UNL     1     -11.540  13.865  68.496  1.00  0.00    -0.282 F  
HETATM    5  F   UNL     1     -12.131  12.335  67.069  1.00  0.00    -0.416 F  
HETATM    6  C   UNL     1     -10.278  10.796  69.562  1.00  0.00    -0.146 A  
HETATM    7  C   UNL     1     -10.335   9.808  70.559  1.00  0.00    -0.283 A  
HETATM    8  C   UNL     1     -12.582  11.427  69.904  1.00  0.00    -0.091 A  
HETATM    9  C   UNL     1     -11.559   9.683  71.234  1.00  0.00    -0.466 A  
HETATM   10  C   UNL     1     -12.666  10.483  70.919  1.00  0.00    -0.495 A  
ENDROOT
BRANCH   7  11
HETATM   11  N   UNL     1      -9.199   9.062  70.882  1.00  0.00    -0.238 NA 
HETATM   12  C   UNL     1      -7.171   7.804  70.171  1.00  0.00    -0.062 C  
HETATM   13  C   UNL     1      -8.632   8.181  69.831  1.00  0.00    -0.130 C  
HETATM   14  N   UNL     1      -6.973   7.188  71.505  1.00  0.00    -0.063 NA 
HETATM   15  C   UNL     1      -7.564   8.114  72.504  1.00  0.00    -0.120 C  
HETATM   16  C   UNL     1      -9.040   8.519  72.246  1.00  0.00    -0.248 C  
BRANCH  14  17
HETATM   17  C   UNL     1      -7.585   5.847  71.610  1.00  0.00    -0.100 C  
BRANCH  17  18
HETATM   18  C   UNL     1      -6.942   4.794  70.689  1.00  0.00    -0.037 C  
BRANCH  18  19
HETATM   19  N   UNL     1      -7.915   4.165  69.834  1.00  0.00    -0.055 N  
HETATM   20  C   UNL     1      -8.838   3.184  70.248  1.00  0.00    -0.083 C  
HETATM   21  O   UNL     1      -8.976   2.717  71.365  1.00  0.00    -0.076 OA 
HETATM   22  N   UNL     1      -9.575   2.828  69.108  1.00  0.00    -0.069 NA 
HETATM   23  C   UNL     1      -9.102   3.554  68.019  1.00  0.00    -0.156 A  
HETATM   24  C   UNL     1      -9.516   3.527  66.709  1.00  0.00    -0.190 A  
HETATM   25  C   UNL     1      -8.839   4.368  65.818  1.00  0.00    -0.122 A  
HETATM   26  C   UNL     1      -7.780   5.192  66.256  1.00  0.00    -0.088 A  
HETATM   27  C   UNL     1      -7.378   5.202  67.595  1.00  0.00    -0.075 A  
HETATM   28  C   UNL     1      -8.062   4.375  68.459  1.00  0.00    -0.081 A  
ENDBRANCH  18  19
ENDBRANCH  17  18
ENDBRANCH  14  17
ENDBRANCH   7  11
TORSDOF 4
ENDMDL
MODEL      267
REMARK 921   NORMALIZED FREE ENERGY PREDICTED BY IDOCK:   -4.22 KCAL/MOL
REMARK 922        TOTAL FREE ENERGY PREDICTED BY IDOCK:   -5.83 KCAL/MOL
REMARK 923 INTER-LIGAND FREE ENERGY PREDICTED BY IDOCK:   -4.98 KCAL/MOL
REMARK 924 INTRA-LIGAND FREE ENERGY PREDICTED BY IDOCK:   -0.85 KCAL/MOL
REMARK 927      BINDING AFFINITY PREDICTED BY RF-SCORE:    0.00 PKD
ROOT
HETATM    1  F   UNL     1      -9.141   8.509  70.854  1.00  0.00    -0.142 F  
HETATM    2  C   UNL     1      -9.521   7.523  71.715  1.00  0.00    -0.145 C  
HETATM    3  C   UNL     1      -9.480   6.142  71.114  1.00  0.00    -0.182 A  
HETATM    4  F   UNL     1      -8.711   7.648  72.802  1.00  0.00    -0.133 F  
HETATM    5  F   UNL     1     -10.770   7.867  72.139  1.00  0.00    -0.242 F  
HETATM    6  C   UNL     1      -9.094   5.966  69.774  1.00  0.00    -0.147 A  
HETATM    7  C   UNL     1      -9.083   4.712  69.139  1.00  0.00    -0.117 A  
HETATM    8  C   UNL     1      -9.826   5.021  71.869  1.00  0.00    -0.236 A  
HETATM    9  C   UNL     1      -9.434   3.613  69.939  1.00  0.00    -0.262 A  
HETATM   10  C   UNL     1      -9.795   3.760  71.286  1.00  0.00    -0.219 A  
ENDROOT
BRANCH   7  11
HETATM   11  N   UNL     1      -8.672   4.595  67.809  1.00  0.00    -0.103 NA 
HETATM   12  C   UNL     1      -6.922   4.871  66.061  1.00  0.00    -0.066 C  
HETATM   13  C   UNL     1      -7.534   5.436  67.364  1.00  0.00    -0.084 C  
HETATM   14  N   UNL     1      -7.878   4.685  64.943  1.00  0.00    -0.088 NA 
HETATM   15  C   UNL     1      -8.987   3.843  65.457  1.00  0.00    -0.133 C  
HETATM   16  C   UNL     1      -9.673   4.358  66.750  1.00  0.00    -0.215 C  
BRANCH  14  17
HETATM   17  C   UNL     1      -8.395   5.964  64.416  1.00  0.00    -0.048 C  
BRANCH  17  18
HETATM   18  C   UNL     1      -7.573   7.194  64.846  1.00  0.00    -0.103 C  
BRANCH  18  19
HETATM   19  N   UNL     1      -8.328   8.413  64.717  1.00  0.00    -0.161 N  
HETATM   20  C   UNL     1      -8.290   9.270  63.598  1.00  0.00    -0.185 C  
HETATM   21  O   UNL     1      -7.641   9.132  62.576  1.00  0.00    -0.105 OA 
HETATM   22  N   UNL     1      -9.147  10.343  63.892  1.00  0.00    -0.223 NA 
HETATM   23  C   UNL     1      -9.678  10.161  65.166  1.00  0.00    -0.304 A  
HETATM   24  C   UNL     1     -10.551  10.957  65.866  1.00  0.00    -0.244 A  
HETATM   25  C   UNL     1     -10.907  10.524  67.148  1.00  0.00    -0.319 A  
HETATM   26  C   UNL     1     -10.382   9.329  67.687  1.00  0.00    -0.311 A  
HETATM   27  C   UNL     1      -9.495   8.535  66.953  1.00  0.00    -0.237 A  
HETATM   28  C   UNL     1      -9.163   8.973  65.689  1.00  0.00    -0.225 A  
ENDBRANCH  18  19
ENDBRANCH  17  18
ENDBRANCH  14  17
ENDBRANCH   7  11
TORSDOF 4
ENDMDL
MODEL      268
REMARK 921   NORMALIZED FREE ENERGY PREDICTED BY IDOCK:   -4.22 KCAL/MOL
REMARK 922        TOTAL FREE ENERGY PREDICTED BY IDOCK:   -5.83 KCAL/MOL
REMARK 923 INTER-LIGAND FREE ENERGY PREDICTED BY IDOCK:   -5.22 KCAL/MOL
REMARK 924 INTRA-LIGAND FREE ENERGY PREDICTED BY IDOCK:   -0.60 KCAL/MOL
REMARK 927      BINDING AFFINITY PREDICTED BY RF-SCORE:    0.00 PKD
ROOT
HETATM    1  F   UNL     1     -11.933  14.508  69.145  1.00  0.00    -0.313 F  
HETATM    2  C   UNL     1     -11.615  14.487  67.820  1.00  0.00    -0.365 C  
HETATM    3  C   UNL     1     -10.703  13.353  67.432  1.00  0.00    -0.269 A  
HETATM    4  F   UNL     1     -12.803  14.458  67.155  1.00  0.00    -0.141 F  
HETATM    5  F   UNL     1     -11.068  15.706  67.554  1.00  0.00    -0.313 F  
HETATM    6  C   UNL     1     -10.245  12.448  68.406  1.00  0.00    -0.227 A  
HETATM    7  C   UNL     1      -9.355  11.400  68.119  1.00  0.00    -0.181 A  
HETATM    8  C   UNL     1     -10.296  13.181  66.108  1.00  0.00    -0.287 A  
HETATM    9  C   UNL     1      -8.975  11.265  66.774  1.00  0.00    -0.173 A  
HETATM   10  C   UNL     1      -9.442  12.136  65.780  1.00  0.00    -0.156 A  
ENDROOT
BRANCH   7  11
HETATM   11  N   UNL     1      -8.948  10.521  69.125  1.00  0.00    -0.176 NA 
HETATM   12  C   UNL     1      -7.184   9.668  70.661  1.00  0.00    -0.103 C  
HETATM   13  C   UNL     1      -7.495  10.260  69.266  1.00  0.00    -0.112 C  
HETATM   14  N   UNL     1      -7.950   8.448  71.013  1.00  0.00    -0.096 NA 
HETATM   15  C   UNL     1      -9.389   8.776  70.846  1.00  0.00    -0.214 C  
HETATM   16  C   UNL     1      -9.786   9.352  69.461  1.00  0.00    -0.183 C  
BRANCH  14  17
HETATM   17  C   UNL     1      -7.581   7.283  70.182  1.00  0.00    -0.090 C  
BRANCH  17  18
HETATM   18  C   UNL     1      -8.584   6.118  70.261  1.00  0.00    -0.140 C  
BRANCH  18  19
HETATM   19  N   UNL     1      -9.195   5.850  68.985  1.00  0.00    -0.123 N  
HETATM   20  C   UNL     1     -10.572   5.970  68.710  1.00  0.00    -0.282 C  
HETATM   21  O   UNL     1     -11.456   6.317  69.474  1.00  0.00    -0.428 OA 
HETATM   22  N   UNL     1     -10.742   5.595  67.368  1.00  0.00    -0.238 NA 
HETATM   23  C   UNL     1      -9.506   5.232  66.841  1.00  0.00    -0.136 A  
HETATM   24  C   UNL     1      -9.194   4.794  65.577  1.00  0.00    -0.155 A  
HETATM   25  C   UNL     1      -7.851   4.486  65.331  1.00  0.00    -0.090 A  
HETATM   26  C   UNL     1      -6.876   4.617  66.344  1.00  0.00    -0.058 A  
HETATM   27  C   UNL     1      -7.219   5.067  67.623  1.00  0.00    -0.070 A  
HETATM   28  C   UNL     1      -8.544   5.374  67.843  1.00  0.00    -0.104 A  
ENDBRANCH  18  19
ENDBRANCH  17  18
ENDBRANCH  14  17
ENDBRANCH   7  11
TORSDOF 4
ENDMDL
MODEL      269
REMARK 921   NORMALIZED FREE ENERGY PREDICTED BY IDOCK:   -4.21 KCAL/MOL
REMARK 922        TOTAL FREE ENERGY PREDICTED BY IDOCK:   -5.82 KCAL/MOL
REMARK 923 INTER-LIGAND FREE ENERGY PREDICTED BY IDOCK:   -5.91 KCAL/MOL
REMARK 924 INTRA-LIGAND FREE ENERGY PREDICTED BY IDOCK:    0.09 KCAL/MOL
REMARK 927      BINDING AFFINITY PREDICTED BY RF-SCORE:    0.00 PKD
ROOT
HETATM    1  F   UNL     1      -8.707   9.265  67.254  1.00  0.00    -0.124 F  
HETATM    2  C   UNL     1      -9.633   9.295  66.254  1.00  0.00    -0.248 C  
HETATM    3  C   UNL     1     -10.065  10.686  65.867  1.00  0.00    -0.321 A  
HETATM    4  F   UNL     1      -9.080   8.609  65.216  1.00  0.00    -0.228 F  
HETATM    5  F   UNL     1     -10.673   8.533  66.694  1.00  0.00    -0.350 F  
HETATM    6  C   UNL     1      -9.534  11.803  66.535  1.00  0.00    -0.225 A  
HETATM    7  C   UNL     1      -9.931  13.121  66.257  1.00  0.00    -0.285 A  
HETATM    8  C   UNL     1     -10.996  10.889  64.848  1.00  0.00    -0.038 A  
HETATM    9  C   UNL     1     -10.867  13.278  65.223  1.00  0.00    -0.314 A  
HETATM   10  C   UNL     1     -11.389  12.182  64.522  1.00  0.00    -0.393 A  
ENDROOT
BRANCH   7  11
HETATM   11  N   UNL     1      -9.354  14.194  66.942  1.00  0.00    -0.254 NA 
HETATM   12  C   UNL     1      -7.657  15.073  68.536  1.00  0.00    -0.118 C  
HETATM   13  C   UNL     1      -8.589  13.892  68.175  1.00  0.00    -0.180 C  
HETATM   14  N   UNL     1      -8.328  16.388  68.670  1.00  0.00    -0.209 NA 
HETATM   15  C   UNL     1      -9.076  16.624  67.409  1.00  0.00    -0.201 C  
HETATM   16  C   UNL     1     -10.054  15.494  66.992  1.00  0.00    -0.254 C  
BRANCH  14  17
HETATM   17  C   UNL     1      -9.235  16.449  69.834  1.00  0.00     0.692 C  
BRANCH  17  18
HETATM   18  C   UNL     1     -10.704  16.726  69.466  1.00  0.00    -0.273 C  
BRANCH  18  19
HETATM   19  N   UNL     1     -11.611  15.909  70.231  1.00  0.00    -0.343 N  
HETATM   20  C   UNL     1     -12.388  14.857  69.704  1.00  0.00    -0.208 C  
HETATM   21  O   UNL     1     -12.423  14.463  68.551  1.00  0.00    -0.101 OA 
HETATM   22  N   UNL     1     -13.140  14.346  70.774  1.00  0.00    -0.337 NA 
HETATM   23  C   UNL     1     -12.849  15.079  71.921  1.00  0.00    -0.337 A  
HETATM   24  C   UNL     1     -13.351  14.940  73.192  1.00  0.00    -0.493 A  
HETATM   25  C   UNL     1     -12.880  15.839  74.156  1.00  0.00    -0.533 A  
HETATM   26  C   UNL     1     -11.940  16.839  73.823  1.00  0.00    -0.222 A  
HETATM   27  C   UNL     1     -11.443  16.959  72.521  1.00  0.00     0.487 A  
HETATM   28  C   UNL     1     -11.912  16.060  71.588  1.00  0.00    -0.499 A  
ENDBRANCH  18  19
ENDBRANCH  17  18
ENDBRANCH  14  17
ENDBRANCH   7  11
TORSDOF 4
ENDMDL
MODEL      270
REMARK 921   NORMALIZED FREE ENERGY PREDICTED BY IDOCK:   -4.19 KCAL/MOL
REMARK 922        TOTAL FREE ENERGY PREDICTED BY IDOCK:   -5.79 KCAL/MOL
REMARK 923 INTER-LIGAND FREE ENERGY PREDICTED BY IDOCK:   -5.57 KCAL/MOL
REMARK 924 INTRA-LIGAND FREE ENERGY PREDICTED BY IDOCK:   -0.23 KCAL/MOL
REMARK 927      BINDING AFFINITY PREDICTED BY RF-SCORE:    0.00 PKD
ROOT
HETATM    1  F   UNL     1     -10.129  11.918  68.110  1.00  0.00    -0.175 F  
HETATM    2  C   UNL     1     -11.230  12.231  68.850  1.00  0.00    -0.273 C  
HETATM    3  C   UNL     1     -11.646  11.146  69.808  1.00  0.00    -0.409 A  
HETATM    4  F   UNL     1     -10.934  13.402  69.477  1.00  0.00    -0.233 F  
HETATM    5  F   UNL     1     -12.206  12.528  67.947  1.00  0.00    -0.387 F  
HETATM    6  C   UNL     1     -10.929   9.938  69.865  1.00  0.00    -0.321 A  
HETATM    7  C   UNL     1     -11.295   8.870  70.700  1.00  0.00    -0.259 A  
HETATM    8  C   UNL     1     -12.747  11.317  70.649  1.00  0.00    -0.314 A  
HETATM    9  C   UNL     1     -12.405   9.088  71.530  1.00  0.00    -0.397 A  
HETATM   10  C   UNL     1     -13.119  10.294  71.513  1.00  0.00    -0.534 A  
ENDROOT
BRANCH   7  11
HETATM   11  N   UNL     1     -10.532   7.699  70.728  1.00  0.00    -0.208 NA 
HETATM   12  C   UNL     1      -8.418   6.516  71.298  1.00  0.00    -0.126 C  
HETATM   13  C   UNL     1      -9.059   7.840  70.819  1.00  0.00    -0.149 C  
HETATM   14  N   UNL     1      -8.760   5.321  70.490  1.00  0.00    -0.119 NA 
HETATM   15  C   UNL     1     -10.241   5.244  70.435  1.00  0.00    -0.268 C  
HETATM   16  C   UNL     1     -10.959   6.527  69.938  1.00  0.00    -0.335 C  
BRANCH  14  17
HETATM   17  C   UNL     1      -8.189   5.372  69.129  1.00  0.00    -0.093 C  
BRANCH  17  18
HETATM   18  C   UNL     1      -9.235   5.231  68.008  1.00  0.00    -0.113 C  
BRANCH  18  19
HETATM   19  N   UNL     1      -8.806   5.871  66.791  1.00  0.00    -0.117 N  
HETATM   20  C   UNL     1      -9.325   7.081  66.291  1.00  0.00    -0.098 C  
HETATM   21  O   UNL     1     -10.194   7.780  66.785  1.00  0.00    -0.273 OA 
HETATM   22  N   UNL     1      -8.653   7.332  65.084  1.00  0.00    -0.013 NA 
HETATM   23  C   UNL     1      -7.762   6.291  64.840  1.00  0.00    -0.099 A  
HETATM   24  C   UNL     1      -6.904   6.111  63.782  1.00  0.00    -0.038 A  
HETATM   25  C   UNL     1      -6.125   4.948  63.795  1.00  0.00    -0.022 A  
HETATM   26  C   UNL     1      -6.230   4.012  64.846  1.00  0.00    -0.024 A  
HETATM   27  C   UNL     1      -7.109   4.220  65.914  1.00  0.00    -0.067 A  
HETATM   28  C   UNL     1      -7.862   5.374  65.887  1.00  0.00    -0.103 A  
ENDBRANCH  18  19
ENDBRANCH  17  18
ENDBRANCH  14  17
ENDBRANCH   7  11
TORSDOF 4
ENDMDL
MODEL      271
REMARK 921   NORMALIZED FREE ENERGY PREDICTED BY IDOCK:   -4.18 KCAL/MOL
REMARK 922        TOTAL FREE ENERGY PREDICTED BY IDOCK:   -5.78 KCAL/MOL
REMARK 923 INTER-LIGAND FREE ENERGY PREDICTED BY IDOCK:   -5.18 KCAL/MOL
REMARK 924 INTRA-LIGAND FREE ENERGY PREDICTED BY IDOCK:   -0.60 KCAL/MOL
REMARK 927      BINDING AFFINITY PREDICTED BY RF-SCORE:    0.00 PKD
ROOT
HETATM    1  F   UNL     1     -12.766  12.010  64.265  1.00  0.00    -0.487 F  
HETATM    2  C   UNL     1     -12.131  13.169  64.598  1.00  0.00    -0.408 C  
HETATM    3  C   UNL     1     -10.902  12.967  65.445  1.00  0.00    -0.307 A  
HETATM    4  F   UNL     1     -11.860  13.794  63.419  1.00  0.00    -0.377 F  
HETATM    5  F   UNL     1     -13.069  13.936  65.220  1.00  0.00    -0.482 F  
HETATM    6  C   UNL     1     -10.518  11.673  65.836  1.00  0.00    -0.300 A  
HETATM    7  C   UNL     1      -9.412  11.421  66.666  1.00  0.00    -0.189 A  
HETATM    8  C   UNL     1     -10.130  14.054  65.858  1.00  0.00    -0.336 A  
HETATM    9  C   UNL     1      -8.664  12.543  67.054  1.00  0.00    -0.205 A  
HETATM   10  C   UNL     1      -9.010  13.841  66.653  1.00  0.00    -0.149 A  
ENDROOT
BRANCH   7  11
HETATM   11  N   UNL     1      -9.067  10.110  67.007  1.00  0.00    -0.138 NA 
HETATM   12  C   UNL     1      -9.736   7.772  67.536  1.00  0.00    -0.158 C  
HETATM   13  C   UNL     1     -10.106   9.270  67.650  1.00  0.00    -0.214 C  
HETATM   14  N   UNL     1      -8.399   7.411  68.065  1.00  0.00    -0.123 NA 
HETATM   15  C   UNL     1      -7.412   8.289  67.386  1.00  0.00    -0.094 C  
HETATM   16  C   UNL     1      -7.700   9.811  67.478  1.00  0.00    -0.095 C  
BRANCH  14  17
HETATM   17  C   UNL     1      -8.306   7.558  69.531  1.00  0.00    -0.131 C  
BRANCH  17  18
HETATM   18  C   UNL     1      -6.894   7.316  70.095  1.00  0.00    -0.059 C  
BRANCH  18  19
HETATM   19  N   UNL     1      -6.915   7.104  71.519  1.00  0.00    -0.063 N  
HETATM   20  C   UNL     1      -6.776   8.120  72.487  1.00  0.00    -0.085 C  
HETATM   21  O   UNL     1      -6.626   9.314  72.296  1.00  0.00    -0.302 OA 
HETATM   22  N   UNL     1      -6.829   7.485  73.738  1.00  0.00    -0.080 NA 
HETATM   23  C   UNL     1      -6.974   6.114  73.542  1.00  0.00    -0.080 A  
HETATM   24  C   UNL     1      -7.063   5.108  74.473  1.00  0.00    -0.078 A  
HETATM   25  C   UNL     1      -7.192   3.805  73.980  1.00  0.00    -0.057 A  
HETATM   26  C   UNL     1      -7.222   3.550  72.591  1.00  0.00    -0.049 A  
HETATM   27  C   UNL     1      -7.131   4.593  71.664  1.00  0.00    -0.062 A  
HETATM   28  C   UNL     1      -7.013   5.869  72.168  1.00  0.00    -0.078 A  
ENDBRANCH  18  19
ENDBRANCH  17  18
ENDBRANCH  14  17
ENDBRANCH   7  11
TORSDOF 4
ENDMDL
MODEL      272
REMARK 921   NORMALIZED FREE ENERGY PREDICTED BY IDOCK:   -4.16 KCAL/MOL
REMARK 922        TOTAL FREE ENERGY PREDICTED BY IDOCK:   -5.76 KCAL/MOL
REMARK 923 INTER-LIGAND FREE ENERGY PREDICTED BY IDOCK:   -5.17 KCAL/MOL
REMARK 924 INTRA-LIGAND FREE ENERGY PREDICTED BY IDOCK:   -0.59 KCAL/MOL
REMARK 927      BINDING AFFINITY PREDICTED BY RF-SCORE:    0.00 PKD
ROOT
HETATM    1  F   UNL     1     -10.005   3.215  65.137  1.00  0.00    -0.126 F  
HETATM    2  C   UNL     1      -9.098   3.815  64.316  1.00  0.00    -0.128 C  
HETATM    3  C   UNL     1      -8.630   5.160  64.808  1.00  0.00    -0.148 A  
HETATM    4  F   UNL     1      -8.079   2.924  64.175  1.00  0.00    -0.079 F  
HETATM    5  F   UNL     1      -9.700   3.890  63.096  1.00  0.00    -0.128 F  
HETATM    6  C   UNL     1      -9.143   5.694  66.004  1.00  0.00    -0.164 A  
HETATM    7  C   UNL     1      -8.786   6.963  66.490  1.00  0.00    -0.133 A  
HETATM    8  C   UNL     1      -7.689   5.899  64.089  1.00  0.00    -0.106 A  
HETATM    9  C   UNL     1      -7.834   7.667  65.736  1.00  0.00    -0.106 A  
HETATM   10  C   UNL     1      -7.287   7.144  64.557  1.00  0.00    -0.081 A  
ENDROOT
BRANCH   7  11
HETATM   11  N   UNL     1      -9.314   7.433  67.695  1.00  0.00    -0.132 NA 
HETATM   12  C   UNL     1     -11.280   7.997  69.114  1.00  0.00     0.343 C  
HETATM   13  C   UNL     1     -10.700   7.960  67.680  1.00  0.00    -0.145 C  
HETATM   14  N   UNL     1     -10.468   8.745  70.103  1.00  0.00    -0.207 NA 
HETATM   15  C   UNL     1      -9.098   8.173  70.063  1.00  0.00    -0.151 C  
HETATM   16  C   UNL     1      -8.436   8.125  68.661  1.00  0.00    -0.127 C  
BRANCH  14  17
HETATM   17  C   UNL     1     -10.434  10.197  69.833  1.00  0.00    -0.275 C  
BRANCH  17  18
HETATM   18  C   UNL     1     -11.825  10.854  69.777  1.00  0.00    -0.345 C  
BRANCH  18  19
HETATM   19  N   UNL     1     -11.739  12.269  69.526  1.00  0.00    -0.321 N  
HETATM   20  C   UNL     1     -12.071  13.274  70.457  1.00  0.00    -0.314 C  
HETATM   21  O   UNL     1     -12.468  13.128  71.600  1.00  0.00    -0.186 OA 
HETATM   22  N   UNL     1     -11.868  14.501  69.805  1.00  0.00    -0.296 NA 
HETATM   23  C   UNL     1     -11.446  14.254  68.502  1.00  0.00    -0.298 A  
HETATM   24  C   UNL     1     -11.136  15.147  67.504  1.00  0.00    -0.319 A  
HETATM   25  C   UNL     1     -10.747  14.605  66.274  1.00  0.00    -0.316 A  
HETATM   26  C   UNL     1     -10.686  13.209  66.079  1.00  0.00    -0.288 A  
HETATM   27  C   UNL     1     -11.005  12.320  67.111  1.00  0.00    -0.308 A  
HETATM   28  C   UNL     1     -11.377  12.872  68.317  1.00  0.00    -0.291 A  
ENDBRANCH  18  19
ENDBRANCH  17  18
ENDBRANCH  14  17
ENDBRANCH   7  11
TORSDOF 4
ENDMDL
MODEL      273
REMARK 921   NORMALIZED FREE ENERGY PREDICTED BY IDOCK:   -4.16 KCAL/MOL
REMARK 922        TOTAL FREE ENERGY PREDICTED BY IDOCK:   -5.76 KCAL/MOL
REMARK 923 INTER-LIGAND FREE ENERGY PREDICTED BY IDOCK:   -5.18 KCAL/MOL
REMARK 924 INTRA-LIGAND FREE ENERGY PREDICTED BY IDOCK:   -0.58 KCAL/MOL
REMARK 927      BINDING AFFINITY PREDICTED BY RF-SCORE:    0.00 PKD
ROOT
HETATM    1  F   UNL     1     -12.399  14.287  69.735  1.00  0.00    -0.337 F  
HETATM    2  C   UNL     1     -11.713  14.638  68.611  1.00  0.00    -0.329 C  
HETATM    3  C   UNL     1     -10.732  13.593  68.148  1.00  0.00    -0.260 A  
HETATM    4  F   UNL     1     -12.657  14.925  67.674  1.00  0.00    -0.054 F  
HETATM    5  F   UNL     1     -11.107  15.823  68.906  1.00  0.00    -0.232 F  
HETATM    6  C   UNL     1     -10.578  12.397  68.871  1.00  0.00    -0.160 A  
HETATM    7  C   UNL     1      -9.646  11.406  68.520  1.00  0.00    -0.189 A  
HETATM    8  C   UNL     1      -9.960  13.793  67.002  1.00  0.00    -0.251 A  
HETATM    9  C   UNL     1      -8.895  11.648  67.359  1.00  0.00    -0.160 A  
HETATM   10  C   UNL     1      -9.051  12.819  66.605  1.00  0.00    -0.188 A  
ENDROOT
BRANCH   7  11
HETATM   11  N   UNL     1      -9.551  10.228  69.266  1.00  0.00    -0.216 NA 
HETATM   12  C   UNL     1      -8.264   8.738  70.789  1.00  0.00    -0.156 C  
HETATM   13  C   UNL     1      -8.194   9.741  69.613  1.00  0.00    -0.157 C  
HETATM   14  N   UNL     1      -9.174   7.586  70.582  1.00  0.00    -0.159 NA 
HETATM   15  C   UNL     1     -10.506   8.143  70.235  1.00  0.00    -0.219 C  
HETATM   16  C   UNL     1     -10.523   9.139  69.046  1.00  0.00    -0.221 C  
BRANCH  14  17
HETATM   17  C   UNL     1      -8.701   6.668  69.527  1.00  0.00    -0.135 C  
BRANCH  17  18
HETATM   18  C   UNL     1      -9.631   5.466  69.283  1.00  0.00    -0.145 C  
BRANCH  18  19
HETATM   19  N   UNL     1      -9.421   4.421  70.251  1.00  0.00    -0.153 N  
HETATM   20  C   UNL     1      -8.586   3.301  70.061  1.00  0.00    -0.063 C  
HETATM   21  O   UNL     1      -7.914   3.032  69.081  1.00  0.00    -0.049 OA 
HETATM   22  N   UNL     1      -8.687   2.529  71.229  1.00  0.00    -0.063 NA 
HETATM   23  C   UNL     1      -9.577   3.147  72.103  1.00  0.00    -0.140 A  
HETATM   24  C   UNL     1      -9.985   2.750  73.354  1.00  0.00    -0.173 A  
HETATM   25  C   UNL     1     -10.910   3.574  74.004  1.00  0.00    -0.269 A  
HETATM   26  C   UNL     1     -11.397   4.749  73.392  1.00  0.00    -0.397 A  
HETATM   27  C   UNL     1     -10.965   5.133  72.118  1.00  0.00    -0.174 A  
HETATM   28  C   UNL     1     -10.047   4.314  71.498  1.00  0.00    -0.135 A  
ENDBRANCH  18  19
ENDBRANCH  17  18
ENDBRANCH  14  17
ENDBRANCH   7  11
TORSDOF 4
ENDMDL
MODEL      274
REMARK 921   NORMALIZED FREE ENERGY PREDICTED BY IDOCK:   -4.14 KCAL/MOL
REMARK 922        TOTAL FREE ENERGY PREDICTED BY IDOCK:   -5.73 KCAL/MOL
REMARK 923 INTER-LIGAND FREE ENERGY PREDICTED BY IDOCK:   -5.38 KCAL/MOL
REMARK 924 INTRA-LIGAND FREE ENERGY PREDICTED BY IDOCK:   -0.35 KCAL/MOL
REMARK 927      BINDING AFFINITY PREDICTED BY RF-SCORE:    0.00 PKD
ROOT
HETATM    1  F   UNL     1     -11.800  16.818  68.272  1.00  0.00    -0.106 F  
HETATM    2  C   UNL     1     -10.546  17.137  67.844  1.00  0.00    -0.376 C  
HETATM    3  C   UNL     1      -9.621  15.953  67.738  1.00  0.00    -0.218 A  
HETATM    4  F   UNL     1     -10.712  17.783  66.658  1.00  0.00    -0.328 F  
HETATM    5  F   UNL     1     -10.088  18.075  68.720  1.00  0.00    -0.330 F  
HETATM    6  C   UNL     1     -10.074  14.668  68.084  1.00  0.00    -0.224 A  
HETATM    7  C   UNL     1      -9.248  13.532  68.054  1.00  0.00    -0.209 A  
HETATM    8  C   UNL     1      -8.305  16.109  67.300  1.00  0.00    -0.204 A  
HETATM    9  C   UNL     1      -7.934  13.736  67.604  1.00  0.00    -0.179 A  
HETATM   10  C   UNL     1      -7.467  15.002  67.225  1.00  0.00    -0.215 A  
ENDROOT
BRANCH   7  11
HETATM   11  N   UNL     1      -9.759  12.276  68.392  1.00  0.00    -0.211 NA 
HETATM   12  C   UNL     1      -9.455  10.028  69.417  1.00  0.00    -0.223 C  
HETATM   13  C   UNL     1      -8.789  11.178  68.625  1.00  0.00    -0.155 C  
HETATM   14  N   UNL     1     -10.696   9.484  68.817  1.00  0.00    -0.214 NA 
HETATM   15  C   UNL     1     -11.616  10.631  68.606  1.00  0.00    -0.227 C  
HETATM   16  C   UNL     1     -11.029  11.816  67.795  1.00  0.00    -0.225 C  
BRANCH  14  17
HETATM   17  C   UNL     1     -10.450   8.773  67.546  1.00  0.00    -0.271 C  
BRANCH  17  18
HETATM   18  C   UNL     1     -10.161   7.271  67.717  1.00  0.00    -0.195 C  
BRANCH  18  19
HETATM   19  N   UNL     1      -9.248   6.783  66.716  1.00  0.00    -0.145 N  
HETATM   20  C   UNL     1      -8.035   7.406  66.361  1.00  0.00    -0.108 C  
HETATM   21  O   UNL     1      -7.558   8.428  66.825  1.00  0.00    -0.088 OA 
HETATM   22  N   UNL     1      -7.472   6.624  65.340  1.00  0.00    -0.076 NA 
HETATM   23  C   UNL     1      -8.328   5.562  65.061  1.00  0.00    -0.146 A  
HETATM   24  C   UNL     1      -8.191   4.553  64.138  1.00  0.00    -0.106 A  
HETATM   25  C   UNL     1      -9.229   3.618  64.071  1.00  0.00    -0.130 A  
HETATM   26  C   UNL     1     -10.359   3.721  64.910  1.00  0.00    -0.089 A  
HETATM   27  C   UNL     1     -10.475   4.756  65.843  1.00  0.00    -0.313 A  
HETATM   28  C   UNL     1      -9.439   5.662  65.901  1.00  0.00    -0.067 A  
ENDBRANCH  18  19
ENDBRANCH  17  18
ENDBRANCH  14  17
ENDBRANCH   7  11
TORSDOF 4
ENDMDL
MODEL      275
REMARK 921   NORMALIZED FREE ENERGY PREDICTED BY IDOCK:   -4.13 KCAL/MOL
REMARK 922        TOTAL FREE ENERGY PREDICTED BY IDOCK:   -5.71 KCAL/MOL
REMARK 923 INTER-LIGAND FREE ENERGY PREDICTED BY IDOCK:   -5.05 KCAL/MOL
REMARK 924 INTRA-LIGAND FREE ENERGY PREDICTED BY IDOCK:   -0.66 KCAL/MOL
REMARK 927      BINDING AFFINITY PREDICTED BY RF-SCORE:    0.00 PKD
ROOT
HETATM    1  F   UNL     1     -11.633  18.049  67.564  1.00  0.00     0.107 F  
HETATM    2  C   UNL     1     -10.366  18.380  67.187  1.00  0.00    -0.394 C  
HETATM    3  C   UNL     1      -9.416  17.212  67.161  1.00  0.00    -0.249 A  
HETATM    4  F   UNL     1     -10.487  18.988  65.975  1.00  0.00    -0.432 F  
HETATM    5  F   UNL     1      -9.968  19.353  68.054  1.00  0.00    -0.363 F  
HETATM    6  C   UNL     1      -9.861  15.929  67.524  1.00  0.00    -0.230 A  
HETATM    7  C   UNL     1      -9.014  14.809  67.568  1.00  0.00    -0.187 A  
HETATM    8  C   UNL     1      -8.083  17.381  66.781  1.00  0.00    -0.282 A  
HETATM    9  C   UNL     1      -7.684  15.026  67.175  1.00  0.00    -0.202 A  
HETATM   10  C   UNL     1      -7.223  16.289  66.780  1.00  0.00    -0.221 A  
ENDROOT
BRANCH   7  11
HETATM   11  N   UNL     1      -9.517  13.554  67.919  1.00  0.00    -0.207 NA 
HETATM   12  C   UNL     1      -9.167  11.274  68.854  1.00  0.00    -0.064 C  
HETATM   13  C   UNL     1      -8.554  12.432  68.033  1.00  0.00    -0.180 C  
HETATM   14  N   UNL     1     -10.469  10.769  68.358  1.00  0.00    -0.173 NA 
HETATM   15  C   UNL     1     -11.380  11.938  68.264  1.00  0.00    -0.277 C  
HETATM   16  C   UNL     1     -10.847  13.134  67.432  1.00  0.00    -0.255 C  
BRANCH  14  17
HETATM   17  C   UNL     1     -10.357  10.089  67.052  1.00  0.00    -0.243 C  
BRANCH  17  18
HETATM   18  C   UNL     1     -10.674   8.583  67.103  1.00  0.00    -0.139 C  
BRANCH  18  19
HETATM   19  N   UNL     1      -9.902   7.908  68.114  1.00  0.00    -0.163 N  
HETATM   20  C   UNL     1     -10.400   7.495  69.366  1.00  0.00    -0.213 C  
HETATM   21  O   UNL     1     -11.534   7.626  69.796  1.00  0.00    -0.033 OA 
HETATM   22  N   UNL     1      -9.323   6.905  70.047  1.00  0.00    -0.158 NA 
HETATM   23  C   UNL     1      -8.189   6.975  69.242  1.00  0.00    -0.125 A  
HETATM   24  C   UNL     1      -6.913   6.534  69.498  1.00  0.00    -0.067 A  
HETATM   25  C   UNL     1      -5.960   6.753  68.497  1.00  0.00    -0.025 A  
HETATM   26  C   UNL     1      -6.305   7.402  67.292  1.00  0.00    -0.055 A  
HETATM   27  C   UNL     1      -7.611   7.841  67.055  1.00  0.00    -0.100 A  
HETATM   28  C   UNL     1      -8.537   7.609  68.048  1.00  0.00    -0.123 A  
ENDBRANCH  18  19
ENDBRANCH  17  18
ENDBRANCH  14  17
ENDBRANCH   7  11
TORSDOF 4
ENDMDL
MODEL      276
REMARK 921   NORMALIZED FREE ENERGY PREDICTED BY IDOCK:   -4.13 KCAL/MOL
REMARK 922        TOTAL FREE ENERGY PREDICTED BY IDOCK:   -5.71 KCAL/MOL
REMARK 923 INTER-LIGAND FREE ENERGY PREDICTED BY IDOCK:   -5.14 KCAL/MOL
REMARK 924 INTRA-LIGAND FREE ENERGY PREDICTED BY IDOCK:   -0.57 KCAL/MOL
REMARK 927      BINDING AFFINITY PREDICTED BY RF-SCORE:    0.00 PKD
ROOT
HETATM    1  F   UNL     1      -8.201  11.411  66.785  1.00  0.00    -0.137 F  
HETATM    2  C   UNL     1      -9.021  12.495  66.889  1.00  0.00    -0.212 C  
HETATM    3  C   UNL     1     -10.005  12.405  68.026  1.00  0.00    -0.207 A  
HETATM    4  F   UNL     1      -8.196  13.573  66.991  1.00  0.00    -0.180 F  
HETATM    5  F   UNL     1      -9.636  12.608  65.678  1.00  0.00    -0.248 F  
HETATM    6  C   UNL     1     -10.032  11.266  68.850  1.00  0.00    -0.169 A  
HETATM    7  C   UNL     1     -10.957  11.099  69.894  1.00  0.00    -0.092 A  
HETATM    8  C   UNL     1     -10.905  13.441  68.278  1.00  0.00    -0.275 A  
HETATM    9  C   UNL     1     -11.840  12.168  70.113  1.00  0.00    -0.368 A  
HETATM   10  C   UNL     1     -11.813  13.326  69.323  1.00  0.00    -0.383 A  
ENDROOT
BRANCH   7  11
HETATM   11  N   UNL     1     -10.924   9.953  70.693  1.00  0.00    -0.318 NA 
HETATM   12  C   UNL     1      -9.637   8.285  72.019  1.00  0.00    -0.248 C  
HETATM   13  C   UNL     1      -9.642   9.212  70.781  1.00  0.00    -0.275 C  
HETATM   14  N   UNL     1     -10.773   7.337  72.101  1.00  0.00    -0.214 NA 
HETATM   15  C   UNL     1     -12.018   8.140  72.003  1.00  0.00    -0.340 C  
HETATM   16  C   UNL     1     -12.110   9.078  70.770  1.00  0.00    -0.125 C  
BRANCH  14  17
HETATM   17  C   UNL     1     -10.733   6.305  71.045  1.00  0.00    -0.259 C  
BRANCH  17  18
HETATM   18  C   UNL     1      -9.310   5.862  70.659  1.00  0.00    -0.160 C  
BRANCH  18  19
HETATM   19  N   UNL     1      -9.067   4.484  70.999  1.00  0.00    -0.127 N  
HETATM   20  C   UNL     1      -9.270   3.392  70.132  1.00  0.00    -0.155 C  
HETATM   21  O   UNL     1      -9.666   3.421  68.980  1.00  0.00    -0.114 OA 
HETATM   22  N   UNL     1      -8.938   2.240  70.862  1.00  0.00    -0.071 NA 
HETATM   23  C   UNL     1      -8.563   2.613  72.149  1.00  0.00    -0.066 A  
HETATM   24  C   UNL     1      -8.168   1.825  73.203  1.00  0.00    -0.056 A  
HETATM   25  C   UNL     1      -7.859   2.483  74.399  1.00  0.00    -0.047 A  
HETATM   26  C   UNL     1      -7.960   3.888  74.506  1.00  0.00    -0.085 A  
HETATM   27  C   UNL     1      -8.364   4.668  73.418  1.00  0.00    -0.103 A  
HETATM   28  C   UNL     1      -8.655   4.003  72.247  1.00  0.00    -0.105 A  
ENDBRANCH  18  19
ENDBRANCH  17  18
ENDBRANCH  14  17
ENDBRANCH   7  11
TORSDOF 4
ENDMDL
MODEL      277
REMARK 921   NORMALIZED FREE ENERGY PREDICTED BY IDOCK:   -4.12 KCAL/MOL
REMARK 922        TOTAL FREE ENERGY PREDICTED BY IDOCK:   -5.71 KCAL/MOL
REMARK 923 INTER-LIGAND FREE ENERGY PREDICTED BY IDOCK:   -5.64 KCAL/MOL
REMARK 924 INTRA-LIGAND FREE ENERGY PREDICTED BY IDOCK:   -0.07 KCAL/MOL
REMARK 927      BINDING AFFINITY PREDICTED BY RF-SCORE:    0.00 PKD
ROOT
HETATM    1  F   UNL     1      -8.762   4.510  64.524  1.00  0.00    -0.123 F  
HETATM    2  C   UNL     1      -8.872   3.444  65.366  1.00  0.00    -0.132 C  
HETATM    3  C   UNL     1      -9.075   3.829  66.808  1.00  0.00    -0.171 A  
HETATM    4  F   UNL     1      -9.891   2.688  64.874  1.00  0.00    -0.125 F  
HETATM    5  F   UNL     1      -7.739   2.711  65.180  1.00  0.00    -0.072 F  
HETATM    6  C   UNL     1      -9.117   5.184  67.180  1.00  0.00    -0.112 A  
HETATM    7  C   UNL     1      -9.254   5.608  68.513  1.00  0.00    -0.121 A  
HETATM    8  C   UNL     1      -9.222   2.853  67.796  1.00  0.00    -0.250 A  
HETATM    9  C   UNL     1      -9.401   4.592  69.471  1.00  0.00    -0.208 A  
HETATM   10  C   UNL     1      -9.393   3.235  69.121  1.00  0.00    -0.233 A  
ENDROOT
BRANCH   7  11
HETATM   11  N   UNL     1      -9.308   6.969  68.821  1.00  0.00    -0.135 NA 
HETATM   12  C   UNL     1     -10.626   9.051  69.169  1.00  0.00    -0.203 C  
HETATM   13  C   UNL     1     -10.501   7.729  68.375  1.00  0.00    -0.166 C  
HETATM   14  N   UNL     1      -9.430   9.926  69.131  1.00  0.00    -0.184 NA 
HETATM   15  C   UNL     1      -8.278   9.105  69.581  1.00  0.00    -0.116 C  
HETATM   16  C   UNL     1      -8.068   7.772  68.815  1.00  0.00    -0.126 C  
BRANCH  14  17
HETATM   17  C   UNL     1      -9.177  10.488  67.788  1.00  0.00    -0.145 C  
BRANCH  17  18
HETATM   18  C   UNL     1      -8.824  11.986  67.796  1.00  0.00    -0.165 C  
BRANCH  18  19
HETATM   19  N   UNL     1     -10.001  12.814  67.833  1.00  0.00    -0.222 N  
HETATM   20  C   UNL     1     -11.252  12.461  67.289  1.00  0.00    -0.303 C  
HETATM   21  O   UNL     1     -11.550  11.427  66.717  1.00  0.00    -0.465 OA 
HETATM   22  N   UNL     1     -12.107  13.551  67.520  1.00  0.00    -0.338 NA 
HETATM   23  C   UNL     1     -11.392  14.555  68.168  1.00  0.00    -0.298 A  
HETATM   24  C   UNL     1     -11.816  15.794  68.583  1.00  0.00    -0.287 A  
HETATM   25  C   UNL     1     -10.862  16.609  69.204  1.00  0.00    -0.315 A  
HETATM   26  C   UNL     1      -9.533  16.169  69.384  1.00  0.00    -0.198 A  
HETATM   27  C   UNL     1      -9.127  14.901  68.954  1.00  0.00    -0.191 A  
HETATM   28  C   UNL     1     -10.082  14.111  68.353  1.00  0.00    -0.238 A  
ENDBRANCH  18  19
ENDBRANCH  17  18
ENDBRANCH  14  17
ENDBRANCH   7  11
TORSDOF 4
ENDMDL
MODEL      278
REMARK 921   NORMALIZED FREE ENERGY PREDICTED BY IDOCK:   -4.05 KCAL/MOL
REMARK 922        TOTAL FREE ENERGY PREDICTED BY IDOCK:   -5.62 KCAL/MOL
REMARK 923 INTER-LIGAND FREE ENERGY PREDICTED BY IDOCK:   -5.44 KCAL/MOL
REMARK 924 INTRA-LIGAND FREE ENERGY PREDICTED BY IDOCK:   -0.18 KCAL/MOL
REMARK 927      BINDING AFFINITY PREDICTED BY RF-SCORE:    0.00 PKD
ROOT
HETATM    1  F   UNL     1     -13.156  12.234  64.729  1.00  0.00    -0.520 F  
HETATM    2  C   UNL     1     -12.476  13.399  64.927  1.00  0.00    -0.396 C  
HETATM    3  C   UNL     1     -11.351  13.284  65.922  1.00  0.00    -0.333 A  
HETATM    4  F   UNL     1     -12.050  13.793  63.695  1.00  0.00    -0.490 F  
HETATM    5  F   UNL     1     -13.414  14.311  65.308  1.00  0.00    -0.357 F  
HETATM    6  C   UNL     1     -11.097  12.059  66.564  1.00  0.00    -0.362 A  
HETATM    7  C   UNL     1     -10.096  11.898  67.537  1.00  0.00    -0.193 A  
HETATM    8  C   UNL     1     -10.547  14.384  66.226  1.00  0.00    -0.292 A  
HETATM    9  C   UNL     1      -9.312  13.030  67.808  1.00  0.00    -0.199 A  
HETATM   10  C   UNL     1      -9.526  14.254  67.159  1.00  0.00    -0.229 A  
ENDROOT
BRANCH   7  11
HETATM   11  N   UNL     1      -9.878  10.651  68.129  1.00  0.00    -0.152 NA 
HETATM   12  C   UNL     1      -8.556   9.186  69.645  1.00  0.00    -0.143 C  
HETATM   13  C   UNL     1      -8.516  10.362  68.641  1.00  0.00    -0.129 C  
HETATM   14  N   UNL     1      -9.177   7.940  69.135  1.00  0.00    -0.145 NA 
HETATM   15  C   UNL     1     -10.528   8.302  68.636  1.00  0.00    -0.168 C  
HETATM   16  C   UNL     1     -10.570   9.458  67.602  1.00  0.00    -0.271 C  
BRANCH  14  17
HETATM   17  C   UNL     1      -8.380   7.302  68.067  1.00  0.00    -0.123 C  
BRANCH  17  18
HETATM   18  C   UNL     1      -8.135   5.798  68.285  1.00  0.00    -0.108 C  
BRANCH  18  19
HETATM   19  N   UNL     1      -8.002   5.474  69.682  1.00  0.00    -0.092 N  
HETATM   20  C   UNL     1      -8.847   4.596  70.390  1.00  0.00    -0.098 C  
HETATM   21  O   UNL     1      -9.801   3.972  69.958  1.00  0.00    -0.210 OA 
HETATM   22  N   UNL     1      -8.384   4.583  71.715  1.00  0.00    -0.105 NA 
HETATM   23  C   UNL     1      -7.299   5.448  71.822  1.00  0.00    -0.090 A  
HETATM   24  C   UNL     1      -6.539   5.757  72.924  1.00  0.00    -0.072 A  
HETATM   25  C   UNL     1      -5.506   6.682  72.736  1.00  0.00    -0.038 A  
HETATM   26  C   UNL     1      -5.272   7.267  71.473  1.00  0.00    -0.028 A  
HETATM   27  C   UNL     1      -6.059   6.935  70.366  1.00  0.00    -0.024 A  
HETATM   28  C   UNL     1      -7.065   6.016  70.569  1.00  0.00    -0.071 A  
ENDBRANCH  18  19
ENDBRANCH  17  18
ENDBRANCH  14  17
ENDBRANCH   7  11
TORSDOF 4
ENDMDL
MODEL      279
REMARK 921   NORMALIZED FREE ENERGY PREDICTED BY IDOCK:   -4.05 KCAL/MOL
REMARK 922        TOTAL FREE ENERGY PREDICTED BY IDOCK:   -5.61 KCAL/MOL
REMARK 923 INTER-LIGAND FREE ENERGY PREDICTED BY IDOCK:   -5.21 KCAL/MOL
REMARK 924 INTRA-LIGAND FREE ENERGY PREDICTED BY IDOCK:   -0.40 KCAL/MOL
REMARK 927      BINDING AFFINITY PREDICTED BY RF-SCORE:    0.00 PKD
ROOT
HETATM    1  F   UNL     1      -6.819   9.894  67.742  1.00  0.00    -0.075 F  
HETATM    2  C   UNL     1      -7.856  10.692  67.362  1.00  0.00    -0.110 C  
HETATM    3  C   UNL     1      -9.016  10.677  68.324  1.00  0.00    -0.143 A  
HETATM    4  F   UNL     1      -7.327  11.934  67.196  1.00  0.00    -0.117 F  
HETATM    5  F   UNL     1      -8.210  10.266  66.117  1.00  0.00    -0.122 F  
HETATM    6  C   UNL     1      -8.970   9.873  69.476  1.00  0.00    -0.224 A  
HETATM    7  C   UNL     1     -10.037   9.777  70.385  1.00  0.00    -0.252 A  
HETATM    8  C   UNL     1     -10.152  11.453  68.088  1.00  0.00    -0.200 A  
HETATM    9  C   UNL     1     -11.156  10.578  70.109  1.00  0.00    -0.369 A  
HETATM   10  C   UNL     1     -11.215  11.409  68.983  1.00  0.00    -0.319 A  
ENDROOT
BRANCH   7  11
HETATM   11  N   UNL     1      -9.926   8.976  71.525  1.00  0.00    -0.319 NA 
HETATM   12  C   UNL     1      -8.569   8.084  73.411  1.00  0.00    -0.246 C  
HETATM   13  C   UNL     1      -8.567   8.545  71.934  1.00  0.00    -0.188 C  
HETATM   14  N   UNL     1      -9.552   7.025  73.740  1.00  0.00    -0.219 NA 
HETATM   15  C   UNL     1     -10.883   7.517  73.301  1.00  0.00    -0.355 C  
HETATM   16  C   UNL     1     -10.970   7.974  71.821  1.00  0.00    -0.251 C  
BRANCH  14  17
HETATM   17  C   UNL     1      -9.235   5.733  73.098  1.00  0.00    -0.136 C  
BRANCH  17  18
HETATM   18  C   UNL     1     -10.450   5.044  72.451  1.00  0.00    -0.217 C  
BRANCH  18  19
HETATM   19  N   UNL     1     -10.059   3.921  71.638  1.00  0.00    -0.145 N  
HETATM   20  C   UNL     1      -9.689   2.655  72.136  1.00  0.00    -0.146 C  
HETATM   21  O   UNL     1      -9.644   2.298  73.301  1.00  0.00    -0.082 OA 
HETATM   22  N   UNL     1      -9.362   1.870  71.020  1.00  0.00    -0.113 NA 
HETATM   23  C   UNL     1      -9.505   2.640  69.869  1.00  0.00    -0.081 A  
HETATM   24  C   UNL     1      -9.289   2.292  68.558  1.00  0.00    -0.250 A  
HETATM   25  C   UNL     1      -9.504   3.289  67.599  1.00  0.00    -0.214 A  
HETATM   26  C   UNL     1      -9.916   4.586  67.976  1.00  0.00    -0.102 A  
HETATM   27  C   UNL     1     -10.131   4.915  69.318  1.00  0.00    -0.248 A  
HETATM   28  C   UNL     1      -9.923   3.918  70.246  1.00  0.00     0.031 A  
ENDBRANCH  18  19
ENDBRANCH  17  18
ENDBRANCH  14  17
ENDBRANCH   7  11
TORSDOF 4
ENDMDL
MODEL      280
REMARK 921   NORMALIZED FREE ENERGY PREDICTED BY IDOCK:   -4.03 KCAL/MOL
REMARK 922        TOTAL FREE ENERGY PREDICTED BY IDOCK:   -5.59 KCAL/MOL
REMARK 923 INTER-LIGAND FREE ENERGY PREDICTED BY IDOCK:   -6.97 KCAL/MOL
REMARK 924 INTRA-LIGAND FREE ENERGY PREDICTED BY IDOCK:    1.37 KCAL/MOL
REMARK 927      BINDING AFFINITY PREDICTED BY RF-SCORE:    0.00 PKD
ROOT
HETATM    1  F   UNL     1      -8.822  12.114  66.259  1.00  0.00    -0.198 F  
HETATM    2  C   UNL     1     -10.025  12.031  65.623  1.00  0.00    -0.245 C  
HETATM    3  C   UNL     1     -10.601  13.369  65.239  1.00  0.00    -0.333 A  
HETATM    4  F   UNL     1      -9.821  11.218  64.551  1.00  0.00    -0.242 F  
HETATM    5  F   UNL     1     -10.840  11.339  66.468  1.00  0.00    -0.288 F  
HETATM    6  C   UNL     1      -9.915  14.554  65.558  1.00  0.00    -0.373 A  
HETATM    7  C   UNL     1     -10.422  15.833  65.272  1.00  0.00    -0.401 A  
HETATM    8  C   UNL     1     -11.821  13.457  64.566  1.00  0.00    -0.440 A  
HETATM    9  C   UNL     1     -11.649  15.871  64.592  1.00  0.00    -0.200 A  
HETATM   10  C   UNL     1     -12.338  14.704  64.237  1.00  0.00    -0.375 A  
ENDROOT
BRANCH   7  11
HETATM   11  N   UNL     1      -9.685  16.975  65.597  1.00  0.00    -0.548 NA 
HETATM   12  C   UNL     1      -7.492  18.109  65.915  1.00  0.00    -0.170 C  
HETATM   13  C   UNL     1      -8.284  16.786  66.046  1.00  0.00    -0.135 C  
HETATM   14  N   UNL     1      -8.091  19.273  66.611  1.00  0.00    -0.275 NA 
HETATM   15  C   UNL     1      -9.487  19.401  66.121  1.00  0.00    -0.311 C  
HETATM   16  C   UNL     1     -10.356  18.121  66.242  1.00  0.00    -0.397 C  
BRANCH  14  17
HETATM   17  C   UNL     1      -8.065  19.135  68.081  1.00  0.00    -0.316 C  
BRANCH  17  18
HETATM   18  C   UNL     1      -9.330  18.486  68.669  1.00  0.00    -0.326 C  
BRANCH  18  19
HETATM   19  N   UNL     1      -9.100  17.117  69.054  1.00  0.00    -0.185 N  
HETATM   20  C   UNL     1     -10.112  16.162  69.277  1.00  0.00    -0.260 C  
HETATM   21  O   UNL     1     -11.318  16.318  69.180  1.00  0.00    -0.325 OA 
HETATM   22  N   UNL     1      -9.462  14.976  69.653  1.00  0.00    -0.085 NA 
HETATM   23  C   UNL     1      -8.089  15.204  69.682  1.00  0.00    -0.096 A  
HETATM   24  C   UNL     1      -7.070  14.339  70.000  1.00  0.00     0.171 A  
HETATM   25  C   UNL     1      -5.770  14.855  69.955  1.00  0.00    -0.127 A  
HETATM   26  C   UNL     1      -5.532  16.202  69.606  1.00  0.00    -0.133 A  
HETATM   27  C   UNL     1      -6.587  17.062  69.285  1.00  0.00    -0.233 A  
HETATM   28  C   UNL     1      -7.858  16.534  69.326  1.00  0.00    -0.121 A  
ENDBRANCH  18  19
ENDBRANCH  17  18
ENDBRANCH  14  17
ENDBRANCH   7  11
TORSDOF 4
ENDMDL
MODEL      281
REMARK 921   NORMALIZED FREE ENERGY PREDICTED BY IDOCK:   -4.02 KCAL/MOL
REMARK 922        TOTAL FREE ENERGY PREDICTED BY IDOCK:   -5.58 KCAL/MOL
REMARK 923 INTER-LIGAND FREE ENERGY PREDICTED BY IDOCK:   -5.55 KCAL/MOL
REMARK 924 INTRA-LIGAND FREE ENERGY PREDICTED BY IDOCK:   -0.03 KCAL/MOL
REMARK 927      BINDING AFFINITY PREDICTED BY RF-SCORE:    0.00 PKD
ROOT
HETATM    1  F   UNL     1     -12.650  12.308  64.967  1.00  0.00    -0.502 F  
HETATM    2  C   UNL     1     -12.359  13.639  64.955  1.00  0.00    -0.406 C  
HETATM    3  C   UNL     1     -11.046  13.980  65.610  1.00  0.00    -0.302 A  
HETATM    4  F   UNL     1     -12.409  14.017  63.648  1.00  0.00    -0.516 F  
HETATM    5  F   UNL     1     -13.415  14.251  65.562  1.00  0.00    -0.467 F  
HETATM    6  C   UNL     1     -10.254  12.967  66.178  1.00  0.00    -0.288 A  
HETATM    7  C   UNL     1      -9.045  13.224  66.846  1.00  0.00    -0.232 A  
HETATM    8  C   UNL     1     -10.595  15.300  65.667  1.00  0.00    -0.377 A  
HETATM    9  C   UNL     1      -8.631  14.565  66.876  1.00  0.00    -0.207 A  
HETATM   10  C   UNL     1      -9.387  15.589  66.290  1.00  0.00    -0.355 A  
ENDROOT
BRANCH   7  11
HETATM   11  N   UNL     1      -8.292  12.174  67.376  1.00  0.00    -0.165 NA 
HETATM   12  C   UNL     1      -7.573   9.792  67.317  1.00  0.00    -0.088 C  
HETATM   13  C   UNL     1      -8.728  10.790  67.068  1.00  0.00    -0.136 C  
HETATM   14  N   UNL     1      -6.978   9.841  68.674  1.00  0.00    -0.062 NA 
HETATM   15  C   UNL     1      -6.570  11.248  68.918  1.00  0.00    -0.068 C  
HETATM   16  C   UNL     1      -7.682  12.310  68.714  1.00  0.00    -0.016 C  
BRANCH  14  17
HETATM   17  C   UNL     1      -7.910   9.379  69.723  1.00  0.00    -0.115 C  
BRANCH  17  18
HETATM   18  C   UNL     1      -9.080   8.533  69.189  1.00  0.00    -0.146 C  
BRANCH  18  19
HETATM   19  N   UNL     1      -8.735   7.137  69.102  1.00  0.00    -0.133 N  
HETATM   20  C   UNL     1      -8.490   6.441  67.902  1.00  0.00    -0.118 C  
HETATM   21  O   UNL     1      -8.517   6.883  66.766  1.00  0.00    -0.113 OA 
HETATM   22  N   UNL     1      -8.216   5.113  68.263  1.00  0.00    -0.093 NA 
HETATM   23  C   UNL     1      -8.313   4.992  69.647  1.00  0.00    -0.088 A  
HETATM   24  C   UNL     1      -8.135   3.883  70.437  1.00  0.00    -0.059 A  
HETATM   25  C   UNL     1      -8.312   4.058  71.814  1.00  0.00    -0.098 A  
HETATM   26  C   UNL     1      -8.662   5.316  72.351  1.00  0.00    -0.125 A  
HETATM   27  C   UNL     1      -8.836   6.431  71.524  1.00  0.00    -0.137 A  
HETATM   28  C   UNL     1      -8.649   6.241  70.173  1.00  0.00    -0.134 A  
ENDBRANCH  18  19
ENDBRANCH  17  18
ENDBRANCH  14  17
ENDBRANCH   7  11
TORSDOF 4
ENDMDL
MODEL      282
REMARK 921   NORMALIZED FREE ENERGY PREDICTED BY IDOCK:   -4.01 KCAL/MOL
REMARK 922        TOTAL FREE ENERGY PREDICTED BY IDOCK:   -5.57 KCAL/MOL
REMARK 923 INTER-LIGAND FREE ENERGY PREDICTED BY IDOCK:   -5.81 KCAL/MOL
REMARK 924 INTRA-LIGAND FREE ENERGY PREDICTED BY IDOCK:    0.24 KCAL/MOL
REMARK 927      BINDING AFFINITY PREDICTED BY RF-SCORE:    0.00 PKD
ROOT
HETATM    1  F   UNL     1      -9.280   4.892  64.547  1.00  0.00    -0.158 F  
HETATM    2  C   UNL     1     -10.003   4.488  65.630  1.00  0.00    -0.231 C  
HETATM    3  C   UNL     1     -10.224   5.572  66.652  1.00  0.00    -0.279 A  
HETATM    4  F   UNL     1     -11.167   3.988  65.133  1.00  0.00    -0.163 F  
HETATM    5  F   UNL     1      -9.328   3.421  66.144  1.00  0.00    -0.149 F  
HETATM    6  C   UNL     1      -9.687   6.856  66.449  1.00  0.00    -0.127 A  
HETATM    7  C   UNL     1      -9.814   7.895  67.385  1.00  0.00    -0.181 A  
HETATM    8  C   UNL     1     -10.958   5.325  67.812  1.00  0.00     0.408 A  
HETATM    9  C   UNL     1     -10.563   7.601  68.535  1.00  0.00    -0.162 A  
HETATM   10  C   UNL     1     -11.134   6.338  68.746  1.00  0.00    -0.424 A  
ENDROOT
BRANCH   7  11
HETATM   11  N   UNL     1      -9.274   9.157  67.120  1.00  0.00    -0.132 NA 
HETATM   12  C   UNL     1      -8.219  11.263  67.924  1.00  0.00    -0.123 C  
HETATM   13  C   UNL     1      -9.231  10.134  68.234  1.00  0.00    -0.130 C  
HETATM   14  N   UNL     1      -8.440  11.972  66.641  1.00  0.00    -0.157 NA 
HETATM   15  C   UNL     1      -8.478  10.939  65.575  1.00  0.00    -0.115 C  
HETATM   16  C   UNL     1      -9.489   9.784  65.801  1.00  0.00    -0.240 C  
BRANCH  14  17
HETATM   17  C   UNL     1      -9.681  12.771  66.637  1.00  0.00    -0.252 C  
BRANCH  17  18
HETATM   18  C   UNL     1      -9.480  14.235  66.205  1.00  0.00    -0.252 C  
BRANCH  18  19
HETATM   19  N   UNL     1     -10.005  15.158  67.178  1.00  0.00    -0.235 N  
HETATM   20  C   UNL     1      -9.878  16.560  67.110  1.00  0.00    -0.255 C  
HETATM   21  O   UNL     1      -9.327  17.216  66.243  1.00  0.00    -0.296 OA 
HETATM   22  N   UNL     1     -10.504  17.071  68.258  1.00  0.00    -0.344 NA 
HETATM   23  C   UNL     1     -10.982  16.009  69.021  1.00  0.00    -0.296 A  
HETATM   24  C   UNL     1     -11.651  16.033  70.221  1.00  0.00    -0.335 A  
HETATM   25  C   UNL     1     -12.002  14.795  70.770  1.00  0.00    -0.371 A  
HETATM   26  C   UNL     1     -11.673  13.588  70.115  1.00  0.00    -0.280 A  
HETATM   27  C   UNL     1     -10.993  13.590  68.894  1.00  0.00    -0.286 A  
HETATM   28  C   UNL     1     -10.663  14.819  68.365  1.00  0.00    -0.243 A  
ENDBRANCH  18  19
ENDBRANCH  17  18
ENDBRANCH  14  17
ENDBRANCH   7  11
TORSDOF 4
ENDMDL
MODEL      283
REMARK 921   NORMALIZED FREE ENERGY PREDICTED BY IDOCK:   -4.01 KCAL/MOL
REMARK 922        TOTAL FREE ENERGY PREDICTED BY IDOCK:   -5.56 KCAL/MOL
REMARK 923 INTER-LIGAND FREE ENERGY PREDICTED BY IDOCK:   -5.39 KCAL/MOL
REMARK 924 INTRA-LIGAND FREE ENERGY PREDICTED BY IDOCK:   -0.18 KCAL/MOL
REMARK 927      BINDING AFFINITY PREDICTED BY RF-SCORE:    0.00 PKD
ROOT
HETATM    1  F   UNL     1     -10.426  10.253  69.813  1.00  0.00    -0.230 F  
HETATM    2  C   UNL     1     -11.411  10.835  69.072  1.00  0.00    -0.284 C  
HETATM    3  C   UNL     1     -11.030  12.178  68.505  1.00  0.00    -0.276 A  
HETATM    4  F   UNL     1     -11.734   9.929  68.109  1.00  0.00    -0.136 F  
HETATM    5  F   UNL     1     -12.494  10.909  69.895  1.00  0.00    -0.358 F  
HETATM    6  C   UNL     1      -9.764  12.727  68.773  1.00  0.00     0.058 A  
HETATM    7  C   UNL     1      -9.367  13.995  68.316  1.00  0.00    -0.208 A  
HETATM    8  C   UNL     1     -11.923  12.898  67.709  1.00  0.00    -0.336 A  
HETATM    9  C   UNL     1     -10.296  14.681  67.518  1.00  0.00    -0.234 A  
HETATM   10  C   UNL     1     -11.553  14.142  67.211  1.00  0.00    -0.399 A  
ENDROOT
BRANCH   7  11
HETATM   11  N   UNL     1      -8.088  14.481  68.600  1.00  0.00    -0.147 NA 
HETATM   12  C   UNL     1      -6.570  15.866  70.003  1.00  0.00    -0.010 C  
HETATM   13  C   UNL     1      -7.987  15.726  69.398  1.00  0.00    -0.211 C  
HETATM   14  N   UNL     1      -5.457  15.804  69.025  1.00  0.00    -0.103 NA 
HETATM   15  C   UNL     1      -5.622  14.542  68.260  1.00  0.00    -0.118 C  
HETATM   16  C   UNL     1      -7.011  14.339  67.599  1.00  0.00    -0.184 C  
BRANCH  14  17
HETATM   17  C   UNL     1      -5.433  16.966  68.115  1.00  0.00    -0.120 C  
BRANCH  17  18
HETATM   18  C   UNL     1      -5.891  18.282  68.770  1.00  0.00    -0.195 C  
BRANCH  18  19
HETATM   19  N   UNL     1      -6.625  19.111  67.850  1.00  0.00    -0.222 N  
HETATM   20  C   UNL     1      -7.854  19.740  68.136  1.00  0.00    -0.308 C  
HETATM   21  O   UNL     1      -8.486  19.699  69.177  1.00  0.00    -0.259 OA 
HETATM   22  N   UNL     1      -8.230  20.423  66.969  1.00  0.00    -0.316 NA 
HETATM   23  C   UNL     1      -7.269  20.202  65.986  1.00  0.00    -0.286 A  
HETATM   24  C   UNL     1      -7.225  20.664  64.693  1.00  0.00     0.325 A  
HETATM   25  C   UNL     1      -6.129  20.263  63.920  1.00  0.00    -0.274 A  
HETATM   26  C   UNL     1      -5.130  19.421  64.452  1.00  0.00    -0.209 A  
HETATM   27  C   UNL     1      -5.197  18.965  65.773  1.00  0.00    -0.176 A  
HETATM   28  C   UNL     1      -6.278  19.377  66.521  1.00  0.00    -0.172 A  
ENDBRANCH  18  19
ENDBRANCH  17  18
ENDBRANCH  14  17
ENDBRANCH   7  11
TORSDOF 4
ENDMDL
MODEL      284
REMARK 921   NORMALIZED FREE ENERGY PREDICTED BY IDOCK:   -3.99 KCAL/MOL
REMARK 922        TOTAL FREE ENERGY PREDICTED BY IDOCK:   -5.54 KCAL/MOL
REMARK 923 INTER-LIGAND FREE ENERGY PREDICTED BY IDOCK:   -5.14 KCAL/MOL
REMARK 924 INTRA-LIGAND FREE ENERGY PREDICTED BY IDOCK:   -0.40 KCAL/MOL
REMARK 927      BINDING AFFINITY PREDICTED BY RF-SCORE:    0.00 PKD
ROOT
HETATM    1  F   UNL     1     -10.258  14.060  67.623  1.00  0.00    -0.232 F  
HETATM    2  C   UNL     1     -11.280  14.160  66.727  1.00  0.00    -0.323 C  
HETATM    3  C   UNL     1     -11.123  13.265  65.525  1.00  0.00    -0.299 A  
HETATM    4  F   UNL     1     -12.416  13.901  67.431  1.00  0.00    -0.386 F  
HETATM    5  F   UNL     1     -11.342  15.478  66.387  1.00  0.00    -0.286 F  
HETATM    6  C   UNL     1      -9.990  12.443  65.398  1.00  0.00    -0.253 A  
HETATM    7  C   UNL     1      -9.760  11.624  64.279  1.00  0.00    -0.173 A  
HETATM    8  C   UNL     1     -12.092  13.237  64.521  1.00  0.00    -0.461 A  
HETATM    9  C   UNL     1     -10.763  11.626  63.297  1.00  0.00    -0.404 A  
HETATM   10  C   UNL     1     -11.916  12.414  63.416  1.00  0.00    -0.595 A  
ENDROOT
BRANCH   7  11
HETATM   11  N   UNL     1      -8.623  10.814  64.216  1.00  0.00    -0.094 NA 
HETATM   12  C   UNL     1      -7.280   9.069  63.057  1.00  0.00    -0.091 C  
HETATM   13  C   UNL     1      -8.700   9.583  63.394  1.00  0.00    -0.222 C  
HETATM   14  N   UNL     1      -6.399   8.838  64.226  1.00  0.00    -0.071 NA 
HETATM   15  C   UNL     1      -6.371  10.102  65.005  1.00  0.00    -0.123 C  
HETATM   16  C   UNL     1      -7.759  10.670  65.405  1.00  0.00    -0.051 C  
BRANCH  14  17
HETATM   17  C   UNL     1      -6.854   7.715  65.071  1.00  0.00    -0.051 C  
BRANCH  17  18
HETATM   18  C   UNL     1      -7.723   6.686  64.326  1.00  0.00    -0.109 C  
BRANCH  18  19
HETATM   19  N   UNL     1      -8.586   5.964  65.224  1.00  0.00    -0.144 N  
HETATM   20  C   UNL     1      -8.714   4.561  65.266  1.00  0.00    -0.132 C  
HETATM   21  O   UNL     1      -8.131   3.740  64.578  1.00  0.00    -0.085 OA 
HETATM   22  N   UNL     1      -9.666   4.279  66.258  1.00  0.00    -0.198 NA 
HETATM   23  C   UNL     1     -10.128   5.478  66.794  1.00  0.00    -0.207 A  
HETATM   24  C   UNL     1     -11.063   5.687  67.778  1.00  0.00     0.214 A  
HETATM   25  C   UNL     1     -11.341   7.018  68.109  1.00  0.00     0.159 A  
HETATM   26  C   UNL     1     -10.689   8.084  67.452  1.00  0.00    -0.260 A  
HETATM   27  C   UNL     1      -9.739   7.845  66.453  1.00  0.00    -0.235 A  
HETATM   28  C   UNL     1      -9.473   6.528  66.148  1.00  0.00    -0.022 A  
ENDBRANCH  18  19
ENDBRANCH  17  18
ENDBRANCH  14  17
ENDBRANCH   7  11
TORSDOF 4
ENDMDL
MODEL      285
REMARK 921   NORMALIZED FREE ENERGY PREDICTED BY IDOCK:   -3.96 KCAL/MOL
REMARK 922        TOTAL FREE ENERGY PREDICTED BY IDOCK:   -5.51 KCAL/MOL
REMARK 923 INTER-LIGAND FREE ENERGY PREDICTED BY IDOCK:   -4.86 KCAL/MOL
REMARK 924 INTRA-LIGAND FREE ENERGY PREDICTED BY IDOCK:   -0.65 KCAL/MOL
REMARK 927      BINDING AFFINITY PREDICTED BY RF-SCORE:    0.00 PKD
ROOT
HETATM    1  F   UNL     1      -7.998   5.530  64.677  1.00  0.00    -0.089 F  
HETATM    2  C   UNL     1      -8.256   4.322  65.251  1.00  0.00    -0.106 C  
HETATM    3  C   UNL     1      -8.762   4.418  66.667  1.00  0.00    -0.112 A  
HETATM    4  F   UNL     1      -9.135   3.697  64.420  1.00  0.00    -0.115 F  
HETATM    5  F   UNL     1      -7.093   3.617  65.163  1.00  0.00    -0.059 F  
HETATM    6  C   UNL     1      -8.910   5.673  67.282  1.00  0.00    -0.106 A  
HETATM    7  C   UNL     1      -9.329   5.828  68.614  1.00  0.00    -0.122 A  
HETATM    8  C   UNL     1      -9.089   3.270  67.390  1.00  0.00    -0.201 A  
HETATM    9  C   UNL     1      -9.649   4.647  69.301  1.00  0.00    -0.251 A  
HETATM   10  C   UNL     1      -9.539   3.385  68.700  1.00  0.00    -0.127 A  
ENDROOT
BRANCH   7  11
HETATM   11  N   UNL     1      -9.475   7.103  69.166  1.00  0.00    -0.148 NA 
HETATM   12  C   UNL     1     -10.866   8.795  70.349  1.00  0.00    -0.228 C  
HETATM   13  C   UNL     1     -10.852   7.627  69.335  1.00  0.00    -0.127 C  
HETATM   14  N   UNL     1      -9.939   9.909  70.040  1.00  0.00    -0.255 NA 
HETATM   15  C   UNL     1      -8.587   9.317  69.880  1.00  0.00    -0.170 C  
HETATM   16  C   UNL     1      -8.485   8.155  68.858  1.00  0.00    -0.130 C  
BRANCH  14  17
HETATM   17  C   UNL     1     -10.328  10.656  68.827  1.00  0.00    -0.193 C  
BRANCH  17  18
HETATM   18  C   UNL     1      -9.301  11.716  68.390  1.00  0.00    -0.191 C  
BRANCH  18  19
HETATM   19  N   UNL     1      -9.643  12.301  67.119  1.00  0.00    -0.196 N  
HETATM   20  C   UNL     1      -9.413  11.698  65.866  1.00  0.00    -0.228 C  
HETATM   21  O   UNL     1      -8.909  10.610  65.645  1.00  0.00    -0.174 OA 
HETATM   22  N   UNL     1      -9.869  12.607  64.899  1.00  0.00    -0.123 NA 
HETATM   23  C   UNL     1     -10.345  13.747  65.541  1.00  0.00    -0.321 A  
HETATM   24  C   UNL     1     -10.878  14.892  64.998  1.00  0.00    -0.439 A  
HETATM   25  C   UNL     1     -11.265  15.892  65.897  1.00  0.00     0.065 A  
HETATM   26  C   UNL     1     -11.105  15.723  67.290  1.00  0.00    -0.211 A  
HETATM   27  C   UNL     1     -10.562  14.547  67.817  1.00  0.00    -0.250 A  
HETATM   28  C   UNL     1     -10.195  13.571  66.917  1.00  0.00    -0.256 A  
ENDBRANCH  18  19
ENDBRANCH  17  18
ENDBRANCH  14  17
ENDBRANCH   7  11
TORSDOF 4
ENDMDL
MODEL      286
REMARK 921   NORMALIZED FREE ENERGY PREDICTED BY IDOCK:   -3.96 KCAL/MOL
REMARK 922        TOTAL FREE ENERGY PREDICTED BY IDOCK:   -5.50 KCAL/MOL
REMARK 923 INTER-LIGAND FREE ENERGY PREDICTED BY IDOCK:   -5.14 KCAL/MOL
REMARK 924 INTRA-LIGAND FREE ENERGY PREDICTED BY IDOCK:   -0.37 KCAL/MOL
REMARK 927      BINDING AFFINITY PREDICTED BY RF-SCORE:    0.00 PKD
ROOT
HETATM    1  F   UNL     1     -11.076   6.174  70.874  1.00  0.00    -0.305 F  
HETATM    2  C   UNL     1     -10.499   6.093  72.106  1.00  0.00    -0.202 C  
HETATM    3  C   UNL     1      -9.198   6.844  72.219  1.00  0.00    -0.144 A  
HETATM    4  F   UNL     1     -11.440   6.535  72.985  1.00  0.00    -0.243 F  
HETATM    5  F   UNL     1     -10.352   4.761  72.355  1.00  0.00    -0.223 F  
HETATM    6  C   UNL     1      -8.677   7.527  71.107  1.00  0.00    -0.136 A  
HETATM    7  C   UNL     1      -7.446   8.204  71.132  1.00  0.00    -0.074 A  
HETATM    8  C   UNL     1      -8.489   6.872  73.421  1.00  0.00    -0.139 A  
HETATM    9  C   UNL     1      -6.770   8.208  72.363  1.00  0.00    -0.088 A  
HETATM   10  C   UNL     1      -7.284   7.559  73.494  1.00  0.00    -0.100 A  
ENDROOT
BRANCH   7  11
HETATM   11  N   UNL     1      -6.987   8.881  70.000  1.00  0.00    -0.042 NA 
HETATM   12  C   UNL     1      -5.622  10.694  68.977  1.00  0.00    -0.040 C  
HETATM   13  C   UNL     1      -6.497  10.270  70.180  1.00  0.00    -0.128 C  
HETATM   14  N   UNL     1      -6.265  10.556  67.649  1.00  0.00    -0.055 NA 
HETATM   15  C   UNL     1      -6.734   9.152  67.538  1.00  0.00    -0.069 C  
HETATM   16  C   UNL     1      -7.641   8.658  68.695  1.00  0.00    -0.097 C  
BRANCH  14  17
HETATM   17  C   UNL     1      -7.387  11.497  67.458  1.00  0.00    -0.112 C  
BRANCH  17  18
HETATM   18  C   UNL     1      -8.598  10.886  66.729  1.00  0.00    -0.137 C  
BRANCH  18  19
HETATM   19  N   UNL     1      -9.819  11.581  67.044  1.00  0.00    -0.190 N  
HETATM   20  C   UNL     1     -10.902  11.026  67.755  1.00  0.00    -0.249 C  
HETATM   21  O   UNL     1     -10.990   9.903  68.220  1.00  0.00    -0.240 OA 
HETATM   22  N   UNL     1     -11.887  12.024  67.819  1.00  0.00    -0.545 NA 
HETATM   23  C   UNL     1     -11.430  13.153  67.145  1.00  0.00    -0.334 A  
HETATM   24  C   UNL     1     -12.056  14.360  66.945  1.00  0.00    -0.386 A  
HETATM   25  C   UNL     1     -11.352  15.319  66.209  1.00  0.00    -0.155 A  
HETATM   26  C   UNL     1     -10.065  15.045  65.696  1.00  0.00    -0.390 A  
HETATM   27  C   UNL     1      -9.449  13.809  65.914  1.00  0.00    -0.067 A  
HETATM   28  C   UNL     1     -10.154  12.880  66.648  1.00  0.00    -0.245 A  
ENDBRANCH  18  19
ENDBRANCH  17  18
ENDBRANCH  14  17
ENDBRANCH   7  11
TORSDOF 4
ENDMDL
MODEL      287
REMARK 921   NORMALIZED FREE ENERGY PREDICTED BY IDOCK:   -3.91 KCAL/MOL
REMARK 922        TOTAL FREE ENERGY PREDICTED BY IDOCK:   -5.45 KCAL/MOL
REMARK 923 INTER-LIGAND FREE ENERGY PREDICTED BY IDOCK:   -4.74 KCAL/MOL
REMARK 924 INTRA-LIGAND FREE ENERGY PREDICTED BY IDOCK:   -0.71 KCAL/MOL
REMARK 927      BINDING AFFINITY PREDICTED BY RF-SCORE:    0.00 PKD
ROOT
HETATM    1  F   UNL     1      -8.698   3.953  63.276  1.00  0.00    -0.091 F  
HETATM    2  C   UNL     1      -9.188   3.385  64.414  1.00  0.00    -0.133 C  
HETATM    3  C   UNL     1      -9.231   4.323  65.592  1.00  0.00    -0.148 A  
HETATM    4  F   UNL     1     -10.416   2.898  64.085  1.00  0.00    -0.165 F  
HETATM    5  F   UNL     1      -8.404   2.295  64.647  1.00  0.00    -0.082 F  
HETATM    6  C   UNL     1      -8.771   5.645  65.460  1.00  0.00    -0.151 A  
HETATM    7  C   UNL     1      -8.737   6.554  66.531  1.00  0.00    -0.134 A  
HETATM    8  C   UNL     1      -9.720   3.900  66.828  1.00  0.00    -0.189 A  
HETATM    9  C   UNL     1      -9.242   6.085  67.754  1.00  0.00    -0.107 A  
HETATM   10  C   UNL     1      -9.734   4.780  67.903  1.00  0.00    -0.200 A  
ENDROOT
BRANCH   7  11
HETATM   11  N   UNL     1      -8.286   7.862  66.336  1.00  0.00    -0.116 NA 
HETATM   12  C   UNL     1      -7.271   9.950  67.234  1.00  0.00    -0.086 C  
HETATM   13  C   UNL     1      -8.194   8.743  67.526  1.00  0.00    -0.110 C  
HETATM   14  N   UNL     1      -7.638  10.751  66.042  1.00  0.00    -0.148 NA 
HETATM   15  C   UNL     1      -7.717   9.811  64.895  1.00  0.00    -0.127 C  
HETATM   16  C   UNL     1      -8.646   8.585  65.100  1.00  0.00    -0.152 C  
BRANCH  14  17
HETATM   17  C   UNL     1      -8.914  11.475  66.212  1.00  0.00    -0.196 C  
BRANCH  17  18
HETATM   18  C   UNL     1      -9.002  12.285  67.519  1.00  0.00    -0.180 C  
BRANCH  18  19
HETATM   19  N   UNL     1      -8.362  13.569  67.397  1.00  0.00    -0.186 N  
HETATM   20  C   UNL     1      -7.043  13.854  67.805  1.00  0.00    -0.172 C  
HETATM   21  O   UNL     1      -6.238  13.089  68.308  1.00  0.00    -0.069 OA 
HETATM   22  N   UNL     1      -6.830  15.214  67.532  1.00  0.00    -0.178 NA 
HETATM   23  C   UNL     1      -7.994  15.754  66.992  1.00  0.00    -0.237 A  
HETATM   24  C   UNL     1      -8.247  17.041  66.583  1.00  0.00    -0.295 A  
HETATM   25  C   UNL     1      -9.529  17.303  66.087  1.00  0.00    -0.204 A  
HETATM   26  C   UNL     1     -10.506  16.286  66.021  1.00  0.00    -0.342 A  
HETATM   27  C   UNL     1     -10.223  14.983  66.442  1.00  0.00    -0.286 A  
HETATM   28  C   UNL     1      -8.953  14.743  66.919  1.00  0.00    -0.253 A  
ENDBRANCH  18  19
ENDBRANCH  17  18
ENDBRANCH  14  17
ENDBRANCH   7  11
TORSDOF 4
ENDMDL
MODEL      288
REMARK 921   NORMALIZED FREE ENERGY PREDICTED BY IDOCK:   -3.88 KCAL/MOL
REMARK 922        TOTAL FREE ENERGY PREDICTED BY IDOCK:   -5.41 KCAL/MOL
REMARK 923 INTER-LIGAND FREE ENERGY PREDICTED BY IDOCK:   -4.74 KCAL/MOL
REMARK 924 INTRA-LIGAND FREE ENERGY PREDICTED BY IDOCK:   -0.67 KCAL/MOL
REMARK 927      BINDING AFFINITY PREDICTED BY RF-SCORE:    0.00 PKD
ROOT
HETATM    1  F   UNL     1     -11.875   7.039  72.136  1.00  0.00    -0.290 F  
HETATM    2  C   UNL     1     -10.788   6.513  72.767  1.00  0.00    -0.249 C  
HETATM    3  C   UNL     1      -9.472   6.968  72.192  1.00  0.00    -0.150 A  
HETATM    4  F   UNL     1     -10.929   6.839  74.081  1.00  0.00    -0.206 F  
HETATM    5  F   UNL     1     -10.943   5.161  72.700  1.00  0.00    -0.259 F  
HETATM    6  C   UNL     1      -9.446   7.841  71.091  1.00  0.00    -0.169 A  
HETATM    7  C   UNL     1      -8.254   8.263  70.477  1.00  0.00    -0.114 A  
HETATM    8  C   UNL     1      -8.263   6.532  72.736  1.00  0.00    -0.109 A  
HETATM    9  C   UNL     1      -7.064   7.802  71.060  1.00  0.00    -0.053 A  
HETATM   10  C   UNL     1      -7.063   6.955  72.177  1.00  0.00    -0.074 A  
ENDROOT
BRANCH   7  11
HETATM   11  N   UNL     1      -8.289   9.148  69.396  1.00  0.00    -0.119 NA 
HETATM   12  C   UNL     1      -7.251  10.071  67.331  1.00  0.00    -0.085 C  
HETATM   13  C   UNL     1      -7.002   9.485  68.741  1.00  0.00    -0.067 C  
HETATM   14  N   UNL     1      -8.160  11.241  67.286  1.00  0.00    -0.134 NA 
HETATM   15  C   UNL     1      -9.420  10.838  67.960  1.00  0.00    -0.160 C  
HETATM   16  C   UNL     1      -9.257  10.263  69.392  1.00  0.00    -0.189 C  
BRANCH  14  17
HETATM   17  C   UNL     1      -7.583  12.437  67.932  1.00  0.00    -0.130 C  
BRANCH  17  18
HETATM   18  C   UNL     1      -7.706  13.721  67.092  1.00  0.00     0.032 C  
BRANCH  18  19
HETATM   19  N   UNL     1      -9.056  14.221  67.072  1.00  0.00    -0.223 N  
HETATM   20  C   UNL     1      -9.913  14.186  65.954  1.00  0.00    -0.311 C  
HETATM   21  O   UNL     1      -9.672  13.736  64.846  1.00  0.00    -0.091 OA 
HETATM   22  N   UNL     1     -11.114  14.791  66.355  1.00  0.00    -0.336 NA 
HETATM   23  C   UNL     1     -10.990  15.207  67.678  1.00  0.00    -0.308 A  
HETATM   24  C   UNL     1     -11.905  15.848  68.477  1.00  0.00    -0.197 A  
HETATM   25  C   UNL     1     -11.494  16.158  69.778  1.00  0.00    -0.282 A  
HETATM   26  C   UNL     1     -10.198  15.829  70.232  1.00  0.00    -0.073 A  
HETATM   27  C   UNL     1      -9.285  15.175  69.399  1.00  0.00    -0.175 A  
HETATM   28  C   UNL     1      -9.711  14.870  68.125  1.00  0.00    -0.214 A  
ENDBRANCH  18  19
ENDBRANCH  17  18
ENDBRANCH  14  17
ENDBRANCH   7  11
TORSDOF 4
ENDMDL
MODEL      289
REMARK 921   NORMALIZED FREE ENERGY PREDICTED BY IDOCK:   -3.87 KCAL/MOL
REMARK 922        TOTAL FREE ENERGY PREDICTED BY IDOCK:   -5.40 KCAL/MOL
REMARK 923 INTER-LIGAND FREE ENERGY PREDICTED BY IDOCK:   -5.36 KCAL/MOL
REMARK 924 INTRA-LIGAND FREE ENERGY PREDICTED BY IDOCK:   -0.04 KCAL/MOL
REMARK 927      BINDING AFFINITY PREDICTED BY RF-SCORE:    0.00 PKD
ROOT
HETATM    1  F   UNL     1      -7.583   8.483  69.768  1.00  0.00    -0.074 F  
HETATM    2  C   UNL     1      -8.855   8.629  69.300  1.00  0.00    -0.137 C  
HETATM    3  C   UNL     1      -9.162  10.016  68.799  1.00  0.00    -0.159 A  
HETATM    4  F   UNL     1      -9.009   7.676  68.340  1.00  0.00    -0.129 F  
HETATM    5  F   UNL     1      -9.669   8.257  70.328  1.00  0.00    -0.170 F  
HETATM    6  C   UNL     1      -8.183  11.022  68.858  1.00  0.00    -0.127 A  
HETATM    7  C   UNL     1      -8.421  12.347  68.454  1.00  0.00    -0.131 A  
HETATM    8  C   UNL     1     -10.417  10.326  68.273  1.00  0.00    -0.230 A  
HETATM    9  C   UNL     1      -9.696  12.611  67.929  1.00  0.00    -0.216 A  
HETATM   10  C   UNL     1     -10.680  11.617  67.832  1.00  0.00    -0.241 A  
ENDROOT
BRANCH   7  11
HETATM   11  N   UNL     1      -7.403  13.301  68.518  1.00  0.00    -0.111 NA 
HETATM   12  C   UNL     1      -6.463  15.390  69.493  1.00  0.00    -0.158 C  
HETATM   13  C   UNL     1      -7.745  14.637  69.064  1.00  0.00    -0.134 C  
HETATM   14  N   UNL     1      -5.430  15.526  68.439  1.00  0.00    -0.099 NA 
HETATM   15  C   UNL     1      -5.139  14.160  67.936  1.00  0.00    -0.048 C  
HETATM   16  C   UNL     1      -6.373  13.348  67.461  1.00  0.00    -0.101 C  
BRANCH  14  17
HETATM   17  C   UNL     1      -5.855  16.410  67.334  1.00  0.00    -0.158 C  
BRANCH  17  18
HETATM   18  C   UNL     1      -5.786  17.910  67.673  1.00  0.00    -0.142 C  
BRANCH  18  19
HETATM   19  N   UNL     1      -7.075  18.543  67.562  1.00  0.00    -0.205 N  
HETATM   20  C   UNL     1      -7.409  19.793  68.121  1.00  0.00    -0.303 C  
HETATM   21  O   UNL     1      -6.691  20.535  68.768  1.00  0.00    -0.243 OA 
HETATM   22  N   UNL     1      -8.756  20.023  67.799  1.00  0.00    -0.319 NA 
HETATM   23  C   UNL     1      -9.241  18.934  67.081  1.00  0.00    -0.290 A  
HETATM   24  C   UNL     1     -10.498  18.719  66.569  1.00  0.00    -0.484 A  
HETATM   25  C   UNL     1     -10.704  17.511  65.895  1.00  0.00    -0.119 A  
HETATM   26  C   UNL     1      -9.666  16.564  65.761  1.00  0.00    -0.237 A  
HETATM   27  C   UNL     1      -8.394  16.806  66.290  1.00  0.00    -0.353 A  
HETATM   28  C   UNL     1      -8.208  18.005  66.943  1.00  0.00    -0.242 A  
ENDBRANCH  18  19
ENDBRANCH  17  18
ENDBRANCH  14  17
ENDBRANCH   7  11
TORSDOF 4
ENDMDL
MODEL      290
REMARK 921   NORMALIZED FREE ENERGY PREDICTED BY IDOCK:   -3.87 KCAL/MOL
REMARK 922        TOTAL FREE ENERGY PREDICTED BY IDOCK:   -5.39 KCAL/MOL
REMARK 923 INTER-LIGAND FREE ENERGY PREDICTED BY IDOCK:   -4.71 KCAL/MOL
REMARK 924 INTRA-LIGAND FREE ENERGY PREDICTED BY IDOCK:   -0.68 KCAL/MOL
REMARK 927      BINDING AFFINITY PREDICTED BY RF-SCORE:    0.00 PKD
ROOT
HETATM    1  F   UNL     1     -11.462  12.931  67.456  1.00  0.00    -0.287 F  
HETATM    2  C   UNL     1     -11.703  13.249  66.153  1.00  0.00    -0.374 C  
HETATM    3  C   UNL     1     -11.055  12.308  65.170  1.00  0.00    -0.361 A  
HETATM    4  F   UNL     1     -13.057  13.292  66.025  1.00  0.00    -0.254 F  
HETATM    5  F   UNL     1     -11.272  14.533  66.002  1.00  0.00    -0.314 F  
HETATM    6  C   UNL     1     -10.272  11.235  65.628  1.00  0.00    -0.304 A  
HETATM    7  C   UNL     1      -9.601  10.353  64.764  1.00  0.00    -0.293 A  
HETATM    8  C   UNL     1     -11.217  12.487  63.795  1.00  0.00    -0.524 A  
HETATM    9  C   UNL     1      -9.796  10.569  63.390  1.00  0.00    -0.323 A  
HETATM   10  C   UNL     1     -10.596  11.614  62.909  1.00  0.00    -0.039 A  
ENDROOT
BRANCH   7  11
HETATM   11  N   UNL     1      -8.851   9.292  65.277  1.00  0.00    -0.186 NA 
HETATM   12  C   UNL     1      -7.022   7.623  65.025  1.00  0.00    -0.058 C  
HETATM   13  C   UNL     1      -8.137   8.422  64.311  1.00  0.00    -0.151 C  
HETATM   14  N   UNL     1      -7.467   6.821  66.190  1.00  0.00    -0.079 NA 
HETATM   15  C   UNL     1      -8.175   7.747  67.109  1.00  0.00    -0.118 C  
HETATM   16  C   UNL     1      -9.328   8.568  66.473  1.00  0.00    -0.203 C  
BRANCH  14  17
HETATM   17  C   UNL     1      -8.344   5.696  65.805  1.00  0.00    -0.132 C  
BRANCH  17  18
HETATM   18  C   UNL     1      -9.139   5.096  66.979  1.00  0.00    -0.112 C  
BRANCH  18  19
HETATM   19  N   UNL     1      -8.483   3.942  67.537  1.00  0.00    -0.097 N  
HETATM   20  C   UNL     1      -8.601   2.629  67.040  1.00  0.00    -0.109 C  
HETATM   21  O   UNL     1      -9.252   2.252  66.080  1.00  0.00    -0.092 OA 
HETATM   22  N   UNL     1      -7.826   1.815  67.881  1.00  0.00    -0.058 NA 
HETATM   23  C   UNL     1      -7.265   2.605  68.881  1.00  0.00    -0.044 A  
HETATM   24  C   UNL     1      -6.446   2.240  69.921  1.00  0.00    -0.029 A  
HETATM   25  C   UNL     1      -6.041   3.259  70.791  1.00  0.00    -0.018 A  
HETATM   26  C   UNL     1      -6.466   4.591  70.600  1.00  0.00    -0.030 A  
HETATM   27  C   UNL     1      -7.299   4.938  69.532  1.00  0.00    -0.056 A  
HETATM   28  C   UNL     1      -7.680   3.923  68.682  1.00  0.00    -0.060 A  
ENDBRANCH  18  19
ENDBRANCH  17  18
ENDBRANCH  14  17
ENDBRANCH   7  11
TORSDOF 4
ENDMDL
MODEL      291
REMARK 921   NORMALIZED FREE ENERGY PREDICTED BY IDOCK:   -3.85 KCAL/MOL
REMARK 922        TOTAL FREE ENERGY PREDICTED BY IDOCK:   -5.37 KCAL/MOL
REMARK 923 INTER-LIGAND FREE ENERGY PREDICTED BY IDOCK:   -5.86 KCAL/MOL
REMARK 924 INTRA-LIGAND FREE ENERGY PREDICTED BY IDOCK:    0.49 KCAL/MOL
REMARK 927      BINDING AFFINITY PREDICTED BY RF-SCORE:    0.00 PKD
ROOT
HETATM    1  F   UNL     1     -10.532   9.885  69.515  1.00  0.00    -0.193 F  
HETATM    2  C   UNL     1     -11.161  10.261  68.365  1.00  0.00    -0.247 C  
HETATM    3  C   UNL     1     -10.565  11.486  67.721  1.00  0.00    -0.227 A  
HETATM    4  F   UNL     1     -11.129   9.171  67.552  1.00  0.00    -0.303 F  
HETATM    5  F   UNL     1     -12.469  10.438  68.703  1.00  0.00     0.080 F  
HETATM    6  C   UNL     1      -9.474  12.140  68.319  1.00  0.00    -0.204 A  
HETATM    7  C   UNL     1      -8.905  13.314  67.795  1.00  0.00    -0.197 A  
HETATM    8  C   UNL     1     -11.084  11.992  66.529  1.00  0.00    -0.362 A  
HETATM    9  C   UNL     1      -9.457  13.784  66.594  1.00  0.00    -0.289 A  
HETATM   10  C   UNL     1     -10.526  13.133  65.963  1.00  0.00    -0.291 A  
ENDROOT
BRANCH   7  11
HETATM   11  N   UNL     1      -7.808  13.910  68.423  1.00  0.00    -0.133 NA 
HETATM   12  C   UNL     1      -6.886  15.476  70.124  1.00  0.00     0.070 C  
HETATM   13  C   UNL     1      -8.033  15.198  69.124  1.00  0.00    -0.205 C  
HETATM   14  N   UNL     1      -5.522  15.450  69.543  1.00  0.00    -0.099 NA 
HETATM   15  C   UNL     1      -5.367  14.143  68.857  1.00  0.00    -0.083 C  
HETATM   16  C   UNL     1      -6.467  13.802  67.816  1.00  0.00    -0.170 C  
BRANCH  14  17
HETATM   17  C   UNL     1      -5.281  16.564  68.604  1.00  0.00    -0.120 C  
BRANCH  17  18
HETATM   18  C   UNL     1      -6.209  17.773  68.819  1.00  0.00    -0.203 C  
BRANCH  18  19
HETATM   19  N   UNL     1      -7.152  17.923  67.741  1.00  0.00    -0.201 N  
HETATM   20  C   UNL     1      -7.070  17.260  66.500  1.00  0.00    -0.265 C  
HETATM   21  O   UNL     1      -6.221  16.464  66.137  1.00  0.00     0.154 OA 
HETATM   22  N   UNL     1      -8.163  17.705  65.740  1.00  0.00    -0.527 NA 
HETATM   23  C   UNL     1      -8.883  18.634  66.485  1.00  0.00    -0.304 A  
HETATM   24  C   UNL     1     -10.016  19.332  66.145  1.00  0.00    -0.466 A  
HETATM   25  C   UNL     1     -10.519  20.219  67.102  1.00  0.00    -0.321 A  
HETATM   26  C   UNL     1      -9.881  20.384  68.350  1.00  0.00    -0.178 A  
HETATM   27  C   UNL     1      -8.729  19.660  68.674  1.00  0.00    -0.317 A  
HETATM   28  C   UNL     1      -8.253  18.785  67.722  1.00  0.00    -0.263 A  
ENDBRANCH  18  19
ENDBRANCH  17  18
ENDBRANCH  14  17
ENDBRANCH   7  11
TORSDOF 4
ENDMDL
MODEL      292
REMARK 921   NORMALIZED FREE ENERGY PREDICTED BY IDOCK:   -3.85 KCAL/MOL
REMARK 922        TOTAL FREE ENERGY PREDICTED BY IDOCK:   -5.37 KCAL/MOL
REMARK 923 INTER-LIGAND FREE ENERGY PREDICTED BY IDOCK:   -5.44 KCAL/MOL
REMARK 924 INTRA-LIGAND FREE ENERGY PREDICTED BY IDOCK:    0.08 KCAL/MOL
REMARK 927      BINDING AFFINITY PREDICTED BY RF-SCORE:    0.00 PKD
ROOT
HETATM    1  F   UNL     1      -5.802   5.439  63.811  1.00  0.00    -0.019 F  
HETATM    2  C   UNL     1      -6.702   4.419  63.735  1.00  0.00    -0.043 C  
HETATM    3  C   UNL     1      -7.940   4.637  64.565  1.00  0.00    -0.094 A  
HETATM    4  F   UNL     1      -6.977   4.266  62.410  1.00  0.00    -0.029 F  
HETATM    5  F   UNL     1      -6.019   3.299  64.106  1.00  0.00    -0.015 F  
HETATM    6  C   UNL     1      -8.076   5.802  65.340  1.00  0.00    -0.131 A  
HETATM    7  C   UNL     1      -9.181   6.043  66.173  1.00  0.00    -0.138 A  
HETATM    8  C   UNL     1      -8.966   3.691  64.584  1.00  0.00    -0.123 A  
HETATM    9  C   UNL     1     -10.189   5.066  66.157  1.00  0.00    -0.288 A  
HETATM   10  C   UNL     1     -10.090   3.910  65.371  1.00  0.00    -0.099 A  
ENDROOT
BRANCH   7  11
HETATM   11  N   UNL     1      -9.270   7.229  66.906  1.00  0.00    -0.145 NA 
HETATM   12  C   UNL     1     -10.278   8.546  68.762  1.00  0.00    -0.200 C  
HETATM   13  C   UNL     1     -10.514   7.470  67.676  1.00  0.00    -0.250 C  
HETATM   14  N   UNL     1      -9.736   9.834  68.266  1.00  0.00    -0.144 NA 
HETATM   15  C   UNL     1      -8.501   9.520  67.504  1.00  0.00    -0.126 C  
HETATM   16  C   UNL     1      -8.662   8.466  66.377  1.00  0.00    -0.139 C  
BRANCH  14  17
HETATM   17  C   UNL     1     -10.698  10.570  67.420  1.00  0.00    -0.281 C  
BRANCH  17  18
HETATM   18  C   UNL     1     -10.059  11.684  66.573  1.00  0.00    -0.207 C  
BRANCH  18  19
HETATM   19  N   UNL     1     -10.678  12.962  66.814  1.00  0.00    -0.260 N  
HETATM   20  C   UNL     1     -10.815  13.985  65.854  1.00  0.00    -0.288 C  
HETATM   21  O   UNL     1     -10.454  13.967  64.690  1.00  0.00    -0.434 OA 
HETATM   22  N   UNL     1     -11.446  15.057  66.505  1.00  0.00    -0.293 NA 
HETATM   23  C   UNL     1     -11.669  14.709  67.834  1.00  0.00    -0.351 A  
HETATM   24  C   UNL     1     -12.250  15.444  68.840  1.00  0.00    -0.118 A  
HETATM   25  C   UNL     1     -12.330  14.835  70.097  1.00  0.00    -0.381 A  
HETATM   26  C   UNL     1     -11.829  13.532  70.310  1.00  0.00    -0.327 A  
HETATM   27  C   UNL     1     -11.244  12.804  69.269  1.00  0.00    -0.252 A  
HETATM   28  C   UNL     1     -11.182  13.417  68.037  1.00  0.00    -0.268 A  
ENDBRANCH  18  19
ENDBRANCH  17  18
ENDBRANCH  14  17
ENDBRANCH   7  11
TORSDOF 4
ENDMDL
MODEL      293
REMARK 921   NORMALIZED FREE ENERGY PREDICTED BY IDOCK:   -3.82 KCAL/MOL
REMARK 922        TOTAL FREE ENERGY PREDICTED BY IDOCK:   -5.34 KCAL/MOL
REMARK 923 INTER-LIGAND FREE ENERGY PREDICTED BY IDOCK:   -4.56 KCAL/MOL
REMARK 924 INTRA-LIGAND FREE ENERGY PREDICTED BY IDOCK:   -0.77 KCAL/MOL
REMARK 927      BINDING AFFINITY PREDICTED BY RF-SCORE:    0.00 PKD
ROOT
HETATM    1  F   UNL     1     -12.988  11.356  69.420  1.00  0.00     0.020 F  
HETATM    2  C   UNL     1     -11.926  12.166  69.146  1.00  0.00    -0.255 C  
HETATM    3  C   UNL     1     -10.710  11.428  68.653  1.00  0.00    -0.241 A  
HETATM    4  F   UNL     1     -12.383  13.086  68.252  1.00  0.00    -0.308 F  
HETATM    5  F   UNL     1     -11.684  12.854  70.298  1.00  0.00    -0.362 F  
HETATM    6  C   UNL     1     -10.733  10.028  68.529  1.00  0.00    -0.264 A  
HETATM    7  C   UNL     1      -9.618   9.277  68.123  1.00  0.00    -0.143 A  
HETATM    8  C   UNL     1      -9.543  12.115  68.314  1.00  0.00    -0.210 A  
HETATM    9  C   UNL     1      -8.468  10.010  67.790  1.00  0.00    -0.114 A  
HETATM   10  C   UNL     1      -8.429  11.409  67.876  1.00  0.00    -0.139 A  
ENDROOT
BRANCH   7  11
HETATM   11  N   UNL     1      -9.706   7.888  68.001  1.00  0.00    -0.155 NA 
HETATM   12  C   UNL     1     -10.524   5.695  68.850  1.00  0.00    -0.240 C  
HETATM   13  C   UNL     1     -10.012   7.107  69.224  1.00  0.00    -0.168 C  
HETATM   14  N   UNL     1      -9.627   4.913  67.966  1.00  0.00    -0.139 NA 
HETATM   15  C   UNL     1      -9.358   5.751  66.770  1.00  0.00    -0.133 C  
HETATM   16  C   UNL     1      -8.817   7.176  67.061  1.00  0.00    -0.124 C  
BRANCH  14  17
HETATM   17  C   UNL     1      -8.364   4.531  68.629  1.00  0.00    -0.085 C  
BRANCH  17  18
HETATM   18  C   UNL     1      -8.550   3.582  69.827  1.00  0.00    -0.063 C  
BRANCH  18  19
HETATM   19  N   UNL     1      -8.218   4.222  71.073  1.00  0.00    -0.075 N  
HETATM   20  C   UNL     1      -6.922   4.624  71.453  1.00  0.00    -0.042 C  
HETATM   21  O   UNL     1      -5.890   4.511  70.813  1.00  0.00    -0.015 OA 
HETATM   22  N   UNL     1      -7.039   5.177  72.738  1.00  0.00    -0.085 NA 
HETATM   23  C   UNL     1      -8.368   5.095  73.145  1.00  0.00    -0.108 A  
HETATM   24  C   UNL     1      -8.943   5.502  74.325  1.00  0.00    -0.121 A  
HETATM   25  C   UNL     1     -10.317   5.279  74.464  1.00  0.00    -0.286 A  
HETATM   26  C   UNL     1     -11.063   4.659  73.438  1.00  0.00    -0.418 A  
HETATM   27  C   UNL     1     -10.454   4.254  72.246  1.00  0.00    -0.164 A  
HETATM   28  C   UNL     1      -9.102   4.491  72.123  1.00  0.00    -0.126 A  
ENDBRANCH  18  19
ENDBRANCH  17  18
ENDBRANCH  14  17
ENDBRANCH   7  11
TORSDOF 4
ENDMDL
MODEL      294
REMARK 921   NORMALIZED FREE ENERGY PREDICTED BY IDOCK:   -3.81 KCAL/MOL
REMARK 922        TOTAL FREE ENERGY PREDICTED BY IDOCK:   -5.32 KCAL/MOL
REMARK 923 INTER-LIGAND FREE ENERGY PREDICTED BY IDOCK:   -5.55 KCAL/MOL
REMARK 924 INTRA-LIGAND FREE ENERGY PREDICTED BY IDOCK:    0.23 KCAL/MOL
REMARK 927      BINDING AFFINITY PREDICTED BY RF-SCORE:    0.00 PKD
ROOT
HETATM    1  F   UNL     1      -9.086   6.022  66.400  1.00  0.00    -0.133 F  
HETATM    2  C   UNL     1      -8.678   4.785  66.801  1.00  0.00    -0.107 C  
HETATM    3  C   UNL     1      -9.053   4.452  68.221  1.00  0.00    -0.165 A  
HETATM    4  F   UNL     1      -9.203   3.911  65.899  1.00  0.00    -0.128 F  
HETATM    5  F   UNL     1      -7.330   4.762  66.602  1.00  0.00    -0.075 F  
HETATM    6  C   UNL     1      -9.744   5.389  69.009  1.00  0.00    -0.208 A  
HETATM    7  C   UNL     1     -10.080   5.160  70.354  1.00  0.00    -0.262 A  
HETATM    8  C   UNL     1      -8.721   3.217  68.779  1.00  0.00    -0.143 A  
HETATM    9  C   UNL     1      -9.729   3.903  70.871  1.00  0.00    -0.253 A  
HETATM   10  C   UNL     1      -9.066   2.940  70.097  1.00  0.00    -0.189 A  
ENDROOT
BRANCH   7  11
HETATM   11  N   UNL     1     -10.784   6.122  71.082  1.00  0.00    -0.246 NA 
HETATM   12  C   UNL     1     -12.861   7.437  71.474  1.00  0.00    -0.375 C  
HETATM   13  C   UNL     1     -11.940   6.776  70.421  1.00  0.00    -0.285 C  
HETATM   14  N   UNL     1     -12.192   8.398  72.383  1.00  0.00    -0.384 NA 
HETATM   15  C   UNL     1     -11.048   7.684  73.004  1.00  0.00    -0.381 C  
HETATM   16  C   UNL     1     -10.061   7.014  72.011  1.00  0.00    -0.185 C  
BRANCH  14  17
HETATM   17  C   UNL     1     -11.730   9.616  71.686  1.00  0.00    -0.369 C  
BRANCH  17  18
HETATM   18  C   UNL     1     -11.722   9.492  70.151  1.00  0.00    -0.048 C  
BRANCH  18  19
HETATM   19  N   UNL     1     -10.802  10.417  69.543  1.00  0.00    -0.238 N  
HETATM   20  C   UNL     1     -11.157  11.411  68.609  1.00  0.00    -0.236 C  
HETATM   21  O   UNL     1     -12.268  11.658  68.172  1.00  0.00    -0.537 OA 
HETATM   22  N   UNL     1      -9.967  12.068  68.258  1.00  0.00    -0.200 NA 
HETATM   23  C   UNL     1      -8.908  11.478  68.941  1.00  0.00     0.040 A  
HETATM   24  C   UNL     1      -7.569  11.786  68.903  1.00  0.00    -0.063 A  
HETATM   25  C   UNL     1      -6.722  11.005  69.696  1.00  0.00    -0.137 A  
HETATM   26  C   UNL     1      -7.229   9.951  70.487  1.00  0.00    -0.099 A  
HETATM   27  C   UNL     1      -8.596   9.659  70.510  1.00  0.00    -0.142 A  
HETATM   28  C   UNL     1      -9.416  10.444  69.729  1.00  0.00    -0.003 A  
ENDBRANCH  18  19
ENDBRANCH  17  18
ENDBRANCH  14  17
ENDBRANCH   7  11
TORSDOF 4
ENDMDL
MODEL      295
REMARK 921   NORMALIZED FREE ENERGY PREDICTED BY IDOCK:   -3.81 KCAL/MOL
REMARK 922        TOTAL FREE ENERGY PREDICTED BY IDOCK:   -5.32 KCAL/MOL
REMARK 923 INTER-LIGAND FREE ENERGY PREDICTED BY IDOCK:   -5.29 KCAL/MOL
REMARK 924 INTRA-LIGAND FREE ENERGY PREDICTED BY IDOCK:   -0.03 KCAL/MOL
REMARK 927      BINDING AFFINITY PREDICTED BY RF-SCORE:    0.00 PKD
ROOT
HETATM    1  F   UNL     1      -5.880   5.932  65.004  1.00  0.00    -0.021 F  
HETATM    2  C   UNL     1      -6.571   4.760  65.079  1.00  0.00    -0.044 C  
HETATM    3  C   UNL     1      -7.572   4.717  66.204  1.00  0.00    -0.090 A  
HETATM    4  F   UNL     1      -7.146   4.591  63.857  1.00  0.00    -0.045 F  
HETATM    5  F   UNL     1      -5.628   3.783  65.187  1.00  0.00    -0.009 F  
HETATM    6  C   UNL     1      -7.711   5.815  67.071  1.00  0.00    -0.101 A  
HETATM    7  C   UNL     1      -8.589   5.818  68.168  1.00  0.00    -0.108 A  
HETATM    8  C   UNL     1      -8.373   3.592  66.408  1.00  0.00    -0.102 A  
HETATM    9  C   UNL     1      -9.375   4.667  68.331  1.00  0.00    -0.186 A  
HETATM   10  C   UNL     1      -9.277   3.571  67.463  1.00  0.00    -0.224 A  
ENDROOT
BRANCH   7  11
HETATM   11  N   UNL     1      -8.697   6.946  68.985  1.00  0.00    -0.131 NA 
HETATM   12  C   UNL     1      -8.888   7.958  71.251  1.00  0.00    -0.135 C  
HETATM   13  C   UNL     1      -9.259   6.760  70.345  1.00  0.00    -0.156 C  
HETATM   14  N   UNL     1      -9.273   9.289  70.725  1.00  0.00    -0.256 NA 
HETATM   15  C   UNL     1      -8.686   9.407  69.367  1.00  0.00    -0.157 C  
HETATM   16  C   UNL     1      -9.034   8.254  68.388  1.00  0.00    -0.136 C  
BRANCH  14  17
HETATM   17  C   UNL     1     -10.737   9.483  70.679  1.00  0.00    -0.309 C  
BRANCH  17  18
HETATM   18  C   UNL     1     -11.221  10.290  69.461  1.00  0.00    -0.261 C  
BRANCH  18  19
HETATM   19  N   UNL     1     -11.492  11.663  69.802  1.00  0.00    -0.282 N  
HETATM   20  C   UNL     1     -12.255  12.083  70.910  1.00  0.00    -0.225 C  
HETATM   21  O   UNL     1     -12.796  11.384  71.749  1.00  0.00    -0.405 OA 
HETATM   22  N   UNL     1     -12.289  13.486  70.858  1.00  0.00    -0.364 NA 
HETATM   23  C   UNL     1     -11.585  13.913  69.736  1.00  0.00    -0.270 A  
HETATM   24  C   UNL     1     -11.363  15.191  69.284  1.00  0.00    -0.313 A  
HETATM   25  C   UNL     1     -10.621  15.320  68.104  1.00  0.00    -0.254 A  
HETATM   26  C   UNL     1     -10.137  14.185  67.419  1.00  0.00    -0.240 A  
HETATM   27  C   UNL     1     -10.376  12.894  67.901  1.00  0.00    -0.233 A  
HETATM   28  C   UNL     1     -11.100  12.787  69.068  1.00  0.00    -0.233 A  
ENDBRANCH  18  19
ENDBRANCH  17  18
ENDBRANCH  14  17
ENDBRANCH   7  11
TORSDOF 4
ENDMDL
MODEL      296
REMARK 921   NORMALIZED FREE ENERGY PREDICTED BY IDOCK:   -3.77 KCAL/MOL
REMARK 922        TOTAL FREE ENERGY PREDICTED BY IDOCK:   -5.27 KCAL/MOL
REMARK 923 INTER-LIGAND FREE ENERGY PREDICTED BY IDOCK:   -4.71 KCAL/MOL
REMARK 924 INTRA-LIGAND FREE ENERGY PREDICTED BY IDOCK:   -0.56 KCAL/MOL
REMARK 927      BINDING AFFINITY PREDICTED BY RF-SCORE:    0.00 PKD
ROOT
HETATM    1  F   UNL     1     -11.860  12.915  65.544  1.00  0.00    -0.357 F  
HETATM    2  C   UNL     1     -11.545  14.049  66.232  1.00  0.00    -0.369 C  
HETATM    3  C   UNL     1     -10.288  13.931  67.053  1.00  0.00    -0.267 A  
HETATM    4  F   UNL     1     -11.475  15.040  65.302  1.00  0.00    -0.339 F  
HETATM    5  F   UNL     1     -12.638  14.330  66.996  1.00  0.00    -0.406 F  
HETATM    6  C   UNL     1      -9.567  12.724  67.075  1.00  0.00    -0.229 A  
HETATM    7  C   UNL     1      -8.416  12.534  67.857  1.00  0.00    -0.171 A  
HETATM    8  C   UNL     1      -9.820  15.009  67.805  1.00  0.00    -0.220 A  
HETATM    9  C   UNL     1      -7.981  13.647  68.594  1.00  0.00    -0.083 A  
HETATM   10  C   UNL     1      -8.665  14.870  68.566  1.00  0.00    -0.172 A  
ENDROOT
BRANCH   7  11
HETATM   11  N   UNL     1      -7.730  11.317  67.824  1.00  0.00    -0.109 NA 
HETATM   12  C   UNL     1      -5.972   9.859  66.835  1.00  0.00    -0.055 C  
HETATM   13  C   UNL     1      -7.030  10.956  66.568  1.00  0.00    -0.139 C  
HETATM   14  N   UNL     1      -6.487   8.634  67.494  1.00  0.00    -0.057 NA 
HETATM   15  C   UNL     1      -7.178   9.067  68.735  1.00  0.00    -0.075 C  
HETATM   16  C   UNL     1      -8.273  10.149  68.547  1.00  0.00    -0.111 C  
BRANCH  14  17
HETATM   17  C   UNL     1      -7.403   7.863  66.629  1.00  0.00    -0.088 C  
BRANCH  17  18
HETATM   18  C   UNL     1      -7.470   6.364  66.971  1.00  0.00    -0.084 C  
BRANCH  18  19
HETATM   19  N   UNL     1      -8.702   5.767  66.522  1.00  0.00    -0.120 N  
HETATM   20  C   UNL     1      -9.978   6.069  67.037  1.00  0.00    -0.163 C  
HETATM   21  O   UNL     1     -10.256   6.865  67.918  1.00  0.00    -0.154 OA 
HETATM   22  N   UNL     1     -10.888   5.254  66.344  1.00  0.00    -0.238 NA 
HETATM   23  C   UNL     1     -10.186   4.458  65.444  1.00  0.00    -0.228 A  
HETATM   24  C   UNL     1     -10.659   3.513  64.567  1.00  0.00    -0.032 A  
HETATM   25  C   UNL     1      -9.707   2.851  63.783  1.00  0.00    -0.133 A  
HETATM   26  C   UNL     1      -8.331   3.145  63.903  1.00  0.00    -0.090 A  
HETATM   27  C   UNL     1      -7.875   4.113  64.803  1.00  0.00    -0.085 A  
HETATM   28  C   UNL     1      -8.827   4.760  65.559  1.00  0.00    -0.139 A  
ENDBRANCH  18  19
ENDBRANCH  17  18
ENDBRANCH  14  17
ENDBRANCH   7  11
TORSDOF 4
ENDMDL
MODEL      297
REMARK 921   NORMALIZED FREE ENERGY PREDICTED BY IDOCK:   -3.76 KCAL/MOL
REMARK 922        TOTAL FREE ENERGY PREDICTED BY IDOCK:   -5.26 KCAL/MOL
REMARK 923 INTER-LIGAND FREE ENERGY PREDICTED BY IDOCK:   -5.07 KCAL/MOL
REMARK 924 INTRA-LIGAND FREE ENERGY PREDICTED BY IDOCK:   -0.19 KCAL/MOL
REMARK 927      BINDING AFFINITY PREDICTED BY RF-SCORE:    0.00 PKD
ROOT
HETATM    1  F   UNL     1     -11.598  12.047  65.235  1.00  0.00    -0.374 F  
HETATM    2  C   UNL     1     -11.745  13.346  65.619  1.00  0.00    -0.346 C  
HETATM    3  C   UNL     1     -10.586  13.876  66.423  1.00  0.00    -0.280 A  
HETATM    4  F   UNL     1     -11.956  14.050  64.474  1.00  0.00    -0.372 F  
HETATM    5  F   UNL     1     -12.919  13.394  66.309  1.00  0.00    -0.286 F  
HETATM    6  C   UNL     1      -9.496  13.042  66.727  1.00  0.00    -0.250 A  
HETATM    7  C   UNL     1      -8.409  13.459  67.513  1.00  0.00    -0.190 A  
HETATM    8  C   UNL     1     -10.574  15.194  66.880  1.00  0.00    -0.297 A  
HETATM    9  C   UNL     1      -8.439  14.793  67.948  1.00  0.00    -0.156 A  
HETATM   10  C   UNL     1      -9.500  15.653  67.633  1.00  0.00    -0.211 A  
ENDROOT
BRANCH   7  11
HETATM   11  N   UNL     1      -7.344  12.591  67.767  1.00  0.00    -0.110 NA 
HETATM   12  C   UNL     1      -5.790  10.803  67.004  1.00  0.00    -0.058 C  
HETATM   13  C   UNL     1      -7.220  11.385  66.913  1.00  0.00    -0.144 C  
HETATM   14  N   UNL     1      -5.319  10.498  68.376  1.00  0.00    -0.034 NA 
HETATM   15  C   UNL     1      -5.474  11.740  69.175  1.00  0.00    -0.048 C  
HETATM   16  C   UNL     1      -6.891  12.372  69.156  1.00  0.00    -0.069 C  
BRANCH  14  17
HETATM   17  C   UNL     1      -6.059   9.381  68.998  1.00  0.00    -0.042 C  
BRANCH  17  18
HETATM   18  C   UNL     1      -7.156   8.783  68.099  1.00  0.00    -0.078 C  
BRANCH  18  19
HETATM   19  N   UNL     1      -7.898   7.750  68.775  1.00  0.00    -0.120 N  
HETATM   20  C   UNL     1      -7.518   6.394  68.839  1.00  0.00    -0.088 C  
HETATM   21  O   UNL     1      -6.526   5.876  68.356  1.00  0.00    -0.042 OA 
HETATM   22  N   UNL     1      -8.522   5.735  69.564  1.00  0.00    -0.111 NA 
HETATM   23  C   UNL     1      -9.504   6.657  69.917  1.00  0.00    -0.156 A  
HETATM   24  C   UNL     1     -10.668   6.462  70.621  1.00  0.00    -0.310 A  
HETATM   25  C   UNL     1     -11.479   7.585  70.817  1.00  0.00    -0.305 A  
HETATM   26  C   UNL     1     -11.112   8.848  70.305  1.00  0.00    -0.251 A  
HETATM   27  C   UNL     1      -9.921   9.021  69.593  1.00  0.00    -0.196 A  
HETATM   28  C   UNL     1      -9.131   7.906  69.418  1.00  0.00    -0.145 A  
ENDBRANCH  18  19
ENDBRANCH  17  18
ENDBRANCH  14  17
ENDBRANCH   7  11
TORSDOF 4
ENDMDL
MODEL      298
REMARK 921   NORMALIZED FREE ENERGY PREDICTED BY IDOCK:   -3.75 KCAL/MOL
REMARK 922        TOTAL FREE ENERGY PREDICTED BY IDOCK:   -5.24 KCAL/MOL
REMARK 923 INTER-LIGAND FREE ENERGY PREDICTED BY IDOCK:   -4.55 KCAL/MOL
REMARK 924 INTRA-LIGAND FREE ENERGY PREDICTED BY IDOCK:   -0.69 KCAL/MOL
REMARK 927      BINDING AFFINITY PREDICTED BY RF-SCORE:    0.00 PKD
ROOT
HETATM    1  F   UNL     1     -12.197   6.158  72.442  1.00  0.00    -0.341 F  
HETATM    2  C   UNL     1     -11.090   5.505  72.896  1.00  0.00    -0.299 C  
HETATM    3  C   UNL     1      -9.828   5.862  72.155  1.00  0.00    -0.185 A  
HETATM    4  F   UNL     1     -11.016   5.783  74.226  1.00  0.00    -0.185 F  
HETATM    5  F   UNL     1     -11.385   4.178  72.808  1.00  0.00    -0.176 F  
HETATM    6  C   UNL     1      -9.868   6.778  71.089  1.00  0.00    -0.188 A  
HETATM    7  C   UNL     1      -8.737   7.115  70.327  1.00  0.00    -0.144 A  
HETATM    8  C   UNL     1      -8.605   5.291  72.508  1.00  0.00    -0.121 A  
HETATM    9  C   UNL     1      -7.529   6.520  70.720  1.00  0.00    -0.087 A  
HETATM   10  C   UNL     1      -7.458   5.626  71.798  1.00  0.00    -0.094 A  
ENDROOT
BRANCH   7  11
HETATM   11  N   UNL     1      -8.834   8.047  69.291  1.00  0.00    -0.141 NA 
HETATM   12  C   UNL     1      -8.315   8.739  66.956  1.00  0.00    -0.103 C  
HETATM   13  C   UNL     1      -7.817   7.987  68.213  1.00  0.00    -0.123 C  
HETATM   14  N   UNL     1      -8.725  10.145  67.184  1.00  0.00    -0.129 NA 
HETATM   15  C   UNL     1      -9.735  10.133  68.272  1.00  0.00    -0.141 C  
HETATM   16  C   UNL     1      -9.299   9.419  69.578  1.00  0.00    -0.180 C  
BRANCH  14  17
HETATM   17  C   UNL     1      -7.588  11.020  67.537  1.00  0.00    -0.106 C  
BRANCH  17  18
HETATM   18  C   UNL     1      -7.544  12.337  66.742  1.00  0.00     0.104 C  
BRANCH  18  19
HETATM   19  N   UNL     1      -7.673  13.486  67.601  1.00  0.00    -0.161 N  
HETATM   20  C   UNL     1      -6.615  14.079  68.318  1.00  0.00    -0.110 C  
HETATM   21  O   UNL     1      -5.444  13.741  68.333  1.00  0.00    -0.084 OA 
HETATM   22  N   UNL     1      -7.175  15.145  69.040  1.00  0.00    -0.136 NA 
HETATM   23  C   UNL     1      -8.543  15.191  68.789  1.00  0.00    -0.182 A  
HETATM   24  C   UNL     1      -9.489  16.057  69.281  1.00  0.00    -0.245 A  
HETATM   25  C   UNL     1     -10.808  15.854  68.860  1.00  0.00    -0.274 A  
HETATM   26  C   UNL     1     -11.138  14.802  67.977  1.00  0.00    -0.294 A  
HETATM   27  C   UNL     1     -10.156  13.934  67.489  1.00  0.00    -0.244 A  
HETATM   28  C   UNL     1      -8.862  14.155  67.909  1.00  0.00    -0.182 A  
ENDBRANCH  18  19
ENDBRANCH  17  18
ENDBRANCH  14  17
ENDBRANCH   7  11
TORSDOF 4
ENDMDL
MODEL      299
REMARK 921   NORMALIZED FREE ENERGY PREDICTED BY IDOCK:   -3.73 KCAL/MOL
REMARK 922        TOTAL FREE ENERGY PREDICTED BY IDOCK:   -5.23 KCAL/MOL
REMARK 923 INTER-LIGAND FREE ENERGY PREDICTED BY IDOCK:   -5.01 KCAL/MOL
REMARK 924 INTRA-LIGAND FREE ENERGY PREDICTED BY IDOCK:   -0.22 KCAL/MOL
REMARK 927      BINDING AFFINITY PREDICTED BY RF-SCORE:    0.00 PKD
ROOT
HETATM    1  F   UNL     1      -7.836   3.321  68.540  1.00  0.00    -0.058 F  
HETATM    2  C   UNL     1      -8.967   3.438  69.291  1.00  0.00    -0.117 C  
HETATM    3  C   UNL     1      -9.556   4.825  69.289  1.00  0.00    -0.243 A  
HETATM    4  F   UNL     1      -9.829   2.501  68.811  1.00  0.00    -0.199 F  
HETATM    5  F   UNL     1      -8.622   3.023  70.542  1.00  0.00    -0.076 F  
HETATM    6  C   UNL     1      -8.929   5.859  68.572  1.00  0.00    -0.113 A  
HETATM    7  C   UNL     1      -9.399   7.183  68.570  1.00  0.00    -0.136 A  
HETATM    8  C   UNL     1     -10.724   5.108  69.998  1.00  0.00    -0.083 A  
HETATM    9  C   UNL     1     -10.578   7.420  69.294  1.00  0.00    -0.220 A  
HETATM   10  C   UNL     1     -11.238   6.400  69.993  1.00  0.00    -0.475 A  
ENDROOT
BRANCH   7  11
HETATM   11  N   UNL     1      -8.744   8.166  67.823  1.00  0.00    -0.130 NA 
HETATM   12  C   UNL     1      -7.017   9.950  67.649  1.00  0.00    -0.086 C  
HETATM   13  C   UNL     1      -8.043   9.242  68.565  1.00  0.00    -0.106 C  
HETATM   14  N   UNL     1      -7.568  10.488  66.382  1.00  0.00    -0.126 NA 
HETATM   15  C   UNL     1      -8.256   9.365  65.696  1.00  0.00    -0.120 C  
HETATM   16  C   UNL     1      -9.322   8.620  66.542  1.00  0.00    -0.200 C  
BRANCH  14  17
HETATM   17  C   UNL     1      -8.496  11.616  66.598  1.00  0.00    -0.165 C  
BRANCH  17  18
HETATM   18  C   UNL     1      -8.063  12.576  67.720  1.00  0.00    -0.164 C  
BRANCH  18  19
HETATM   19  N   UNL     1      -8.025  13.943  67.270  1.00  0.00    -0.162 N  
HETATM   20  C   UNL     1      -6.903  14.792  67.362  1.00  0.00    -0.070 C  
HETATM   21  O   UNL     1      -5.804  14.525  67.817  1.00  0.00    -0.227 OA 
HETATM   22  N   UNL     1      -7.300  16.031  66.836  1.00  0.00    -0.221 NA 
HETATM   23  C   UNL     1      -8.635  15.952  66.452  1.00  0.00    -0.328 A  
HETATM   24  C   UNL     1      -9.439  16.918  65.896  1.00  0.00    -0.148 A  
HETATM   25  C   UNL     1     -10.762  16.553  65.622  1.00  0.00    -0.257 A  
HETATM   26  C   UNL     1     -11.236  15.256  65.912  1.00  0.00    -0.237 A  
HETATM   27  C   UNL     1     -10.397  14.289  66.476  1.00  0.00    -0.278 A  
HETATM   28  C   UNL     1      -9.096  14.664  66.731  1.00  0.00    -0.264 A  
ENDBRANCH  18  19
ENDBRANCH  17  18
ENDBRANCH  14  17
ENDBRANCH   7  11
TORSDOF 4
ENDMDL
MODEL      300
REMARK 921   NORMALIZED FREE ENERGY PREDICTED BY IDOCK:   -3.71 KCAL/MOL
REMARK 922        TOTAL FREE ENERGY PREDICTED BY IDOCK:   -5.20 KCAL/MOL
REMARK 923 INTER-LIGAND FREE ENERGY PREDICTED BY IDOCK:   -5.19 KCAL/MOL
REMARK 924 INTRA-LIGAND FREE ENERGY PREDICTED BY IDOCK:   -0.01 KCAL/MOL
REMARK 927      BINDING AFFINITY PREDICTED BY RF-SCORE:    0.00 PKD
ROOT
HETATM    1  F   UNL     1     -10.390  18.895  70.170  1.00  0.00     0.163 F  
HETATM    2  C   UNL     1      -9.847  19.398  69.026  1.00  0.00    -0.419 C  
HETATM    3  C   UNL     1      -9.919  18.455  67.853  1.00  0.00    -0.370 A  
HETATM    4  F   UNL     1     -10.492  20.574  68.795  1.00  0.00    -0.463 F  
HETATM    5  F   UNL     1      -8.564  19.732  69.344  1.00  0.00    -0.308 F  
HETATM    6  C   UNL     1     -10.491  17.180  68.005  1.00  0.00    -0.369 A  
HETATM    7  C   UNL     1     -10.544  16.236  66.965  1.00  0.00    -0.284 A  
HETATM    8  C   UNL     1      -9.420  18.826  66.604  1.00  0.00    -0.346 A  
HETATM    9  C   UNL     1     -10.033  16.655  65.727  1.00  0.00    -0.271 A  
HETATM   10  C   UNL     1      -9.485  17.931  65.542  1.00  0.00     0.803 A  
ENDROOT
BRANCH   7  11
HETATM   11  N   UNL     1     -11.141  14.990  67.170  1.00  0.00    -0.327 NA 
HETATM   12  C   UNL     1     -12.020  13.248  68.715  1.00  0.00    -0.300 C  
HETATM   13  C   UNL     1     -10.953  14.346  68.493  1.00  0.00    -0.251 C  
HETATM   14  N   UNL     1     -12.090  12.212  67.656  1.00  0.00    -0.488 NA 
HETATM   15  C   UNL     1     -12.272  12.923  66.366  1.00  0.00    -0.231 C  
HETATM   16  C   UNL     1     -11.224  14.024  66.056  1.00  0.00    -0.310 C  
BRANCH  14  17
HETATM   17  C   UNL     1     -10.887  11.357  67.615  1.00  0.00    -0.237 C  
BRANCH  17  18
HETATM   18  C   UNL     1     -10.039  11.409  68.899  1.00  0.00    -0.150 C  
BRANCH  18  19
HETATM   19  N   UNL     1      -8.630  11.322  68.615  1.00  0.00    -0.154 N  
HETATM   20  C   UNL     1      -7.963  12.055  67.614  1.00  0.00    -0.150 C  
HETATM   21  O   UNL     1      -8.442  12.868  66.843  1.00  0.00    -0.174 OA 
HETATM   22  N   UNL     1      -6.618  11.655  67.660  1.00  0.00    -0.074 NA 
HETATM   23  C   UNL     1      -6.469  10.686  68.648  1.00  0.00    -0.051 A  
HETATM   24  C   UNL     1      -5.339  10.009  69.039  1.00  0.00    -0.035 A  
HETATM   25  C   UNL     1      -5.492   9.070  70.064  1.00  0.00    -0.028 A  
HETATM   26  C   UNL     1      -6.753   8.833  70.655  1.00  0.00    -0.048 A  
HETATM   27  C   UNL     1      -7.888   9.536  70.240  1.00  0.00    -0.180 A  
HETATM   28  C   UNL     1      -7.716  10.463  69.235  1.00  0.00    -0.140 A  
ENDBRANCH  18  19
ENDBRANCH  17  18
ENDBRANCH  14  17
ENDBRANCH   7  11
TORSDOF 4
ENDMDL
MODEL      301
REMARK 921   NORMALIZED FREE ENERGY PREDICTED BY IDOCK:   -3.70 KCAL/MOL
REMARK 922        TOTAL FREE ENERGY PREDICTED BY IDOCK:   -5.19 KCAL/MOL
REMARK 923 INTER-LIGAND FREE ENERGY PREDICTED BY IDOCK:   -4.49 KCAL/MOL
REMARK 924 INTRA-LIGAND FREE ENERGY PREDICTED BY IDOCK:   -0.70 KCAL/MOL
REMARK 927      BINDING AFFINITY PREDICTED BY RF-SCORE:    0.00 PKD
ROOT
HETATM    1  F   UNL     1     -11.628  17.136  68.164  1.00  0.00    -0.119 F  
HETATM    2  C   UNL     1     -10.430  17.655  67.775  1.00  0.00    -0.378 C  
HETATM    3  C   UNL     1      -9.342  16.624  67.624  1.00  0.00    -0.224 A  
HETATM    4  F   UNL     1     -10.677  18.332  66.621  1.00  0.00    -0.371 F  
HETATM    5  F   UNL     1     -10.121  18.602  68.705  1.00  0.00    -0.365 F  
HETATM    6  C   UNL     1      -9.606  15.271  67.896  1.00  0.00    -0.199 A  
HETATM    7  C   UNL     1      -8.624  14.269  67.823  1.00  0.00    -0.177 A  
HETATM    8  C   UNL     1      -8.058  16.992  67.217  1.00  0.00    -0.203 A  
HETATM    9  C   UNL     1      -7.350  14.685  67.407  1.00  0.00    -0.195 A  
HETATM   10  C   UNL     1      -7.068  16.023  67.101  1.00  0.00    -0.248 A  
ENDROOT
BRANCH   7  11
HETATM   11  N   UNL     1      -8.950  12.936  68.087  1.00  0.00    -0.200 NA 
HETATM   12  C   UNL     1      -8.263  10.638  68.751  1.00  0.00    -0.142 C  
HETATM   13  C   UNL     1      -7.863  11.931  68.002  1.00  0.00    -0.140 C  
HETATM   14  N   UNL     1      -9.545  10.030  68.321  1.00  0.00    -0.139 NA 
HETATM   15  C   UNL     1     -10.583  11.087  68.426  1.00  0.00    -0.193 C  
HETATM   16  C   UNL     1     -10.267  12.408  67.677  1.00  0.00    -0.207 C  
BRANCH  14  17
HETATM   17  C   UNL     1      -9.487   9.490  66.948  1.00  0.00    -0.158 C  
BRANCH  17  18
HETATM   18  C   UNL     1      -9.023   8.024  66.873  1.00  0.00    -0.138 C  
BRANCH  18  19
HETATM   19  N   UNL     1      -7.710   7.907  66.291  1.00  0.00    -0.090 N  
HETATM   20  C   UNL     1      -6.532   7.627  67.011  1.00  0.00    -0.054 C  
HETATM   21  O   UNL     1      -6.420   7.434  68.210  1.00  0.00    -0.042 OA 
HETATM   22  N   UNL     1      -5.486   7.625  66.075  1.00  0.00    -0.028 NA 
HETATM   23  C   UNL     1      -6.006   7.919  64.817  1.00  0.00    -0.045 A  
HETATM   24  C   UNL     1      -5.357   8.030  63.612  1.00  0.00    -0.049 A  
HETATM   25  C   UNL     1      -6.144   8.352  62.501  1.00  0.00    -0.087 A  
HETATM   26  C   UNL     1      -7.535   8.556  62.628  1.00  0.00    -0.100 A  
HETATM   27  C   UNL     1      -8.174   8.435  63.866  1.00  0.00    -0.106 A  
HETATM   28  C   UNL     1      -7.383   8.109  64.947  1.00  0.00    -0.087 A  
ENDBRANCH  18  19
ENDBRANCH  17  18
ENDBRANCH  14  17
ENDBRANCH   7  11
TORSDOF 4
ENDMDL
MODEL      302
REMARK 921   NORMALIZED FREE ENERGY PREDICTED BY IDOCK:   -3.63 KCAL/MOL
REMARK 922        TOTAL FREE ENERGY PREDICTED BY IDOCK:   -5.10 KCAL/MOL
REMARK 923 INTER-LIGAND FREE ENERGY PREDICTED BY IDOCK:   -4.61 KCAL/MOL
REMARK 924 INTRA-LIGAND FREE ENERGY PREDICTED BY IDOCK:   -0.49 KCAL/MOL
REMARK 927      BINDING AFFINITY PREDICTED BY RF-SCORE:    0.00 PKD
ROOT
HETATM    1  F   UNL     1      -7.789   3.578  69.111  1.00  0.00    -0.052 F  
HETATM    2  C   UNL     1      -8.824   3.788  69.973  1.00  0.00    -0.087 C  
HETATM    3  C   UNL     1      -9.391   5.183  69.912  1.00  0.00    -0.196 A  
HETATM    4  F   UNL     1      -9.748   2.832  69.682  1.00  0.00    -0.212 F  
HETATM    5  F   UNL     1      -8.341   3.478  71.209  1.00  0.00    -0.063 F  
HETATM    6  C   UNL     1      -8.839   6.134  69.037  1.00  0.00    -0.123 A  
HETATM    7  C   UNL     1      -9.288   7.463  68.968  1.00  0.00    -0.145 A  
HETATM    8  C   UNL     1     -10.465   5.555  70.722  1.00  0.00    -0.330 A  
HETATM    9  C   UNL     1     -10.372   7.791  69.798  1.00  0.00    -0.221 A  
HETATM   10  C   UNL     1     -10.959   6.852  70.658  1.00  0.00    -0.304 A  
ENDROOT
BRANCH   7  11
HETATM   11  N   UNL     1      -8.713   8.360  68.064  1.00  0.00    -0.138 NA 
HETATM   12  C   UNL     1      -7.090  10.182  67.571  1.00  0.00    -0.087 C  
HETATM   13  C   UNL     1      -8.047   9.563  68.618  1.00  0.00    -0.097 C  
HETATM   14  N   UNL     1      -7.711  10.507  66.265  1.00  0.00    -0.130 NA 
HETATM   15  C   UNL     1      -8.361   9.266  65.772  1.00  0.00    -0.123 C  
HETATM   16  C   UNL     1      -9.356   8.598  66.757  1.00  0.00    -0.179 C  
BRANCH  14  17
HETATM   17  C   UNL     1      -8.692  11.608  66.357  1.00  0.00    -0.170 C  
BRANCH  17  18
HETATM   18  C   UNL     1      -8.233  12.779  67.245  1.00  0.00    -0.181 C  
BRANCH  18  19
HETATM   19  N   UNL     1      -9.350  13.498  67.801  1.00  0.00    -0.204 N  
HETATM   20  C   UNL     1      -9.499  14.899  67.776  1.00  0.00    -0.203 C  
HETATM   21  O   UNL     1      -8.740  15.720  67.290  1.00  0.00    -0.176 OA 
HETATM   22  N   UNL     1     -10.703  15.182  68.440  1.00  0.00    -0.242 NA 
HETATM   23  C   UNL     1     -11.266  13.988  68.881  1.00  0.00    -0.272 A  
HETATM   24  C   UNL     1     -12.432  13.781  69.579  1.00  0.00    -0.123 A  
HETATM   25  C   UNL     1     -12.744  12.456  69.902  1.00  0.00     0.371 A  
HETATM   26  C   UNL     1     -11.892  11.394  69.529  1.00  0.00    -0.426 A  
HETATM   27  C   UNL     1     -10.711  11.630  68.817  1.00  0.00    -0.254 A  
HETATM   28  C   UNL     1     -10.425  12.940  68.501  1.00  0.00    -0.247 A  
ENDBRANCH  18  19
ENDBRANCH  17  18
ENDBRANCH  14  17
ENDBRANCH   7  11
TORSDOF 4
ENDMDL
MODEL      303
REMARK 921   NORMALIZED FREE ENERGY PREDICTED BY IDOCK:   -3.62 KCAL/MOL
REMARK 922        TOTAL FREE ENERGY PREDICTED BY IDOCK:   -5.09 KCAL/MOL
REMARK 923 INTER-LIGAND FREE ENERGY PREDICTED BY IDOCK:   -5.16 KCAL/MOL
REMARK 924 INTRA-LIGAND FREE ENERGY PREDICTED BY IDOCK:    0.06 KCAL/MOL
REMARK 927      BINDING AFFINITY PREDICTED BY RF-SCORE:    0.00 PKD
ROOT
HETATM    1  F   UNL     1      -5.778   5.470  66.021  1.00  0.00    -0.015 F  
HETATM    2  C   UNL     1      -6.807   4.627  65.721  1.00  0.00    -0.058 C  
HETATM    3  C   UNL     1      -8.161   5.161  66.109  1.00  0.00    -0.109 A  
HETATM    4  F   UNL     1      -6.702   4.377  64.387  1.00  0.00    -0.039 F  
HETATM    5  F   UNL     1      -6.514   3.453  66.346  1.00  0.00    -0.033 F  
HETATM    6  C   UNL     1      -8.275   6.413  66.738  1.00  0.00    -0.110 A  
HETATM    7  C   UNL     1      -9.502   6.944  67.170  1.00  0.00    -0.140 A  
HETATM    8  C   UNL     1      -9.320   4.426  65.855  1.00  0.00    -0.161 A  
HETATM    9  C   UNL     1     -10.640   6.172  66.890  1.00  0.00    -0.380 A  
HETATM   10  C   UNL     1     -10.556   4.934  66.237  1.00  0.00    -0.307 A  
ENDROOT
BRANCH   7  11
HETATM   11  N   UNL     1      -9.556   8.203  67.773  1.00  0.00    -0.148 NA 
HETATM   12  C   UNL     1     -10.845  10.231  68.422  1.00  0.00    -0.245 C  
HETATM   13  C   UNL     1     -10.652   9.115  67.368  1.00  0.00    -0.244 C  
HETATM   14  N   UNL     1      -9.629  11.017  68.738  1.00  0.00    -0.195 NA 
HETATM   15  C   UNL     1      -8.575  10.047  69.129  1.00  0.00    -0.158 C  
HETATM   16  C   UNL     1      -8.303   8.909  68.110  1.00  0.00    -0.125 C  
BRANCH  14  17
HETATM   17  C   UNL     1      -9.176  11.849  67.604  1.00  0.00    -0.183 C  
BRANCH  17  18
HETATM   18  C   UNL     1      -9.662  13.308  67.669  1.00  0.00    -0.219 C  
BRANCH  18  19
HETATM   19  N   UNL     1      -8.590  14.240  67.427  1.00  0.00    -0.200 N  
HETATM   20  C   UNL     1      -7.223  13.965  67.626  1.00  0.00    -0.174 C  
HETATM   21  O   UNL     1      -6.722  12.924  68.017  1.00  0.00    -0.082 OA 
HETATM   22  N   UNL     1      -6.530  15.141  67.296  1.00  0.00    -0.298 NA 
HETATM   23  C   UNL     1      -7.450  16.118  66.927  1.00  0.00    -0.231 A  
HETATM   24  C   UNL     1      -7.230  17.416  66.535  1.00  0.00    -0.305 A  
HETATM   25  C   UNL     1      -8.361  18.182  66.232  1.00  0.00    -0.228 A  
HETATM   26  C   UNL     1      -9.659  17.637  66.334  1.00  0.00    -0.285 A  
HETATM   27  C   UNL     1      -9.857  16.311  66.734  1.00  0.00    -0.254 A  
HETATM   28  C   UNL     1      -8.731  15.571  67.020  1.00  0.00    -0.231 A  
ENDBRANCH  18  19
ENDBRANCH  17  18
ENDBRANCH  14  17
ENDBRANCH   7  11
TORSDOF 4
ENDMDL
MODEL      304
REMARK 921   NORMALIZED FREE ENERGY PREDICTED BY IDOCK:   -3.60 KCAL/MOL
REMARK 922        TOTAL FREE ENERGY PREDICTED BY IDOCK:   -5.06 KCAL/MOL
REMARK 923 INTER-LIGAND FREE ENERGY PREDICTED BY IDOCK:   -5.37 KCAL/MOL
REMARK 924 INTRA-LIGAND FREE ENERGY PREDICTED BY IDOCK:    0.31 KCAL/MOL
REMARK 927      BINDING AFFINITY PREDICTED BY RF-SCORE:    0.00 PKD
ROOT
HETATM    1  F   UNL     1      -9.350   3.921  63.543  1.00  0.00    -0.111 F  
HETATM    2  C   UNL     1      -9.369   2.785  64.296  1.00  0.00    -0.131 C  
HETATM    3  C   UNL     1      -9.240   3.034  65.776  1.00  0.00    -0.124 A  
HETATM    4  F   UNL     1     -10.524   2.143  63.969  1.00  0.00    -0.121 F  
HETATM    5  F   UNL     1      -8.360   2.007  63.811  1.00  0.00    -0.076 F  
HETATM    6  C   UNL     1      -9.096   4.345  66.263  1.00  0.00    -0.126 A  
HETATM    7  C   UNL     1      -8.922   4.641  67.625  1.00  0.00    -0.113 A  
HETATM    8  C   UNL     1      -9.256   1.976  66.685  1.00  0.00    -0.006 A  
HETATM    9  C   UNL     1      -8.949   3.545  68.502  1.00  0.00    -0.182 A  
HETATM   10  C   UNL     1      -9.120   2.232  68.044  1.00  0.00    -0.223 A  
ENDROOT
BRANCH   7  11
HETATM   11  N   UNL     1      -8.803   5.966  68.052  1.00  0.00    -0.110 NA 
HETATM   12  C   UNL     1      -9.204   7.722  69.770  1.00  0.00    -0.150 C  
HETATM   13  C   UNL     1      -9.746   6.441  69.094  1.00  0.00    -0.136 C  
HETATM   14  N   UNL     1      -8.876   8.833  68.844  1.00  0.00    -0.137 NA 
HETATM   15  C   UNL     1      -7.938   8.290  67.830  1.00  0.00    -0.122 C  
HETATM   16  C   UNL     1      -8.422   7.017  67.087  1.00  0.00    -0.121 C  
BRANCH  14  17
HETATM   17  C   UNL     1     -10.073   9.406  68.194  1.00  0.00    -0.181 C  
BRANCH  17  18
HETATM   18  C   UNL     1      -9.786  10.668  67.361  1.00  0.00    -0.170 C  
BRANCH  18  19
HETATM   19  N   UNL     1     -10.450  11.827  67.899  1.00  0.00    -0.191 N  
HETATM   20  C   UNL     1     -10.436  13.109  67.312  1.00  0.00    -0.243 C  
HETATM   21  O   UNL     1      -9.885  13.448  66.280  1.00  0.00    -0.281 OA 
HETATM   22  N   UNL     1     -11.178  13.942  68.164  1.00  0.00    -0.256 NA 
HETATM   23  C   UNL     1     -11.617  13.197  69.255  1.00  0.00    -0.314 A  
HETATM   24  C   UNL     1     -12.365  13.596  70.336  1.00  0.00    -0.415 A  
HETATM   25  C   UNL     1     -12.648  12.620  71.298  1.00  0.00    -0.339 A  
HETATM   26  C   UNL     1     -12.176  11.297  71.157  1.00  0.00    -0.351 A  
HETATM   27  C   UNL     1     -11.418  10.916  70.046  1.00  0.00    -0.411 A  
HETATM   28  C   UNL     1     -11.157  11.887  69.105  1.00  0.00    -0.228 A  
ENDBRANCH  18  19
ENDBRANCH  17  18
ENDBRANCH  14  17
ENDBRANCH   7  11
TORSDOF 4
ENDMDL
MODEL      305
REMARK 921   NORMALIZED FREE ENERGY PREDICTED BY IDOCK:   -3.57 KCAL/MOL
REMARK 922        TOTAL FREE ENERGY PREDICTED BY IDOCK:   -5.03 KCAL/MOL
REMARK 923 INTER-LIGAND FREE ENERGY PREDICTED BY IDOCK:   -4.96 KCAL/MOL
REMARK 924 INTRA-LIGAND FREE ENERGY PREDICTED BY IDOCK:   -0.06 KCAL/MOL
REMARK 927      BINDING AFFINITY PREDICTED BY RF-SCORE:    0.00 PKD
ROOT
HETATM    1  F   UNL     1      -9.821   3.349  65.450  1.00  0.00    -0.164 F  
HETATM    2  C   UNL     1      -9.416   3.512  64.159  1.00  0.00    -0.142 C  
HETATM    3  C   UNL     1      -8.765   4.844  63.891  1.00  0.00    -0.111 A  
HETATM    4  F   UNL     1      -8.593   2.461  63.893  1.00  0.00    -0.083 F  
HETATM    5  F   UNL     1     -10.530   3.317  63.398  1.00  0.00    -0.152 F  
HETATM    6  C   UNL     1      -8.639   5.791  64.922  1.00  0.00    -0.065 A  
HETATM    7  C   UNL     1      -8.088   7.068  64.726  1.00  0.00    -0.096 A  
HETATM    8  C   UNL     1      -8.281   5.162  62.621  1.00  0.00    -0.102 A  
HETATM    9  C   UNL     1      -7.612   7.342  63.434  1.00  0.00    -0.117 A  
HETATM   10  C   UNL     1      -7.699   6.404  62.396  1.00  0.00    -0.091 A  
ENDROOT
BRANCH   7  11
HETATM   11  N   UNL     1      -7.971   7.961  65.794  1.00  0.00    -0.103 NA 
HETATM   12  C   UNL     1      -8.932   9.029  67.827  1.00  0.00    -0.127 C  
HETATM   13  C   UNL     1      -9.223   8.450  66.422  1.00  0.00    -0.201 C  
HETATM   14  N   UNL     1      -7.899  10.091  67.870  1.00  0.00    -0.090 NA 
HETATM   15  C   UNL     1      -6.681   9.539  67.225  1.00  0.00    -0.072 C  
HETATM   16  C   UNL     1      -6.886   8.962  65.799  1.00  0.00    -0.072 C  
BRANCH  14  17
HETATM   17  C   UNL     1      -8.329  11.333  67.196  1.00  0.00    -0.151 C  
BRANCH  17  18
HETATM   18  C   UNL     1      -8.222  12.591  68.077  1.00  0.00    -0.166 C  
BRANCH  18  19
HETATM   19  N   UNL     1      -8.638  13.776  67.372  1.00  0.00    -0.192 N  
HETATM   20  C   UNL     1      -8.027  15.040  67.491  1.00  0.00    -0.178 C  
HETATM   21  O   UNL     1      -7.068  15.342  68.181  1.00  0.00    -0.105 OA 
HETATM   22  N   UNL     1      -8.751  15.910  66.660  1.00  0.00    -0.259 NA 
HETATM   23  C   UNL     1      -9.792  15.203  66.066  1.00  0.00    -0.320 A  
HETATM   24  C   UNL     1     -10.754  15.644  65.189  1.00  0.00    -0.463 A  
HETATM   25  C   UNL     1     -11.695  14.700  64.761  1.00  0.00    -0.429 A  
HETATM   26  C   UNL     1     -11.650  13.366  65.219  1.00  0.00    -0.329 A  
HETATM   27  C   UNL     1     -10.659  12.941  66.111  1.00  0.00    -0.287 A  
HETATM   28  C   UNL     1      -9.737  13.882  66.514  1.00  0.00    -0.294 A  
ENDBRANCH  18  19
ENDBRANCH  17  18
ENDBRANCH  14  17
ENDBRANCH   7  11
TORSDOF 4
ENDMDL
MODEL      306
REMARK 921   NORMALIZED FREE ENERGY PREDICTED BY IDOCK:   -3.56 KCAL/MOL
REMARK 922        TOTAL FREE ENERGY PREDICTED BY IDOCK:   -5.02 KCAL/MOL
REMARK 923 INTER-LIGAND FREE ENERGY PREDICTED BY IDOCK:   -4.62 KCAL/MOL
REMARK 924 INTRA-LIGAND FREE ENERGY PREDICTED BY IDOCK:   -0.39 KCAL/MOL
REMARK 927      BINDING AFFINITY PREDICTED BY RF-SCORE:    0.00 PKD
ROOT
HETATM    1  F   UNL     1      -8.608   4.609  63.904  1.00  0.00    -0.110 F  
HETATM    2  C   UNL     1      -7.731   4.035  64.776  1.00  0.00    -0.081 C  
HETATM    3  C   UNL     1      -7.442   4.880  65.989  1.00  0.00    -0.082 A  
HETATM    4  F   UNL     1      -8.264   2.824  65.093  1.00  0.00    -0.086 F  
HETATM    5  F   UNL     1      -6.609   3.772  64.048  1.00  0.00    -0.036 F  
HETATM    6  C   UNL     1      -8.042   6.143  66.132  1.00  0.00    -0.115 A  
HETATM    7  C   UNL     1      -7.776   7.000  67.213  1.00  0.00    -0.109 A  
HETATM    8  C   UNL     1      -6.575   4.429  66.986  1.00  0.00    -0.046 A  
HETATM    9  C   UNL     1      -6.901   6.503  68.192  1.00  0.00    -0.074 A  
HETATM   10  C   UNL     1      -6.313   5.234  68.088  1.00  0.00    -0.036 A  
ENDROOT
BRANCH   7  11
HETATM   11  N   UNL     1      -8.417   8.237  67.311  1.00  0.00    -0.123 NA 
HETATM   12  C   UNL     1     -10.355   9.709  66.789  1.00  0.00    -0.222 C  
HETATM   13  C   UNL     1      -9.443   8.563  66.291  1.00  0.00    -0.231 C  
HETATM   14  N   UNL     1      -9.647  10.944  67.204  1.00  0.00    -0.164 NA 
HETATM   15  C   UNL     1      -8.637  10.547  68.216  1.00  0.00    -0.127 C  
HETATM   16  C   UNL     1      -7.665   9.418  67.781  1.00  0.00    -0.088 C  
BRANCH  14  17
HETATM   17  C   UNL     1      -9.005  11.640  66.071  1.00  0.00    -0.147 C  
BRANCH  17  18
HETATM   18  C   UNL     1      -9.827  12.816  65.513  1.00  0.00    -0.156 C  
BRANCH  18  19
HETATM   19  N   UNL     1     -10.193  13.751  66.545  1.00  0.00    -0.278 N  
HETATM   20  C   UNL     1     -11.498  14.232  66.771  1.00  0.00    -0.367 C  
HETATM   21  O   UNL     1     -12.513  13.947  66.159  1.00  0.00    -0.459 OA 
HETATM   22  N   UNL     1     -11.408  15.132  67.846  1.00  0.00    -0.329 NA 
HETATM   23  C   UNL     1     -10.080  15.217  68.253  1.00  0.00    -0.223 A  
HETATM   24  C   UNL     1      -9.525  15.973  69.257  1.00  0.00    -0.245 A  
HETATM   25  C   UNL     1      -8.141  15.865  69.433  1.00  0.00    -0.178 A  
HETATM   26  C   UNL     1      -7.364  15.022  68.608  1.00  0.00    -0.118 A  
HETATM   27  C   UNL     1      -7.953  14.262  67.594  1.00  0.00    -0.191 A  
HETATM   28  C   UNL     1      -9.318  14.374  67.441  1.00  0.00    -0.199 A  
ENDBRANCH  18  19
ENDBRANCH  17  18
ENDBRANCH  14  17
ENDBRANCH   7  11
TORSDOF 4
ENDMDL
MODEL      307
REMARK 921   NORMALIZED FREE ENERGY PREDICTED BY IDOCK:   -3.51 KCAL/MOL
REMARK 922        TOTAL FREE ENERGY PREDICTED BY IDOCK:   -4.95 KCAL/MOL
REMARK 923 INTER-LIGAND FREE ENERGY PREDICTED BY IDOCK:   -4.38 KCAL/MOL
REMARK 924 INTRA-LIGAND FREE ENERGY PREDICTED BY IDOCK:   -0.57 KCAL/MOL
REMARK 927      BINDING AFFINITY PREDICTED BY RF-SCORE:    0.00 PKD
ROOT
HETATM    1  F   UNL     1     -12.408  13.652  70.179  1.00  0.00    -0.358 F  
HETATM    2  C   UNL     1     -11.689  14.371  69.272  1.00  0.00    -0.317 C  
HETATM    3  C   UNL     1     -10.667  13.555  68.524  1.00  0.00    -0.270 A  
HETATM    4  F   UNL     1     -12.605  14.951  68.449  1.00  0.00    -0.065 F  
HETATM    5  F   UNL     1     -11.122  15.389  69.978  1.00  0.00    -0.227 F  
HETATM    6  C   UNL     1     -10.513  12.186  68.802  1.00  0.00    -0.201 A  
HETATM    7  C   UNL     1      -9.546  11.382  68.176  1.00  0.00    -0.190 A  
HETATM    8  C   UNL     1      -9.859  14.140  67.548  1.00  0.00    -0.235 A  
HETATM    9  C   UNL     1      -8.758  12.012  67.200  1.00  0.00    -0.183 A  
HETATM   10  C   UNL     1      -8.913  13.369  66.883  1.00  0.00    -0.216 A  
ENDROOT
BRANCH   7  11
HETATM   11  N   UNL     1      -9.451  10.022  68.480  1.00  0.00    -0.145 NA 
HETATM   12  C   UNL     1      -8.234   8.130  69.545  1.00  0.00    -0.121 C  
HETATM   13  C   UNL     1      -8.108   9.480  68.800  1.00  0.00    -0.096 C  
HETATM   14  N   UNL     1      -9.039   7.098  68.849  1.00  0.00    -0.132 NA 
HETATM   15  C   UNL     1     -10.362   7.705  68.555  1.00  0.00    -0.198 C  
HETATM   16  C   UNL     1     -10.322   9.052  67.786  1.00  0.00    -0.246 C  
BRANCH  14  17
HETATM   17  C   UNL     1      -8.400   6.616  67.609  1.00  0.00    -0.122 C  
BRANCH  17  18
HETATM   18  C   UNL     1      -8.562   5.104  67.370  1.00  0.00    -0.104 C  
BRANCH  18  19
HETATM   19  N   UNL     1      -8.578   4.782  65.966  1.00  0.00    -0.115 N  
HETATM   20  C   UNL     1      -9.743   4.591  65.196  1.00  0.00    -0.152 C  
HETATM   21  O   UNL     1     -10.902   4.668  65.568  1.00  0.00    -0.278 OA 
HETATM   22  N   UNL     1      -9.313   4.274  63.898  1.00  0.00    -0.152 NA 
HETATM   23  C   UNL     1      -7.921   4.249  63.878  1.00  0.00    -0.090 A  
HETATM   24  C   UNL     1      -7.071   3.980  62.832  1.00  0.00    -0.040 A  
HETATM   25  C   UNL     1      -5.701   4.016  63.111  1.00  0.00    -0.013 A  
HETATM   26  C   UNL     1      -5.228   4.308  64.409  1.00  0.00    -0.012 A  
HETATM   27  C   UNL     1      -6.114   4.580  65.456  1.00  0.00    -0.027 A  
HETATM   28  C   UNL     1      -7.459   4.549  65.160  1.00  0.00    -0.076 A  
ENDBRANCH  18  19
ENDBRANCH  17  18
ENDBRANCH  14  17
ENDBRANCH   7  11
TORSDOF 4
ENDMDL
MODEL      308
REMARK 921   NORMALIZED FREE ENERGY PREDICTED BY IDOCK:   -3.46 KCAL/MOL
REMARK 922        TOTAL FREE ENERGY PREDICTED BY IDOCK:   -4.89 KCAL/MOL
REMARK 923 INTER-LIGAND FREE ENERGY PREDICTED BY IDOCK:   -3.98 KCAL/MOL
REMARK 924 INTRA-LIGAND FREE ENERGY PREDICTED BY IDOCK:   -0.91 KCAL/MOL
REMARK 927      BINDING AFFINITY PREDICTED BY RF-SCORE:    0.00 PKD
ROOT
HETATM    1  F   UNL     1      -5.838   5.371  65.946  1.00  0.00    -0.016 F  
HETATM    2  C   UNL     1      -6.338   4.123  65.720  1.00  0.00    -0.032 C  
HETATM    3  C   UNL     1      -7.353   3.681  66.741  1.00  0.00    -0.068 A  
HETATM    4  F   UNL     1      -6.841   4.149  64.455  1.00  0.00    -0.041 F  
HETATM    5  F   UNL     1      -5.255   3.297  65.674  1.00  0.00    -0.007 F  
HETATM    6  C   UNL     1      -7.690   4.524  67.815  1.00  0.00    -0.081 A  
HETATM    7  C   UNL     1      -8.591   4.152  68.827  1.00  0.00    -0.088 A  
HETATM    8  C   UNL     1      -7.971   2.434  66.643  1.00  0.00    -0.080 A  
HETATM    9  C   UNL     1      -9.190   2.890  68.685  1.00  0.00    -0.233 A  
HETATM   10  C   UNL     1      -8.893   2.044  67.608  1.00  0.00    -0.152 A  
ENDROOT
BRANCH   7  11
HETATM   11  N   UNL     1      -8.901   5.039  69.860  1.00  0.00    -0.100 NA 
HETATM   12  C   UNL     1     -10.390   5.738  71.729  1.00  0.00    -0.221 C  
HETATM   13  C   UNL     1     -10.308   5.086  70.328  1.00  0.00    -0.229 C  
HETATM   14  N   UNL     1      -9.780   7.085  71.834  1.00  0.00    -0.158 NA 
HETATM   15  C   UNL     1      -8.382   6.968  71.347  1.00  0.00    -0.113 C  
HETATM   16  C   UNL     1      -8.217   6.346  69.935  1.00  0.00    -0.126 C  
BRANCH  14  17
HETATM   17  C   UNL     1     -10.517   8.107  71.062  1.00  0.00    -0.201 C  
BRANCH  17  18
HETATM   18  C   UNL     1      -9.980   9.537  71.249  1.00  0.00    -0.082 C  
BRANCH  18  19
HETATM   19  N   UNL     1     -10.162  10.336  70.065  1.00  0.00    -0.220 N  
HETATM   20  C   UNL     1     -11.288  11.142  69.802  1.00  0.00    -0.278 C  
HETATM   21  O   UNL     1     -12.268  11.305  70.508  1.00  0.00    -0.337 OA 
HETATM   22  N   UNL     1     -11.073  11.724  68.542  1.00  0.00    -0.220 NA 
HETATM   23  C   UNL     1      -9.858  11.269  68.037  1.00  0.00    -0.178 A  
HETATM   24  C   UNL     1      -9.248  11.565  66.842  1.00  0.00    -0.181 A  
HETATM   25  C   UNL     1      -8.020  10.943  66.592  1.00  0.00    -0.148 A  
HETATM   26  C   UNL     1      -7.451  10.051  67.527  1.00  0.00    -0.090 A  
HETATM   27  C   UNL     1      -8.091   9.768  68.737  1.00  0.00    -0.102 A  
HETATM   28  C   UNL     1      -9.295  10.397  68.969  1.00  0.00    -0.194 A  
ENDBRANCH  18  19
ENDBRANCH  17  18
ENDBRANCH  14  17
ENDBRANCH   7  11
TORSDOF 4
ENDMDL
MODEL      309
REMARK 921   NORMALIZED FREE ENERGY PREDICTED BY IDOCK:   -3.40 KCAL/MOL
REMARK 922        TOTAL FREE ENERGY PREDICTED BY IDOCK:   -4.82 KCAL/MOL
REMARK 923 INTER-LIGAND FREE ENERGY PREDICTED BY IDOCK:   -5.08 KCAL/MOL
REMARK 924 INTRA-LIGAND FREE ENERGY PREDICTED BY IDOCK:    0.26 KCAL/MOL
REMARK 927      BINDING AFFINITY PREDICTED BY RF-SCORE:    0.00 PKD
ROOT
HETATM    1  F   UNL     1      -9.398   4.241  64.066  1.00  0.00    -0.142 F  
HETATM    2  C   UNL     1      -8.547   3.227  64.390  1.00  0.00    -0.093 C  
HETATM    3  C   UNL     1      -7.826   3.434  65.697  1.00  0.00    -0.085 A  
HETATM    4  F   UNL     1      -9.301   2.093  64.379  1.00  0.00    -0.115 F  
HETATM    5  F   UNL     1      -7.690   3.116  63.337  1.00  0.00    -0.062 F  
HETATM    6  C   UNL     1      -8.046   4.601  66.449  1.00  0.00    -0.103 A  
HETATM    7  C   UNL     1      -7.369   4.876  67.649  1.00  0.00    -0.078 A  
HETATM    8  C   UNL     1      -6.930   2.479  66.180  1.00  0.00    -0.044 A  
HETATM    9  C   UNL     1      -6.481   3.887  68.097  1.00  0.00    -0.038 A  
HETATM   10  C   UNL     1      -6.267   2.701  67.380  1.00  0.00    -0.028 A  
ENDROOT
BRANCH   7  11
HETATM   11  N   UNL     1      -7.643   6.045  68.364  1.00  0.00    -0.090 NA 
HETATM   12  C   UNL     1      -8.625   7.179  70.350  1.00  0.00    -0.142 C  
HETATM   13  C   UNL     1      -8.751   6.007  69.348  1.00  0.00    -0.121 C  
HETATM   14  N   UNL     1      -8.543   8.526  69.738  1.00  0.00    -0.129 NA 
HETATM   15  C   UNL     1      -7.423   8.493  68.764  1.00  0.00    -0.092 C  
HETATM   16  C   UNL     1      -7.491   7.359  67.707  1.00  0.00    -0.101 C  
BRANCH  14  17
HETATM   17  C   UNL     1      -9.800   8.928  69.074  1.00  0.00    -0.180 C  
BRANCH  17  18
HETATM   18  C   UNL     1     -10.593  10.004  69.837  1.00  0.00    -0.282 C  
BRANCH  18  19
HETATM   19  N   UNL     1     -11.070  11.041  68.960  1.00  0.00    -0.223 N  
HETATM   20  C   UNL     1     -11.844  12.147  69.365  1.00  0.00    -0.309 C  
HETATM   21  O   UNL     1     -12.228  12.414  70.491  1.00  0.00    -0.361 OA 
HETATM   22  N   UNL     1     -12.110  12.891  68.204  1.00  0.00    -0.236 NA 
HETATM   23  C   UNL     1     -11.532  12.247  67.114  1.00  0.00    -0.352 A  
HETATM   24  C   UNL     1     -11.541  12.607  65.788  1.00  0.00    -0.431 A  
HETATM   25  C   UNL     1     -10.880  11.750  64.900  1.00  0.00    -0.353 A  
HETATM   26  C   UNL     1     -10.245  10.575  65.357  1.00  0.00    -0.340 A  
HETATM   27  C   UNL     1     -10.250  10.232  66.713  1.00  0.00    -0.286 A  
HETATM   28  C   UNL     1     -10.898  11.092  67.572  1.00  0.00    -0.263 A  
ENDBRANCH  18  19
ENDBRANCH  17  18
ENDBRANCH  14  17
ENDBRANCH   7  11
TORSDOF 4
ENDMDL
MODEL      310
REMARK 921   NORMALIZED FREE ENERGY PREDICTED BY IDOCK:   -3.32 KCAL/MOL
REMARK 922        TOTAL FREE ENERGY PREDICTED BY IDOCK:   -4.72 KCAL/MOL
REMARK 923 INTER-LIGAND FREE ENERGY PREDICTED BY IDOCK:   -5.66 KCAL/MOL
REMARK 924 INTRA-LIGAND FREE ENERGY PREDICTED BY IDOCK:    0.94 KCAL/MOL
REMARK 927      BINDING AFFINITY PREDICTED BY RF-SCORE:    0.00 PKD
ROOT
HETATM    1  F   UNL     1     -11.818  17.191  72.633  1.00  0.00    -0.406 F  
HETATM    2  C   UNL     1     -12.503  16.078  73.019  1.00  0.00    -0.511 C  
HETATM    3  C   UNL     1     -12.660  15.052  71.926  1.00  0.00    -0.403 A  
HETATM    4  F   UNL     1     -11.840  15.592  74.104  1.00  0.00    -0.512 F  
HETATM    5  F   UNL     1     -13.702  16.527  73.484  1.00  0.00    -0.550 F  
HETATM    6  C   UNL     1     -12.140  15.299  70.644  1.00  0.00    -0.399 A  
HETATM    7  C   UNL     1     -12.296  14.407  69.570  1.00  0.00    -0.222 A  
HETATM    8  C   UNL     1     -13.324  13.848  72.164  1.00  0.00    -0.555 A  
HETATM    9  C   UNL     1     -12.967  13.208  69.856  1.00  0.00     0.671 A  
HETATM   10  C   UNL     1     -13.470  12.926  71.134  1.00  0.00     0.249 A  
ENDROOT
BRANCH   7  11
HETATM   11  N   UNL     1     -11.740  14.698  68.321  1.00  0.00    -0.328 NA 
HETATM   12  C   UNL     1     -11.931  14.775  65.841  1.00  0.00    -0.152 C  
HETATM   13  C   UNL     1     -12.320  14.023  67.135  1.00  0.00    -0.199 C  
HETATM   14  N   UNL     1     -10.475  14.977  65.642  1.00  0.00    -0.324 NA 
HETATM   15  C   UNL     1      -9.961  15.649  66.862  1.00  0.00    -0.248 C  
HETATM   16  C   UNL     1     -10.288  14.941  68.203  1.00  0.00    -0.237 C  
BRANCH  14  17
HETATM   17  C   UNL     1      -9.752  13.713  65.399  1.00  0.00    -0.025 C  
BRANCH  17  18
HETATM   18  C   UNL     1      -9.834  12.712  66.565  1.00  0.00    -0.256 C  
BRANCH  18  19
HETATM   19  N   UNL     1      -8.945  11.595  66.376  1.00  0.00    -0.198 N  
HETATM   20  C   UNL     1      -9.259  10.430  65.648  1.00  0.00    -0.182 C  
HETATM   21  O   UNL     1     -10.299  10.174  65.066  1.00  0.00    -0.246 OA 
HETATM   22  N   UNL     1      -8.134   9.594  65.733  1.00  0.00    -0.111 NA 
HETATM   23  C   UNL     1      -7.164  10.221  66.510  1.00  0.00    -0.109 A  
HETATM   24  C   UNL     1      -5.914   9.777  66.866  1.00  0.00    -0.055 A  
HETATM   25  C   UNL     1      -5.152  10.625  67.677  1.00  0.00    -0.036 A  
HETATM   26  C   UNL     1      -5.659  11.870  68.108  1.00  0.00    -0.045 A  
HETATM   27  C   UNL     1      -6.935  12.301  67.731  1.00  0.00    -0.115 A  
HETATM   28  C   UNL     1      -7.666  11.456  66.925  1.00  0.00    -0.155 A  
ENDBRANCH  18  19
ENDBRANCH  17  18
ENDBRANCH  14  17
ENDBRANCH   7  11
TORSDOF 4
ENDMDL
MODEL      311
REMARK 921   NORMALIZED FREE ENERGY PREDICTED BY IDOCK:   -3.27 KCAL/MOL
REMARK 922        TOTAL FREE ENERGY PREDICTED BY IDOCK:   -4.65 KCAL/MOL
REMARK 923 INTER-LIGAND FREE ENERGY PREDICTED BY IDOCK:   -4.91 KCAL/MOL
REMARK 924 INTRA-LIGAND FREE ENERGY PREDICTED BY IDOCK:    0.25 KCAL/MOL
REMARK 927      BINDING AFFINITY PREDICTED BY RF-SCORE:    0.00 PKD
ROOT
HETATM    1  F   UNL     1     -11.737   7.551  70.310  1.00  0.00    -0.266 F  
HETATM    2  C   UNL     1     -11.264   7.152  71.524  1.00  0.00    -0.245 C  
HETATM    3  C   UNL     1      -9.839   7.564  71.785  1.00  0.00    -0.192 A  
HETATM    4  F   UNL     1     -12.134   7.652  72.443  1.00  0.00    -0.307 F  
HETATM    5  F   UNL     1     -11.425   5.799  71.553  1.00  0.00    -0.324 F  
HETATM    6  C   UNL     1      -9.119   8.278  70.812  1.00  0.00    -0.168 A  
HETATM    7  C   UNL     1      -7.773   8.649  70.974  1.00  0.00    -0.108 A  
HETATM    8  C   UNL     1      -9.210   7.245  72.990  1.00  0.00    -0.190 A  
HETATM    9  C   UNL     1      -7.184   8.310  72.202  1.00  0.00    -0.114 A  
HETATM   10  C   UNL     1      -7.890   7.625  73.200  1.00  0.00    -0.142 A  
ENDROOT
BRANCH   7  11
HETATM   11  N   UNL     1      -7.114   9.374  69.978  1.00  0.00    -0.071 NA 
HETATM   12  C   UNL     1      -5.360  11.005  69.301  1.00  0.00    -0.040 C  
HETATM   13  C   UNL     1      -6.384  10.598  70.387  1.00  0.00    -0.117 C  
HETATM   14  N   UNL     1      -5.921  11.185  67.941  1.00  0.00    -0.046 NA 
HETATM   15  C   UNL     1      -6.638   9.931  67.598  1.00  0.00    -0.068 C  
HETATM   16  C   UNL     1      -7.703   9.469  68.627  1.00  0.00    -0.081 C  
BRANCH  14  17
HETATM   17  C   UNL     1      -6.827  12.347  67.847  1.00  0.00    -0.099 C  
BRANCH  17  18
HETATM   18  C   UNL     1      -6.100  13.698  67.721  1.00  0.00    -0.136 C  
BRANCH  18  19
HETATM   19  N   UNL     1      -7.018  14.781  67.483  1.00  0.00    -0.183 N  
HETATM   20  C   UNL     1      -6.714  16.147  67.650  1.00  0.00    -0.152 C  
HETATM   21  O   UNL     1      -5.656  16.636  68.007  1.00  0.00    -0.110 OA 
HETATM   22  N   UNL     1      -7.886  16.855  67.338  1.00  0.00    -0.166 NA 
HETATM   23  C   UNL     1      -8.888  15.946  67.010  1.00  0.00    -0.215 A  
HETATM   24  C   UNL     1     -10.191  16.183  66.646  1.00  0.00    -0.291 A  
HETATM   25  C   UNL     1     -10.984  15.060  66.383  1.00  0.00    -0.336 A  
HETATM   26  C   UNL     1     -10.460  13.754  66.494  1.00  0.00    -0.282 A  
HETATM   27  C   UNL     1      -9.128  13.540  66.865  1.00  0.00    -0.246 A  
HETATM   28  C   UNL     1      -8.361  14.657  67.112  1.00  0.00    -0.211 A  
ENDBRANCH  18  19
ENDBRANCH  17  18
ENDBRANCH  14  17
ENDBRANCH   7  11
TORSDOF 4
ENDMDL
MODEL      312
REMARK 921   NORMALIZED FREE ENERGY PREDICTED BY IDOCK:   -3.19 KCAL/MOL
REMARK 922        TOTAL FREE ENERGY PREDICTED BY IDOCK:   -4.55 KCAL/MOL
REMARK 923 INTER-LIGAND FREE ENERGY PREDICTED BY IDOCK:   -4.20 KCAL/MOL
REMARK 924 INTRA-LIGAND FREE ENERGY PREDICTED BY IDOCK:   -0.35 KCAL/MOL
REMARK 927      BINDING AFFINITY PREDICTED BY RF-SCORE:    0.00 PKD
ROOT
HETATM    1  F   UNL     1     -11.271  18.557  67.421  1.00  0.00    -0.387 F  
HETATM    2  C   UNL     1     -10.175  19.020  68.085  1.00  0.00    -0.396 C  
HETATM    3  C   UNL     1      -9.167  17.949  68.413  1.00  0.00    -0.289 A  
HETATM    4  F   UNL     1      -9.658  20.007  67.303  1.00  0.00    -0.406 F  
HETATM    5  F   UNL     1     -10.655  19.638  69.200  1.00  0.00    -0.302 F  
HETATM    6  C   UNL     1      -9.412  16.612  68.053  1.00  0.00    -0.224 A  
HETATM    7  C   UNL     1      -8.537  15.561  68.373  1.00  0.00    -0.168 A  
HETATM    8  C   UNL     1      -7.980  18.262  69.078  1.00  0.00    -0.106 A  
HETATM    9  C   UNL     1      -7.356  15.923  69.039  1.00  0.00    -0.185 A  
HETATM   10  C   UNL     1      -7.075  17.253  69.382  1.00  0.00    -0.076 A  
ENDROOT
BRANCH   7  11
HETATM   11  N   UNL     1      -8.825  14.253  67.973  1.00  0.00    -0.170 NA 
HETATM   12  C   UNL     1      -9.805  12.017  68.456  1.00  0.00    -0.172 C  
HETATM   13  C   UNL     1      -9.065  13.246  69.035  1.00  0.00     0.449 C  
HETATM   14  N   UNL     1      -9.147  11.375  67.292  1.00  0.00    -0.160 NA 
HETATM   15  C   UNL     1      -8.933  12.435  66.275  1.00  0.00    -0.037 C  
HETATM   16  C   UNL     1      -8.173  13.693  66.773  1.00  0.00     0.212 C  
BRANCH  14  17
HETATM   17  C   UNL     1      -7.868  10.726  67.646  1.00  0.00    -0.109 C  
BRANCH  17  18
HETATM   18  C   UNL     1      -7.670   9.344  66.998  1.00  0.00    -0.091 C  
BRANCH  18  19
HETATM   19  N   UNL     1      -8.712   8.422  67.372  1.00  0.00    -0.134 N  
HETATM   20  C   UNL     1      -9.967   8.326  66.739  1.00  0.00    -0.285 C  
HETATM   21  O   UNL     1     -10.376   8.978  65.793  1.00  0.00     0.078 OA 
HETATM   22  N   UNL     1     -10.680   7.330  67.423  1.00  0.00    -0.289 NA 
HETATM   23  C   UNL     1      -9.892   6.843  68.462  1.00  0.00    -0.144 A  
HETATM   24  C   UNL     1     -10.179   5.872  69.391  1.00  0.00    -0.284 A  
HETATM   25  C   UNL     1      -9.187   5.595  70.338  1.00  0.00    -0.179 A  
HETATM   26  C   UNL     1      -7.959   6.291  70.332  1.00  0.00    -0.111 A  
HETATM   27  C   UNL     1      -7.690   7.274  69.374  1.00  0.00    -0.107 A  
HETATM   28  C   UNL     1      -8.675   7.527  68.445  1.00  0.00    -0.123 A  
ENDBRANCH  18  19
ENDBRANCH  17  18
ENDBRANCH  14  17
ENDBRANCH   7  11
TORSDOF 4
ENDMDL
MODEL      313
REMARK 921   NORMALIZED FREE ENERGY PREDICTED BY IDOCK:   -3.17 KCAL/MOL
REMARK 922        TOTAL FREE ENERGY PREDICTED BY IDOCK:   -4.53 KCAL/MOL
REMARK 923 INTER-LIGAND FREE ENERGY PREDICTED BY IDOCK:   -4.64 KCAL/MOL
REMARK 924 INTRA-LIGAND FREE ENERGY PREDICTED BY IDOCK:    0.10 KCAL/MOL
REMARK 927      BINDING AFFINITY PREDICTED BY RF-SCORE:    0.00 PKD
ROOT
HETATM    1  F   UNL     1      -7.136  16.067  67.773  1.00  0.00    -0.118 F  
HETATM    2  C   UNL     1      -7.871  17.146  67.379  1.00  0.00    -0.172 C  
HETATM    3  C   UNL     1      -9.059  16.791  66.524  1.00  0.00    -0.302 A  
HETATM    4  F   UNL     1      -8.221  17.794  68.523  1.00  0.00    -0.263 F  
HETATM    5  F   UNL     1      -6.996  17.969  66.735  1.00  0.00    -0.186 F  
HETATM    6  C   UNL     1      -9.314  15.450  66.187  1.00  0.00    -0.367 A  
HETATM    7  C   UNL     1     -10.375  15.059  65.353  1.00  0.00    -0.383 A  
HETATM    8  C   UNL     1      -9.922  17.781  66.050  1.00  0.00    -0.219 A  
HETATM    9  C   UNL     1     -11.218  16.088  64.904  1.00  0.00    -0.319 A  
HETATM   10  C   UNL     1     -11.002  17.429  65.251  1.00  0.00     0.154 A  
ENDROOT
BRANCH   7  11
HETATM   11  N   UNL     1     -10.590  13.708  65.068  1.00  0.00    -0.359 NA 
HETATM   12  C   UNL     1     -11.083  11.393  65.838  1.00  0.00    -0.162 C  
HETATM   13  C   UNL     1     -10.377  12.731  66.163  1.00  0.00    -0.269 C  
HETATM   14  N   UNL     1     -10.711  10.783  64.540  1.00  0.00    -0.213 NA 
HETATM   15  C   UNL     1     -10.942  11.811  63.494  1.00  0.00    -0.424 C  
HETATM   16  C   UNL     1     -10.245  13.176  63.735  1.00  0.00     0.377 C  
BRANCH  14  17
HETATM   17  C   UNL     1      -9.310  10.315  64.510  1.00  0.00    -0.276 C  
BRANCH  17  18
HETATM   18  C   UNL     1      -8.574  10.462  65.854  1.00  0.00    -0.158 C  
BRANCH  18  19
HETATM   19  N   UNL     1      -7.888   9.251  66.225  1.00  0.00    -0.103 N  
HETATM   20  C   UNL     1      -6.896   8.618  65.449  1.00  0.00    -0.071 C  
HETATM   21  O   UNL     1      -6.456   8.974  64.369  1.00  0.00    -0.074 OA 
HETATM   22  N   UNL     1      -6.513   7.469  66.158  1.00  0.00    -0.045 NA 
HETATM   23  C   UNL     1      -7.265   7.388  67.327  1.00  0.00    -0.093 A  
HETATM   24  C   UNL     1      -7.235   6.435  68.316  1.00  0.00    -0.085 A  
HETATM   25  C   UNL     1      -8.125   6.606  69.381  1.00  0.00    -0.119 A  
HETATM   26  C   UNL     1      -9.010   7.706  69.423  1.00  0.00    -0.139 A  
HETATM   27  C   UNL     1      -9.020   8.664  68.404  1.00  0.00    -0.142 A  
HETATM   28  C   UNL     1      -8.130   8.482  67.368  1.00  0.00    -0.106 A  
ENDBRANCH  18  19
ENDBRANCH  17  18
ENDBRANCH  14  17
ENDBRANCH   7  11
TORSDOF 4
ENDMDL
MODEL      314
REMARK 921   NORMALIZED FREE ENERGY PREDICTED BY IDOCK:   -3.09 KCAL/MOL
REMARK 922        TOTAL FREE ENERGY PREDICTED BY IDOCK:   -4.43 KCAL/MOL
REMARK 923 INTER-LIGAND FREE ENERGY PREDICTED BY IDOCK:   -3.96 KCAL/MOL
REMARK 924 INTRA-LIGAND FREE ENERGY PREDICTED BY IDOCK:   -0.47 KCAL/MOL
REMARK 927      BINDING AFFINITY PREDICTED BY RF-SCORE:    0.00 PKD
ROOT
HETATM    1  F   UNL     1     -10.219   4.888  66.473  1.00  0.00    -0.184 F  
HETATM    2  C   UNL     1      -9.442   4.764  65.360  1.00  0.00    -0.151 C  
HETATM    3  C   UNL     1      -8.447   5.882  65.186  1.00  0.00    -0.130 A  
HETATM    4  F   UNL     1      -8.849   3.542  65.457  1.00  0.00    -0.111 F  
HETATM    5  F   UNL     1     -10.310   4.675  64.314  1.00  0.00    -0.024 F  
HETATM    6  C   UNL     1      -8.396   6.935  66.117  1.00  0.00    -0.130 A  
HETATM    7  C   UNL     1      -7.527   8.031  65.985  1.00  0.00    -0.077 A  
HETATM    8  C   UNL     1      -7.566   5.895  64.104  1.00  0.00    -0.085 A  
HETATM    9  C   UNL     1      -6.658   7.999  64.883  1.00  0.00    -0.051 A  
HETATM   10  C   UNL     1      -6.669   6.946  63.958  1.00  0.00    -0.049 A  
ENDROOT
BRANCH   7  11
HETATM   11  N   UNL     1      -7.508   9.039  66.952  1.00  0.00    -0.090 NA 
HETATM   12  C   UNL     1      -8.533  10.151  68.929  1.00  0.00    -0.139 C  
HETATM   13  C   UNL     1      -8.791   9.388  67.608  1.00  0.00    -0.115 C  
HETATM   14  N   UNL     1      -7.688  11.363  68.802  1.00  0.00    -0.139 NA 
HETATM   15  C   UNL     1      -6.428  10.945  68.135  1.00  0.00    -0.058 C  
HETATM   16  C   UNL     1      -6.603  10.195  66.789  1.00  0.00    -0.073 C  
BRANCH  14  17
HETATM   17  C   UNL     1      -8.348  12.442  68.040  1.00  0.00    -0.170 C  
BRANCH  17  18
HETATM   18  C   UNL     1      -7.378  13.507  67.498  1.00  0.00    -0.164 C  
BRANCH  18  19
HETATM   19  N   UNL     1      -7.677  14.817  68.017  1.00  0.00    -0.115 N  
HETATM   20  C   UNL     1      -6.939  15.472  69.023  1.00  0.00    -0.141 C  
HETATM   21  O   UNL     1      -5.949  15.064  69.606  1.00  0.00    -0.103 OA 
HETATM   22  N   UNL     1      -7.577  16.703  69.244  1.00  0.00    -0.194 NA 
HETATM   23  C   UNL     1      -8.690  16.790  68.412  1.00  0.00    -0.236 A  
HETATM   24  C   UNL     1      -9.608  17.804  68.292  1.00  0.00    -0.312 A  
HETATM   25  C   UNL     1     -10.643  17.609  67.371  1.00  0.00    -0.320 A  
HETATM   26  C   UNL     1     -10.731  16.421  66.613  1.00  0.00    -0.173 A  
HETATM   27  C   UNL     1      -9.782  15.403  66.753  1.00  0.00    -0.254 A  
HETATM   28  C   UNL     1      -8.766  15.617  67.658  1.00  0.00    -0.175 A  
ENDBRANCH  18  19
ENDBRANCH  17  18
ENDBRANCH  14  17
ENDBRANCH   7  11
TORSDOF 4
ENDMDL
MODEL      315
REMARK 921   NORMALIZED FREE ENERGY PREDICTED BY IDOCK:   -2.89 KCAL/MOL
REMARK 922        TOTAL FREE ENERGY PREDICTED BY IDOCK:   -4.19 KCAL/MOL
REMARK 923 INTER-LIGAND FREE ENERGY PREDICTED BY IDOCK:   -3.78 KCAL/MOL
REMARK 924 INTRA-LIGAND FREE ENERGY PREDICTED BY IDOCK:   -0.41 KCAL/MOL
REMARK 927      BINDING AFFINITY PREDICTED BY RF-SCORE:    0.00 PKD
ROOT
HETATM    1  F   UNL     1     -10.038  13.096  66.803  1.00  0.00    -0.235 F  
HETATM    2  C   UNL     1     -11.059  12.989  67.700  1.00  0.00    -0.267 C  
HETATM    3  C   UNL     1     -10.803  11.985  68.793  1.00  0.00    -0.267 A  
HETATM    4  F   UNL     1     -11.263  14.247  68.179  1.00  0.00    -0.250 F  
HETATM    5  F   UNL     1     -12.164  12.685  66.964  1.00  0.00    -0.421 F  
HETATM    6  C   UNL     1      -9.607  11.246  68.810  1.00  0.00    -0.160 A  
HETATM    7  C   UNL     1      -9.330  10.260  69.772  1.00  0.00    -0.080 A  
HETATM    8  C   UNL     1     -11.744  11.768  69.801  1.00  0.00    -0.408 A  
HETATM    9  C   UNL     1     -10.304  10.079  70.767  1.00  0.00    -0.063 A  
HETATM   10  C   UNL     1     -11.491  10.824  70.789  1.00  0.00    -0.216 A  
ENDROOT
BRANCH   7  11
HETATM   11  N   UNL     1      -8.115   9.571  69.750  1.00  0.00    -0.123 NA 
HETATM   12  C   UNL     1      -6.245   8.538  68.473  1.00  0.00    -0.053 C  
HETATM   13  C   UNL     1      -7.762   8.839  68.509  1.00  0.00    -0.099 C  
HETATM   14  N   UNL     1      -5.718   7.811  69.652  1.00  0.00    -0.023 NA 
HETATM   15  C   UNL     1      -6.109   8.592  70.853  1.00  0.00    -0.035 C  
HETATM   16  C   UNL     1      -7.622   8.912  70.976  1.00  0.00    -0.118 C  
BRANCH  14  17
HETATM   17  C   UNL     1      -6.223   6.426  69.743  1.00  0.00    -0.034 C  
BRANCH  17  18
HETATM   18  C   UNL     1      -5.744   5.511  68.601  1.00  0.00    -0.015 C  
BRANCH  18  19
HETATM   19  N   UNL     1      -6.683   5.480  67.510  1.00  0.00    -0.057 N  
HETATM   20  C   UNL     1      -6.342   5.621  66.150  1.00  0.00    -0.039 C  
HETATM   21  O   UNL     1      -5.232   5.782  65.673  1.00  0.00    -0.009 OA 
HETATM   22  N   UNL     1      -7.546   5.554  65.431  1.00  0.00    -0.077 NA 
HETATM   23  C   UNL     1      -8.599   5.399  66.328  1.00  0.00    -0.122 A  
HETATM   24  C   UNL     1      -9.946   5.296  66.078  1.00  0.00    -0.152 A  
HETATM   25  C   UNL     1     -10.783   5.159  67.191  1.00  0.00    -0.067 A  
HETATM   26  C   UNL     1     -10.257   5.136  68.501  1.00  0.00    -0.182 A  
HETATM   27  C   UNL     1      -8.881   5.241  68.729  1.00  0.00    -0.104 A  
HETATM   28  C   UNL     1      -8.072   5.367  67.620  1.00  0.00    -0.100 A  
ENDBRANCH  18  19
ENDBRANCH  17  18
ENDBRANCH  14  17
ENDBRANCH   7  11
TORSDOF 4
ENDMDL
MODEL      316
REMARK 921   NORMALIZED FREE ENERGY PREDICTED BY IDOCK:   -2.81 KCAL/MOL
REMARK 922        TOTAL FREE ENERGY PREDICTED BY IDOCK:   -4.09 KCAL/MOL
REMARK 923 INTER-LIGAND FREE ENERGY PREDICTED BY IDOCK:   -3.40 KCAL/MOL
REMARK 924 INTRA-LIGAND FREE ENERGY PREDICTED BY IDOCK:   -0.68 KCAL/MOL
REMARK 927      BINDING AFFINITY PREDICTED BY RF-SCORE:    0.00 PKD
ROOT
HETATM    1  F   UNL     1      -8.993   9.121  70.189  1.00  0.00    -0.141 F  
HETATM    2  C   UNL     1      -9.672   8.734  71.305  1.00  0.00    -0.265 C  
HETATM    3  C   UNL     1      -9.948   7.254  71.365  1.00  0.00    -0.193 A  
HETATM    4  F   UNL     1      -8.933   9.174  72.360  1.00  0.00    -0.160 F  
HETATM    5  F   UNL     1     -10.816   9.474  71.315  1.00  0.00    -0.349 F  
HETATM    6  C   UNL     1      -9.530   6.413  70.319  1.00  0.00    -0.171 A  
HETATM    7  C   UNL     1      -9.799   5.035  70.290  1.00  0.00    -0.234 A  
HETATM    8  C   UNL     1     -10.621   6.694  72.452  1.00  0.00    -0.242 A  
HETATM    9  C   UNL     1     -10.476   4.516  71.406  1.00  0.00    -0.029 A  
HETATM   10  C   UNL     1     -10.876   5.328  72.475  1.00  0.00    -0.301 A  
ENDROOT
BRANCH   7  11
HETATM   11  N   UNL     1      -9.343   4.246  69.232  1.00  0.00    -0.147 NA 
HETATM   12  C   UNL     1      -7.481   3.095  68.046  1.00  0.00    -0.053 C  
HETATM   13  C   UNL     1      -7.902   4.324  68.886  1.00  0.00    -0.069 C  
HETATM   14  N   UNL     1      -8.280   2.865  66.819  1.00  0.00    -0.084 NA 
HETATM   15  C   UNL     1      -9.705   2.803  67.235  1.00  0.00     0.303 C  
HETATM   16  C   UNL     1     -10.212   4.014  68.061  1.00  0.00     0.455 C  
BRANCH  14  17
HETATM   17  C   UNL     1      -8.079   3.917  65.802  1.00  0.00    -0.097 C  
BRANCH  17  18
HETATM   18  C   UNL     1      -7.066   5.000  66.216  1.00  0.00    -0.072 C  
BRANCH  18  19
HETATM   19  N   UNL     1      -7.251   6.219  65.472  1.00  0.00    -0.068 N  
HETATM   20  C   UNL     1      -6.490   6.602  64.349  1.00  0.00    -0.038 C  
HETATM   21  O   UNL     1      -5.578   5.987  63.824  1.00  0.00    -0.017 OA 
HETATM   22  N   UNL     1      -6.979   7.855  63.949  1.00  0.00    -0.062 NA 
HETATM   23  C   UNL     1      -7.996   8.241  64.816  1.00  0.00    -0.146 A  
HETATM   24  C   UNL     1      -8.753   9.389  64.814  1.00  0.00    -0.227 A  
HETATM   25  C   UNL     1      -9.708   9.514  65.828  1.00  0.00    -0.357 A  
HETATM   26  C   UNL     1      -9.871   8.507  66.804  1.00  0.00    -0.327 A  
HETATM   27  C   UNL     1      -9.090   7.348  66.784  1.00  0.00    -0.178 A  
HETATM   28  C   UNL     1      -8.161   7.238  65.773  1.00  0.00    -0.135 A  
ENDBRANCH  18  19
ENDBRANCH  17  18
ENDBRANCH  14  17
ENDBRANCH   7  11
TORSDOF 4
ENDMDL
MODEL      317
REMARK 921   NORMALIZED FREE ENERGY PREDICTED BY IDOCK:   -2.81 KCAL/MOL
REMARK 922        TOTAL FREE ENERGY PREDICTED BY IDOCK:   -4.09 KCAL/MOL
REMARK 923 INTER-LIGAND FREE ENERGY PREDICTED BY IDOCK:   -4.75 KCAL/MOL
REMARK 924 INTRA-LIGAND FREE ENERGY PREDICTED BY IDOCK:    0.66 KCAL/MOL
REMARK 927      BINDING AFFINITY PREDICTED BY RF-SCORE:    0.00 PKD
ROOT
HETATM    1  F   UNL     1     -11.049   5.676  73.928  1.00  0.00    -0.273 F  
HETATM    2  C   UNL     1     -10.638   4.549  73.280  1.00  0.00    -0.216 C  
HETATM    3  C   UNL     1     -10.324   4.768  71.822  1.00  0.00    -0.230 A  
HETATM    4  F   UNL     1      -9.570   4.086  73.984  1.00  0.00    -0.104 F  
HETATM    5  F   UNL     1     -11.632   3.636  73.464  1.00  0.00    -0.330 F  
HETATM    6  C   UNL     1     -10.484   6.041  71.247  1.00  0.00    -0.283 A  
HETATM    7  C   UNL     1     -10.256   6.299  69.885  1.00  0.00    -0.184 A  
HETATM    8  C   UNL     1      -9.876   3.717  71.021  1.00  0.00    -0.204 A  
HETATM    9  C   UNL     1      -9.803   5.213  69.119  1.00  0.00    -0.257 A  
HETATM   10  C   UNL     1      -9.608   3.942  69.676  1.00  0.00    -0.259 A  
ENDROOT
BRANCH   7  11
HETATM   11  N   UNL     1     -10.414   7.589  69.373  1.00  0.00    -0.220 NA 
HETATM   12  C   UNL     1     -10.741   9.115  67.434  1.00  0.00    -0.177 C  
HETATM   13  C   UNL     1     -10.091   7.806  67.942  1.00  0.00    -0.185 C  
HETATM   14  N   UNL     1     -10.405  10.330  68.215  1.00  0.00    -0.172 NA 
HETATM   15  C   UNL     1     -10.746  10.044  69.631  1.00  0.00    -0.255 C  
HETATM   16  C   UNL     1     -10.110   8.758  70.223  1.00  0.00    -0.191 C  
BRANCH  14  17
HETATM   17  C   UNL     1      -8.985  10.715  68.088  1.00  0.00    -0.141 C  
BRANCH  17  18
HETATM   18  C   UNL     1      -8.089   9.610  67.500  1.00  0.00    -0.114 C  
BRANCH  18  19
HETATM   19  N   UNL     1      -7.155  10.134  66.537  1.00  0.00    -0.099 N  
HETATM   20  C   UNL     1      -6.385  11.301  66.712  1.00  0.00    -0.139 C  
HETATM   21  O   UNL     1      -6.368  12.043  67.679  1.00  0.00    -0.074 OA 
HETATM   22  N   UNL     1      -5.635  11.461  65.537  1.00  0.00    -0.041 NA 
HETATM   23  C   UNL     1      -5.953  10.433  64.654  1.00  0.00    -0.109 A  
HETATM   24  C   UNL     1      -5.473  10.191  63.390  1.00  0.00    -0.121 A  
HETATM   25  C   UNL     1      -5.990   9.075  62.723  1.00  0.00    -0.090 A  
HETATM   26  C   UNL     1      -6.961   8.249  63.329  1.00  0.00    -0.086 A  
HETATM   27  C   UNL     1      -7.433   8.515  64.619  1.00  0.00    -0.096 A  
HETATM   28  C   UNL     1      -6.906   9.613  65.262  1.00  0.00    -0.096 A  
ENDBRANCH  18  19
ENDBRANCH  17  18
ENDBRANCH  14  17
ENDBRANCH   7  11
TORSDOF 4
ENDMDL
MODEL      318
REMARK 921   NORMALIZED FREE ENERGY PREDICTED BY IDOCK:   -2.70 KCAL/MOL
REMARK 922        TOTAL FREE ENERGY PREDICTED BY IDOCK:   -3.95 KCAL/MOL
REMARK 923 INTER-LIGAND FREE ENERGY PREDICTED BY IDOCK:   -5.21 KCAL/MOL
REMARK 924 INTRA-LIGAND FREE ENERGY PREDICTED BY IDOCK:    1.26 KCAL/MOL
REMARK 927      BINDING AFFINITY PREDICTED BY RF-SCORE:    0.00 PKD
ROOT
HETATM    1  F   UNL     1     -10.129  17.617  68.313  1.00  0.00    -0.286 F  
HETATM    2  C   UNL     1      -8.888  18.179  68.272  1.00  0.00    -0.283 C  
HETATM    3  C   UNL     1      -7.766  17.174  68.297  1.00  0.00    -0.220 A  
HETATM    4  F   UNL     1      -8.871  18.959  67.156  1.00  0.00    -0.270 F  
HETATM    5  F   UNL     1      -8.839  19.037  69.329  1.00  0.00    -0.285 F  
HETATM    6  C   UNL     1      -8.048  15.799  68.377  1.00  0.00    -0.143 A  
HETATM    7  C   UNL     1      -7.048  14.815  68.454  1.00  0.00    -0.114 A  
HETATM    8  C   UNL     1      -6.433  17.587  68.246  1.00  0.00    -0.182 A  
HETATM    9  C   UNL     1      -5.724  15.277  68.396  1.00  0.00    -0.107 A  
HETATM   10  C   UNL     1      -5.417  16.640  68.286  1.00  0.00    -0.115 A  
ENDROOT
BRANCH   7  11
HETATM   11  N   UNL     1      -7.390  13.462  68.513  1.00  0.00    -0.107 NA 
HETATM   12  C   UNL     1      -6.720  11.065  68.471  1.00  0.00    -0.061 C  
HETATM   13  C   UNL     1      -6.438  12.486  67.929  1.00  0.00    -0.105 C  
HETATM   14  N   UNL     1      -8.110  10.584  68.287  1.00  0.00    -0.111 NA 
HETATM   15  C   UNL     1      -9.006  11.605  68.887  1.00  0.00     0.085 C  
HETATM   16  C   UNL     1      -8.803  13.055  68.373  1.00  0.00    -0.123 C  
BRANCH  14  17
HETATM   17  C   UNL     1      -8.452  10.358  66.868  1.00  0.00    -0.124 C  
BRANCH  17  18
HETATM   18  C   UNL     1      -8.164  11.565  65.957  1.00  0.00     0.089 C  
BRANCH  18  19
HETATM   19  N   UNL     1      -9.215  11.773  64.994  1.00  0.00     0.023 N  
HETATM   20  C   UNL     1      -9.201  11.291  63.670  1.00  0.00    -0.107 C  
HETATM   21  O   UNL     1      -8.331  10.632  63.127  1.00  0.00    -0.160 OA 
HETATM   22  N   UNL     1     -10.393  11.734  63.075  1.00  0.00    -0.290 NA 
HETATM   23  C   UNL     1     -11.108  12.485  64.003  1.00  0.00    -0.397 A  
HETATM   24  C   UNL     1     -12.319  13.118  63.861  1.00  0.00    -0.439 A  
HETATM   25  C   UNL     1     -12.796  13.820  64.973  1.00  0.00    -0.319 A  
HETATM   26  C   UNL     1     -12.055  13.874  66.174  1.00  0.00    -0.478 A  
HETATM   27  C   UNL     1     -10.825  13.220  66.294  1.00  0.00    -0.293 A  
HETATM   28  C   UNL     1     -10.376  12.526  65.191  1.00  0.00    -0.289 A  
ENDBRANCH  18  19
ENDBRANCH  17  18
ENDBRANCH  14  17
ENDBRANCH   7  11
TORSDOF 4
ENDMDL
MODEL      319
REMARK 921   NORMALIZED FREE ENERGY PREDICTED BY IDOCK:   -2.61 KCAL/MOL
REMARK 922        TOTAL FREE ENERGY PREDICTED BY IDOCK:   -3.84 KCAL/MOL
REMARK 923 INTER-LIGAND FREE ENERGY PREDICTED BY IDOCK:   -3.03 KCAL/MOL
REMARK 924 INTRA-LIGAND FREE ENERGY PREDICTED BY IDOCK:   -0.81 KCAL/MOL
REMARK 927      BINDING AFFINITY PREDICTED BY RF-SCORE:    0.00 PKD
ROOT
HETATM    1  F   UNL     1      -8.539   8.600  70.082  1.00  0.00    -0.118 F  
HETATM    2  C   UNL     1      -8.902   8.703  71.391  1.00  0.00    -0.215 C  
HETATM    3  C   UNL     1      -9.050   7.375  72.086  1.00  0.00    -0.156 A  
HETATM    4  F   UNL     1      -7.965   9.500  71.974  1.00  0.00     0.309 F  
HETATM    5  F   UNL     1     -10.059   9.422  71.395  1.00  0.00    -0.359 F  
HETATM    6  C   UNL     1      -8.838   6.178  71.380  1.00  0.00    -0.139 A  
HETATM    7  C   UNL     1      -9.008   4.908  71.956  1.00  0.00    -0.131 A  
HETATM    8  C   UNL     1      -9.403   7.307  73.435  1.00  0.00    -0.241 A  
HETATM    9  C   UNL     1      -9.360   4.890  73.314  1.00  0.00    -0.131 A  
HETATM   10  C   UNL     1      -9.549   6.069  74.048  1.00  0.00    -0.171 A  
ENDROOT
BRANCH   7  11
HETATM   11  N   UNL     1      -8.764   3.753  71.209  1.00  0.00    -0.080 NA 
HETATM   12  C   UNL     1      -7.250   2.390  69.778  1.00  0.00    -0.043 C  
HETATM   13  C   UNL     1      -7.705   3.815  70.172  1.00  0.00    -0.048 C  
HETATM   14  N   UNL     1      -8.335   1.481  69.336  1.00  0.00    -0.044 NA 
HETATM   15  C   UNL     1      -9.357   1.470  70.412  1.00  0.00    -0.098 C  
HETATM   16  C   UNL     1      -9.885   2.863  70.846  1.00  0.00     0.034 C  
BRANCH  14  17
HETATM   17  C   UNL     1      -8.934   1.893  68.050  1.00  0.00    -0.140 C  
BRANCH  17  18
HETATM   18  C   UNL     1      -7.911   2.082  66.916  1.00  0.00    -0.068 C  
BRANCH  18  19
HETATM   19  N   UNL     1      -8.331   3.092  65.979  1.00  0.00    -0.095 N  
HETATM   20  C   UNL     1      -8.064   4.470  66.106  1.00  0.00    -0.103 C  
HETATM   21  O   UNL     1      -7.448   5.030  66.996  1.00  0.00    -0.084 OA 
HETATM   22  N   UNL     1      -8.666   5.093  65.001  1.00  0.00    -0.151 NA 
HETATM   23  C   UNL     1      -9.304   4.126  64.230  1.00  0.00    -0.159 A  
HETATM   24  C   UNL     1     -10.023   4.275  63.068  1.00  0.00    -0.043 A  
HETATM   25  C   UNL     1     -10.568   3.112  62.513  1.00  0.00    -0.164 A  
HETATM   26  C   UNL     1     -10.386   1.855  63.130  1.00  0.00    -0.130 A  
HETATM   27  C   UNL     1      -9.649   1.729  64.311  1.00  0.00    -0.119 A  
HETATM   28  C   UNL     1      -9.113   2.884  64.838  1.00  0.00    -0.141 A  
ENDBRANCH  18  19
ENDBRANCH  17  18
ENDBRANCH  14  17
ENDBRANCH   7  11
TORSDOF 4
ENDMDL
MODEL      320
REMARK 921   NORMALIZED FREE ENERGY PREDICTED BY IDOCK:   -2.60 KCAL/MOL
REMARK 922        TOTAL FREE ENERGY PREDICTED BY IDOCK:   -3.83 KCAL/MOL
REMARK 923 INTER-LIGAND FREE ENERGY PREDICTED BY IDOCK:   -3.58 KCAL/MOL
REMARK 924 INTRA-LIGAND FREE ENERGY PREDICTED BY IDOCK:   -0.26 KCAL/MOL
REMARK 927      BINDING AFFINITY PREDICTED BY RF-SCORE:    0.00 PKD
ROOT
HETATM    1  F   UNL     1      -7.912  12.417  67.530  1.00  0.00    -0.132 F  
HETATM    2  C   UNL     1      -9.160  12.319  68.069  1.00  0.00    -0.191 C  
HETATM    3  C   UNL     1      -9.359  11.092  68.920  1.00  0.00    -0.155 A  
HETATM    4  F   UNL     1      -9.357  13.476  68.760  1.00  0.00    -0.174 F  
HETATM    5  F   UNL     1     -10.020  12.363  67.013  1.00  0.00    -0.205 F  
HETATM    6  C   UNL     1      -8.314  10.166  69.081  1.00  0.00    -0.154 A  
HETATM    7  C   UNL     1      -8.451   8.978  69.819  1.00  0.00    -0.132 A  
HETATM    8  C   UNL     1     -10.577  10.852  69.556  1.00  0.00    -0.217 A  
HETATM    9  C   UNL     1      -9.692   8.781  70.444  1.00  0.00    -0.209 A  
HETATM   10  C   UNL     1     -10.740   9.704  70.323  1.00  0.00    -0.335 A  
ENDROOT
BRANCH   7  11
HETATM   11  N   UNL     1      -7.370   8.103  69.961  1.00  0.00    -0.060 NA 
HETATM   12  C   UNL     1      -6.162   6.040  69.270  1.00  0.00    -0.036 C  
HETATM   13  C   UNL     1      -7.539   6.715  69.467  1.00  0.00    -0.095 C  
HETATM   14  N   UNL     1      -5.280   6.046  70.462  1.00  0.00    -0.012 NA 
HETATM   15  C   UNL     1      -5.159   7.458  70.905  1.00  0.00    -0.023 C  
HETATM   16  C   UNL     1      -6.500   8.198  71.150  1.00  0.00    -0.039 C  
BRANCH  14  17
HETATM   17  C   UNL     1      -5.796   5.198  71.556  1.00  0.00    -0.017 C  
BRANCH  17  18
HETATM   18  C   UNL     1      -6.397   3.863  71.082  1.00  0.00    -0.018 C  
BRANCH  18  19
HETATM   19  N   UNL     1      -7.821   3.813  71.290  1.00  0.00    -0.059 N  
HETATM   20  C   UNL     1      -8.755   3.316  70.358  1.00  0.00    -0.068 C  
HETATM   21  O   UNL     1      -8.529   2.851  69.254  1.00  0.00    -0.058 OA 
HETATM   22  N   UNL     1     -10.021   3.472  70.945  1.00  0.00    -0.055 NA 
HETATM   23  C   UNL     1      -9.869   4.070  72.193  1.00  0.00    -0.168 A  
HETATM   24  C   UNL     1     -10.829   4.418  73.112  1.00  0.00    -0.321 A  
HETATM   25  C   UNL     1     -10.380   5.023  74.291  1.00  0.00    -0.317 A  
HETATM   26  C   UNL     1      -9.006   5.265  74.509  1.00  0.00    -0.113 A  
HETATM   27  C   UNL     1      -8.048   4.900  73.557  1.00  0.00    -0.107 A  
HETATM   28  C   UNL     1      -8.509   4.297  72.407  1.00  0.00    -0.105 A  
ENDBRANCH  18  19
ENDBRANCH  17  18
ENDBRANCH  14  17
ENDBRANCH   7  11
TORSDOF 4
ENDMDL
MODEL      321
REMARK 921   NORMALIZED FREE ENERGY PREDICTED BY IDOCK:   -2.50 KCAL/MOL
REMARK 922        TOTAL FREE ENERGY PREDICTED BY IDOCK:   -3.71 KCAL/MOL
REMARK 923 INTER-LIGAND FREE ENERGY PREDICTED BY IDOCK:   -2.88 KCAL/MOL
REMARK 924 INTRA-LIGAND FREE ENERGY PREDICTED BY IDOCK:   -0.83 KCAL/MOL
REMARK 927      BINDING AFFINITY PREDICTED BY RF-SCORE:    0.00 PKD
ROOT
HETATM    1  F   UNL     1      -8.517   8.596  70.109  1.00  0.00    -0.115 F  
HETATM    2  C   UNL     1      -8.740   8.740  71.445  1.00  0.00    -0.214 C  
HETATM    3  C   UNL     1      -8.867   7.433  72.184  1.00  0.00    -0.144 A  
HETATM    4  F   UNL     1      -7.718   9.510  71.911  1.00  0.00     0.205 F  
HETATM    5  F   UNL     1      -9.862   9.506  71.550  1.00  0.00    -0.336 F  
HETATM    6  C   UNL     1      -8.774   6.215  71.489  1.00  0.00    -0.135 A  
HETATM    7  C   UNL     1      -8.934   4.965  72.110  1.00  0.00    -0.131 A  
HETATM    8  C   UNL     1      -9.083   7.408  73.563  1.00  0.00    -0.259 A  
HETATM    9  C   UNL     1      -9.145   4.989  73.497  1.00  0.00    -0.123 A  
HETATM   10  C   UNL     1      -9.212   6.189  74.218  1.00  0.00    -0.156 A  
ENDROOT
BRANCH   7  11
HETATM   11  N   UNL     1      -8.812   3.786  71.370  1.00  0.00    -0.093 NA 
HETATM   12  C   UNL     1      -7.447   2.259  69.955  1.00  0.00    -0.043 C  
HETATM   13  C   UNL     1      -7.747   3.727  70.339  1.00  0.00    -0.047 C  
HETATM   14  N   UNL     1      -8.621   1.471  69.511  1.00  0.00    -0.050 NA 
HETATM   15  C   UNL     1      -9.645   1.576  70.581  1.00  0.00    -0.083 C  
HETATM   16  C   UNL     1     -10.021   3.021  71.005  1.00  0.00     0.130 C  
BRANCH  14  17
HETATM   17  C   UNL     1      -9.166   1.937  68.220  1.00  0.00    -0.184 C  
BRANCH  17  18
HETATM   18  C   UNL     1      -8.114   2.049  67.102  1.00  0.00    -0.068 C  
BRANCH  18  19
HETATM   19  N   UNL     1      -8.419   3.115  66.184  1.00  0.00    -0.105 N  
HETATM   20  C   UNL     1      -8.892   2.935  64.868  1.00  0.00    -0.117 C  
HETATM   21  O   UNL     1      -9.125   1.883  64.298  1.00  0.00    -0.103 OA 
HETATM   22  N   UNL     1      -9.035   4.219  64.319  1.00  0.00    -0.143 NA 
HETATM   23  C   UNL     1      -8.639   5.160  65.265  1.00  0.00    -0.148 A  
HETATM   24  C   UNL     1      -8.603   6.530  65.166  1.00  0.00     0.004 A  
HETATM   25  C   UNL     1      -8.141   7.229  66.287  1.00  0.00    -0.121 A  
HETATM   26  C   UNL     1      -7.728   6.548  67.453  1.00  0.00    -0.101 A  
HETATM   27  C   UNL     1      -7.775   5.152  67.529  1.00  0.00    -0.092 A  
HETATM   28  C   UNL     1      -8.241   4.482  66.419  1.00  0.00    -0.106 A  
ENDBRANCH  18  19
ENDBRANCH  17  18
ENDBRANCH  14  17
ENDBRANCH   7  11
TORSDOF 4
ENDMDL
MODEL      322
REMARK 921   NORMALIZED FREE ENERGY PREDICTED BY IDOCK:   -2.50 KCAL/MOL
REMARK 922        TOTAL FREE ENERGY PREDICTED BY IDOCK:   -3.70 KCAL/MOL
REMARK 923 INTER-LIGAND FREE ENERGY PREDICTED BY IDOCK:   -5.30 KCAL/MOL
REMARK 924 INTRA-LIGAND FREE ENERGY PREDICTED BY IDOCK:    1.59 KCAL/MOL
REMARK 927      BINDING AFFINITY PREDICTED BY RF-SCORE:    0.00 PKD
ROOT
HETATM    1  F   UNL     1      -9.549  17.387  68.615  1.00  0.00    -0.257 F  
HETATM    2  C   UNL     1      -8.191  17.496  68.620  1.00  0.00    -0.265 C  
HETATM    3  C   UNL     1      -7.476  16.193  68.373  1.00  0.00    -0.153 A  
HETATM    4  F   UNL     1      -7.892  18.445  67.691  1.00  0.00    -0.224 F  
HETATM    5  F   UNL     1      -7.872  18.041  69.828  1.00  0.00     0.257 F  
HETATM    6  C   UNL     1      -8.209  15.009  68.182  1.00  0.00    -0.140 A  
HETATM    7  C   UNL     1      -7.603  13.755  67.996  1.00  0.00    -0.145 A  
HETATM    8  C   UNL     1      -6.082  16.137  68.332  1.00  0.00    -0.109 A  
HETATM    9  C   UNL     1      -6.200  13.748  67.959  1.00  0.00    -0.141 A  
HETATM   10  C   UNL     1      -5.447  14.920  68.117  1.00  0.00    -0.123 A  
ENDROOT
BRANCH   7  11
HETATM   11  N   UNL     1      -8.383  12.614  67.792  1.00  0.00    -0.159 NA 
HETATM   12  C   UNL     1      -8.565  10.201  67.211  1.00  0.00    -0.125 C  
HETATM   13  C   UNL     1      -7.811  11.528  66.960  1.00  0.00    -0.161 C  
HETATM   14  N   UNL     1     -10.034  10.263  67.017  1.00  0.00    -0.192 NA 
HETATM   15  C   UNL     1     -10.538  11.368  67.870  1.00  0.00    -0.189 C  
HETATM   16  C   UNL     1      -9.849  12.742  67.659  1.00  0.00    -0.214 C  
BRANCH  14  17
HETATM   17  C   UNL     1     -10.414  10.478  65.606  1.00  0.00    -0.143 C  
BRANCH  17  18
HETATM   18  C   UNL     1      -9.779  11.729  64.973  1.00  0.00    -0.187 C  
BRANCH  18  19
HETATM   19  N   UNL     1     -10.776  12.676  64.542  1.00  0.00    -0.320 N  
HETATM   20  C   UNL     1     -11.906  12.358  63.763  1.00  0.00    -0.502 C  
HETATM   21  O   UNL     1     -12.231  11.264  63.335  1.00  0.00    -0.020 OA 
HETATM   22  N   UNL     1     -12.594  13.563  63.552  1.00  0.00    -0.738 NA 
HETATM   23  C   UNL     1     -11.892  14.596  64.168  1.00  0.00    -0.241 A  
HETATM   24  C   UNL     1     -12.186  15.938  64.217  1.00  0.00     0.214 A  
HETATM   25  C   UNL     1     -11.281  16.754  64.905  1.00  0.00     0.019 A  
HETATM   26  C   UNL     1     -10.125  16.214  65.509  1.00  0.00    -0.308 A  
HETATM   27  C   UNL     1      -9.850  14.844  65.446  1.00  0.00    -0.303 A  
HETATM   28  C   UNL     1     -10.756  14.056  64.771  1.00  0.00    -0.427 A  
ENDBRANCH  18  19
ENDBRANCH  17  18
ENDBRANCH  14  17
ENDBRANCH   7  11
TORSDOF 4
ENDMDL
MODEL      323
REMARK 921   NORMALIZED FREE ENERGY PREDICTED BY IDOCK:   -1.98 KCAL/MOL
REMARK 922        TOTAL FREE ENERGY PREDICTED BY IDOCK:   -3.07 KCAL/MOL
REMARK 923 INTER-LIGAND FREE ENERGY PREDICTED BY IDOCK:   -4.32 KCAL/MOL
REMARK 924 INTRA-LIGAND FREE ENERGY PREDICTED BY IDOCK:    1.26 KCAL/MOL
REMARK 927      BINDING AFFINITY PREDICTED BY RF-SCORE:    0.00 PKD
ROOT
HETATM    1  F   UNL     1     -11.345   4.343  73.724  1.00  0.00    -0.335 F  
HETATM    2  C   UNL     1     -10.634   3.252  73.319  1.00  0.00    -0.182 C  
HETATM    3  C   UNL     1     -10.000   3.410  71.962  1.00  0.00    -0.222 A  
HETATM    4  F   UNL     1      -9.722   3.019  74.302  1.00  0.00    -0.107 F  
HETATM    5  F   UNL     1     -11.508   2.208  73.365  1.00  0.00    -0.272 F  
HETATM    6  C   UNL     1     -10.185   4.594  71.228  1.00  0.00    -0.205 A  
HETATM    7  C   UNL     1      -9.663   4.784  69.937  1.00  0.00    -0.204 A  
HETATM    8  C   UNL     1      -9.226   2.388  71.410  1.00  0.00    -0.183 A  
HETATM    9  C   UNL     1      -8.889   3.731  69.424  1.00  0.00    -0.146 A  
HETATM   10  C   UNL     1      -8.666   2.552  70.149  1.00  0.00    -0.125 A  
ENDROOT
BRANCH   7  11
HETATM   11  N   UNL     1      -9.863   5.991  69.263  1.00  0.00    -0.147 NA 
HETATM   12  C   UNL     1     -11.060   7.323  67.534  1.00  0.00    -0.040 C  
HETATM   13  C   UNL     1     -10.500   5.935  67.925  1.00  0.00    -0.236 C  
HETATM   14  N   UNL     1     -10.080   8.434  67.577  1.00  0.00    -0.199 NA 
HETATM   15  C   UNL     1      -9.479   8.430  68.935  1.00  0.00    -0.147 C  
HETATM   16  C   UNL     1      -8.871   7.077  69.392  1.00  0.00    -0.136 C  
BRANCH  14  17
HETATM   17  C   UNL     1      -9.032   8.311  66.543  1.00  0.00    -0.156 C  
BRANCH  17  18
HETATM   18  C   UNL     1      -8.364   6.924  66.493  1.00  0.00    -0.121 C  
BRANCH  18  19
HETATM   19  N   UNL     1      -8.327   6.396  65.154  1.00  0.00    -0.135 N  
HETATM   20  C   UNL     1      -7.972   7.133  64.006  1.00  0.00    -0.078 C  
HETATM   21  O   UNL     1      -7.639   8.304  63.948  1.00  0.00    -0.116 OA 
HETATM   22  N   UNL     1      -8.089   6.253  62.919  1.00  0.00    -0.096 NA 
HETATM   23  C   UNL     1      -8.527   5.017  63.384  1.00  0.00    -0.123 A  
HETATM   24  C   UNL     1      -8.786   3.865  62.681  1.00  0.00    -0.093 A  
HETATM   25  C   UNL     1      -9.232   2.764  63.420  1.00  0.00    -0.095 A  
HETATM   26  C   UNL     1      -9.409   2.847  64.818  1.00  0.00    -0.147 A  
HETATM   27  C   UNL     1      -9.137   4.031  65.511  1.00  0.00    -0.142 A  
HETATM   28  C   UNL     1      -8.690   5.102  64.768  1.00  0.00    -0.133 A  
ENDBRANCH  18  19
ENDBRANCH  17  18
ENDBRANCH  14  17
ENDBRANCH   7  11
TORSDOF 4
ENDMDL
MODEL      324
REMARK 921   NORMALIZED FREE ENERGY PREDICTED BY IDOCK:   -1.91 KCAL/MOL
REMARK 922        TOTAL FREE ENERGY PREDICTED BY IDOCK:   -2.98 KCAL/MOL
REMARK 923 INTER-LIGAND FREE ENERGY PREDICTED BY IDOCK:   -3.44 KCAL/MOL
REMARK 924 INTRA-LIGAND FREE ENERGY PREDICTED BY IDOCK:    0.46 KCAL/MOL
REMARK 927      BINDING AFFINITY PREDICTED BY RF-SCORE:    0.00 PKD
ROOT
HETATM    1  F   UNL     1     -11.095  17.031  69.734  1.00  0.00    -0.245 F  
HETATM    2  C   UNL     1     -10.101  17.787  69.187  1.00  0.00    -0.220 C  
HETATM    3  C   UNL     1      -9.689  17.344  67.808  1.00  0.00    -0.268 A  
HETATM    4  F   UNL     1     -10.555  19.070  69.214  1.00  0.00    -0.139 F  
HETATM    5  F   UNL     1      -9.071  17.736  70.077  1.00  0.00     0.832 F  
HETATM    6  C   UNL     1     -10.304  16.230  67.209  1.00  0.00    -0.285 A  
HETATM    7  C   UNL     1      -9.932  15.736  65.948  1.00  0.00    -0.352 A  
HETATM    8  C   UNL     1      -8.694  18.023  67.104  1.00  0.00    -0.247 A  
HETATM    9  C   UNL     1      -8.929  16.454  65.277  1.00  0.00     1.335 A  
HETATM   10  C   UNL     1      -8.322  17.584  65.839  1.00  0.00     0.002 A  
ENDROOT
BRANCH   7  11
HETATM   11  N   UNL     1     -10.592  14.636  65.395  1.00  0.00    -0.347 NA 
HETATM   12  C   UNL     1     -12.613  13.192  65.232  1.00  0.00    -0.472 C  
HETATM   13  C   UNL     1     -11.727  14.061  66.156  1.00  0.00    -0.384 C  
HETATM   14  N   UNL     1     -11.899  12.116  64.504  1.00  0.00    -0.358 NA 
HETATM   15  C   UNL     1     -10.778  12.757  63.772  1.00  0.00    -0.361 C  
HETATM   16  C   UNL     1      -9.827  13.626  64.636  1.00  0.00     0.145 C  
BRANCH  14  17
HETATM   17  C   UNL     1     -11.397  11.056  65.402  1.00  0.00     0.307 C  
BRANCH  17  18
HETATM   18  C   UNL     1     -11.568  11.373  66.898  1.00  0.00    -0.004 C  
BRANCH  18  19
HETATM   19  N   UNL     1     -10.507  10.807  67.690  1.00  0.00    -0.200 N  
HETATM   20  C   UNL     1      -9.170  10.666  67.265  1.00  0.00    -0.143 C  
HETATM   21  O   UNL     1      -8.692  10.994  66.193  1.00  0.00    -0.175 OA 
HETATM   22  N   UNL     1      -8.481  10.053  68.323  1.00  0.00    -0.110 NA 
HETATM   23  C   UNL     1      -9.375   9.803  69.360  1.00  0.00    -0.202 A  
HETATM   24  C   UNL     1      -9.148   9.214  70.581  1.00  0.00    -0.307 A  
HETATM   25  C   UNL     1     -10.253   9.081  71.429  1.00  0.00    -0.399 A  
HETATM   26  C   UNL     1     -11.533   9.527  71.034  1.00  0.00    -0.420 A  
HETATM   27  C   UNL     1     -11.738  10.124  69.786  1.00  0.00    -0.205 A  
HETATM   28  C   UNL     1     -10.637  10.254  68.969  1.00  0.00    -0.224 A  
ENDBRANCH  18  19
ENDBRANCH  17  18
ENDBRANCH  14  17
ENDBRANCH   7  11
TORSDOF 4
ENDMDL
MODEL      325
REMARK 921   NORMALIZED FREE ENERGY PREDICTED BY IDOCK:   -1.77 KCAL/MOL
REMARK 922        TOTAL FREE ENERGY PREDICTED BY IDOCK:   -2.81 KCAL/MOL
REMARK 923 INTER-LIGAND FREE ENERGY PREDICTED BY IDOCK:   -3.86 KCAL/MOL
REMARK 924 INTRA-LIGAND FREE ENERGY PREDICTED BY IDOCK:    1.05 KCAL/MOL
REMARK 927      BINDING AFFINITY PREDICTED BY RF-SCORE:    0.00 PKD
ROOT
HETATM    1  F   UNL     1     -10.657  11.142  64.632  1.00  0.00    -0.345 F  
HETATM    2  C   UNL     1     -11.551  11.933  63.975  1.00  0.00    -0.389 C  
HETATM    3  C   UNL     1     -11.449  13.393  64.334  1.00  0.00    -0.417 A  
HETATM    4  F   UNL     1     -11.346  11.702  62.649  1.00  0.00     0.017 F  
HETATM    5  F   UNL     1     -12.779  11.415  64.259  1.00  0.00    -0.073 F  
HETATM    6  C   UNL     1     -10.506  13.823  65.284  1.00  0.00    -0.376 A  
HETATM    7  C   UNL     1     -10.394  15.161  65.699  1.00  0.00    -0.357 A  
HETATM    8  C   UNL     1     -12.284  14.338  63.737  1.00  0.00    -0.106 A  
HETATM    9  C   UNL     1     -11.252  16.076  65.069  1.00  0.00    -0.266 A  
HETATM   10  C   UNL     1     -12.180  15.676  64.098  1.00  0.00     0.048 A  
ENDROOT
BRANCH   7  11
HETATM   11  N   UNL     1      -9.425  15.533  66.635  1.00  0.00    -0.242 NA 
HETATM   12  C   UNL     1      -7.051  15.569  67.383  1.00  0.00    -0.202 C  
HETATM   13  C   UNL     1      -8.154  14.769  66.650  1.00  0.00     0.231 C  
HETATM   14  N   UNL     1      -7.394  16.002  68.758  1.00  0.00    -0.153 NA 
HETATM   15  C   UNL     1      -8.673  16.753  68.671  1.00  0.00    -0.255 C  
HETATM   16  C   UNL     1      -9.838  16.005  67.971  1.00  0.00    -0.222 C  
BRANCH  14  17
HETATM   17  C   UNL     1      -7.518  14.870  69.699  1.00  0.00    -0.126 C  
BRANCH  17  18
HETATM   18  C   UNL     1      -7.908  13.541  69.027  1.00  0.00     0.157 C  
BRANCH  18  19
HETATM   19  N   UNL     1      -7.105  12.444  69.503  1.00  0.00     0.146 N  
HETATM   20  C   UNL     1      -5.821  12.572  70.071  1.00  0.00    -0.150 C  
HETATM   21  O   UNL     1      -5.190  13.598  70.260  1.00  0.00    -0.092 OA 
HETATM   22  N   UNL     1      -5.390  11.271  70.372  1.00  0.00    -0.096 NA 
HETATM   23  C   UNL     1      -6.373  10.367  69.978  1.00  0.00    -0.111 A  
HETATM   24  C   UNL     1      -6.381   8.997  70.071  1.00  0.00    -0.038 A  
HETATM   25  C   UNL     1      -7.513   8.340  69.576  1.00  0.00    -0.086 A  
HETATM   26  C   UNL     1      -8.584   9.062  69.006  1.00  0.00    -0.134 A  
HETATM   27  C   UNL     1      -8.552  10.458  68.924  1.00  0.00    -0.149 A  
HETATM   28  C   UNL     1      -7.433  11.087  69.425  1.00  0.00    -0.072 A  
ENDBRANCH  18  19
ENDBRANCH  17  18
ENDBRANCH  14  17
ENDBRANCH   7  11
TORSDOF 4
ENDMDL
MODEL      326
REMARK 921   NORMALIZED FREE ENERGY PREDICTED BY IDOCK:   -1.65 KCAL/MOL
REMARK 922        TOTAL FREE ENERGY PREDICTED BY IDOCK:   -2.65 KCAL/MOL
REMARK 923 INTER-LIGAND FREE ENERGY PREDICTED BY IDOCK:   -3.44 KCAL/MOL
REMARK 924 INTRA-LIGAND FREE ENERGY PREDICTED BY IDOCK:    0.79 KCAL/MOL
REMARK 927      BINDING AFFINITY PREDICTED BY RF-SCORE:    0.00 PKD
ROOT
HETATM    1  F   UNL     1      -9.426   2.576  66.775  1.00  0.00    -0.145 F  
HETATM    2  C   UNL     1      -8.503   2.935  65.838  1.00  0.00    -0.111 C  
HETATM    3  C   UNL     1      -8.289   4.422  65.734  1.00  0.00    -0.113 A  
HETATM    4  F   UNL     1      -7.366   2.261  66.161  1.00  0.00    -0.059 F  
HETATM    5  F   UNL     1      -8.940   2.391  64.667  1.00  0.00    -0.100 F  
HETATM    6  C   UNL     1      -9.024   5.301  66.548  1.00  0.00    -0.120 A  
HETATM    7  C   UNL     1      -8.908   6.699  66.466  1.00  0.00    -0.139 A  
HETATM    8  C   UNL     1      -7.366   4.952  64.832  1.00  0.00    -0.068 A  
HETATM    9  C   UNL     1      -7.965   7.186  65.547  1.00  0.00    -0.122 A  
HETATM   10  C   UNL     1      -7.198   6.329  64.746  1.00  0.00    -0.064 A  
ENDROOT
BRANCH   7  11
HETATM   11  N   UNL     1      -9.652   7.523  67.315  1.00  0.00    -0.147 NA 
HETATM   12  C   UNL     1     -11.029   9.564  67.676  1.00  0.00    -0.081 C  
HETATM   13  C   UNL     1      -9.841   8.937  66.909  1.00  0.00    -0.223 C  
HETATM   14  N   UNL     1     -10.946   9.471  69.154  1.00  0.00    -0.175 NA 
HETATM   15  C   UNL     1     -10.752   8.038  69.488  1.00  0.00    -0.181 C  
HETATM   16  C   UNL     1      -9.561   7.342  68.777  1.00  0.00    -0.147 C  
BRANCH  14  17
HETATM   17  C   UNL     1      -9.853  10.291  69.716  1.00  0.00    -0.161 C  
BRANCH  17  18
HETATM   18  C   UNL     1      -8.723   9.467  70.360  1.00  0.00    -0.240 C  
BRANCH  18  19
HETATM   19  N   UNL     1      -7.431  10.063  70.137  1.00  0.00    -0.168 N  
HETATM   20  C   UNL     1      -6.261   9.741  70.854  1.00  0.00    -0.084 C  
HETATM   21  O   UNL     1      -6.138   8.926  71.751  1.00  0.00    -0.065 OA 
HETATM   22  N   UNL     1      -5.244  10.562  70.341  1.00  0.00    -0.051 NA 
HETATM   23  C   UNL     1      -5.782  11.381  69.352  1.00  0.00    -0.058 A  
HETATM   24  C   UNL     1      -5.164  12.341  68.587  1.00  0.00    -0.050 A  
HETATM   25  C   UNL     1      -5.967  13.026  67.668  1.00  0.00    -0.145 A  
HETATM   26  C   UNL     1      -7.345  12.740  67.549  1.00  0.00    -0.153 A  
HETATM   27  C   UNL     1      -7.950  11.757  68.338  1.00  0.00    -0.147 A  
HETATM   28  C   UNL     1      -7.141  11.088  69.231  1.00  0.00    -0.123 A  
ENDBRANCH  18  19
ENDBRANCH  17  18
ENDBRANCH  14  17
ENDBRANCH   7  11
TORSDOF 4
ENDMDL
MODEL      327
REMARK 921   NORMALIZED FREE ENERGY PREDICTED BY IDOCK:   -1.32 KCAL/MOL
REMARK 922        TOTAL FREE ENERGY PREDICTED BY IDOCK:   -2.25 KCAL/MOL
REMARK 923 INTER-LIGAND FREE ENERGY PREDICTED BY IDOCK:   -2.53 KCAL/MOL
REMARK 924 INTRA-LIGAND FREE ENERGY PREDICTED BY IDOCK:    0.28 KCAL/MOL
REMARK 927      BINDING AFFINITY PREDICTED BY RF-SCORE:    0.00 PKD
ROOT
HETATM    1  F   UNL     1     -11.505  17.937  72.916  1.00  0.00     0.141 F  
HETATM    2  C   UNL     1     -12.104  16.889  73.548  1.00  0.00    -0.039 C  
HETATM    3  C   UNL     1     -12.427  15.734  72.636  1.00  0.00    -0.546 A  
HETATM    4  F   UNL     1     -11.265  16.540  74.562  1.00  0.00     0.780 F  
HETATM    5  F   UNL     1     -13.215  17.406  74.144  1.00  0.00     0.663 F  
HETATM    6  C   UNL     1     -12.128  15.810  71.265  1.00  0.00    -0.487 A  
HETATM    7  C   UNL     1     -12.449  14.790  70.354  1.00  0.00    -0.349 A  
HETATM    8  C   UNL     1     -13.029  14.576  73.132  1.00  0.00    -0.577 A  
HETATM    9  C   UNL     1     -13.050  13.644  70.898  1.00  0.00    -0.184 A  
HETATM   10  C   UNL     1     -13.331  13.532  72.267  1.00  0.00    -0.628 A  
ENDROOT
BRANCH   7  11
HETATM   11  N   UNL     1     -12.110  14.913  69.004  1.00  0.00    -0.253 NA 
HETATM   12  C   UNL     1     -11.643  13.869  66.793  1.00  0.00    -0.378 C  
HETATM   13  C   UNL     1     -11.527  13.728  68.329  1.00  0.00    -0.312 C  
HETATM   14  N   UNL     1     -11.058  15.108  66.228  1.00  0.00    -0.333 NA 
HETATM   15  C   UNL     1     -11.679  16.249  66.948  1.00  0.00     0.878 C  
HETATM   16  C   UNL     1     -11.580  16.194  68.495  1.00  0.00    -0.265 C  
BRANCH  14  17
HETATM   17  C   UNL     1      -9.587  15.152  66.350  1.00  0.00    -0.284 C  
BRANCH  17  18
HETATM   18  C   UNL     1      -8.865  14.012  65.609  1.00  0.00     1.207 C  
BRANCH  18  19
HETATM   19  N   UNL     1      -8.835  12.802  66.389  1.00  0.00    -0.038 N  
HETATM   20  C   UNL     1      -8.531  12.735  67.764  1.00  0.00    -0.177 C  
HETATM   21  O   UNL     1      -8.258  13.659  68.511  1.00  0.00    -0.150 OA 
HETATM   22  N   UNL     1      -8.590  11.378  68.117  1.00  0.00    -0.147 NA 
HETATM   23  C   UNL     1      -8.898  10.630  66.985  1.00  0.00    -0.137 A  
HETATM   24  C   UNL     1      -9.051   9.270  66.856  1.00  0.00    -0.158 A  
HETATM   25  C   UNL     1      -9.352   8.790  65.577  1.00  0.00    -0.165 A  
HETATM   26  C   UNL     1      -9.483   9.669  64.480  1.00  0.00    -0.182 A  
HETATM   27  C   UNL     1      -9.325  11.050  64.638  1.00  0.00    -0.235 A  
HETATM   28  C   UNL     1      -9.037  11.505  65.906  1.00  0.00    -0.177 A  
ENDBRANCH  18  19
ENDBRANCH  17  18
ENDBRANCH  14  17
ENDBRANCH   7  11
TORSDOF 4
ENDMDL
MODEL      328
REMARK 921   NORMALIZED FREE ENERGY PREDICTED BY IDOCK:   -0.58 KCAL/MOL
REMARK 922        TOTAL FREE ENERGY PREDICTED BY IDOCK:   -1.33 KCAL/MOL
REMARK 923 INTER-LIGAND FREE ENERGY PREDICTED BY IDOCK:   -1.34 KCAL/MOL
REMARK 924 INTRA-LIGAND FREE ENERGY PREDICTED BY IDOCK:    0.01 KCAL/MOL
REMARK 927      BINDING AFFINITY PREDICTED BY RF-SCORE:    0.00 PKD
ROOT
HETATM    1  F   UNL     1     -10.853   9.957  66.600  1.00  0.00    -0.253 F  
HETATM    2  C   UNL     1     -10.474   8.998  67.491  1.00  0.00    -0.272 C  
HETATM    3  C   UNL     1     -10.852   9.310  68.916  1.00  0.00    -0.128 A  
HETATM    4  F   UNL     1     -11.025   7.837  67.043  1.00  0.00    -0.405 F  
HETATM    5  F   UNL     1      -9.128   8.860  67.331  1.00  0.00    -0.130 F  
HETATM    6  C   UNL     1     -11.517  10.509  69.226  1.00  0.00    -0.323 A  
HETATM    7  C   UNL     1     -11.852  10.882  70.538  1.00  0.00    -0.360 A  
HETATM    8  C   UNL     1     -10.549   8.421  69.948  1.00  0.00    -0.228 A  
HETATM    9  C   UNL     1     -11.531   9.955  71.543  1.00  0.00    -0.322 A  
HETATM   10  C   UNL     1     -10.895   8.740  71.256  1.00  0.00    -0.347 A  
ENDROOT
BRANCH   7  11
HETATM   11  N   UNL     1     -12.530  12.079  70.783  1.00  0.00    -0.330 NA 
HETATM   12  C   UNL     1     -13.785  14.058  69.944  1.00  0.00     2.251 C  
HETATM   13  C   UNL     1     -12.651  13.043  69.663  1.00  0.00     0.295 C  
HETATM   14  N   UNL     1     -13.671  14.790  71.228  1.00  0.00    -0.412 NA 
HETATM   15  C   UNL     1     -13.548  13.770  72.300  1.00  0.00    -0.559 C  
HETATM   16  C   UNL     1     -12.415  12.730  72.104  1.00  0.00     0.459 C  
BRANCH  14  17
HETATM   17  C   UNL     1     -12.522  15.718  71.256  1.00  0.00    -0.448 C  
BRANCH  17  18
HETATM   18  C   UNL     1     -12.119  16.254  69.870  1.00  0.00     0.243 C  
BRANCH  18  19
HETATM   19  N   UNL     1     -10.935  15.605  69.369  1.00  0.00    -0.260 N  
HETATM   20  C   UNL     1      -9.836  15.212  70.158  1.00  0.00     0.117 C  
HETATM   21  O   UNL     1      -9.700  15.341  71.363  1.00  0.00     1.397 OA 
HETATM   22  N   UNL     1      -8.899  14.645  69.279  1.00  0.00    -0.031 NA 
HETATM   23  C   UNL     1      -9.401  14.710  67.982  1.00  0.00    -0.198 A  
HETATM   24  C   UNL     1      -8.831  14.285  66.807  1.00  0.00    -0.207 A  
HETATM   25  C   UNL     1      -9.571  14.494  65.637  1.00  0.00    -0.189 A  
HETATM   26  C   UNL     1     -10.837  15.117  65.677  1.00  0.00    -0.367 A  
HETATM   27  C   UNL     1     -11.397  15.539  66.887  1.00  0.00    -0.079 A  
HETATM   28  C   UNL     1     -10.658  15.317  68.028  1.00  0.00    -0.261 A  
ENDBRANCH  18  19
ENDBRANCH  17  18
ENDBRANCH  14  17
ENDBRANCH   7  11
TORSDOF 4
ENDMDL
MODEL      329
REMARK 921   NORMALIZED FREE ENERGY PREDICTED BY IDOCK:    1.12 KCAL/MOL
REMARK 922        TOTAL FREE ENERGY PREDICTED BY IDOCK:    0.77 KCAL/MOL
REMARK 923 INTER-LIGAND FREE ENERGY PREDICTED BY IDOCK:    0.03 KCAL/MOL
REMARK 924 INTRA-LIGAND FREE ENERGY PREDICTED BY IDOCK:    0.74 KCAL/MOL
REMARK 927      BINDING AFFINITY PREDICTED BY RF-SCORE:    0.00 PKD
ROOT
HETATM    1  F   UNL     1     -13.032  10.707  69.558  1.00  0.00    -0.207 F  
HETATM    2  C   UNL     1     -12.638  11.374  70.680  1.00  0.00    -0.271 C  
HETATM    3  C   UNL     1     -12.058  12.736  70.403  1.00  0.00    -0.382 A  
HETATM    4  F   UNL     1     -13.734  11.423  71.486  1.00  0.00    -0.182 F  
HETATM    5  F   UNL     1     -11.751  10.550  71.305  1.00  0.00    -0.413 F  
HETATM    6  C   UNL     1     -11.945  13.203  69.082  1.00  0.00    -0.329 A  
HETATM    7  C   UNL     1     -11.368  14.441  68.754  1.00  0.00    -0.273 A  
HETATM    8  C   UNL     1     -11.621  13.554  71.447  1.00  0.00     1.208 A  
HETATM    9  C   UNL     1     -10.946  15.230  69.835  1.00  0.00    -0.303 A  
HETATM   10  C   UNL     1     -11.075  14.800  71.163  1.00  0.00     0.015 A  
ENDROOT
BRANCH   7  11
HETATM   11  N   UNL     1     -11.300  14.860  67.423  1.00  0.00    -0.339 NA 
HETATM   12  C   UNL     1     -10.482  14.525  65.096  1.00  0.00    -0.416 C  
HETATM   13  C   UNL     1     -10.168  14.364  66.602  1.00  0.00    -0.277 C  
HETATM   14  N   UNL     1     -10.847  15.898  64.671  1.00  0.00    -0.564 NA 
HETATM   15  C   UNL     1     -11.975  16.333  65.532  1.00  0.00     1.347 C  
HETATM   16  C   UNL     1     -11.729  16.226  67.060  1.00  0.00     0.797 C  
BRANCH  14  17
HETATM   17  C   UNL     1      -9.718  16.845  64.773  1.00  0.00     2.486 C  
BRANCH  17  18
HETATM   18  C   UNL     1     -10.083  18.182  65.444  1.00  0.00     0.648 C  
BRANCH  18  19
HETATM   19  N   UNL     1      -9.495  18.302  66.753  1.00  0.00    -0.289 N  
HETATM   20  C   UNL     1      -9.870  19.255  67.721  1.00  0.00    -0.340 C  
HETATM   21  O   UNL     1     -10.733  20.111  67.627  1.00  0.00    -0.261 OA 
HETATM   22  N   UNL     1      -9.038  19.041  68.831  1.00  0.00    -0.320 NA 
HETATM   23  C   UNL     1      -8.161  17.999  68.543  1.00  0.00    -0.303 A  
HETATM   24  C   UNL     1      -7.172  17.454  69.326  1.00  0.00    -0.102 A  
HETATM   25  C   UNL     1      -6.429  16.410  68.763  1.00  0.00    -0.142 A  
HETATM   26  C   UNL     1      -6.689  15.954  67.453  1.00  0.00    -0.229 A  
HETATM   27  C   UNL     1      -7.702  16.525  66.676  1.00  0.00    -0.318 A  
HETATM   28  C   UNL     1      -8.429  17.545  67.251  1.00  0.00    -0.214 A  
ENDBRANCH  18  19
ENDBRANCH  17  18
ENDBRANCH  14  17
ENDBRANCH   7  11
TORSDOF 4
ENDMDL
MODEL      330
REMARK 921   NORMALIZED FREE ENERGY PREDICTED BY IDOCK:   11.50 KCAL/MOL
REMARK 922        TOTAL FREE ENERGY PREDICTED BY IDOCK:   13.57 KCAL/MOL
REMARK 923 INTER-LIGAND FREE ENERGY PREDICTED BY IDOCK:    8.18 KCAL/MOL
REMARK 924 INTRA-LIGAND FREE ENERGY PREDICTED BY IDOCK:    5.40 KCAL/MOL
REMARK 927      BINDING AFFINITY PREDICTED BY RF-SCORE:    0.00 PKD
ROOT
HETATM    1  F   UNL     1     -13.419  12.081  68.412  1.00  0.00     3.058 F  
HETATM    2  C   UNL     1     -13.018  11.998  69.712  1.00  0.00     0.943 C  
HETATM    3  C   UNL     1     -12.193  13.173  70.169  1.00  0.00    -0.360 A  
HETATM    4  F   UNL     1     -14.156  11.839  70.441  1.00  0.00     1.964 F  
HETATM    5  F   UNL     1     -12.341  10.820  69.813  1.00  0.00    -0.350 F  
HETATM    6  C   UNL     1     -11.887  14.214  69.274  1.00  0.00    -0.381 A  
HETATM    7  C   UNL     1     -11.083  15.312  69.623  1.00  0.00    -0.276 A  
HETATM    8  C   UNL     1     -11.717  13.249  71.479  1.00  0.00     1.345 A  
HETATM    9  C   UNL     1     -10.630  15.347  70.951  1.00  0.00    -0.019 A  
HETATM   10  C   UNL     1     -10.946  14.336  71.870  1.00  0.00     2.094 A  
ENDROOT
BRANCH   7  11
HETATM   11  N   UNL     1     -10.828  16.326  68.696  1.00  0.00    -0.303 NA 
HETATM   12  C   UNL     1      -9.236  17.565  67.238  1.00  0.00    -0.240 C  
HETATM   13  C   UNL     1      -9.433  16.815  68.577  1.00  0.00    -0.245 C  
HETATM   14  N   UNL     1     -10.183  18.680  66.995  1.00  0.00    -0.359 NA 
HETATM   15  C   UNL     1     -11.553  18.125  67.135  1.00  0.00     1.513 C  
HETATM   16  C   UNL     1     -11.838  17.379  68.465  1.00  0.00     1.690 C  
BRANCH  14  17
HETATM   17  C   UNL     1      -9.981  19.811  67.923  1.00  0.00    -0.416 C  
BRANCH  17  18
HETATM   18  C   UNL     1      -8.926  19.545  69.012  1.00  0.00    -0.192 C  
BRANCH  18  19
HETATM   19  N   UNL     1      -7.651  19.186  68.447  1.00  0.00    -0.298 N  
HETATM   20  C   UNL     1      -6.573  18.640  69.172  1.00  0.00    -0.270 C  
HETATM   21  O   UNL     1      -6.533  18.379  70.362  1.00  0.00     0.186 OA 
HETATM   22  N   UNL     1      -5.527  18.463  68.252  1.00  0.00    -0.167 NA 
HETATM   23  C   UNL     1      -5.945  18.908  67.002  1.00  0.00    -0.159 A  
HETATM   24  C   UNL     1      -5.257  18.934  65.813  1.00  0.00    -0.176 A  
HETATM   25  C   UNL     1      -5.934  19.456  64.705  1.00  0.00    -0.304 A  
HETATM   26  C   UNL     1      -7.257  19.935  64.819  1.00  0.00     0.437 A  
HETATM   27  C   UNL     1      -7.937  19.897  66.041  1.00  0.00    -0.328 A  
HETATM   28  C   UNL     1      -7.257  19.372  67.118  1.00  0.00    -0.211 A  
ENDBRANCH  18  19
ENDBRANCH  17  18
ENDBRANCH  14  17
ENDBRANCH   7  11
TORSDOF 4
ENDMDL
MODEL      331
REMARK 921   NORMALIZED FREE ENERGY PREDICTED BY IDOCK:   48.46 KCAL/MOL
REMARK 922        TOTAL FREE ENERGY PREDICTED BY IDOCK:   59.17 KCAL/MOL
REMARK 923 INTER-LIGAND FREE ENERGY PREDICTED BY IDOCK:   57.47 KCAL/MOL
REMARK 924 INTRA-LIGAND FREE ENERGY PREDICTED BY IDOCK:    1.71 KCAL/MOL
REMARK 927      BINDING AFFINITY PREDICTED BY RF-SCORE:    0.00 PKD
ROOT
HETATM    1  F   UNL     1      -6.835   9.676  64.781  1.00  0.00    -0.090 F  
HETATM    2  C   UNL     1      -6.129  10.841  64.758  1.00  0.00     0.116 C  
HETATM    3  C   UNL     1      -6.988  12.074  64.868  1.00  0.00     4.039 A  
HETATM    4  F   UNL     1      -5.218  10.743  65.764  1.00  0.00    -0.062 F  
HETATM    5  F   UNL     1      -5.411  10.812  63.600  1.00  0.00    -0.146 F  
HETATM    6  C   UNL     1      -8.385  11.956  64.963  1.00  0.00     1.250 A  
HETATM    7  C   UNL     1      -9.245  13.067  65.019  1.00  0.00     0.875 A  
HETATM    8  C   UNL     1      -6.416  13.347  64.874  1.00  0.00    13.886 A  
HETATM    9  C   UNL     1      -8.625  14.326  65.026  1.00  0.00     4.179 A  
HETATM   10  C   UNL     1      -7.232  14.469  64.961  1.00  0.00    12.802 A  
ENDROOT
BRANCH   7  11
HETATM   11  N   UNL     1     -10.626  12.888  65.131  1.00  0.00    -0.294 NA 
HETATM   12  C   UNL     1     -12.881  13.794  65.669  1.00  0.00    -0.408 C  
HETATM   13  C   UNL     1     -11.372  13.824  66.008  1.00  0.00    -0.314 C  
HETATM   14  N   UNL     1     -13.511  12.453  65.713  1.00  0.00     2.067 NA 
HETATM   15  C   UNL     1     -12.716  11.570  64.823  1.00  0.00     1.384 C  
HETATM   16  C   UNL     1     -11.193  11.525  65.117  1.00  0.00    -0.146 C  
BRANCH  14  17
HETATM   17  C   UNL     1     -13.573  11.897  67.080  1.00  0.00     9.622 C  
BRANCH  17  18
HETATM   18  C   UNL     1     -12.496  10.836  67.372  1.00  0.00     3.485 C  
BRANCH  18  19
HETATM   19  N   UNL     1     -11.658  11.214  68.480  1.00  0.00    -0.304 N  
HETATM   20  C   UNL     1     -10.754  10.355  69.136  1.00  0.00    -0.234 C  
HETATM   21  O   UNL     1     -10.524   9.184  68.886  1.00  0.00    -0.218 OA 
HETATM   22  N   UNL     1     -10.164  11.109  70.163  1.00  0.00     0.731 NA 
HETATM   23  C   UNL     1     -10.709  12.390  70.151  1.00  0.00     1.421 A  
HETATM   24  C   UNL     1     -10.440  13.457  70.974  1.00  0.00     4.528 A  
HETATM   25  C   UNL     1     -11.159  14.633  70.733  1.00  0.00     0.012 A  
HETATM   26  C   UNL     1     -12.116  14.704  69.698  1.00  0.00    -0.355 A  
HETATM   27  C   UNL     1     -12.371  13.604  68.873  1.00  0.00    -0.047 A  
HETATM   28  C   UNL     1     -11.647  12.458  69.120  1.00  0.00    -0.314 A  
ENDBRANCH  18  19
ENDBRANCH  17  18
ENDBRANCH  14  17
ENDBRANCH   7  11
TORSDOF 4
ENDMDL
