MODEL        1
REMARK 921   NORMALIZED FREE ENERGY PREDICTED BY IDOCK:   -6.03 KCAL/MOL
REMARK 922        TOTAL FREE ENERGY PREDICTED BY IDOCK:  -10.77 KCAL/MOL
REMARK 923 INTER-LIGAND FREE ENERGY PREDICTED BY IDOCK:   -9.91 KCAL/MOL
REMARK 924 INTRA-LIGAND FREE ENERGY PREDICTED BY IDOCK:   -0.86 KCAL/MOL
REMARK 927      BINDING AFFINITY PREDICTED BY RF-SCORE:    0.00 PKD
ROOT
HETATM    1  N   UNL     1     -12.261   5.603  72.776  1.00  0.00    -0.493 NA 
HETATM    2  H   UNL     1     -13.149   5.102  72.768  1.00  0.00     0.000 HD 
HETATM    3  C   UNL     1     -11.065   4.985  73.328  1.00  0.00    -0.337 C  
ENDROOT
BRANCH   1   4
HETATM    4  C   UNL     1     -12.169   6.897  72.256  1.00  0.00    -0.138 A  
HETATM    5  C   UNL     1     -13.251   7.607  71.730  1.00  0.00    -0.360 A  
HETATM    6  C   UNL     1     -13.078   8.893  71.206  1.00  0.00    -0.241 A  
HETATM    7  C   UNL     1     -11.825   9.515  71.231  1.00  0.00    -0.450 A  
HETATM    8  C   UNL     1     -10.754   8.831  71.814  1.00  0.00    -0.413 A  
HETATM    9  C   UNL     1     -10.934   7.547  72.339  1.00  0.00    -0.333 A  
BRANCH   7  10
HETATM   10  C   UNL     1     -11.668  10.819  70.571  1.00  0.00    -0.449 C  
HETATM   11  C   UNL     1     -12.374  11.918  70.883  1.00  0.00    -0.400 C  
BRANCH  11  12
HETATM   12  C   UNL     1     -12.181  13.227  70.250  1.00  0.00    -0.391 A  
HETATM   13  C   UNL     1     -11.944  13.399  68.887  1.00  0.00    -0.324 A  
HETATM   14  N   UNL     1     -11.734  14.592  68.281  1.00  0.00    -0.328 NA 
HETATM   15  C   UNL     1     -11.717  15.678  69.078  1.00  0.00    -0.395 A  
HETATM   16  C   UNL     1     -12.155  14.381  71.035  1.00  0.00    -0.417 A  
HETATM   17  C   UNL     1     -11.912  15.626  70.449  1.00  0.00    -0.405 A  
BRANCH  15  18
HETATM   18  O   UNL     1     -11.464  16.922  68.540  1.00  0.00    -0.130 OA 
BRANCH  18  19
HETATM   19  C   UNL     1     -10.152  17.019  67.973  1.00  0.00    -0.305 C  
BRANCH  19  20
HETATM   20  C   UNL     1     -10.234  17.791  66.657  1.00  0.00    -0.361 C  
BRANCH  20  21
HETATM   21  O   UNL     1      -9.424  17.136  65.676  1.00  0.00    -0.523 OA 
BRANCH  21  22
HETATM   22  C   UNL     1      -9.578  15.720  65.721  1.00  0.00    -0.320 C  
BRANCH  22  23
HETATM   23  C   UNL     1     -10.777  15.322  64.868  1.00  0.00    -0.400 C  
BRANCH  23  24
HETATM   24  O   UNL     1     -10.875  13.898  64.827  1.00  0.00    -0.376 OA 
BRANCH  24  25
HETATM   25  C   UNL     1     -12.068  13.478  64.162  1.00  0.00    -0.435 C  
HETATM   26  C   UNL     1     -11.865  12.085  63.595  1.00  0.00    -0.506 C  
HETATM   27  F   UNL     1     -12.999  11.688  62.961  1.00  0.00    -0.682 F  
ENDBRANCH  24  25
ENDBRANCH  23  24
ENDBRANCH  22  23
ENDBRANCH  21  22
ENDBRANCH  20  21
ENDBRANCH  19  20
ENDBRANCH  18  19
ENDBRANCH  15  18
ENDBRANCH  11  12
ENDBRANCH   7  10
ENDBRANCH   1   4
TORSDOF 11
ENDMDL
MODEL        2
REMARK 921   NORMALIZED FREE ENERGY PREDICTED BY IDOCK:   -5.92 KCAL/MOL
REMARK 922        TOTAL FREE ENERGY PREDICTED BY IDOCK:  -10.59 KCAL/MOL
REMARK 923 INTER-LIGAND FREE ENERGY PREDICTED BY IDOCK:   -9.52 KCAL/MOL
REMARK 924 INTRA-LIGAND FREE ENERGY PREDICTED BY IDOCK:   -1.07 KCAL/MOL
REMARK 927      BINDING AFFINITY PREDICTED BY RF-SCORE:    0.00 PKD
ROOT
HETATM    1  N   UNL     1     -11.470   4.781  73.648  1.00  0.00    -0.383 NA 
HETATM    2  H   UNL     1     -12.332   4.242  73.574  1.00  0.00     0.000 HD 
HETATM    3  C   UNL     1     -10.350   4.285  74.433  1.00  0.00    -0.247 C  
ENDROOT
BRANCH   1   4
HETATM    4  C   UNL     1     -11.342   6.012  72.998  1.00  0.00    -0.141 A  
HETATM    5  C   UNL     1     -10.421   6.998  73.364  1.00  0.00    -0.383 A  
HETATM    6  C   UNL     1     -10.367   8.216  72.679  1.00  0.00    -0.398 A  
HETATM    7  C   UNL     1     -11.205   8.464  71.587  1.00  0.00    -0.343 A  
HETATM    8  C   UNL     1     -12.084   7.456  71.181  1.00  0.00    -0.357 A  
HETATM    9  C   UNL     1     -12.131   6.237  71.867  1.00  0.00    -0.311 A  
BRANCH   7  10
HETATM   10  C   UNL     1     -11.189   9.798  70.969  1.00  0.00    -0.451 C  
HETATM   11  C   UNL     1     -12.233  10.644  70.963  1.00  0.00    -0.498 C  
BRANCH  11  12
HETATM   12  C   UNL     1     -12.195  11.991  70.383  1.00  0.00    -0.379 A  
HETATM   13  C   UNL     1     -11.674  12.275  69.122  1.00  0.00    -0.323 A  
HETATM   14  N   UNL     1     -11.600  13.511  68.574  1.00  0.00    -0.309 NA 
HETATM   15  C   UNL     1     -12.033  14.535  69.336  1.00  0.00    -0.322 A  
HETATM   16  C   UNL     1     -12.632  13.083  71.134  1.00  0.00    -0.388 A  
HETATM   17  C   UNL     1     -12.545  14.376  70.614  1.00  0.00    -0.424 A  
BRANCH  15  18
HETATM   18  O   UNL     1     -11.949  15.827  68.864  1.00  0.00    -0.382 OA 
BRANCH  18  19
HETATM   19  C   UNL     1     -10.707  16.456  69.203  1.00  0.00    -0.317 C  
BRANCH  19  20
HETATM   20  C   UNL     1     -10.190  17.227  67.990  1.00  0.00    -0.332 C  
BRANCH  20  21
HETATM   21  O   UNL     1     -10.638  16.580  66.795  1.00  0.00    -0.295 OA 
BRANCH  21  22
HETATM   22  C   UNL     1      -9.606  15.802  66.194  1.00  0.00    -0.332 C  
BRANCH  22  23
HETATM   23  C   UNL     1     -10.239  14.717  65.331  1.00  0.00    -0.387 C  
BRANCH  23  24
HETATM   24  O   UNL     1     -11.658  14.876  65.339  1.00  0.00    -0.339 OA 
BRANCH  24  25
HETATM   25  C   UNL     1     -12.279  14.050  64.352  1.00  0.00    -0.426 C  
HETATM   26  C   UNL     1     -12.399  12.633  64.883  1.00  0.00    -0.498 C  
HETATM   27  F   UNL     1     -12.988  11.850  63.941  1.00  0.00    -0.558 F  
ENDBRANCH  24  25
ENDBRANCH  23  24
ENDBRANCH  22  23
ENDBRANCH  21  22
ENDBRANCH  20  21
ENDBRANCH  19  20
ENDBRANCH  18  19
ENDBRANCH  15  18
ENDBRANCH  11  12
ENDBRANCH   7  10
ENDBRANCH   1   4
TORSDOF 11
ENDMDL
MODEL        3
REMARK 921   NORMALIZED FREE ENERGY PREDICTED BY IDOCK:   -5.86 KCAL/MOL
REMARK 922        TOTAL FREE ENERGY PREDICTED BY IDOCK:  -10.49 KCAL/MOL
REMARK 923 INTER-LIGAND FREE ENERGY PREDICTED BY IDOCK:   -9.27 KCAL/MOL
REMARK 924 INTRA-LIGAND FREE ENERGY PREDICTED BY IDOCK:   -1.22 KCAL/MOL
REMARK 927      BINDING AFFINITY PREDICTED BY RF-SCORE:    0.00 PKD
ROOT
HETATM    1  N   UNL     1     -12.235   7.228  72.634  1.00  0.00    -0.504 NA 
HETATM    2  H   UNL     1     -13.002   7.220  73.306  1.00  0.00     0.000 HD 
HETATM    3  C   UNL     1     -11.301   6.115  72.560  1.00  0.00    -0.286 C  
ENDROOT
BRANCH   1   4
HETATM    4  C   UNL     1     -12.060   8.309  71.765  1.00  0.00    -0.319 A  
HETATM    5  C   UNL     1     -11.151   8.322  70.705  1.00  0.00    -0.269 A  
HETATM    6  C   UNL     1     -11.016   9.451  69.890  1.00  0.00    -0.251 A  
HETATM    7  C   UNL     1     -11.815  10.582  70.093  1.00  0.00    -0.404 A  
HETATM    8  C   UNL     1     -12.769  10.548  71.114  1.00  0.00    -0.518 A  
HETATM    9  C   UNL     1     -12.902   9.414  71.923  1.00  0.00    -0.497 A  
BRANCH   7  10
HETATM   10  C   UNL     1     -11.562  11.782  69.284  1.00  0.00    -0.378 C  
HETATM   11  C   UNL     1     -11.063  11.767  68.037  1.00  0.00    -0.297 C  
BRANCH  11  12
HETATM   12  C   UNL     1     -10.855  12.967  67.219  1.00  0.00    -0.270 A  
HETATM   13  C   UNL     1      -9.602  13.531  66.981  1.00  0.00    -0.248 A  
HETATM   14  N   UNL     1      -9.383  14.653  66.255  1.00  0.00    -0.284 NA 
HETATM   15  C   UNL     1     -10.472  15.278  65.768  1.00  0.00    -0.349 A  
HETATM   16  C   UNL     1     -11.953  13.649  66.694  1.00  0.00    -0.458 A  
HETATM   17  C   UNL     1     -11.768  14.826  65.965  1.00  0.00    -0.248 A  
BRANCH  15  18
HETATM   18  O   UNL     1     -10.332  16.451  65.057  1.00  0.00    -0.615 OA 
BRANCH  18  19
HETATM   19  C   UNL     1     -10.515  17.614  65.874  1.00  0.00    -0.246 C  
BRANCH  19  20
HETATM   20  C   UNL     1      -9.172  18.009  66.486  1.00  0.00    -0.275 C  
BRANCH  20  21
HETATM   21  O   UNL     1      -9.295  18.041  67.911  1.00  0.00    -0.256 OA 
BRANCH  21  22
HETATM   22  C   UNL     1     -10.560  17.549  68.345  1.00  0.00    -0.339 C  
BRANCH  22  23
HETATM   23  C   UNL     1     -10.340  16.441  69.368  1.00  0.00    -0.290 C  
BRANCH  23  24
HETATM   24  O   UNL     1     -11.575  15.767  69.608  1.00  0.00    -0.318 OA 
BRANCH  24  25
HETATM   25  C   UNL     1     -11.582  15.133  70.888  1.00  0.00    -0.338 C  
HETATM   26  C   UNL     1     -11.904  16.160  71.958  1.00  0.00    -0.530 C  
HETATM   27  F   UNL     1     -11.908  15.555  73.175  1.00  0.00    -0.482 F  
ENDBRANCH  24  25
ENDBRANCH  23  24
ENDBRANCH  22  23
ENDBRANCH  21  22
ENDBRANCH  20  21
ENDBRANCH  19  20
ENDBRANCH  18  19
ENDBRANCH  15  18
ENDBRANCH  11  12
ENDBRANCH   7  10
ENDBRANCH   1   4
TORSDOF 11
ENDMDL
MODEL        4
REMARK 921   NORMALIZED FREE ENERGY PREDICTED BY IDOCK:   -5.86 KCAL/MOL
REMARK 922        TOTAL FREE ENERGY PREDICTED BY IDOCK:  -10.49 KCAL/MOL
REMARK 923 INTER-LIGAND FREE ENERGY PREDICTED BY IDOCK:   -9.78 KCAL/MOL
REMARK 924 INTRA-LIGAND FREE ENERGY PREDICTED BY IDOCK:   -0.72 KCAL/MOL
REMARK 927      BINDING AFFINITY PREDICTED BY RF-SCORE:    0.00 PKD
ROOT
HETATM    1  N   UNL     1     -11.018   4.935  74.072  1.00  0.00    -0.340 NA 
HETATM    2  H   UNL     1     -11.507   4.936  74.967  1.00  0.00     0.000 HD 
HETATM    3  C   UNL     1     -10.162   3.820  73.696  1.00  0.00    -0.145 C  
ENDROOT
BRANCH   1   4
HETATM    4  C   UNL     1     -11.157   6.004  73.182  1.00  0.00    -0.203 A  
HETATM    5  C   UNL     1     -12.056   6.020  72.113  1.00  0.00    -0.201 A  
HETATM    6  C   UNL     1     -12.123   7.119  71.249  1.00  0.00    -0.386 A  
HETATM    7  C   UNL     1     -11.320   8.245  71.458  1.00  0.00    -0.320 A  
HETATM    8  C   UNL     1     -10.465   8.257  72.563  1.00  0.00    -0.406 A  
HETATM    9  C   UNL     1     -10.405   7.157  73.426  1.00  0.00    -0.391 A  
BRANCH   7  10
HETATM   10  C   UNL     1     -11.345   9.327  70.464  1.00  0.00    -0.306 C  
HETATM   11  C   UNL     1     -11.857  10.549  70.685  1.00  0.00    -0.458 C  
BRANCH  11  12
HETATM   12  C   UNL     1     -11.839  11.639  69.702  1.00  0.00    -0.419 A  
HETATM   13  C   UNL     1     -12.103  12.970  70.020  1.00  0.00    -0.297 A  
HETATM   14  N   UNL     1     -12.122  13.991  69.130  1.00  0.00    -0.355 NA 
HETATM   15  C   UNL     1     -11.905  13.669  67.840  1.00  0.00    -0.366 A  
HETATM   16  C   UNL     1     -11.619  11.355  68.354  1.00  0.00    -0.385 A  
HETATM   17  C   UNL     1     -11.659  12.377  67.403  1.00  0.00    -0.433 A  
BRANCH  15  18
HETATM   18  O   UNL     1     -11.952  14.647  66.869  1.00  0.00    -0.373 OA 
BRANCH  18  19
HETATM   19  C   UNL     1     -12.771  14.275  65.753  1.00  0.00    -0.340 C  
BRANCH  19  20
HETATM   20  C   UNL     1     -12.059  14.666  64.460  1.00  0.00    -0.475 C  
BRANCH  20  21
HETATM   21  O   UNL     1     -12.546  13.852  63.389  1.00  0.00    -0.853 OA 
BRANCH  21  22
HETATM   22  C   UNL     1     -12.055  12.516  63.472  1.00  0.00    -0.562 C  
BRANCH  22  23
HETATM   23  C   UNL     1     -10.584  12.551  63.870  1.00  0.00    -0.440 C  
BRANCH  23  24
HETATM   24  O   UNL     1      -9.831  11.745  62.963  1.00  0.00    -0.398 OA 
BRANCH  24  25
HETATM   25  C   UNL     1      -9.716  10.401  63.434  1.00  0.00    -0.263 C  
HETATM   26  C   UNL     1      -9.840  10.384  64.947  1.00  0.00    -0.334 C  
HETATM   27  F   UNL     1      -9.728   9.105  65.393  1.00  0.00    -0.325 F  
ENDBRANCH  24  25
ENDBRANCH  23  24
ENDBRANCH  22  23
ENDBRANCH  21  22
ENDBRANCH  20  21
ENDBRANCH  19  20
ENDBRANCH  18  19
ENDBRANCH  15  18
ENDBRANCH  11  12
ENDBRANCH   7  10
ENDBRANCH   1   4
TORSDOF 11
ENDMDL
MODEL        5
REMARK 921   NORMALIZED FREE ENERGY PREDICTED BY IDOCK:   -5.79 KCAL/MOL
REMARK 922        TOTAL FREE ENERGY PREDICTED BY IDOCK:  -10.38 KCAL/MOL
REMARK 923 INTER-LIGAND FREE ENERGY PREDICTED BY IDOCK:   -9.61 KCAL/MOL
REMARK 924 INTRA-LIGAND FREE ENERGY PREDICTED BY IDOCK:   -0.76 KCAL/MOL
REMARK 927      BINDING AFFINITY PREDICTED BY RF-SCORE:    0.00 PKD
ROOT
HETATM    1  N   UNL     1     -10.593   4.684  74.513  1.00  0.00    -0.345 NA 
HETATM    2  H   UNL     1     -10.654   4.747  75.529  1.00  0.00     0.000 HD 
HETATM    3  C   UNL     1     -10.378   3.401  73.862  1.00  0.00    -0.162 C  
ENDROOT
BRANCH   1   4
HETATM    4  C   UNL     1     -10.716   5.828  73.720  1.00  0.00    -0.217 A  
HETATM    5  C   UNL     1     -11.720   6.015  72.767  1.00  0.00    -0.145 A  
HETATM    6  C   UNL     1     -11.765   7.180  71.993  1.00  0.00    -0.326 A  
HETATM    7  C   UNL     1     -10.829   8.202  72.180  1.00  0.00    -0.370 A  
HETATM    8  C   UNL     1      -9.860   8.044  73.176  1.00  0.00    -0.332 A  
HETATM    9  C   UNL     1      -9.823   6.879  73.949  1.00  0.00    -0.340 A  
BRANCH   7  10
HETATM   10  C   UNL     1     -10.848   9.356  71.270  1.00  0.00    -0.431 C  
HETATM   11  C   UNL     1     -11.964   9.991  70.873  1.00  0.00    -0.453 C  
BRANCH  11  12
HETATM   12  C   UNL     1     -11.973  11.170  70.000  1.00  0.00    -0.447 A  
HETATM   13  C   UNL     1     -11.818  11.107  68.616  1.00  0.00    -0.287 A  
HETATM   14  N   UNL     1     -11.793  12.180  67.789  1.00  0.00    -0.514 NA 
HETATM   15  C   UNL     1     -11.888  13.391  68.371  1.00  0.00    -0.366 A  
HETATM   16  C   UNL     1     -12.068  12.446  70.557  1.00  0.00    -0.363 A  
HETATM   17  C   UNL     1     -12.017  13.577  69.738  1.00  0.00    -0.405 A  
BRANCH  15  18
HETATM   18  O   UNL     1     -11.826  14.532  67.600  1.00  0.00    -0.371 OA 
BRANCH  18  19
HETATM   19  C   UNL     1     -10.838  14.442  66.565  1.00  0.00    -0.310 C  
BRANCH  19  20
HETATM   20  C   UNL     1     -11.282  15.292  65.376  1.00  0.00    -0.307 C  
BRANCH  20  21
HETATM   21  O   UNL     1     -10.348  16.359  65.184  1.00  0.00    -0.610 OA 
BRANCH  21  22
HETATM   22  C   UNL     1      -9.286  16.310  66.133  1.00  0.00    -0.341 C  
BRANCH  22  23
HETATM   23  C   UNL     1      -9.013  17.719  66.647  1.00  0.00    -0.266 C  
BRANCH  23  24
HETATM   24  O   UNL     1      -9.738  18.659  65.853  1.00  0.00    -0.498 OA 
BRANCH  24  25
HETATM   25  C   UNL     1     -10.213  19.750  66.644  1.00  0.00    -0.478 C  
HETATM   26  C   UNL     1     -10.196  19.356  68.110  1.00  0.00    -0.431 C  
HETATM   27  F   UNL     1     -10.651  20.394  68.860  1.00  0.00    -0.498 F  
ENDBRANCH  24  25
ENDBRANCH  23  24
ENDBRANCH  22  23
ENDBRANCH  21  22
ENDBRANCH  20  21
ENDBRANCH  19  20
ENDBRANCH  18  19
ENDBRANCH  15  18
ENDBRANCH  11  12
ENDBRANCH   7  10
ENDBRANCH   1   4
TORSDOF 11
ENDMDL
MODEL        6
REMARK 921   NORMALIZED FREE ENERGY PREDICTED BY IDOCK:   -5.76 KCAL/MOL
REMARK 922        TOTAL FREE ENERGY PREDICTED BY IDOCK:  -10.32 KCAL/MOL
REMARK 923 INTER-LIGAND FREE ENERGY PREDICTED BY IDOCK:   -8.69 KCAL/MOL
REMARK 924 INTRA-LIGAND FREE ENERGY PREDICTED BY IDOCK:   -1.63 KCAL/MOL
REMARK 927      BINDING AFFINITY PREDICTED BY RF-SCORE:    0.00 PKD
ROOT
HETATM    1  N   UNL     1     -12.548   8.180  72.374  1.00  0.00    -0.541 NA 
HETATM    2  H   UNL     1     -13.079   8.381  73.221  1.00  0.00     0.000 HD 
HETATM    3  C   UNL     1     -12.147   6.818  72.057  1.00  0.00    -0.305 C  
ENDROOT
BRANCH   1   4
HETATM    4  C   UNL     1     -12.192   9.207  71.496  1.00  0.00    -0.349 A  
HETATM    5  C   UNL     1     -11.280   9.059  70.448  1.00  0.00    -0.275 A  
HETATM    6  C   UNL     1     -10.956  10.141  69.622  1.00  0.00    -0.305 A  
HETATM    7  C   UNL     1     -11.564  11.388  69.801  1.00  0.00    -0.407 A  
HETATM    8  C   UNL     1     -12.522  11.522  70.810  1.00  0.00    -0.444 A  
HETATM    9  C   UNL     1     -12.846  10.435  71.630  1.00  0.00    -0.579 A  
BRANCH   7  10
HETATM   10  C   UNL     1     -11.111  12.521  68.982  1.00  0.00    -0.287 C  
HETATM   11  C   UNL     1     -11.895  13.543  68.600  1.00  0.00    -0.404 C  
BRANCH  11  12
HETATM   12  C   UNL     1     -11.425  14.693  67.820  1.00  0.00    -0.359 A  
HETATM   13  C   UNL     1     -11.282  15.976  68.346  1.00  0.00    -0.364 A  
HETATM   14  N   UNL     1     -10.879  17.061  67.643  1.00  0.00    -0.297 NA 
HETATM   15  C   UNL     1     -10.640  16.874  66.331  1.00  0.00    -0.183 A  
HETATM   16  C   UNL     1     -11.165  14.548  66.457  1.00  0.00    -0.344 A  
HETATM   17  C   UNL     1     -10.775  15.651  65.693  1.00  0.00    -0.376 A  
BRANCH  15  18
HETATM   18  O   UNL     1     -10.269  17.941  65.540  1.00  0.00    -0.576 OA 
BRANCH  18  19
HETATM   19  C   UNL     1     -10.545  19.205  66.157  1.00  0.00    -0.439 C  
BRANCH  19  20
HETATM   20  C   UNL     1      -9.235  19.966  66.344  1.00  0.00    -0.380 C  
BRANCH  20  21
HETATM   21  O   UNL     1      -8.846  19.905  67.719  1.00  0.00    -0.318 OA 
BRANCH  21  22
HETATM   22  C   UNL     1      -7.512  19.427  67.873  1.00  0.00    -0.270 C  
BRANCH  22  23
HETATM   23  C   UNL     1      -7.553  17.952  68.254  1.00  0.00    -0.266 C  
BRANCH  23  24
HETATM   24  O   UNL     1      -6.800  17.198  67.304  1.00  0.00    -0.145 OA 
BRANCH  24  25
HETATM   25  C   UNL     1      -7.317  15.873  67.163  1.00  0.00    -0.223 C  
HETATM   26  C   UNL     1      -7.675  15.324  68.532  1.00  0.00    -0.128 C  
HETATM   27  F   UNL     1      -8.165  14.063  68.396  1.00  0.00    -0.128 F  
ENDBRANCH  24  25
ENDBRANCH  23  24
ENDBRANCH  22  23
ENDBRANCH  21  22
ENDBRANCH  20  21
ENDBRANCH  19  20
ENDBRANCH  18  19
ENDBRANCH  15  18
ENDBRANCH  11  12
ENDBRANCH   7  10
ENDBRANCH   1   4
TORSDOF 11
ENDMDL
MODEL        7
REMARK 921   NORMALIZED FREE ENERGY PREDICTED BY IDOCK:   -5.72 KCAL/MOL
REMARK 922        TOTAL FREE ENERGY PREDICTED BY IDOCK:  -10.25 KCAL/MOL
REMARK 923 INTER-LIGAND FREE ENERGY PREDICTED BY IDOCK:   -9.64 KCAL/MOL
REMARK 924 INTRA-LIGAND FREE ENERGY PREDICTED BY IDOCK:   -0.62 KCAL/MOL
REMARK 927      BINDING AFFINITY PREDICTED BY RF-SCORE:    0.00 PKD
ROOT
HETATM    1  N   UNL     1     -10.564   5.249  74.059  1.00  0.00    -0.283 NA 
HETATM    2  H   UNL     1     -10.119   5.427  74.959  1.00  0.00     0.000 HD 
HETATM    3  C   UNL     1     -10.950   3.900  73.677  1.00  0.00    -0.250 C  
ENDROOT
BRANCH   1   4
HETATM    4  C   UNL     1     -10.817   6.298  73.170  1.00  0.00    -0.254 A  
HETATM    5  C   UNL     1     -10.071   7.478  73.122  1.00  0.00    -0.362 A  
HETATM    6  C   UNL     1     -10.398   8.495  72.218  1.00  0.00    -0.402 A  
HETATM    7  C   UNL     1     -11.454   8.340  71.314  1.00  0.00    -0.314 A  
HETATM    8  C   UNL     1     -12.162   7.135  71.319  1.00  0.00    -0.403 A  
HETATM    9  C   UNL     1     -11.829   6.120  72.222  1.00  0.00    -0.326 A  
BRANCH   7  10
HETATM   10  C   UNL     1     -11.830   9.477  70.461  1.00  0.00    -0.246 C  
HETATM   11  C   UNL     1     -10.956  10.236  69.780  1.00  0.00    -0.338 C  
BRANCH  11  12
HETATM   12  C   UNL     1     -11.341  11.341  68.895  1.00  0.00    -0.340 A  
HETATM   13  C   UNL     1     -11.422  11.227  67.508  1.00  0.00    -0.246 A  
HETATM   14  N   UNL     1     -11.746  12.237  66.665  1.00  0.00    -0.532 NA 
HETATM   15  C   UNL     1     -11.966  13.442  67.225  1.00  0.00    -0.347 A  
HETATM   16  C   UNL     1     -11.578  12.608  69.429  1.00  0.00    -0.369 A  
HETATM   17  C   UNL     1     -11.887  13.680  68.588  1.00  0.00    -0.409 A  
BRANCH  15  18
HETATM   18  O   UNL     1     -12.257  14.528  66.428  1.00  0.00    -0.373 OA 
BRANCH  18  19
HETATM   19  C   UNL     1     -11.156  14.908  65.592  1.00  0.00    -0.348 C  
BRANCH  19  20
HETATM   20  C   UNL     1     -11.685  15.704  64.402  1.00  0.00    -0.218 C  
BRANCH  20  21
HETATM   21  O   UNL     1     -11.110  17.014  64.418  1.00  0.00    -1.144 OA 
BRANCH  21  22
HETATM   22  C   UNL     1     -10.530  17.322  65.683  1.00  0.00    -0.181 C  
BRANCH  22  23
HETATM   23  C   UNL     1     -10.582  18.830  65.900  1.00  0.00    -0.352 C  
BRANCH  23  24
HETATM   24  O   UNL     1     -10.976  19.100  67.246  1.00  0.00    -0.478 OA 
BRANCH  24  25
HETATM   25  C   UNL     1      -9.996  19.884  67.928  1.00  0.00    -0.422 C  
HETATM   26  C   UNL     1      -8.809  19.008  68.286  1.00  0.00    -0.333 C  
HETATM   27  F   UNL     1      -7.879  19.756  68.937  1.00  0.00    -0.369 F  
ENDBRANCH  24  25
ENDBRANCH  23  24
ENDBRANCH  22  23
ENDBRANCH  21  22
ENDBRANCH  20  21
ENDBRANCH  19  20
ENDBRANCH  18  19
ENDBRANCH  15  18
ENDBRANCH  11  12
ENDBRANCH   7  10
ENDBRANCH   1   4
TORSDOF 11
ENDMDL
MODEL        8
REMARK 921   NORMALIZED FREE ENERGY PREDICTED BY IDOCK:   -5.70 KCAL/MOL
REMARK 922        TOTAL FREE ENERGY PREDICTED BY IDOCK:  -10.23 KCAL/MOL
REMARK 923 INTER-LIGAND FREE ENERGY PREDICTED BY IDOCK:   -9.21 KCAL/MOL
REMARK 924 INTRA-LIGAND FREE ENERGY PREDICTED BY IDOCK:   -1.02 KCAL/MOL
REMARK 927      BINDING AFFINITY PREDICTED BY RF-SCORE:    0.00 PKD
ROOT
HETATM    1  N   UNL     1     -11.438   5.977  73.312  1.00  0.00    -0.443 NA 
HETATM    2  H   UNL     1     -12.156   5.263  73.188  1.00  0.00     0.000 HD 
HETATM    3  C   UNL     1     -10.376   5.800  74.290  1.00  0.00    -0.270 C  
ENDROOT
BRANCH   1   4
HETATM    4  C   UNL     1     -11.456   7.144  72.543  1.00  0.00    -0.258 A  
HETATM    5  C   UNL     1     -12.617   7.719  72.020  1.00  0.00    -0.298 A  
HETATM    6  C   UNL     1     -12.554   8.878  71.240  1.00  0.00    -0.309 A  
HETATM    7  C   UNL     1     -11.332   9.513  70.995  1.00  0.00    -0.423 A  
HETATM    8  C   UNL     1     -10.176   8.975  71.568  1.00  0.00    -0.414 A  
HETATM    9  C   UNL     1     -10.246   7.817  72.351  1.00  0.00    -0.305 A  
BRANCH   7  10
HETATM   10  C   UNL     1     -11.301  10.662  70.080  1.00  0.00    -0.400 C  
HETATM   11  C   UNL     1     -11.468  10.579  68.750  1.00  0.00    -0.291 C  
BRANCH  11  12
HETATM   12  C   UNL     1     -11.480  11.736  67.848  1.00  0.00    -0.387 A  
HETATM   13  C   UNL     1     -12.007  12.979  68.194  1.00  0.00    -0.280 A  
HETATM   14  N   UNL     1     -12.058  14.055  67.373  1.00  0.00    -0.393 NA 
HETATM   15  C   UNL     1     -11.595  13.879  66.120  1.00  0.00    -0.359 A  
HETATM   16  C   UNL     1     -11.012  11.602  66.540  1.00  0.00    -0.349 A  
HETATM   17  C   UNL     1     -11.076  12.682  65.656  1.00  0.00    -0.327 A  
BRANCH  15  18
HETATM   18  O   UNL     1     -11.655  14.916  65.212  1.00  0.00    -0.343 OA 
BRANCH  18  19
HETATM   19  C   UNL     1     -10.414  15.625  65.105  1.00  0.00    -0.389 C  
BRANCH  19  20
HETATM   20  C   UNL     1     -10.504  16.913  65.921  1.00  0.00    -0.285 C  
BRANCH  20  21
HETATM   21  O   UNL     1      -9.898  16.704  67.200  1.00  0.00    -0.246 OA 
BRANCH  21  22
HETATM   22  C   UNL     1     -10.700  17.222  68.257  1.00  0.00    -0.349 C  
BRANCH  22  23
HETATM   23  C   UNL     1     -10.433  16.417  69.524  1.00  0.00    -0.301 C  
BRANCH  23  24
HETATM   24  O   UNL     1     -11.677  15.998  70.087  1.00  0.00    -0.332 OA 
BRANCH  24  25
HETATM   25  C   UNL     1     -11.482  15.310  71.324  1.00  0.00    -0.380 C  
HETATM   26  C   UNL     1     -12.034  16.151  72.461  1.00  0.00    -0.561 C  
HETATM   27  F   UNL     1     -11.846  15.495  73.637  1.00  0.00    -0.517 F  
ENDBRANCH  24  25
ENDBRANCH  23  24
ENDBRANCH  22  23
ENDBRANCH  21  22
ENDBRANCH  20  21
ENDBRANCH  19  20
ENDBRANCH  18  19
ENDBRANCH  15  18
ENDBRANCH  11  12
ENDBRANCH   7  10
ENDBRANCH   1   4
TORSDOF 11
ENDMDL
MODEL        9
REMARK 921   NORMALIZED FREE ENERGY PREDICTED BY IDOCK:   -5.68 KCAL/MOL
REMARK 922        TOTAL FREE ENERGY PREDICTED BY IDOCK:  -10.20 KCAL/MOL
REMARK 923 INTER-LIGAND FREE ENERGY PREDICTED BY IDOCK:   -9.47 KCAL/MOL
REMARK 924 INTRA-LIGAND FREE ENERGY PREDICTED BY IDOCK:   -0.73 KCAL/MOL
REMARK 927      BINDING AFFINITY PREDICTED BY RF-SCORE:    0.00 PKD
ROOT
HETATM    1  N   UNL     1      -9.583   6.172  74.492  1.00  0.00    -0.209 NA 
HETATM    2  H   UNL     1      -8.847   6.366  75.171  1.00  0.00     0.000 HD 
HETATM    3  C   UNL     1     -10.327   4.923  74.541  1.00  0.00    -0.285 C  
ENDROOT
BRANCH   1   4
HETATM    4  C   UNL     1      -9.897   7.102  73.497  1.00  0.00    -0.280 A  
HETATM    5  C   UNL     1     -11.199   7.469  73.151  1.00  0.00    -0.318 A  
HETATM    6  C   UNL     1     -11.436   8.392  72.127  1.00  0.00    -0.442 A  
HETATM    7  C   UNL     1     -10.374   8.999  71.448  1.00  0.00    -0.396 A  
HETATM    8  C   UNL     1      -9.069   8.680  71.834  1.00  0.00    -0.326 A  
HETATM    9  C   UNL     1      -8.838   7.760  72.862  1.00  0.00    -0.233 A  
BRANCH   7  10
HETATM   10  C   UNL     1     -10.671   9.876  70.307  1.00  0.00    -0.367 C  
HETATM   11  C   UNL     1     -11.424  10.987  70.379  1.00  0.00    -0.316 C  
BRANCH  11  12
HETATM   12  C   UNL     1     -11.680  11.882  69.245  1.00  0.00    -0.389 A  
HETATM   13  C   UNL     1     -11.754  11.451  67.922  1.00  0.00    -0.228 A  
HETATM   14  N   UNL     1     -11.959  12.258  66.854  1.00  0.00    -0.593 NA 
HETATM   15  C   UNL     1     -12.059  13.577  67.106  1.00  0.00    -0.340 A  
HETATM   16  C   UNL     1     -11.790  13.257  69.457  1.00  0.00    -0.388 A  
HETATM   17  C   UNL     1     -11.973  14.123  68.377  1.00  0.00    -0.366 A  
BRANCH  15  18
HETATM   18  O   UNL     1     -12.225  14.466  66.065  1.00  0.00    -0.394 OA 
BRANCH  18  19
HETATM   19  C   UNL     1     -11.054  15.259  65.828  1.00  0.00    -0.301 C  
BRANCH  19  20
HETATM   20  C   UNL     1     -11.214  16.000  64.503  1.00  0.00    -0.297 C  
BRANCH  20  21
HETATM   21  O   UNL     1     -11.120  17.409  64.737  1.00  0.00    -0.973 OA 
BRANCH  21  22
HETATM   22  C   UNL     1     -10.270  17.707  65.841  1.00  0.00    -0.232 C  
BRANCH  22  23
HETATM   23  C   UNL     1     -10.390  19.189  66.176  1.00  0.00    -0.484 C  
BRANCH  23  24
HETATM   24  O   UNL     1     -10.347  19.358  67.593  1.00  0.00    -0.383 OA 
BRANCH  24  25
HETATM   25  C   UNL     1      -9.479  18.402  68.205  1.00  0.00    -0.310 C  
HETATM   26  C   UNL     1      -8.227  19.102  68.702  1.00  0.00    -0.369 C  
HETATM   27  F   UNL     1      -7.402  18.191  69.281  1.00  0.00    -0.251 F  
ENDBRANCH  24  25
ENDBRANCH  23  24
ENDBRANCH  22  23
ENDBRANCH  21  22
ENDBRANCH  20  21
ENDBRANCH  19  20
ENDBRANCH  18  19
ENDBRANCH  15  18
ENDBRANCH  11  12
ENDBRANCH   7  10
ENDBRANCH   1   4
TORSDOF 11
ENDMDL
MODEL       10
REMARK 921   NORMALIZED FREE ENERGY PREDICTED BY IDOCK:   -5.66 KCAL/MOL
REMARK 922        TOTAL FREE ENERGY PREDICTED BY IDOCK:  -10.16 KCAL/MOL
REMARK 923 INTER-LIGAND FREE ENERGY PREDICTED BY IDOCK:   -9.25 KCAL/MOL
REMARK 924 INTRA-LIGAND FREE ENERGY PREDICTED BY IDOCK:   -0.91 KCAL/MOL
REMARK 927      BINDING AFFINITY PREDICTED BY RF-SCORE:    0.00 PKD
ROOT
HETATM    1  N   UNL     1     -11.953   5.719  72.879  1.00  0.00    -0.532 NA 
HETATM    2  H   UNL     1     -12.897   5.548  73.225  1.00  0.00     0.000 HD 
HETATM    3  C   UNL     1     -10.861   4.826  73.233  1.00  0.00    -0.281 C  
ENDROOT
BRANCH   1   4
HETATM    4  C   UNL     1     -11.684   6.816  72.056  1.00  0.00    -0.306 A  
HETATM    5  C   UNL     1     -11.763   8.146  72.475  1.00  0.00    -0.457 A  
HETATM    6  C   UNL     1     -11.501   9.194  71.587  1.00  0.00    -0.451 A  
HETATM    7  C   UNL     1     -11.115   8.937  70.267  1.00  0.00    -0.251 A  
HETATM    8  C   UNL     1     -10.974   7.606  69.863  1.00  0.00    -0.208 A  
HETATM    9  C   UNL     1     -11.234   6.562  70.757  1.00  0.00    -0.377 A  
BRANCH   7  10
HETATM   10  C   UNL     1     -10.957  10.067  69.341  1.00  0.00    -0.280 C  
HETATM   11  C   UNL     1     -11.934  10.935  69.030  1.00  0.00    -0.322 C  
BRANCH  11  12
HETATM   12  C   UNL     1     -11.757  12.087  68.139  1.00  0.00    -0.398 A  
HETATM   13  C   UNL     1     -11.307  11.985  66.824  1.00  0.00    -0.339 A  
HETATM   14  N   UNL     1     -11.107  13.032  65.989  1.00  0.00    -0.275 NA 
HETATM   15  C   UNL     1     -11.329  14.260  66.499  1.00  0.00    -0.346 A  
HETATM   16  C   UNL     1     -11.974  13.378  68.622  1.00  0.00    -0.362 A  
HETATM   17  C   UNL     1     -11.750  14.485  67.799  1.00  0.00    -0.403 A  
BRANCH  15  18
HETATM   18  O   UNL     1     -11.104  15.377  65.723  1.00  0.00    -0.324 OA 
BRANCH  18  19
HETATM   19  C   UNL     1     -10.367  16.391  66.420  1.00  0.00    -0.313 C  
BRANCH  19  20
HETATM   20  C   UNL     1      -8.873  16.119  66.260  1.00  0.00    -0.336 C  
BRANCH  20  21
HETATM   21  O   UNL     1      -8.264  17.222  65.582  1.00  0.00    -0.467 OA 
BRANCH  21  22
HETATM   22  C   UNL     1      -7.128  17.716  66.287  1.00  0.00    -0.301 C  
BRANCH  22  23
HETATM   23  C   UNL     1      -7.452  19.097  66.846  1.00  0.00    -0.218 C  
BRANCH  23  24
HETATM   24  O   UNL     1      -8.546  19.656  66.119  1.00  0.00    -0.355 OA 
BRANCH  24  25
HETATM   25  C   UNL     1      -9.439  20.361  66.983  1.00  0.00    -0.406 C  
HETATM   26  C   UNL     1      -9.676  19.543  68.240  1.00  0.00    -0.404 C  
HETATM   27  F   UNL     1     -10.527  20.215  69.059  1.00  0.00    -0.535 F  
ENDBRANCH  24  25
ENDBRANCH  23  24
ENDBRANCH  22  23
ENDBRANCH  21  22
ENDBRANCH  20  21
ENDBRANCH  19  20
ENDBRANCH  18  19
ENDBRANCH  15  18
ENDBRANCH  11  12
ENDBRANCH   7  10
ENDBRANCH   1   4
TORSDOF 11
ENDMDL
MODEL       11
REMARK 921   NORMALIZED FREE ENERGY PREDICTED BY IDOCK:   -5.64 KCAL/MOL
REMARK 922        TOTAL FREE ENERGY PREDICTED BY IDOCK:  -10.13 KCAL/MOL
REMARK 923 INTER-LIGAND FREE ENERGY PREDICTED BY IDOCK:   -9.22 KCAL/MOL
REMARK 924 INTRA-LIGAND FREE ENERGY PREDICTED BY IDOCK:   -0.91 KCAL/MOL
REMARK 927      BINDING AFFINITY PREDICTED BY RF-SCORE:    0.00 PKD
ROOT
HETATM    1  N   UNL     1     -12.348   8.119  72.685  1.00  0.00    -0.606 NA 
HETATM    2  H   UNL     1     -13.223   7.917  73.169  1.00  0.00     0.000 HD 
HETATM    3  C   UNL     1     -11.203   7.233  72.824  1.00  0.00    -0.304 C  
ENDROOT
BRANCH   1   4
HETATM    4  C   UNL     1     -12.227   9.252  71.876  1.00  0.00    -0.378 A  
HETATM    5  C   UNL     1     -11.321   9.366  70.820  1.00  0.00    -0.363 A  
HETATM    6  C   UNL     1     -11.241  10.542  70.067  1.00  0.00    -0.386 A  
HETATM    7  C   UNL     1     -12.093  11.620  70.328  1.00  0.00    -0.443 A  
HETATM    8  C   UNL     1     -13.044  11.486  71.345  1.00  0.00    -0.359 A  
HETATM    9  C   UNL     1     -13.121  10.306  72.092  1.00  0.00    -0.444 A  
BRANCH   7  10
HETATM   10  C   UNL     1     -11.899  12.873  69.586  1.00  0.00    -0.387 C  
HETATM   11  C   UNL     1     -11.074  13.013  68.535  1.00  0.00    -0.298 C  
BRANCH  11  12
HETATM   12  C   UNL     1     -10.918  14.256  67.771  1.00  0.00    -0.275 A  
HETATM   13  C   UNL     1     -10.874  14.306  66.379  1.00  0.00    -0.307 A  
HETATM   14  N   UNL     1     -10.702  15.434  65.648  1.00  0.00    -0.349 NA 
HETATM   15  C   UNL     1     -10.524  16.577  66.339  1.00  0.00    -0.274 A  
HETATM   16  C   UNL     1     -10.730  15.465  68.442  1.00  0.00    -0.256 A  
HETATM   17  C   UNL     1     -10.521  16.644  67.723  1.00  0.00    -0.316 A  
BRANCH  15  18
HETATM   18  O   UNL     1     -10.299  17.759  65.665  1.00  0.00    -0.612 OA 
BRANCH  18  19
HETATM   19  C   UNL     1     -10.502  18.911  66.494  1.00  0.00    -0.432 C  
BRANCH  19  20
HETATM   20  C   UNL     1      -9.298  19.841  66.358  1.00  0.00    -0.401 C  
BRANCH  20  21
HETATM   21  O   UNL     1      -8.211  19.122  65.768  1.00  0.00    -0.441 OA 
BRANCH  21  22
HETATM   22  C   UNL     1      -6.954  19.528  66.303  1.00  0.00    -0.232 C  
BRANCH  22  23
HETATM   23  C   UNL     1      -7.031  21.000  66.690  1.00  0.00    -0.170 C  
BRANCH  23  24
HETATM   24  O   UNL     1      -6.259  21.218  67.871  1.00  0.00    -0.348 OA 
BRANCH  24  25
HETATM   25  C   UNL     1      -5.987  19.991  68.550  1.00  0.00    -0.253 C  
HETATM   26  C   UNL     1      -6.168  20.190  70.044  1.00  0.00    -0.349 C  
HETATM   27  F   UNL     1      -5.908  19.022  70.687  1.00  0.00    -0.241 F  
ENDBRANCH  24  25
ENDBRANCH  23  24
ENDBRANCH  22  23
ENDBRANCH  21  22
ENDBRANCH  20  21
ENDBRANCH  19  20
ENDBRANCH  18  19
ENDBRANCH  15  18
ENDBRANCH  11  12
ENDBRANCH   7  10
ENDBRANCH   1   4
TORSDOF 11
ENDMDL
MODEL       12
REMARK 921   NORMALIZED FREE ENERGY PREDICTED BY IDOCK:   -5.63 KCAL/MOL
REMARK 922        TOTAL FREE ENERGY PREDICTED BY IDOCK:  -10.11 KCAL/MOL
REMARK 923 INTER-LIGAND FREE ENERGY PREDICTED BY IDOCK:   -8.32 KCAL/MOL
REMARK 924 INTRA-LIGAND FREE ENERGY PREDICTED BY IDOCK:   -1.79 KCAL/MOL
REMARK 927      BINDING AFFINITY PREDICTED BY RF-SCORE:    0.00 PKD
ROOT
HETATM    1  N   UNL     1     -13.444  10.123  72.450  1.00  0.00    -0.594 NA 
HETATM    2  H   UNL     1     -13.790  10.408  73.366  1.00  0.00     0.000 HD 
HETATM    3  C   UNL     1     -13.454   8.723  72.056  1.00  0.00    -0.418 C  
ENDROOT
BRANCH   1   4
HETATM    4  C   UNL     1     -12.951  11.071  71.549  1.00  0.00    -0.448 A  
HETATM    5  C   UNL     1     -12.308  10.751  70.351  1.00  0.00    -0.438 A  
HETATM    6  C   UNL     1     -11.820  11.756  69.509  1.00  0.00    -0.402 A  
HETATM    7  C   UNL     1     -11.997  13.107  69.826  1.00  0.00    -0.382 A  
HETATM    8  C   UNL     1     -12.694  13.430  70.994  1.00  0.00    -0.387 A  
HETATM    9  C   UNL     1     -13.183  12.421  71.830  1.00  0.00    -0.486 A  
BRANCH   7  10
HETATM   10  C   UNL     1     -11.372  14.124  68.970  1.00  0.00    -0.310 C  
HETATM   11  C   UNL     1     -11.338  15.437  69.251  1.00  0.00    -0.323 C  
BRANCH  11  12
HETATM   12  C   UNL     1     -10.673  16.442  68.413  1.00  0.00    -0.327 A  
HETATM   13  C   UNL     1     -10.392  17.739  68.838  1.00  0.00    -0.300 A  
HETATM   14  N   UNL     1      -9.806  18.694  68.077  1.00  0.00    -0.325 NA 
HETATM   15  C   UNL     1      -9.517  18.358  66.805  1.00  0.00    -0.297 A  
HETATM   16  C   UNL     1     -10.355  16.140  67.088  1.00  0.00    -0.291 A  
HETATM   17  C   UNL     1      -9.777  17.109  66.265  1.00  0.00    -0.296 A  
BRANCH  15  18
HETATM   18  O   UNL     1      -8.961  19.291  65.957  1.00  0.00    -0.429 OA 
BRANCH  18  19
HETATM   19  C   UNL     1      -7.531  19.208  65.909  1.00  0.00    -0.238 C  
BRANCH  19  20
HETATM   20  C   UNL     1      -6.938  20.293  66.805  1.00  0.00    -0.251 C  
BRANCH  20  21
HETATM   21  O   UNL     1      -5.958  19.708  67.668  1.00  0.00    -0.189 OA 
BRANCH  21  22
HETATM   22  C   UNL     1      -6.423  19.617  69.012  1.00  0.00    -0.314 C  
BRANCH  22  23
HETATM   23  C   UNL     1      -6.409  18.156  69.445  1.00  0.00    -0.248 C  
BRANCH  23  24
HETATM   24  O   UNL     1      -5.868  17.357  68.393  1.00  0.00    -0.150 OA 
BRANCH  24  25
HETATM   25  C   UNL     1      -6.713  16.244  68.098  1.00  0.00    -0.125 C  
HETATM   26  C   UNL     1      -7.209  15.629  69.393  1.00  0.00    -0.212 C  
HETATM   27  F   UNL     1      -8.012  14.570  69.110  1.00  0.00    -0.137 F  
ENDBRANCH  24  25
ENDBRANCH  23  24
ENDBRANCH  22  23
ENDBRANCH  21  22
ENDBRANCH  20  21
ENDBRANCH  19  20
ENDBRANCH  18  19
ENDBRANCH  15  18
ENDBRANCH  11  12
ENDBRANCH   7  10
ENDBRANCH   1   4
TORSDOF 11
ENDMDL
MODEL       13
REMARK 921   NORMALIZED FREE ENERGY PREDICTED BY IDOCK:   -5.62 KCAL/MOL
REMARK 922        TOTAL FREE ENERGY PREDICTED BY IDOCK:  -10.09 KCAL/MOL
REMARK 923 INTER-LIGAND FREE ENERGY PREDICTED BY IDOCK:   -8.59 KCAL/MOL
REMARK 924 INTRA-LIGAND FREE ENERGY PREDICTED BY IDOCK:   -1.51 KCAL/MOL
REMARK 927      BINDING AFFINITY PREDICTED BY RF-SCORE:    0.00 PKD
ROOT
HETATM    1  N   UNL     1     -12.296  14.661  64.145  1.00  0.00    -0.900 NA 
HETATM    2  H   UNL     1     -12.877  14.358  63.363  1.00  0.00     0.000 HD 
HETATM    3  C   UNL     1     -11.691  15.984  64.150  1.00  0.00     0.043 C  
ENDROOT
BRANCH   1   4
HETATM    4  C   UNL     1     -12.067  13.813  65.232  1.00  0.00    -0.407 A  
HETATM    5  C   UNL     1     -12.287  14.171  66.564  1.00  0.00    -0.405 A  
HETATM    6  C   UNL     1     -12.013  13.275  67.602  1.00  0.00    -0.366 A  
HETATM    7  C   UNL     1     -11.548  11.983  67.331  1.00  0.00    -0.388 A  
HETATM    8  C   UNL     1     -11.386  11.601  65.996  1.00  0.00    -0.261 A  
HETATM    9  C   UNL     1     -11.666  12.501  64.962  1.00  0.00    -0.407 A  
BRANCH   7  10
HETATM   10  C   UNL     1     -11.169  11.116  68.455  1.00  0.00    -0.325 C  
HETATM   11  C   UNL     1     -11.958  10.851  69.509  1.00  0.00    -0.401 C  
BRANCH  11  12
HETATM   12  C   UNL     1     -11.591   9.949  70.606  1.00  0.00    -0.413 A  
HETATM   13  C   UNL     1     -10.280   9.565  70.884  1.00  0.00    -0.286 A  
HETATM   14  N   UNL     1      -9.914   8.711  71.870  1.00  0.00    -0.294 NA 
HETATM   15  C   UNL     1     -10.910   8.175  72.602  1.00  0.00    -0.359 A  
HETATM   16  C   UNL     1     -12.587   9.368  71.391  1.00  0.00    -0.430 A  
HETATM   17  C   UNL     1     -12.251   8.461  72.399  1.00  0.00    -0.430 A  
BRANCH  15  18
HETATM   18  O   UNL     1     -10.620   7.264  73.595  1.00  0.00    -0.375 OA 
BRANCH  18  19
HETATM   19  C   UNL     1     -11.026   5.932  73.255  1.00  0.00    -0.233 C  
BRANCH  19  20
HETATM   20  C   UNL     1      -9.890   5.241  72.504  1.00  0.00    -0.162 C  
BRANCH  20  21
HETATM   21  O   UNL     1     -10.407   4.647  71.309  1.00  0.00    -0.171 OA 
BRANCH  21  22
HETATM   22  C   UNL     1     -10.038   5.384  70.148  1.00  0.00    -0.252 C  
BRANCH  22  23
HETATM   23  C   UNL     1     -11.264   6.114  69.611  1.00  0.00    -0.418 C  
BRANCH  23  24
HETATM   24  O   UNL     1     -11.075   6.397  68.224  1.00  0.00    -0.308 OA 
BRANCH  24  25
HETATM   25  C   UNL     1     -10.164   7.481  68.034  1.00  0.00    -0.195 C  
HETATM   26  C   UNL     1     -10.280   7.993  66.610  1.00  0.00    -0.245 C  
HETATM   27  F   UNL     1      -9.411   9.023  66.431  1.00  0.00    -0.198 F  
ENDBRANCH  24  25
ENDBRANCH  23  24
ENDBRANCH  22  23
ENDBRANCH  21  22
ENDBRANCH  20  21
ENDBRANCH  19  20
ENDBRANCH  18  19
ENDBRANCH  15  18
ENDBRANCH  11  12
ENDBRANCH   7  10
ENDBRANCH   1   4
TORSDOF 11
ENDMDL
MODEL       14
REMARK 921   NORMALIZED FREE ENERGY PREDICTED BY IDOCK:   -5.59 KCAL/MOL
REMARK 922        TOTAL FREE ENERGY PREDICTED BY IDOCK:  -10.05 KCAL/MOL
REMARK 923 INTER-LIGAND FREE ENERGY PREDICTED BY IDOCK:   -8.33 KCAL/MOL
REMARK 924 INTRA-LIGAND FREE ENERGY PREDICTED BY IDOCK:   -1.72 KCAL/MOL
REMARK 927      BINDING AFFINITY PREDICTED BY RF-SCORE:    0.00 PKD
ROOT
HETATM    1  N   UNL     1     -12.358  14.158  63.829  1.00  0.00    -1.027 NA 
HETATM    2  H   UNL     1     -12.789  13.774  62.988  1.00  0.00     0.000 HD 
HETATM    3  C   UNL     1     -12.136  15.589  63.961  1.00  0.00     0.074 C  
ENDROOT
BRANCH   1   4
HETATM    4  C   UNL     1     -11.970  13.318  64.876  1.00  0.00    -0.378 A  
HETATM    5  C   UNL     1     -11.267  12.124  64.701  1.00  0.00    -0.374 A  
HETATM    6  C   UNL     1     -10.932  11.322  65.798  1.00  0.00    -0.211 A  
HETATM    7  C   UNL     1     -11.258  11.715  67.100  1.00  0.00    -0.371 A  
HETATM    8  C   UNL     1     -11.906  12.940  67.283  1.00  0.00    -0.416 A  
HETATM    9  C   UNL     1     -12.235  13.739  66.183  1.00  0.00    -0.499 A  
BRANCH   7  10
HETATM   10  C   UNL     1     -10.984  10.790  68.209  1.00  0.00    -0.307 C  
HETATM   11  C   UNL     1     -11.619  10.815  69.392  1.00  0.00    -0.380 C  
BRANCH  11  12
HETATM   12  C   UNL     1     -11.372   9.860  70.479  1.00  0.00    -0.399 A  
HETATM   13  C   UNL     1     -12.380   9.311  71.268  1.00  0.00    -0.328 A  
HETATM   14  N   UNL     1     -12.179   8.451  72.295  1.00  0.00    -0.372 NA 
HETATM   15  C   UNL     1     -10.899   8.146  72.584  1.00  0.00    -0.359 A  
HETATM   16  C   UNL     1     -10.062   9.515  70.815  1.00  0.00    -0.352 A  
HETATM   17  C   UNL     1      -9.814   8.654  71.887  1.00  0.00    -0.384 A  
BRANCH  15  18
HETATM   18  O   UNL     1     -10.612   7.313  73.644  1.00  0.00    -0.375 OA 
BRANCH  18  19
HETATM   19  C   UNL     1     -10.942   5.945  73.373  1.00  0.00    -0.196 C  
BRANCH  19  20
HETATM   20  C   UNL     1      -9.696   5.083  73.572  1.00  0.00    -0.141 C  
BRANCH  20  21
HETATM   21  O   UNL     1      -9.348   4.465  72.329  1.00  0.00    -0.122 OA 
BRANCH  21  22
HETATM   22  C   UNL     1      -8.424   5.254  71.585  1.00  0.00    -0.126 C  
BRANCH  22  23
HETATM   23  C   UNL     1      -8.942   5.417  70.161  1.00  0.00    -0.134 C  
BRANCH  23  24
HETATM   24  O   UNL     1     -10.343   5.141  70.134  1.00  0.00    -0.273 OA 
BRANCH  24  25
HETATM   25  C   UNL     1     -11.060   6.153  69.426  1.00  0.00    -0.409 C  
HETATM   26  C   UNL     1     -10.190   6.700  68.309  1.00  0.00    -0.171 C  
HETATM   27  F   UNL     1     -10.873   7.664  67.638  1.00  0.00    -0.297 F  
ENDBRANCH  24  25
ENDBRANCH  23  24
ENDBRANCH  22  23
ENDBRANCH  21  22
ENDBRANCH  20  21
ENDBRANCH  19  20
ENDBRANCH  18  19
ENDBRANCH  15  18
ENDBRANCH  11  12
ENDBRANCH   7  10
ENDBRANCH   1   4
TORSDOF 11
ENDMDL
MODEL       15
REMARK 921   NORMALIZED FREE ENERGY PREDICTED BY IDOCK:   -5.59 KCAL/MOL
REMARK 922        TOTAL FREE ENERGY PREDICTED BY IDOCK:  -10.04 KCAL/MOL
REMARK 923 INTER-LIGAND FREE ENERGY PREDICTED BY IDOCK:   -9.24 KCAL/MOL
REMARK 924 INTRA-LIGAND FREE ENERGY PREDICTED BY IDOCK:   -0.81 KCAL/MOL
REMARK 927      BINDING AFFINITY PREDICTED BY RF-SCORE:    0.00 PKD
ROOT
HETATM    1  N   UNL     1     -10.185   3.691  72.829  1.00  0.00    -0.162 NA 
HETATM    2  H   UNL     1      -9.382   3.202  72.435  1.00  0.00     0.000 HD 
HETATM    3  C   UNL     1     -11.054   3.033  73.793  1.00  0.00    -0.203 C  
ENDROOT
BRANCH   1   4
HETATM    4  C   UNL     1     -10.473   5.006  72.454  1.00  0.00    -0.217 A  
HETATM    5  C   UNL     1     -10.758   5.402  71.145  1.00  0.00    -0.239 A  
HETATM    6  C   UNL     1     -11.015   6.743  70.841  1.00  0.00    -0.303 A  
HETATM    7  C   UNL     1     -11.031   7.716  71.846  1.00  0.00    -0.282 A  
HETATM    8  C   UNL     1     -10.808   7.313  73.166  1.00  0.00    -0.401 A  
HETATM    9  C   UNL     1     -10.556   5.970  73.464  1.00  0.00    -0.284 A  
BRANCH   7  10
HETATM   10  C   UNL     1     -11.196   9.126  71.465  1.00  0.00    -0.430 C  
HETATM   11  C   UNL     1     -12.370   9.778  71.459  1.00  0.00    -0.495 C  
BRANCH  11  12
HETATM   12  C   UNL     1     -12.520  11.198  71.120  1.00  0.00    -0.498 A  
HETATM   13  C   UNL     1     -11.922  11.795  70.012  1.00  0.00    -0.344 A  
HETATM   14  N   UNL     1     -12.020  13.107  69.691  1.00  0.00    -0.317 NA 
HETATM   15  C   UNL     1     -12.720  13.885  70.540  1.00  0.00    -0.249 A  
HETATM   16  C   UNL     1     -13.236  12.043  71.969  1.00  0.00    -0.481 A  
HETATM   17  C   UNL     1     -13.334  13.407  71.687  1.00  0.00    -0.420 A  
BRANCH  15  18
HETATM   18  O   UNL     1     -12.826  15.239  70.304  1.00  0.00    -0.341 OA 
BRANCH  18  19
HETATM   19  C   UNL     1     -11.737  15.982  70.868  1.00  0.00    -0.402 C  
BRANCH  19  20
HETATM   20  C   UNL     1     -10.721  16.286  69.770  1.00  0.00    -0.345 C  
BRANCH  20  21
HETATM   21  O   UNL     1     -11.385  16.297  68.502  1.00  0.00    -0.367 OA 
BRANCH  21  22
HETATM   22  C   UNL     1     -10.473  16.505  67.428  1.00  0.00    -0.310 C  
BRANCH  22  23
HETATM   23  C   UNL     1     -10.876  15.620  66.254  1.00  0.00    -0.262 C  
BRANCH  23  24
HETATM   24  O   UNL     1     -11.766  14.602  66.715  1.00  0.00    -0.373 OA 
BRANCH  24  25
HETATM   25  C   UNL     1     -12.542  14.065  65.643  1.00  0.00    -0.512 C  
HETATM   26  C   UNL     1     -12.087  12.647  65.351  1.00  0.00    -0.462 C  
HETATM   27  F   UNL     1     -12.825  12.139  64.330  1.00  0.00    -0.537 F  
ENDBRANCH  24  25
ENDBRANCH  23  24
ENDBRANCH  22  23
ENDBRANCH  21  22
ENDBRANCH  20  21
ENDBRANCH  19  20
ENDBRANCH  18  19
ENDBRANCH  15  18
ENDBRANCH  11  12
ENDBRANCH   7  10
ENDBRANCH   1   4
TORSDOF 11
ENDMDL
MODEL       16
REMARK 921   NORMALIZED FREE ENERGY PREDICTED BY IDOCK:   -5.59 KCAL/MOL
REMARK 922        TOTAL FREE ENERGY PREDICTED BY IDOCK:  -10.04 KCAL/MOL
REMARK 923 INTER-LIGAND FREE ENERGY PREDICTED BY IDOCK:   -8.88 KCAL/MOL
REMARK 924 INTRA-LIGAND FREE ENERGY PREDICTED BY IDOCK:   -1.16 KCAL/MOL
REMARK 927      BINDING AFFINITY PREDICTED BY RF-SCORE:    0.00 PKD
ROOT
HETATM    1  N   UNL     1      -9.753   7.000  74.140  1.00  0.00    -0.348 NA 
HETATM    2  H   UNL     1      -9.064   7.320  74.820  1.00  0.00     0.000 HD 
HETATM    3  C   UNL     1     -10.331   5.669  74.240  1.00  0.00    -0.272 C  
ENDROOT
BRANCH   1   4
HETATM    4  C   UNL     1     -10.161   7.833  73.094  1.00  0.00    -0.335 A  
HETATM    5  C   UNL     1      -9.283   8.521  72.254  1.00  0.00    -0.343 A  
HETATM    6  C   UNL     1      -9.766   9.356  71.241  1.00  0.00    -0.210 A  
HETATM    7  C   UNL     1     -11.140   9.492  71.017  1.00  0.00    -0.433 A  
HETATM    8  C   UNL     1     -12.020   8.756  71.816  1.00  0.00    -0.418 A  
HETATM    9  C   UNL     1     -11.531   7.920  72.826  1.00  0.00    -0.428 A  
BRANCH   7  10
HETATM   10  C   UNL     1     -11.603  10.463  70.016  1.00  0.00    -0.378 C  
HETATM   11  C   UNL     1     -10.813  11.038  69.094  1.00  0.00    -0.283 C  
BRANCH  11  12
HETATM   12  C   UNL     1     -11.291  11.973  68.069  1.00  0.00    -0.358 A  
HETATM   13  C   UNL     1     -11.847  13.218  68.358  1.00  0.00    -0.360 A  
HETATM   14  N   UNL     1     -12.322  14.088  67.435  1.00  0.00    -0.237 NA 
HETATM   15  C   UNL     1     -12.280  13.685  66.150  1.00  0.00    -0.444 A  
HETATM   16  C   UNL     1     -11.268  11.600  66.725  1.00  0.00    -0.371 A  
HETATM   17  C   UNL     1     -11.776  12.459  65.747  1.00  0.00    -0.470 A  
BRANCH  15  18
HETATM   18  O   UNL     1     -12.786  14.497  65.158  1.00  0.00    -0.479 OA 
BRANCH  18  19
HETATM   19  C   UNL     1     -11.766  14.998  64.283  1.00  0.00    -0.233 C  
BRANCH  19  20
HETATM   20  C   UNL     1     -11.109  16.215  64.930  1.00  0.00    -0.325 C  
BRANCH  20  21
HETATM   21  O   UNL     1      -9.804  15.854  65.394  1.00  0.00    -0.401 OA 
BRANCH  21  22
HETATM   22  C   UNL     1      -9.369  16.697  66.458  1.00  0.00    -0.265 C  
BRANCH  22  23
HETATM   23  C   UNL     1     -10.580  17.388  67.073  1.00  0.00    -0.238 C  
BRANCH  23  24
HETATM   24  O   UNL     1     -10.293  17.722  68.431  1.00  0.00    -0.356 OA 
BRANCH  24  25
HETATM   25  C   UNL     1      -9.923  16.566  69.184  1.00  0.00    -0.275 C  
HETATM   26  C   UNL     1     -11.006  16.258  70.201  1.00  0.00    -0.332 C  
HETATM   27  F   UNL     1     -10.650  15.159  70.918  1.00  0.00    -0.289 F  
ENDBRANCH  24  25
ENDBRANCH  23  24
ENDBRANCH  22  23
ENDBRANCH  21  22
ENDBRANCH  20  21
ENDBRANCH  19  20
ENDBRANCH  18  19
ENDBRANCH  15  18
ENDBRANCH  11  12
ENDBRANCH   7  10
ENDBRANCH   1   4
TORSDOF 11
ENDMDL
MODEL       17
REMARK 921   NORMALIZED FREE ENERGY PREDICTED BY IDOCK:   -5.57 KCAL/MOL
REMARK 922        TOTAL FREE ENERGY PREDICTED BY IDOCK:  -10.01 KCAL/MOL
REMARK 923 INTER-LIGAND FREE ENERGY PREDICTED BY IDOCK:   -9.37 KCAL/MOL
REMARK 924 INTRA-LIGAND FREE ENERGY PREDICTED BY IDOCK:   -0.64 KCAL/MOL
REMARK 927      BINDING AFFINITY PREDICTED BY RF-SCORE:    0.00 PKD
ROOT
HETATM    1  N   UNL     1     -10.456   3.848  72.764  1.00  0.00    -0.169 NA 
HETATM    2  H   UNL     1     -10.723   3.494  73.682  1.00  0.00     0.000 HD 
HETATM    3  C   UNL     1      -9.841   2.969  71.781  1.00  0.00    -0.160 C  
ENDROOT
BRANCH   1   4
HETATM    4  C   UNL     1     -10.674   5.186  72.425  1.00  0.00    -0.216 A  
HETATM    5  C   UNL     1     -10.937   5.631  71.127  1.00  0.00    -0.248 A  
HETATM    6  C   UNL     1     -11.123   6.992  70.860  1.00  0.00    -0.300 A  
HETATM    7  C   UNL     1     -11.089   7.937  71.891  1.00  0.00    -0.317 A  
HETATM    8  C   UNL     1     -10.888   7.487  73.199  1.00  0.00    -0.448 A  
HETATM    9  C   UNL     1     -10.707   6.124  73.461  1.00  0.00    -0.263 A  
BRANCH   7  10
HETATM   10  C   UNL     1     -11.179   9.363  71.549  1.00  0.00    -0.457 C  
HETATM   11  C   UNL     1     -12.318   9.993  71.216  1.00  0.00    -0.496 C  
BRANCH  11  12
HETATM   12  C   UNL     1     -12.408  11.427  70.918  1.00  0.00    -0.483 A  
HETATM   13  C   UNL     1     -11.806  12.026  69.813  1.00  0.00    -0.331 A  
HETATM   14  N   UNL     1     -11.848  13.350  69.530  1.00  0.00    -0.316 NA 
HETATM   15  C   UNL     1     -12.491  14.135  70.415  1.00  0.00    -0.357 A  
HETATM   16  C   UNL     1     -13.063  12.281  71.806  1.00  0.00    -0.449 A  
HETATM   17  C   UNL     1     -13.103  13.656  71.563  1.00  0.00    -0.431 A  
BRANCH  15  18
HETATM   18  O   UNL     1     -12.538  15.499  70.218  1.00  0.00    -0.403 OA 
BRANCH  18  19
HETATM   19  C   UNL     1     -11.319  16.151  70.595  1.00  0.00    -0.370 C  
BRANCH  19  20
HETATM   20  C   UNL     1     -10.527  16.494  69.336  1.00  0.00    -0.320 C  
BRANCH  20  21
HETATM   21  O   UNL     1     -11.358  16.296  68.188  1.00  0.00    -0.337 OA 
BRANCH  21  22
HETATM   22  C   UNL     1     -10.590  16.026  67.018  1.00  0.00    -0.302 C  
BRANCH  22  23
HETATM   23  C   UNL     1      -9.397  16.973  66.976  1.00  0.00    -0.241 C  
BRANCH  23  24
HETATM   24  O   UNL     1      -9.547  17.874  65.879  1.00  0.00    -0.525 OA 
BRANCH  24  25
HETATM   25  C   UNL     1     -10.261  19.050  66.264  1.00  0.00    -0.446 C  
HETATM   26  C   UNL     1      -9.294  20.052  66.869  1.00  0.00    -0.393 C  
HETATM   27  F   UNL     1      -9.975  21.168  67.237  1.00  0.00    -0.594 F  
ENDBRANCH  24  25
ENDBRANCH  23  24
ENDBRANCH  22  23
ENDBRANCH  21  22
ENDBRANCH  20  21
ENDBRANCH  19  20
ENDBRANCH  18  19
ENDBRANCH  15  18
ENDBRANCH  11  12
ENDBRANCH   7  10
ENDBRANCH   1   4
TORSDOF 11
ENDMDL
MODEL       18
REMARK 921   NORMALIZED FREE ENERGY PREDICTED BY IDOCK:   -5.53 KCAL/MOL
REMARK 922        TOTAL FREE ENERGY PREDICTED BY IDOCK:   -9.94 KCAL/MOL
REMARK 923 INTER-LIGAND FREE ENERGY PREDICTED BY IDOCK:   -9.15 KCAL/MOL
REMARK 924 INTRA-LIGAND FREE ENERGY PREDICTED BY IDOCK:   -0.79 KCAL/MOL
REMARK 927      BINDING AFFINITY PREDICTED BY RF-SCORE:    0.00 PKD
ROOT
HETATM    1  N   UNL     1     -10.692   5.281  74.041  1.00  0.00    -0.296 NA 
HETATM    2  H   UNL     1     -10.409   5.495  74.997  1.00  0.00     0.000 HD 
HETATM    3  C   UNL     1     -10.871   3.903  73.612  1.00  0.00    -0.246 C  
ENDROOT
BRANCH   1   4
HETATM    4  C   UNL     1     -10.915   6.306  73.118  1.00  0.00    -0.223 A  
HETATM    5  C   UNL     1     -11.839   6.230  72.073  1.00  0.00    -0.370 A  
HETATM    6  C   UNL     1     -11.991   7.290  71.172  1.00  0.00    -0.363 A  
HETATM    7  C   UNL     1     -11.251   8.468  71.318  1.00  0.00    -0.321 A  
HETATM    8  C   UNL     1     -10.371   8.570  72.400  1.00  0.00    -0.372 A  
HETATM    9  C   UNL     1     -10.225   7.509  73.299  1.00  0.00    -0.398 A  
BRANCH   7  10
HETATM   10  C   UNL     1     -11.363   9.509  70.287  1.00  0.00    -0.284 C  
HETATM   11  C   UNL     1     -11.641  10.799  70.537  1.00  0.00    -0.425 C  
BRANCH  11  12
HETATM   12  C   UNL     1     -11.709  11.841  69.507  1.00  0.00    -0.408 A  
HETATM   13  C   UNL     1     -12.002  13.176  69.777  1.00  0.00    -0.314 A  
HETATM   14  N   UNL     1     -12.099  14.153  68.844  1.00  0.00    -0.336 NA 
HETATM   15  C   UNL     1     -11.934  13.778  67.560  1.00  0.00    -0.376 A  
HETATM   16  C   UNL     1     -11.545  11.501  68.163  1.00  0.00    -0.378 A  
HETATM   17  C   UNL     1     -11.667  12.476  67.170  1.00  0.00    -0.425 A  
BRANCH  15  18
HETATM   18  O   UNL     1     -12.063  14.708  66.550  1.00  0.00    -0.340 OA 
BRANCH  18  19
HETATM   19  C   UNL     1     -10.999  14.630  65.593  1.00  0.00    -0.335 C  
BRANCH  19  20
HETATM   20  C   UNL     1     -10.890  15.965  64.859  1.00  0.00    -0.400 C  
BRANCH  20  21
HETATM   21  O   UNL     1     -10.082  16.862  65.629  1.00  0.00    -0.546 OA 
BRANCH  21  22
HETATM   22  C   UNL     1      -8.967  16.198  66.217  1.00  0.00    -0.344 C  
BRANCH  22  23
HETATM   23  C   UNL     1      -7.960  17.240  66.689  1.00  0.00    -0.261 C  
BRANCH  23  24
HETATM   24  O   UNL     1      -7.430  17.930  65.557  1.00  0.00    -0.524 OA 
BRANCH  24  25
HETATM   25  C   UNL     1      -7.001  19.248  65.905  1.00  0.00    -0.275 C  
HETATM   26  C   UNL     1      -7.574  19.623  67.260  1.00  0.00    -0.247 C  
HETATM   27  F   UNL     1      -7.167  20.878  67.588  1.00  0.00    -0.342 F  
ENDBRANCH  24  25
ENDBRANCH  23  24
ENDBRANCH  22  23
ENDBRANCH  21  22
ENDBRANCH  20  21
ENDBRANCH  19  20
ENDBRANCH  18  19
ENDBRANCH  15  18
ENDBRANCH  11  12
ENDBRANCH   7  10
ENDBRANCH   1   4
TORSDOF 11
ENDMDL
MODEL       19
REMARK 921   NORMALIZED FREE ENERGY PREDICTED BY IDOCK:   -5.52 KCAL/MOL
REMARK 922        TOTAL FREE ENERGY PREDICTED BY IDOCK:   -9.93 KCAL/MOL
REMARK 923 INTER-LIGAND FREE ENERGY PREDICTED BY IDOCK:   -8.83 KCAL/MOL
REMARK 924 INTRA-LIGAND FREE ENERGY PREDICTED BY IDOCK:   -1.10 KCAL/MOL
REMARK 927      BINDING AFFINITY PREDICTED BY RF-SCORE:    0.00 PKD
ROOT
HETATM    1  N   UNL     1      -9.851  18.694  65.721  1.00  0.00    -0.432 NA 
HETATM    2  H   UNL     1      -9.479  18.602  64.776  1.00  0.00     0.000 HD 
HETATM    3  C   UNL     1      -9.906  19.993  66.374  1.00  0.00    -0.459 C  
ENDROOT
BRANCH   1   4
HETATM    4  C   UNL     1     -10.318  17.574  66.415  1.00  0.00    -0.334 A  
HETATM    5  C   UNL     1     -10.639  17.572  67.774  1.00  0.00    -0.375 A  
HETATM    6  C   UNL     1     -11.079  16.405  68.406  1.00  0.00    -0.351 A  
HETATM    7  C   UNL     1     -11.247  15.218  67.684  1.00  0.00    -0.320 A  
HETATM    8  C   UNL     1     -10.987  15.232  66.311  1.00  0.00    -0.300 A  
HETATM    9  C   UNL     1     -10.550  16.404  65.684  1.00  0.00    -0.337 A  
BRANCH   7  10
HETATM   10  C   UNL     1     -11.605  13.991  68.410  1.00  0.00    -0.366 C  
HETATM   11  C   UNL     1     -11.945  13.950  69.709  1.00  0.00    -0.398 C  
BRANCH  11  12
HETATM   12  C   UNL     1     -12.345  12.728  70.416  1.00  0.00    -0.324 A  
HETATM   13  C   UNL     1     -13.105  12.725  71.584  1.00  0.00    -0.331 A  
HETATM   14  N   UNL     1     -13.464  11.616  72.273  1.00  0.00    -0.239 NA 
HETATM   15  C   UNL     1     -13.010  10.439  71.799  1.00  0.00    -0.475 A  
HETATM   16  C   UNL     1     -11.898  11.486  69.963  1.00  0.00    -0.435 A  
HETATM   17  C   UNL     1     -12.224  10.322  70.664  1.00  0.00    -0.422 A  
BRANCH  15  18
HETATM   18  O   UNL     1     -13.296   9.270  72.472  1.00  0.00    -0.457 OA 
BRANCH  18  19
HETATM   19  C   UNL     1     -14.167   8.408  71.729  1.00  0.00    -0.458 C  
BRANCH  19  20
HETATM   20  C   UNL     1     -13.605   6.988  71.757  1.00  0.00    -0.212 C  
BRANCH  20  21
HETATM   21  O   UNL     1     -12.194   7.043  71.990  1.00  0.00    -0.308 OA 
BRANCH  21  22
HETATM   22  C   UNL     1     -11.463   6.345  70.985  1.00  0.00    -0.334 C  
BRANCH  22  23
HETATM   23  C   UNL     1     -10.018   6.828  70.996  1.00  0.00    -0.182 C  
BRANCH  23  24
HETATM   24  O   UNL     1      -9.855   7.854  70.016  1.00  0.00    -0.180 OA 
BRANCH  24  25
HETATM   25  C   UNL     1     -10.326   7.430  68.736  1.00  0.00    -0.199 C  
HETATM   26  C   UNL     1     -10.288   8.601  67.771  1.00  0.00    -0.242 C  
HETATM   27  F   UNL     1     -10.738   8.196  66.555  1.00  0.00    -0.359 F  
ENDBRANCH  24  25
ENDBRANCH  23  24
ENDBRANCH  22  23
ENDBRANCH  21  22
ENDBRANCH  20  21
ENDBRANCH  19  20
ENDBRANCH  18  19
ENDBRANCH  15  18
ENDBRANCH  11  12
ENDBRANCH   7  10
ENDBRANCH   1   4
TORSDOF 11
ENDMDL
MODEL       20
REMARK 921   NORMALIZED FREE ENERGY PREDICTED BY IDOCK:   -5.51 KCAL/MOL
REMARK 922        TOTAL FREE ENERGY PREDICTED BY IDOCK:   -9.91 KCAL/MOL
REMARK 923 INTER-LIGAND FREE ENERGY PREDICTED BY IDOCK:   -8.94 KCAL/MOL
REMARK 924 INTRA-LIGAND FREE ENERGY PREDICTED BY IDOCK:   -0.97 KCAL/MOL
REMARK 927      BINDING AFFINITY PREDICTED BY RF-SCORE:    0.00 PKD
ROOT
HETATM    1  N   UNL     1      -7.999  20.461  65.732  1.00  0.00    -0.533 NA 
HETATM    2  H   UNL     1      -8.519  21.291  65.446  1.00  0.00     0.000 HD 
HETATM    3  C   UNL     1      -6.670  20.201  65.203  1.00  0.00    -0.296 C  
ENDROOT
BRANCH   1   4
HETATM    4  C   UNL     1      -8.551  19.553  66.639  1.00  0.00    -0.340 A  
HETATM    5  C   UNL     1      -7.813  18.867  67.606  1.00  0.00    -0.265 A  
HETATM    6  C   UNL     1      -8.431  17.955  68.468  1.00  0.00    -0.303 A  
HETATM    7  C   UNL     1      -9.812  17.735  68.408  1.00  0.00    -0.347 A  
HETATM    8  C   UNL     1     -10.563  18.466  67.483  1.00  0.00    -0.447 A  
HETATM    9  C   UNL     1      -9.939  19.380  66.627  1.00  0.00    -0.484 A  
BRANCH   7  10
HETATM   10  C   UNL     1     -10.400  16.688  69.255  1.00  0.00    -0.318 C  
HETATM   11  C   UNL     1     -11.393  15.869  68.871  1.00  0.00    -0.377 C  
BRANCH  11  12
HETATM   12  C   UNL     1     -11.945  14.797  69.707  1.00  0.00    -0.368 A  
HETATM   13  C   UNL     1     -12.735  15.024  70.832  1.00  0.00    -0.375 A  
HETATM   14  N   UNL     1     -13.234  14.057  71.638  1.00  0.00    -0.349 NA 
HETATM   15  C   UNL     1     -12.897  12.788  71.335  1.00  0.00    -0.275 A  
HETATM   16  C   UNL     1     -11.623  13.467  69.433  1.00  0.00    -0.369 A  
HETATM   17  C   UNL     1     -12.095  12.444  70.259  1.00  0.00    -0.377 A  
BRANCH  15  18
HETATM   18  O   UNL     1     -13.330  11.752  72.135  1.00  0.00    -0.497 OA 
BRANCH  18  19
HETATM   19  C   UNL     1     -12.696  10.507  71.812  1.00  0.00    -0.402 C  
BRANCH  19  20
HETATM   20  C   UNL     1     -13.601   9.358  72.254  1.00  0.00    -0.462 C  
BRANCH  20  21
HETATM   21  O   UNL     1     -12.852   8.459  73.078  1.00  0.00    -0.147 OA 
BRANCH  21  22
HETATM   22  C   UNL     1     -11.657   8.022  72.436  1.00  0.00    -0.390 C  
BRANCH  22  23
HETATM   23  C   UNL     1     -12.010   6.966  71.395  1.00  0.00    -0.349 C  
BRANCH  23  24
HETATM   24  O   UNL     1     -11.065   7.022  70.327  1.00  0.00    -0.262 OA 
BRANCH  24  25
HETATM   25  C   UNL     1     -10.228   8.175  70.432  1.00  0.00    -0.201 C  
HETATM   26  C   UNL     1     -10.432   9.060  69.216  1.00  0.00    -0.228 C  
HETATM   27  F   UNL     1      -9.633  10.154  69.318  1.00  0.00    -0.177 F  
ENDBRANCH  24  25
ENDBRANCH  23  24
ENDBRANCH  22  23
ENDBRANCH  21  22
ENDBRANCH  20  21
ENDBRANCH  19  20
ENDBRANCH  18  19
ENDBRANCH  15  18
ENDBRANCH  11  12
ENDBRANCH   7  10
ENDBRANCH   1   4
TORSDOF 11
ENDMDL
MODEL       21
REMARK 921   NORMALIZED FREE ENERGY PREDICTED BY IDOCK:   -5.50 KCAL/MOL
REMARK 922        TOTAL FREE ENERGY PREDICTED BY IDOCK:   -9.89 KCAL/MOL
REMARK 923 INTER-LIGAND FREE ENERGY PREDICTED BY IDOCK:   -8.87 KCAL/MOL
REMARK 924 INTRA-LIGAND FREE ENERGY PREDICTED BY IDOCK:   -1.03 KCAL/MOL
REMARK 927      BINDING AFFINITY PREDICTED BY RF-SCORE:    0.00 PKD
ROOT
HETATM    1  N   UNL     1     -10.469   5.526  73.682  1.00  0.00    -0.242 NA 
HETATM    2  H   UNL     1      -9.823   5.639  74.463  1.00  0.00     0.000 HD 
HETATM    3  C   UNL     1     -11.081   4.236  73.406  1.00  0.00    -0.280 C  
ENDROOT
BRANCH   1   4
HETATM    4  C   UNL     1     -10.782   6.609  72.855  1.00  0.00    -0.255 A  
HETATM    5  C   UNL     1     -11.926   6.678  72.057  1.00  0.00    -0.361 A  
HETATM    6  C   UNL     1     -12.162   7.786  71.236  1.00  0.00    -0.325 A  
HETATM    7  C   UNL     1     -11.278   8.871  71.223  1.00  0.00    -0.368 A  
HETATM    8  C   UNL     1     -10.165   8.831  72.068  1.00  0.00    -0.401 A  
HETATM    9  C   UNL     1      -9.936   7.722  72.889  1.00  0.00    -0.341 A  
BRANCH   7  10
HETATM   10  C   UNL     1     -11.508   9.961  70.266  1.00  0.00    -0.349 C  
HETATM   11  C   UNL     1     -10.948  10.032  69.047  1.00  0.00    -0.249 C  
BRANCH  11  12
HETATM   12  C   UNL     1     -11.217  11.102  68.079  1.00  0.00    -0.359 A  
HETATM   13  C   UNL     1     -11.859  12.295  68.405  1.00  0.00    -0.304 A  
HETATM   14  N   UNL     1     -12.146  13.286  67.528  1.00  0.00    -0.314 NA 
HETATM   15  C   UNL     1     -11.812  13.066  66.241  1.00  0.00    -0.408 A  
HETATM   16  C   UNL     1     -10.890  10.920  66.735  1.00  0.00    -0.283 A  
HETATM   17  C   UNL     1     -11.196  11.908  65.796  1.00  0.00    -0.365 A  
BRANCH  15  18
HETATM   18  O   UNL     1     -12.113  14.010  65.282  1.00  0.00    -0.369 OA 
BRANCH  18  19
HETATM   19  C   UNL     1     -10.941  14.602  64.707  1.00  0.00    -0.386 C  
BRANCH  19  20
HETATM   20  C   UNL     1     -11.091  16.122  64.724  1.00  0.00    -0.333 C  
BRANCH  20  21
HETATM   21  O   UNL     1      -9.997  16.696  65.447  1.00  0.00    -0.565 OA 
BRANCH  21  22
HETATM   22  C   UNL     1     -10.433  17.345  66.638  1.00  0.00    -0.253 C  
BRANCH  22  23
HETATM   23  C   UNL     1     -10.244  16.400  67.819  1.00  0.00    -0.274 C  
BRANCH  23  24
HETATM   24  O   UNL     1     -11.421  16.415  68.628  1.00  0.00    -0.349 OA 
BRANCH  24  25
HETATM   25  C   UNL     1     -11.140  15.986  69.962  1.00  0.00    -0.362 C  
HETATM   26  C   UNL     1     -12.416  15.474  70.606  1.00  0.00    -0.435 C  
HETATM   27  F   UNL     1     -12.147  15.070  71.875  1.00  0.00    -0.337 F  
ENDBRANCH  24  25
ENDBRANCH  23  24
ENDBRANCH  22  23
ENDBRANCH  21  22
ENDBRANCH  20  21
ENDBRANCH  19  20
ENDBRANCH  18  19
ENDBRANCH  15  18
ENDBRANCH  11  12
ENDBRANCH   7  10
ENDBRANCH   1   4
TORSDOF 11
ENDMDL
MODEL       22
REMARK 921   NORMALIZED FREE ENERGY PREDICTED BY IDOCK:   -5.49 KCAL/MOL
REMARK 922        TOTAL FREE ENERGY PREDICTED BY IDOCK:   -9.89 KCAL/MOL
REMARK 923 INTER-LIGAND FREE ENERGY PREDICTED BY IDOCK:   -8.60 KCAL/MOL
REMARK 924 INTRA-LIGAND FREE ENERGY PREDICTED BY IDOCK:   -1.29 KCAL/MOL
REMARK 927      BINDING AFFINITY PREDICTED BY RF-SCORE:    0.00 PKD
ROOT
HETATM    1  N   UNL     1     -12.023   5.672  72.718  1.00  0.00    -0.521 NA 
HETATM    2  H   UNL     1     -12.986   5.346  72.794  1.00  0.00     0.000 HD 
HETATM    3  C   UNL     1     -10.939   4.940  73.355  1.00  0.00    -0.325 C  
ENDROOT
BRANCH   1   4
HETATM    4  C   UNL     1     -11.718   6.830  71.997  1.00  0.00    -0.306 A  
HETATM    5  C   UNL     1     -11.907   8.126  72.484  1.00  0.00    -0.438 A  
HETATM    6  C   UNL     1     -11.600   9.240  71.695  1.00  0.00    -0.463 A  
HETATM    7  C   UNL     1     -11.059   9.085  70.414  1.00  0.00    -0.279 A  
HETATM    8  C   UNL     1     -10.811   7.790  69.949  1.00  0.00    -0.228 A  
HETATM    9  C   UNL     1     -11.117   6.680  70.744  1.00  0.00    -0.336 A  
BRANCH   7  10
HETATM   10  C   UNL     1     -10.856  10.278  69.581  1.00  0.00    -0.311 C  
HETATM   11  C   UNL     1     -11.508  11.440  69.748  1.00  0.00    -0.376 C  
BRANCH  11  12
HETATM   12  C   UNL     1     -11.268  12.642  68.941  1.00  0.00    -0.329 A  
HETATM   13  C   UNL     1     -12.134  13.733  68.904  1.00  0.00    -0.313 A  
HETATM   14  N   UNL     1     -11.952  14.842  68.148  1.00  0.00    -0.279 NA 
HETATM   15  C   UNL     1     -10.868  14.855  67.348  1.00  0.00    -0.304 A  
HETATM   16  C   UNL     1     -10.158  12.701  68.097  1.00  0.00    -0.231 A  
HETATM   17  C   UNL     1      -9.954  13.815  67.280  1.00  0.00    -0.239 A  
BRANCH  15  18
HETATM   18  O   UNL     1     -10.640  15.929  66.515  1.00  0.00    -0.307 OA 
BRANCH  18  19
HETATM   19  C   UNL     1     -10.578  15.551  65.134  1.00  0.00    -0.431 C  
BRANCH  19  20
HETATM   20  C   UNL     1     -11.966  15.699  64.514  1.00  0.00    -0.120 C  
BRANCH  20  21
HETATM   21  O   UNL     1     -12.606  14.420  64.480  1.00  0.00    -0.651 OA 
BRANCH  21  22
HETATM   22  C   UNL     1     -11.798  13.440  63.834  1.00  0.00    -0.439 C  
BRANCH  22  23
HETATM   23  C   UNL     1     -11.831  12.152  64.648  1.00  0.00    -0.328 C  
BRANCH  23  24
HETATM   24  O   UNL     1     -10.836  11.255  64.155  1.00  0.00    -0.357 OA 
BRANCH  24  25
HETATM   25  C   UNL     1      -9.808  11.036  65.122  1.00  0.00    -0.268 C  
HETATM   26  C   UNL     1     -10.024   9.691  65.791  1.00  0.00    -0.272 C  
HETATM   27  F   UNL     1      -9.046   9.485  66.712  1.00  0.00    -0.146 F  
ENDBRANCH  24  25
ENDBRANCH  23  24
ENDBRANCH  22  23
ENDBRANCH  21  22
ENDBRANCH  20  21
ENDBRANCH  19  20
ENDBRANCH  18  19
ENDBRANCH  15  18
ENDBRANCH  11  12
ENDBRANCH   7  10
ENDBRANCH   1   4
TORSDOF 11
ENDMDL
MODEL       23
REMARK 921   NORMALIZED FREE ENERGY PREDICTED BY IDOCK:   -5.47 KCAL/MOL
REMARK 922        TOTAL FREE ENERGY PREDICTED BY IDOCK:   -9.85 KCAL/MOL
REMARK 923 INTER-LIGAND FREE ENERGY PREDICTED BY IDOCK:   -8.96 KCAL/MOL
REMARK 924 INTRA-LIGAND FREE ENERGY PREDICTED BY IDOCK:   -0.89 KCAL/MOL
REMARK 927      BINDING AFFINITY PREDICTED BY RF-SCORE:    0.00 PKD
ROOT
HETATM    1  N   UNL     1     -10.663   5.399  74.464  1.00  0.00    -0.400 NA 
HETATM    2  H   UNL     1     -10.727   5.704  75.435  1.00  0.00     0.000 HD 
HETATM    3  C   UNL     1     -10.442   3.998  74.141  1.00  0.00    -0.217 C  
ENDROOT
BRANCH   1   4
HETATM    4  C   UNL     1     -10.786   6.318  73.419  1.00  0.00    -0.259 A  
HETATM    5  C   UNL     1     -10.055   7.505  73.331  1.00  0.00    -0.393 A  
HETATM    6  C   UNL     1     -10.249   8.389  72.264  1.00  0.00    -0.396 A  
HETATM    7  C   UNL     1     -11.150   8.089  71.238  1.00  0.00    -0.279 A  
HETATM    8  C   UNL     1     -11.837   6.872  71.291  1.00  0.00    -0.385 A  
HETATM    9  C   UNL     1     -11.636   5.990  72.358  1.00  0.00    -0.349 A  
BRANCH   7  10
HETATM   10  C   UNL     1     -11.402   9.096  70.198  1.00  0.00    -0.164 C  
HETATM   11  C   UNL     1     -11.430  10.421  70.415  1.00  0.00    -0.420 C  
BRANCH  11  12
HETATM   12  C   UNL     1     -11.637  11.423  69.363  1.00  0.00    -0.391 A  
HETATM   13  C   UNL     1     -11.571  11.137  68.000  1.00  0.00    -0.263 A  
HETATM   14  N   UNL     1     -11.729  12.046  67.009  1.00  0.00    -0.571 NA 
HETATM   15  C   UNL     1     -11.926  13.324  67.389  1.00  0.00    -0.335 A  
HETATM   16  C   UNL     1     -11.844  12.759  69.708  1.00  0.00    -0.380 A  
HETATM   17  C   UNL     1     -11.982  13.730  68.712  1.00  0.00    -0.400 A  
BRANCH  15  18
HETATM   18  O   UNL     1     -12.051  14.313  66.437  1.00  0.00    -0.422 OA 
BRANCH  18  19
HETATM   19  C   UNL     1     -10.809  14.975  66.166  1.00  0.00    -0.329 C  
BRANCH  19  20
HETATM   20  C   UNL     1     -10.936  15.761  64.862  1.00  0.00    -0.427 C  
BRANCH  20  21
HETATM   21  O   UNL     1     -10.503  17.107  65.079  1.00  0.00    -0.611 OA 
BRANCH  21  22
HETATM   22  C   UNL     1     -10.533  17.457  66.460  1.00  0.00    -0.264 C  
BRANCH  22  23
HETATM   23  C   UNL     1      -9.622  18.658  66.689  1.00  0.00    -0.333 C  
BRANCH  23  24
HETATM   24  O   UNL     1      -8.782  18.405  67.815  1.00  0.00    -0.261 OA 
BRANCH  24  25
HETATM   25  C   UNL     1      -9.323  17.377  68.647  1.00  0.00    -0.267 C  
HETATM   26  C   UNL     1      -8.207  16.448  69.090  1.00  0.00    -0.189 C  
HETATM   27  F   UNL     1      -8.724  15.470  69.880  1.00  0.00    -0.252 F  
ENDBRANCH  24  25
ENDBRANCH  23  24
ENDBRANCH  22  23
ENDBRANCH  21  22
ENDBRANCH  20  21
ENDBRANCH  19  20
ENDBRANCH  18  19
ENDBRANCH  15  18
ENDBRANCH  11  12
ENDBRANCH   7  10
ENDBRANCH   1   4
TORSDOF 11
ENDMDL
MODEL       24
REMARK 921   NORMALIZED FREE ENERGY PREDICTED BY IDOCK:   -5.46 KCAL/MOL
REMARK 922        TOTAL FREE ENERGY PREDICTED BY IDOCK:   -9.82 KCAL/MOL
REMARK 923 INTER-LIGAND FREE ENERGY PREDICTED BY IDOCK:   -8.35 KCAL/MOL
REMARK 924 INTRA-LIGAND FREE ENERGY PREDICTED BY IDOCK:   -1.48 KCAL/MOL
REMARK 927      BINDING AFFINITY PREDICTED BY RF-SCORE:    0.00 PKD
ROOT
HETATM    1  N   UNL     1     -12.379   6.266  72.546  1.00  0.00    -0.538 NA 
HETATM    2  H   UNL     1     -13.307   6.015  72.885  1.00  0.00     0.000 HD 
HETATM    3  C   UNL     1     -11.241   5.391  72.783  1.00  0.00    -0.300 C  
ENDROOT
BRANCH   1   4
HETATM    4  C   UNL     1     -12.175   7.458  71.846  1.00  0.00    -0.310 A  
HETATM    5  C   UNL     1     -11.239   7.613  70.820  1.00  0.00    -0.282 A  
HETATM    6  C   UNL     1     -11.075   8.845  70.178  1.00  0.00    -0.217 A  
HETATM    7  C   UNL     1     -11.871   9.943  70.520  1.00  0.00    -0.350 A  
HETATM    8  C   UNL     1     -12.851   9.774  71.503  1.00  0.00    -0.502 A  
HETATM    9  C   UNL     1     -13.013   8.539  72.139  1.00  0.00    -0.403 A  
BRANCH   7  10
HETATM   10  C   UNL     1     -11.589  11.244  69.898  1.00  0.00    -0.413 C  
HETATM   11  C   UNL     1     -12.210  12.391  70.220  1.00  0.00    -0.345 C  
BRANCH  11  12
HETATM   12  C   UNL     1     -11.892  13.694  69.626  1.00  0.00    -0.396 A  
HETATM   13  C   UNL     1     -11.891  13.937  68.253  1.00  0.00    -0.376 A  
HETATM   14  N   UNL     1     -11.574  15.121  67.676  1.00  0.00    -0.318 NA 
HETATM   15  C   UNL     1     -11.197  16.113  68.505  1.00  0.00    -0.365 A  
HETATM   16  C   UNL     1     -11.495  14.752  70.444  1.00  0.00    -0.303 A  
HETATM   17  C   UNL     1     -11.132  15.979  69.882  1.00  0.00    -0.352 A  
BRANCH  15  18
HETATM   18  O   UNL     1     -10.816  17.334  67.988  1.00  0.00    -0.381 OA 
BRANCH  18  19
HETATM   19  C   UNL     1     -10.432  17.251  66.610  1.00  0.00    -0.257 C  
BRANCH  19  20
HETATM   20  C   UNL     1      -9.291  18.233  66.351  1.00  0.00    -0.273 C  
BRANCH  20  21
HETATM   21  O   UNL     1      -8.259  17.572  65.611  1.00  0.00    -0.505 OA 
BRANCH  21  22
HETATM   22  C   UNL     1      -6.963  17.883  66.116  1.00  0.00    -0.301 C  
BRANCH  22  23
HETATM   23  C   UNL     1      -6.519  16.774  67.062  1.00  0.00    -0.194 C  
BRANCH  23  24
HETATM   24  O   UNL     1      -6.790  17.166  68.408  1.00  0.00    -0.177 OA 
BRANCH  24  25
HETATM   25  C   UNL     1      -7.474  16.135  69.122  1.00  0.00    -0.221 C  
HETATM   26  C   UNL     1      -7.850  15.021  68.163  1.00  0.00    -0.120 C  
HETATM   27  F   UNL     1      -8.503  14.042  68.844  1.00  0.00    -0.150 F  
ENDBRANCH  24  25
ENDBRANCH  23  24
ENDBRANCH  22  23
ENDBRANCH  21  22
ENDBRANCH  20  21
ENDBRANCH  19  20
ENDBRANCH  18  19
ENDBRANCH  15  18
ENDBRANCH  11  12
ENDBRANCH   7  10
ENDBRANCH   1   4
TORSDOF 11
ENDMDL
MODEL       25
REMARK 921   NORMALIZED FREE ENERGY PREDICTED BY IDOCK:   -5.45 KCAL/MOL
REMARK 922        TOTAL FREE ENERGY PREDICTED BY IDOCK:   -9.82 KCAL/MOL
REMARK 923 INTER-LIGAND FREE ENERGY PREDICTED BY IDOCK:   -8.75 KCAL/MOL
REMARK 924 INTRA-LIGAND FREE ENERGY PREDICTED BY IDOCK:   -1.07 KCAL/MOL
REMARK 927      BINDING AFFINITY PREDICTED BY RF-SCORE:    0.00 PKD
ROOT
HETATM    1  N   UNL     1      -9.794  18.666  65.841  1.00  0.00    -0.504 NA 
HETATM    2  H   UNL     1      -9.300  18.570  64.954  1.00  0.00     0.000 HD 
HETATM    3  C   UNL     1     -10.006  19.978  66.433  1.00  0.00    -0.481 C  
ENDROOT
BRANCH   1   4
HETATM    4  C   UNL     1     -10.280  17.541  66.512  1.00  0.00    -0.342 A  
HETATM    5  C   UNL     1     -10.648  17.531  67.859  1.00  0.00    -0.390 A  
HETATM    6  C   UNL     1     -11.106  16.358  68.469  1.00  0.00    -0.357 A  
HETATM    7  C   UNL     1     -11.244  15.174  67.736  1.00  0.00    -0.327 A  
HETATM    8  C   UNL     1     -10.935  15.197  66.372  1.00  0.00    -0.329 A  
HETATM    9  C   UNL     1     -10.481  16.374  65.767  1.00  0.00    -0.369 A  
BRANCH   7  10
HETATM   10  C   UNL     1     -11.622  13.943  68.442  1.00  0.00    -0.368 C  
HETATM   11  C   UNL     1     -11.806  13.855  69.769  1.00  0.00    -0.390 C  
BRANCH  11  12
HETATM   12  C   UNL     1     -12.227  12.632  70.462  1.00  0.00    -0.383 A  
HETATM   13  C   UNL     1     -13.030  12.628  71.602  1.00  0.00    -0.299 A  
HETATM   14  N   UNL     1     -13.410  11.518  72.278  1.00  0.00    -0.252 NA 
HETATM   15  C   UNL     1     -12.935  10.342  71.823  1.00  0.00    -0.475 A  
HETATM   16  C   UNL     1     -11.760  11.391  70.028  1.00  0.00    -0.416 A  
HETATM   17  C   UNL     1     -12.107  10.227  70.718  1.00  0.00    -0.451 A  
BRANCH  15  18
HETATM   18  O   UNL     1     -13.241   9.173  72.485  1.00  0.00    -0.444 OA 
BRANCH  18  19
HETATM   19  C   UNL     1     -13.619   8.118  71.592  1.00  0.00    -0.343 C  
BRANCH  19  20
HETATM   20  C   UNL     1     -12.699   6.920  71.817  1.00  0.00    -0.327 C  
BRANCH  20  21
HETATM   21  O   UNL     1     -12.015   6.616  70.597  1.00  0.00    -0.395 OA 
BRANCH  21  22
HETATM   22  C   UNL     1     -10.666   6.220  70.830  1.00  0.00    -0.256 C  
BRANCH  22  23
HETATM   23  C   UNL     1      -9.878   7.419  71.345  1.00  0.00    -0.185 C  
BRANCH  23  24
HETATM   24  O   UNL     1      -9.319   8.128  70.239  1.00  0.00    -0.154 OA 
BRANCH  24  25
HETATM   25  C   UNL     1      -8.505   9.217  70.676  1.00  0.00    -0.217 C  
HETATM   26  C   UNL     1      -8.056  10.026  69.473  1.00  0.00    -0.161 C  
HETATM   27  F   UNL     1      -7.280  11.060  69.891  1.00  0.00    -0.138 F  
ENDBRANCH  24  25
ENDBRANCH  23  24
ENDBRANCH  22  23
ENDBRANCH  21  22
ENDBRANCH  20  21
ENDBRANCH  19  20
ENDBRANCH  18  19
ENDBRANCH  15  18
ENDBRANCH  11  12
ENDBRANCH   7  10
ENDBRANCH   1   4
TORSDOF 11
ENDMDL
MODEL       26
REMARK 921   NORMALIZED FREE ENERGY PREDICTED BY IDOCK:   -5.42 KCAL/MOL
REMARK 922        TOTAL FREE ENERGY PREDICTED BY IDOCK:   -9.76 KCAL/MOL
REMARK 923 INTER-LIGAND FREE ENERGY PREDICTED BY IDOCK:   -8.81 KCAL/MOL
REMARK 924 INTRA-LIGAND FREE ENERGY PREDICTED BY IDOCK:   -0.95 KCAL/MOL
REMARK 927      BINDING AFFINITY PREDICTED BY RF-SCORE:    0.00 PKD
ROOT
HETATM    1  N   UNL     1     -12.284   6.118  72.606  1.00  0.00    -0.527 NA 
HETATM    2  H   UNL     1     -13.243   5.949  72.909  1.00  0.00     0.000 HD 
HETATM    3  C   UNL     1     -11.221   5.189  72.956  1.00  0.00    -0.322 C  
ENDROOT
BRANCH   1   4
HETATM    4  C   UNL     1     -11.966   7.246  71.845  1.00  0.00    -0.306 A  
HETATM    5  C   UNL     1     -12.354   8.547  72.176  1.00  0.00    -0.444 A  
HETATM    6  C   UNL     1     -12.017   9.626  71.352  1.00  0.00    -0.480 A  
HETATM    7  C   UNL     1     -11.251   9.436  70.197  1.00  0.00    -0.253 A  
HETATM    8  C   UNL     1     -10.809   8.144  69.898  1.00  0.00    -0.215 A  
HETATM    9  C   UNL     1     -11.145   7.069  70.727  1.00  0.00    -0.307 A  
BRANCH   7  10
HETATM   10  C   UNL     1     -11.016  10.581  69.306  1.00  0.00    -0.291 C  
HETATM   11  C   UNL     1     -11.988  11.297  68.717  1.00  0.00    -0.350 C  
BRANCH  11  12
HETATM   12  C   UNL     1     -11.747  12.466  67.864  1.00  0.00    -0.421 A  
HETATM   13  C   UNL     1     -11.357  12.380  66.529  1.00  0.00    -0.340 A  
HETATM   14  N   UNL     1     -11.100  13.441  65.726  1.00  0.00    -0.282 NA 
HETATM   15  C   UNL     1     -11.196  14.660  66.291  1.00  0.00    -0.340 A  
HETATM   16  C   UNL     1     -11.834  13.749  68.404  1.00  0.00    -0.411 A  
HETATM   17  C   UNL     1     -11.548  14.866  67.615  1.00  0.00    -0.357 A  
BRANCH  15  18
HETATM   18  O   UNL     1     -10.906  15.786  65.550  1.00  0.00    -0.344 OA 
BRANCH  18  19
HETATM   19  C   UNL     1      -9.973  16.652  66.209  1.00  0.00    -0.320 C  
BRANCH  19  20
HETATM   20  C   UNL     1     -10.384  18.103  65.967  1.00  0.00    -0.353 C  
BRANCH  20  21
HETATM   21  O   UNL     1     -10.543  18.764  67.226  1.00  0.00    -0.412 OA 
BRANCH  21  22
HETATM   22  C   UNL     1     -10.063  20.105  67.185  1.00  0.00    -0.450 C  
BRANCH  22  23
HETATM   23  C   UNL     1      -8.565  20.106  67.467  1.00  0.00    -0.336 C  
BRANCH  23  24
HETATM   24  O   UNL     1      -8.290  19.234  68.564  1.00  0.00    -0.344 OA 
BRANCH  24  25
HETATM   25  C   UNL     1      -7.203  18.355  68.271  1.00  0.00    -0.263 C  
HETATM   26  C   UNL     1      -7.469  16.998  68.896  1.00  0.00    -0.237 C  
HETATM   27  F   UNL     1      -6.433  16.164  68.618  1.00  0.00    -0.111 F  
ENDBRANCH  24  25
ENDBRANCH  23  24
ENDBRANCH  22  23
ENDBRANCH  21  22
ENDBRANCH  20  21
ENDBRANCH  19  20
ENDBRANCH  18  19
ENDBRANCH  15  18
ENDBRANCH  11  12
ENDBRANCH   7  10
ENDBRANCH   1   4
TORSDOF 11
ENDMDL
MODEL       27
REMARK 921   NORMALIZED FREE ENERGY PREDICTED BY IDOCK:   -5.41 KCAL/MOL
REMARK 922        TOTAL FREE ENERGY PREDICTED BY IDOCK:   -9.75 KCAL/MOL
REMARK 923 INTER-LIGAND FREE ENERGY PREDICTED BY IDOCK:   -8.35 KCAL/MOL
REMARK 924 INTRA-LIGAND FREE ENERGY PREDICTED BY IDOCK:   -1.39 KCAL/MOL
REMARK 927      BINDING AFFINITY PREDICTED BY RF-SCORE:    0.00 PKD
ROOT
HETATM    1  N   UNL     1     -14.000  15.190  72.469  1.00  0.00    -0.495 NA 
HETATM    2  H   UNL     1     -15.005  15.343  72.388  1.00  0.00     0.000 HD 
HETATM    3  C   UNL     1     -13.206  15.964  73.410  1.00  0.00    -0.562 C  
ENDROOT
BRANCH   1   4
HETATM    4  C   UNL     1     -13.360  14.232  71.678  1.00  0.00    -0.365 A  
HETATM    5  C   UNL     1     -13.313  12.870  71.984  1.00  0.00    -0.579 A  
HETATM    6  C   UNL     1     -12.632  11.972  71.155  1.00  0.00    -0.372 A  
HETATM    7  C   UNL     1     -12.014  12.409  69.978  1.00  0.00    -0.372 A  
HETATM    8  C   UNL     1     -12.113  13.761  69.638  1.00  0.00    -0.392 A  
HETATM    9  C   UNL     1     -12.798  14.654  70.469  1.00  0.00    -0.371 A  
BRANCH   7  10
HETATM   10  C   UNL     1     -11.218  11.452  69.197  1.00  0.00    -0.335 C  
HETATM   11  C   UNL     1     -10.659  11.722  68.007  1.00  0.00    -0.235 C  
BRANCH  11  12
HETATM   12  C   UNL     1      -9.829  10.775  67.253  1.00  0.00    -0.208 A  
HETATM   13  C   UNL     1      -8.561  11.081  66.762  1.00  0.00    -0.152 A  
HETATM   14  N   UNL     1      -7.785  10.238  66.039  1.00  0.00    -0.124 NA 
HETATM   15  C   UNL     1      -8.312   9.032  65.752  1.00  0.00    -0.128 A  
HETATM   16  C   UNL     1     -10.332   9.514  66.931  1.00  0.00    -0.307 A  
HETATM   17  C   UNL     1      -9.573   8.628  66.163  1.00  0.00    -0.305 A  
BRANCH  15  18
HETATM   18  O   UNL     1      -7.601   8.136  64.983  1.00  0.00    -0.085 OA 
BRANCH  18  19
HETATM   19  C   UNL     1      -8.145   7.990  63.665  1.00  0.00    -0.099 C  
BRANCH  19  20
HETATM   20  C   UNL     1      -7.842   9.250  62.858  1.00  0.00    -0.129 C  
BRANCH  20  21
HETATM   21  O   UNL     1      -9.067   9.796  62.359  1.00  0.00    -0.257 OA 
BRANCH  21  22
HETATM   22  C   UNL     1      -9.253  11.147  62.772  1.00  0.00    -0.348 C  
BRANCH  22  23
HETATM   23  C   UNL     1     -10.521  11.240  63.612  1.00  0.00    -0.405 C  
BRANCH  23  24
HETATM   24  O   UNL     1     -11.183  12.473  63.332  1.00  0.00    -0.469 OA 
BRANCH  24  25
HETATM   25  C   UNL     1     -12.235  12.723  64.266  1.00  0.00    -0.425 C  
HETATM   26  C   UNL     1     -11.803  13.808  65.234  1.00  0.00    -0.352 C  
HETATM   27  F   UNL     1     -12.805  14.043  66.123  1.00  0.00    -0.482 F  
ENDBRANCH  24  25
ENDBRANCH  23  24
ENDBRANCH  22  23
ENDBRANCH  21  22
ENDBRANCH  20  21
ENDBRANCH  19  20
ENDBRANCH  18  19
ENDBRANCH  15  18
ENDBRANCH  11  12
ENDBRANCH   7  10
ENDBRANCH   1   4
TORSDOF 11
ENDMDL
MODEL       28
REMARK 921   NORMALIZED FREE ENERGY PREDICTED BY IDOCK:   -5.38 KCAL/MOL
REMARK 922        TOTAL FREE ENERGY PREDICTED BY IDOCK:   -9.70 KCAL/MOL
REMARK 923 INTER-LIGAND FREE ENERGY PREDICTED BY IDOCK:   -8.93 KCAL/MOL
REMARK 924 INTRA-LIGAND FREE ENERGY PREDICTED BY IDOCK:   -0.77 KCAL/MOL
REMARK 927      BINDING AFFINITY PREDICTED BY RF-SCORE:    0.00 PKD
ROOT
HETATM    1  N   UNL     1     -11.364   4.964  73.746  1.00  0.00    -0.413 NA 
HETATM    2  H   UNL     1     -12.000   4.930  74.542  1.00  0.00     0.000 HD 
HETATM    3  C   UNL     1     -10.586   3.795  73.369  1.00  0.00    -0.193 C  
ENDROOT
BRANCH   1   4
HETATM    4  C   UNL     1     -11.223   6.135  72.996  1.00  0.00    -0.172 A  
HETATM    5  C   UNL     1     -10.612   7.298  73.470  1.00  0.00    -0.408 A  
HETATM    6  C   UNL     1     -10.528   8.441  72.667  1.00  0.00    -0.317 A  
HETATM    7  C   UNL     1     -11.020   8.437  71.358  1.00  0.00    -0.311 A  
HETATM    8  C   UNL     1     -11.576   7.255  70.861  1.00  0.00    -0.331 A  
HETATM    9  C   UNL     1     -11.654   6.114  71.666  1.00  0.00    -0.317 A  
BRANCH   7  10
HETATM   10  C   UNL     1     -11.009   9.691  70.592  1.00  0.00    -0.386 C  
HETATM   11  C   UNL     1     -11.939  10.654  70.701  1.00  0.00    -0.466 C  
BRANCH  11  12
HETATM   12  C   UNL     1     -11.899  11.924  69.966  1.00  0.00    -0.407 A  
HETATM   13  C   UNL     1     -11.417  12.047  68.664  1.00  0.00    -0.297 A  
HETATM   14  N   UNL     1     -11.340  13.209  67.972  1.00  0.00    -0.274 NA 
HETATM   15  C   UNL     1     -11.728  14.324  68.622  1.00  0.00    -0.345 A  
HETATM   16  C   UNL     1     -12.289  13.105  70.598  1.00  0.00    -0.405 A  
HETATM   17  C   UNL     1     -12.197  14.326  69.926  1.00  0.00    -0.407 A  
BRANCH  15  18
HETATM   18  O   UNL     1     -11.637  15.550  68.000  1.00  0.00    -0.342 OA 
BRANCH  18  19
HETATM   19  C   UNL     1     -10.872  16.496  68.757  1.00  0.00    -0.342 C  
BRANCH  19  20
HETATM   20  C   UNL     1      -9.387  16.173  68.603  1.00  0.00    -0.222 C  
BRANCH  20  21
HETATM   21  O   UNL     1      -8.781  17.142  67.742  1.00  0.00    -0.215 OA 
BRANCH  21  22
HETATM   22  C   UNL     1      -7.821  17.937  68.432  1.00  0.00    -0.286 C  
BRANCH  22  23
HETATM   23  C   UNL     1      -8.082  19.408  68.127  1.00  0.00    -0.319 C  
BRANCH  23  24
HETATM   24  O   UNL     1      -9.482  19.668  68.224  1.00  0.00    -0.344 OA 
BRANCH  24  25
HETATM   25  C   UNL     1      -9.961  20.370  67.075  1.00  0.00    -0.428 C  
HETATM   26  C   UNL     1     -10.645  19.394  66.136  1.00  0.00    -0.477 C  
HETATM   27  F   UNL     1     -11.098  20.064  65.044  1.00  0.00    -0.509 F  
ENDBRANCH  24  25
ENDBRANCH  23  24
ENDBRANCH  22  23
ENDBRANCH  21  22
ENDBRANCH  20  21
ENDBRANCH  19  20
ENDBRANCH  18  19
ENDBRANCH  15  18
ENDBRANCH  11  12
ENDBRANCH   7  10
ENDBRANCH   1   4
TORSDOF 11
ENDMDL
MODEL       29
REMARK 921   NORMALIZED FREE ENERGY PREDICTED BY IDOCK:   -5.36 KCAL/MOL
REMARK 922        TOTAL FREE ENERGY PREDICTED BY IDOCK:   -9.67 KCAL/MOL
REMARK 923 INTER-LIGAND FREE ENERGY PREDICTED BY IDOCK:   -9.07 KCAL/MOL
REMARK 924 INTRA-LIGAND FREE ENERGY PREDICTED BY IDOCK:   -0.60 KCAL/MOL
REMARK 927      BINDING AFFINITY PREDICTED BY RF-SCORE:    0.00 PKD
ROOT
HETATM    1  N   UNL     1     -12.630   6.168  72.455  1.00  0.00    -0.501 NA 
HETATM    2  H   UNL     1     -13.589   5.904  72.678  1.00  0.00     0.000 HD 
HETATM    3  C   UNL     1     -11.526   5.267  72.749  1.00  0.00    -0.247 C  
ENDROOT
BRANCH   1   4
HETATM    4  C   UNL     1     -12.350   7.401  71.860  1.00  0.00    -0.310 A  
HETATM    5  C   UNL     1     -11.246   7.642  71.039  1.00  0.00    -0.283 A  
HETATM    6  C   UNL     1     -11.019   8.911  70.496  1.00  0.00    -0.280 A  
HETATM    7  C   UNL     1     -11.912   9.962  70.732  1.00  0.00    -0.410 A  
HETATM    8  C   UNL     1     -13.050   9.708  71.503  1.00  0.00    -0.488 A  
HETATM    9  C   UNL     1     -13.274   8.436  72.039  1.00  0.00    -0.372 A  
BRANCH   7  10
HETATM   10  C   UNL     1     -11.575  11.303  70.234  1.00  0.00    -0.366 C  
HETATM   11  C   UNL     1     -12.289  12.411  70.493  1.00  0.00    -0.346 C  
BRANCH  11  12
HETATM   12  C   UNL     1     -11.921  13.754  70.030  1.00  0.00    -0.407 A  
HETATM   13  C   UNL     1     -11.704  14.076  68.691  1.00  0.00    -0.354 A  
HETATM   14  N   UNL     1     -11.337  15.298  68.238  1.00  0.00    -0.322 NA 
HETATM   15  C   UNL     1     -11.134  16.250  69.170  1.00  0.00    -0.322 A  
HETATM   16  C   UNL     1     -11.700  14.772  70.958  1.00  0.00    -0.358 A  
HETATM   17  C   UNL     1     -11.291  16.038  70.530  1.00  0.00    -0.420 A  
BRANCH  15  18
HETATM   18  O   UNL     1     -10.714  17.507  68.789  1.00  0.00    -0.285 OA 
BRANCH  18  19
HETATM   19  C   UNL     1     -10.051  17.504  67.519  1.00  0.00    -0.326 C  
BRANCH  19  20
HETATM   20  C   UNL     1     -10.358  18.812  66.792  1.00  0.00    -0.412 C  
BRANCH  20  21
HETATM   21  O   UNL     1      -9.291  19.110  65.887  1.00  0.00    -0.433 OA 
BRANCH  21  22
HETATM   22  C   UNL     1      -8.309  19.952  66.484  1.00  0.00    -0.336 C  
BRANCH  22  23
HETATM   23  C   UNL     1      -7.059  19.956  65.611  1.00  0.00    -0.315 C  
BRANCH  23  24
HETATM   24  O   UNL     1      -5.966  20.495  66.354  1.00  0.00    -0.176 OA 
BRANCH  24  25
HETATM   25  C   UNL     1      -6.398  21.013  67.614  1.00  0.00    -0.351 C  
HETATM   26  C   UNL     1      -5.625  20.334  68.730  1.00  0.00    -0.265 C  
HETATM   27  F   UNL     1      -6.039  20.826  69.927  1.00  0.00    -0.390 F  
ENDBRANCH  24  25
ENDBRANCH  23  24
ENDBRANCH  22  23
ENDBRANCH  21  22
ENDBRANCH  20  21
ENDBRANCH  19  20
ENDBRANCH  18  19
ENDBRANCH  15  18
ENDBRANCH  11  12
ENDBRANCH   7  10
ENDBRANCH   1   4
TORSDOF 11
ENDMDL
MODEL       30
REMARK 921   NORMALIZED FREE ENERGY PREDICTED BY IDOCK:   -5.36 KCAL/MOL
REMARK 922        TOTAL FREE ENERGY PREDICTED BY IDOCK:   -9.67 KCAL/MOL
REMARK 923 INTER-LIGAND FREE ENERGY PREDICTED BY IDOCK:   -8.68 KCAL/MOL
REMARK 924 INTRA-LIGAND FREE ENERGY PREDICTED BY IDOCK:   -0.99 KCAL/MOL
REMARK 927      BINDING AFFINITY PREDICTED BY RF-SCORE:    0.00 PKD
ROOT
HETATM    1  N   UNL     1      -8.911   2.380  67.506  1.00  0.00    -0.142 NA 
HETATM    2  H   UNL     1      -8.935   1.460  67.945  1.00  0.00     0.000 HD 
HETATM    3  C   UNL     1      -8.322   2.558  66.188  1.00  0.00    -0.093 C  
ENDROOT
BRANCH   1   4
HETATM    4  C   UNL     1      -9.445   3.494  68.159  1.00  0.00    -0.155 A  
HETATM    5  C   UNL     1      -9.457   3.657  69.546  1.00  0.00    -0.246 A  
HETATM    6  C   UNL     1     -10.031   4.791  70.130  1.00  0.00    -0.321 A  
HETATM    7  C   UNL     1     -10.573   5.810  69.339  1.00  0.00    -0.383 A  
HETATM    8  C   UNL     1     -10.506   5.678  67.949  1.00  0.00    -0.274 A  
HETATM    9  C   UNL     1      -9.928   4.543  67.370  1.00  0.00    -0.171 A  
BRANCH   7  10
HETATM   10  C   UNL     1     -11.262   6.928  69.997  1.00  0.00    -0.347 C  
HETATM   11  C   UNL     1     -10.798   8.188  70.037  1.00  0.00    -0.233 C  
BRANCH  11  12
HETATM   12  C   UNL     1     -11.513   9.309  70.657  1.00  0.00    -0.327 A  
HETATM   13  C   UNL     1     -12.402   9.164  71.721  1.00  0.00    -0.372 A  
HETATM   14  N   UNL     1     -13.098  10.175  72.294  1.00  0.00    -0.349 NA 
HETATM   15  C   UNL     1     -12.932  11.400  71.757  1.00  0.00    -0.414 A  
HETATM   16  C   UNL     1     -11.374  10.596  70.136  1.00  0.00    -0.402 A  
HETATM   17  C   UNL     1     -12.097  11.659  70.682  1.00  0.00    -0.432 A  
BRANCH  15  18
HETATM   18  O   UNL     1     -13.640  12.472  72.257  1.00  0.00    -0.530 OA 
BRANCH  18  19
HETATM   19  C   UNL     1     -12.963  13.719  72.057  1.00  0.00    -0.345 C  
BRANCH  19  20
HETATM   20  C   UNL     1     -13.942  14.728  71.460  1.00  0.00    -0.467 C  
BRANCH  20  21
HETATM   21  O   UNL     1     -13.207  15.784  70.835  1.00  0.00    -0.560 OA 
BRANCH  21  22
HETATM   22  C   UNL     1     -11.857  15.832  71.289  1.00  0.00    -0.437 C  
BRANCH  22  23
HETATM   23  C   UNL     1     -10.948  16.168  70.112  1.00  0.00    -0.358 C  
BRANCH  23  24
HETATM   24  O   UNL     1     -11.664  15.972  68.892  1.00  0.00    -0.381 OA 
BRANCH  24  25
HETATM   25  C   UNL     1     -10.976  15.068  68.025  1.00  0.00    -0.284 C  
HETATM   26  C   UNL     1     -11.872  13.882  67.720  1.00  0.00    -0.380 C  
HETATM   27  F   UNL     1     -11.215  13.023  66.897  1.00  0.00    -0.272 F  
ENDBRANCH  24  25
ENDBRANCH  23  24
ENDBRANCH  22  23
ENDBRANCH  21  22
ENDBRANCH  20  21
ENDBRANCH  19  20
ENDBRANCH  18  19
ENDBRANCH  15  18
ENDBRANCH  11  12
ENDBRANCH   7  10
ENDBRANCH   1   4
TORSDOF 11
ENDMDL
MODEL       31
REMARK 921   NORMALIZED FREE ENERGY PREDICTED BY IDOCK:   -5.34 KCAL/MOL
REMARK 922        TOTAL FREE ENERGY PREDICTED BY IDOCK:   -9.63 KCAL/MOL
REMARK 923 INTER-LIGAND FREE ENERGY PREDICTED BY IDOCK:   -8.51 KCAL/MOL
REMARK 924 INTRA-LIGAND FREE ENERGY PREDICTED BY IDOCK:   -1.11 KCAL/MOL
REMARK 927      BINDING AFFINITY PREDICTED BY RF-SCORE:    0.00 PKD
ROOT
HETATM    1  N   UNL     1     -10.506   4.535  74.417  1.00  0.00    -0.263 NA 
HETATM    2  H   UNL     1     -10.266   4.722  75.390  1.00  0.00     0.000 HD 
HETATM    3  C   UNL     1     -10.439   3.183  73.884  1.00  0.00    -0.171 C  
ENDROOT
BRANCH   1   4
HETATM    4  C   UNL     1     -10.907   5.572  73.570  1.00  0.00    -0.276 A  
HETATM    5  C   UNL     1     -11.910   5.451  72.605  1.00  0.00    -0.145 A  
HETATM    6  C   UNL     1     -12.242   6.528  71.777  1.00  0.00    -0.374 A  
HETATM    7  C   UNL     1     -11.605   7.766  71.919  1.00  0.00    -0.330 A  
HETATM    8  C   UNL     1     -10.645   7.908  72.926  1.00  0.00    -0.434 A  
HETATM    9  C   UNL     1     -10.320   6.828  73.754  1.00  0.00    -0.397 A  
BRANCH   7  10
HETATM   10  C   UNL     1     -11.907   8.834  70.957  1.00  0.00    -0.315 C  
HETATM   11  C   UNL     1     -10.981   9.514  70.261  1.00  0.00    -0.317 C  
BRANCH  11  12
HETATM   12  C   UNL     1     -11.292  10.549  69.269  1.00  0.00    -0.325 A  
HETATM   13  C   UNL     1     -11.051  10.406  67.903  1.00  0.00    -0.299 A  
HETATM   14  N   UNL     1     -11.301  11.354  66.969  1.00  0.00    -0.435 NA 
HETATM   15  C   UNL     1     -11.783  12.530  67.417  1.00  0.00    -0.366 A  
HETATM   16  C   UNL     1     -11.792  11.783  69.685  1.00  0.00    -0.407 A  
HETATM   17  C   UNL     1     -12.035  12.795  68.754  1.00  0.00    -0.278 A  
BRANCH  15  18
HETATM   18  O   UNL     1     -12.020  13.559  66.531  1.00  0.00    -0.378 OA 
BRANCH  18  19
HETATM   19  C   UNL     1     -10.828  14.278  66.192  1.00  0.00    -0.310 C  
BRANCH  19  20
HETATM   20  C   UNL     1     -10.791  15.584  66.983  1.00  0.00    -0.314 C  
BRANCH  20  21
HETATM   21  O   UNL     1      -9.549  15.673  67.689  1.00  0.00    -0.218 OA 
BRANCH  21  22
HETATM   22  C   UNL     1      -9.743  15.691  69.101  1.00  0.00    -0.249 C  
BRANCH  22  23
HETATM   23  C   UNL     1     -11.114  16.282  69.407  1.00  0.00    -0.328 C  
BRANCH  23  24
HETATM   24  O   UNL     1     -11.232  16.497  70.813  1.00  0.00    -0.304 OA 
BRANCH  24  25
HETATM   25  C   UNL     1     -11.827  15.373  71.464  1.00  0.00    -0.387 C  
HETATM   26  C   UNL     1     -13.308  15.324  71.133  1.00  0.00    -0.498 C  
HETATM   27  F   UNL     1     -13.872  14.255  71.755  1.00  0.00    -0.397 F  
ENDBRANCH  24  25
ENDBRANCH  23  24
ENDBRANCH  22  23
ENDBRANCH  21  22
ENDBRANCH  20  21
ENDBRANCH  19  20
ENDBRANCH  18  19
ENDBRANCH  15  18
ENDBRANCH  11  12
ENDBRANCH   7  10
ENDBRANCH   1   4
TORSDOF 11
ENDMDL
MODEL       32
REMARK 921   NORMALIZED FREE ENERGY PREDICTED BY IDOCK:   -5.28 KCAL/MOL
REMARK 922        TOTAL FREE ENERGY PREDICTED BY IDOCK:   -9.53 KCAL/MOL
REMARK 923 INTER-LIGAND FREE ENERGY PREDICTED BY IDOCK:   -8.63 KCAL/MOL
REMARK 924 INTRA-LIGAND FREE ENERGY PREDICTED BY IDOCK:   -0.90 KCAL/MOL
REMARK 927      BINDING AFFINITY PREDICTED BY RF-SCORE:    0.00 PKD
ROOT
HETATM    1  N   UNL     1     -13.430  15.187  73.330  1.00  0.00    -0.606 NA 
HETATM    2  H   UNL     1     -14.427  15.193  73.546  1.00  0.00     0.000 HD 
HETATM    3  C   UNL     1     -12.464  15.729  74.272  1.00  0.00    -0.654 C  
ENDROOT
BRANCH   1   4
HETATM    4  C   UNL     1     -12.966  14.657  72.123  1.00  0.00    -0.342 A  
HETATM    5  C   UNL     1     -12.996  13.298  71.802  1.00  0.00    -0.430 A  
HETATM    6  C   UNL     1     -12.492  12.838  70.581  1.00  0.00    -0.328 A  
HETATM    7  C   UNL     1     -11.981  13.731  69.633  1.00  0.00    -0.399 A  
HETATM    8  C   UNL     1     -12.007  15.098  69.926  1.00  0.00    -0.372 A  
HETATM    9  C   UNL     1     -12.516  15.552  71.148  1.00  0.00    -0.491 A  
BRANCH   7  10
HETATM   10  C   UNL     1     -11.363  13.194  68.414  1.00  0.00    -0.324 C  
HETATM   11  C   UNL     1     -11.991  13.076  67.233  1.00  0.00    -0.379 C  
BRANCH  11  12
HETATM   12  C   UNL     1     -11.354  12.580  66.007  1.00  0.00    -0.386 A  
HETATM   13  C   UNL     1     -10.156  11.868  65.994  1.00  0.00    -0.231 A  
HETATM   14  N   UNL     1      -9.531  11.423  64.878  1.00  0.00    -0.206 NA 
HETATM   15  C   UNL     1     -10.106  11.736  63.700  1.00  0.00    -0.418 A  
HETATM   16  C   UNL     1     -11.913  12.878  64.764  1.00  0.00    -0.445 A  
HETATM   17  C   UNL     1     -11.281  12.462  63.590  1.00  0.00    -0.544 A  
BRANCH  15  18
HETATM   18  O   UNL     1      -9.505  11.356  62.519  1.00  0.00    -0.287 OA 
BRANCH  18  19
HETATM   19  C   UNL     1      -9.039  10.001  62.549  1.00  0.00    -0.292 C  
BRANCH  19  20
HETATM   20  C   UNL     1      -7.512   9.999  62.544  1.00  0.00    -0.124 C  
BRANCH  20  21
HETATM   21  O   UNL     1      -7.038   9.207  63.637  1.00  0.00    -0.092 OA 
BRANCH  21  22
HETATM   22  C   UNL     1      -7.988   8.219  64.027  1.00  0.00    -0.147 C  
BRANCH  22  23
HETATM   23  C   UNL     1      -8.048   8.159  65.549  1.00  0.00    -0.130 C  
BRANCH  23  24
HETATM   24  O   UNL     1      -9.402   7.975  65.962  1.00  0.00    -0.171 OA 
BRANCH  24  25
HETATM   25  C   UNL     1      -9.484   7.148  67.124  1.00  0.00    -0.147 C  
HETATM   26  C   UNL     1     -10.896   6.606  67.258  1.00  0.00    -0.385 C  
HETATM   27  F   UNL     1     -10.972   5.822  68.365  1.00  0.00    -0.302 F  
ENDBRANCH  24  25
ENDBRANCH  23  24
ENDBRANCH  22  23
ENDBRANCH  21  22
ENDBRANCH  20  21
ENDBRANCH  19  20
ENDBRANCH  18  19
ENDBRANCH  15  18
ENDBRANCH  11  12
ENDBRANCH   7  10
ENDBRANCH   1   4
TORSDOF 11
ENDMDL
MODEL       33
REMARK 921   NORMALIZED FREE ENERGY PREDICTED BY IDOCK:   -5.26 KCAL/MOL
REMARK 922        TOTAL FREE ENERGY PREDICTED BY IDOCK:   -9.51 KCAL/MOL
REMARK 923 INTER-LIGAND FREE ENERGY PREDICTED BY IDOCK:   -8.08 KCAL/MOL
REMARK 924 INTRA-LIGAND FREE ENERGY PREDICTED BY IDOCK:   -1.43 KCAL/MOL
REMARK 927      BINDING AFFINITY PREDICTED BY RF-SCORE:    0.00 PKD
ROOT
HETATM    1  N   UNL     1     -11.371  16.497  64.304  1.00  0.00    -1.345 NA 
HETATM    2  H   UNL     1     -11.778  16.638  63.380  1.00  0.00     0.000 HD 
HETATM    3  C   UNL     1     -10.884  17.626  65.081  1.00  0.00     0.323 C  
ENDROOT
BRANCH   1   4
HETATM    4  C   UNL     1     -11.271  15.213  64.849  1.00  0.00    -0.417 A  
HETATM    5  C   UNL     1     -12.165  14.176  64.576  1.00  0.00    -0.468 A  
HETATM    6  C   UNL     1     -12.013  12.922  65.177  1.00  0.00    -0.452 A  
HETATM    7  C   UNL     1     -10.940  12.663  66.037  1.00  0.00    -0.313 A  
HETATM    8  C   UNL     1     -10.009  13.681  66.263  1.00  0.00    -0.305 A  
HETATM    9  C   UNL     1     -10.164  14.932  65.656  1.00  0.00    -0.382 A  
BRANCH   7  10
HETATM   10  C   UNL     1     -10.883  11.369  66.731  1.00  0.00    -0.336 C  
HETATM   11  C   UNL     1      -9.835  10.940  67.452  1.00  0.00    -0.199 C  
BRANCH  11  12
HETATM   12  C   UNL     1      -9.802   9.665  68.179  1.00  0.00    -0.172 A  
HETATM   13  C   UNL     1     -10.514   8.534  67.785  1.00  0.00    -0.223 A  
HETATM   14  N   UNL     1     -10.526   7.354  68.451  1.00  0.00    -0.197 NA 
HETATM   15  C   UNL     1      -9.822   7.304  69.598  1.00  0.00    -0.163 A  
HETATM   16  C   UNL     1      -9.087   9.565  69.372  1.00  0.00    -0.172 A  
HETATM   17  C   UNL     1      -9.100   8.373  70.102  1.00  0.00    -0.150 A  
BRANCH  15  18
HETATM   18  O   UNL     1      -9.822   6.151  70.355  1.00  0.00    -0.173 OA 
BRANCH  18  19
HETATM   19  C   UNL     1      -9.927   6.416  71.759  1.00  0.00    -0.177 C  
BRANCH  19  20
HETATM   20  C   UNL     1     -11.381   6.239  72.193  1.00  0.00    -0.297 C  
BRANCH  20  21
HETATM   21  O   UNL     1     -11.890   7.493  72.657  1.00  0.00    -0.266 OA 
BRANCH  21  22
HETATM   22  C   UNL     1     -12.599   8.188  71.635  1.00  0.00    -0.320 C  
BRANCH  22  23
HETATM   23  C   UNL     1     -13.648   9.086  72.279  1.00  0.00    -0.484 C  
BRANCH  23  24
HETATM   24  O   UNL     1     -13.188  10.437  72.262  1.00  0.00    -0.400 OA 
BRANCH  24  25
HETATM   25  C   UNL     1     -12.387  10.700  71.109  1.00  0.00    -0.400 C  
HETATM   26  C   UNL     1     -12.447  12.180  70.779  1.00  0.00    -0.271 C  
HETATM   27  F   UNL     1     -11.686  12.427  69.680  1.00  0.00    -0.320 F  
ENDBRANCH  24  25
ENDBRANCH  23  24
ENDBRANCH  22  23
ENDBRANCH  21  22
ENDBRANCH  20  21
ENDBRANCH  19  20
ENDBRANCH  18  19
ENDBRANCH  15  18
ENDBRANCH  11  12
ENDBRANCH   7  10
ENDBRANCH   1   4
TORSDOF 11
ENDMDL
MODEL       34
REMARK 921   NORMALIZED FREE ENERGY PREDICTED BY IDOCK:   -5.24 KCAL/MOL
REMARK 922        TOTAL FREE ENERGY PREDICTED BY IDOCK:   -9.47 KCAL/MOL
REMARK 923 INTER-LIGAND FREE ENERGY PREDICTED BY IDOCK:   -7.94 KCAL/MOL
REMARK 924 INTRA-LIGAND FREE ENERGY PREDICTED BY IDOCK:   -1.53 KCAL/MOL
REMARK 927      BINDING AFFINITY PREDICTED BY RF-SCORE:    0.00 PKD
ROOT
HETATM    1  N   UNL     1     -12.658  15.414  70.036  1.00  0.00    -0.607 NA 
HETATM    2  H   UNL     1     -13.430  16.045  70.252  1.00  0.00     0.000 HD 
HETATM    3  C   UNL     1     -11.521  15.874  69.254  1.00  0.00    -0.374 C  
ENDROOT
BRANCH   1   4
HETATM    4  C   UNL     1     -12.674  14.091  70.485  1.00  0.00    -0.280 A  
HETATM    5  C   UNL     1     -13.329  13.666  71.643  1.00  0.00    -0.424 A  
HETATM    6  C   UNL     1     -13.281  12.326  72.043  1.00  0.00    -0.508 A  
HETATM    7  C   UNL     1     -12.608  11.371  71.273  1.00  0.00    -0.480 A  
HETATM    8  C   UNL     1     -12.005  11.783  70.081  1.00  0.00    -0.421 A  
HETATM    9  C   UNL     1     -12.059  13.123  69.684  1.00  0.00    -0.317 A  
BRANCH   7  10
HETATM   10  C   UNL     1     -12.491  10.000  71.788  1.00  0.00    -0.475 C  
HETATM   11  C   UNL     1     -11.378   9.252  71.709  1.00  0.00    -0.437 C  
BRANCH  11  12
HETATM   12  C   UNL     1     -11.255   7.899  72.265  1.00  0.00    -0.389 A  
HETATM   13  C   UNL     1     -12.097   6.843  71.922  1.00  0.00    -0.333 A  
HETATM   14  N   UNL     1     -12.025   5.594  72.440  1.00  0.00    -0.159 NA 
HETATM   15  C   UNL     1     -11.087   5.387  73.384  1.00  0.00    -0.271 A  
HETATM   16  C   UNL     1     -10.298   7.637  73.246  1.00  0.00    -0.405 A  
HETATM   17  C   UNL     1     -10.213   6.368  73.825  1.00  0.00    -0.306 A  
BRANCH  15  18
HETATM   18  O   UNL     1     -10.982   4.153  73.991  1.00  0.00    -0.233 OA 
BRANCH  18  19
HETATM   19  C   UNL     1     -10.961   3.076  73.045  1.00  0.00    -0.035 C  
BRANCH  19  20
HETATM   20  C   UNL     1      -9.559   2.961  72.451  1.00  0.00    -0.127 C  
BRANCH  20  21
HETATM   21  O   UNL     1      -9.592   3.379  71.082  1.00  0.00    -0.148 OA 
BRANCH  21  22
HETATM   22  C   UNL     1      -8.564   4.321  70.791  1.00  0.00    -0.083 C  
BRANCH  22  23
HETATM   23  C   UNL     1      -9.169   5.504  70.044  1.00  0.00    -0.140 C  
BRANCH  23  24
HETATM   24  O   UNL     1     -10.371   5.087  69.396  1.00  0.00    -0.226 OA 
BRANCH  24  25
HETATM   25  C   UNL     1     -10.980   6.166  68.686  1.00  0.00    -0.336 C  
HETATM   26  C   UNL     1     -10.085   7.390  68.762  1.00  0.00    -0.179 C  
HETATM   27  F   UNL     1     -10.668   8.416  68.088  1.00  0.00    -0.248 F  
ENDBRANCH  24  25
ENDBRANCH  23  24
ENDBRANCH  22  23
ENDBRANCH  21  22
ENDBRANCH  20  21
ENDBRANCH  19  20
ENDBRANCH  18  19
ENDBRANCH  15  18
ENDBRANCH  11  12
ENDBRANCH   7  10
ENDBRANCH   1   4
TORSDOF 11
ENDMDL
MODEL       35
REMARK 921   NORMALIZED FREE ENERGY PREDICTED BY IDOCK:   -5.21 KCAL/MOL
REMARK 922        TOTAL FREE ENERGY PREDICTED BY IDOCK:   -9.43 KCAL/MOL
REMARK 923 INTER-LIGAND FREE ENERGY PREDICTED BY IDOCK:   -8.71 KCAL/MOL
REMARK 924 INTRA-LIGAND FREE ENERGY PREDICTED BY IDOCK:   -0.71 KCAL/MOL
REMARK 927      BINDING AFFINITY PREDICTED BY RF-SCORE:    0.00 PKD
ROOT
HETATM    1  N   UNL     1     -10.204   2.781  73.656  1.00  0.00    -0.109 NA 
HETATM    2  H   UNL     1      -9.396   2.794  74.278  1.00  0.00     0.000 HD 
HETATM    3  C   UNL     1     -11.109   1.643  73.640  1.00  0.00    -0.162 C  
ENDROOT
BRANCH   1   4
HETATM    4  C   UNL     1     -10.461   3.856  72.802  1.00  0.00    -0.153 A  
HETATM    5  C   UNL     1      -9.891   4.004  71.535  1.00  0.00    -0.251 A  
HETATM    6  C   UNL     1     -10.179   5.121  70.744  1.00  0.00    -0.308 A  
HETATM    7  C   UNL     1     -11.076   6.100  71.185  1.00  0.00    -0.360 A  
HETATM    8  C   UNL     1     -11.695   5.924  72.426  1.00  0.00    -0.307 A  
HETATM    9  C   UNL     1     -11.406   4.802  73.211  1.00  0.00    -0.408 A  
BRANCH   7  10
HETATM   10  C   UNL     1     -11.263   7.309  70.371  1.00  0.00    -0.302 C  
HETATM   11  C   UNL     1     -11.232   8.562  70.853  1.00  0.00    -0.304 C  
BRANCH  11  12
HETATM   12  C   UNL     1     -11.376   9.766  70.026  1.00  0.00    -0.269 A  
HETATM   13  C   UNL     1     -11.932  10.957  70.487  1.00  0.00    -0.371 A  
HETATM   14  N   UNL     1     -12.103  12.074  69.740  1.00  0.00    -0.278 NA 
HETATM   15  C   UNL     1     -11.738  11.993  68.445  1.00  0.00    -0.332 A  
HETATM   16  C   UNL     1     -11.012   9.730  68.680  1.00  0.00    -0.189 A  
HETATM   17  C   UNL     1     -11.201  10.853  67.870  1.00  0.00    -0.387 A  
BRANCH  15  18
HETATM   18  O   UNL     1     -11.923  13.074  67.610  1.00  0.00    -0.353 OA 
BRANCH  18  19
HETATM   19  C   UNL     1     -11.715  12.745  66.230  1.00  0.00    -0.402 C  
BRANCH  19  20
HETATM   20  C   UNL     1     -12.677  13.563  65.372  1.00  0.00    -0.442 C  
BRANCH  20  21
HETATM   21  O   UNL     1     -12.122  14.864  65.152  1.00  0.00    -0.279 OA 
BRANCH  21  22
HETATM   22  C   UNL     1     -10.735  14.801  64.829  1.00  0.00    -0.358 C  
BRANCH  22  23
HETATM   23  C   UNL     1      -9.991  15.870  65.620  1.00  0.00    -0.334 C  
BRANCH  23  24
HETATM   24  O   UNL     1     -10.549  17.150  65.324  1.00  0.00    -0.662 OA 
BRANCH  24  25
HETATM   25  C   UNL     1     -10.408  18.047  66.427  1.00  0.00    -0.379 C  
HETATM   26  C   UNL     1     -10.548  19.476  65.936  1.00  0.00    -0.476 C  
HETATM   27  F   UNL     1     -10.411  20.328  66.987  1.00  0.00    -0.539 F  
ENDBRANCH  24  25
ENDBRANCH  23  24
ENDBRANCH  22  23
ENDBRANCH  21  22
ENDBRANCH  20  21
ENDBRANCH  19  20
ENDBRANCH  18  19
ENDBRANCH  15  18
ENDBRANCH  11  12
ENDBRANCH   7  10
ENDBRANCH   1   4
TORSDOF 11
ENDMDL
MODEL       36
REMARK 921   NORMALIZED FREE ENERGY PREDICTED BY IDOCK:   -5.21 KCAL/MOL
REMARK 922        TOTAL FREE ENERGY PREDICTED BY IDOCK:   -9.43 KCAL/MOL
REMARK 923 INTER-LIGAND FREE ENERGY PREDICTED BY IDOCK:   -8.66 KCAL/MOL
REMARK 924 INTRA-LIGAND FREE ENERGY PREDICTED BY IDOCK:   -0.77 KCAL/MOL
REMARK 927      BINDING AFFINITY PREDICTED BY RF-SCORE:    0.00 PKD
ROOT
HETATM    1  N   UNL     1     -11.305   4.546  73.371  1.00  0.00    -0.318 NA 
HETATM    2  H   UNL     1     -11.927   4.256  74.125  1.00  0.00     0.000 HD 
HETATM    3  C   UNL     1     -10.326   3.620  72.821  1.00  0.00    -0.161 C  
ENDROOT
BRANCH   1   4
HETATM    4  C   UNL     1     -11.375   5.839  72.846  1.00  0.00    -0.252 A  
HETATM    5  C   UNL     1     -12.274   6.232  71.852  1.00  0.00    -0.256 A  
HETATM    6  C   UNL     1     -12.270   7.541  71.359  1.00  0.00    -0.363 A  
HETATM    7  C   UNL     1     -11.393   8.500  71.876  1.00  0.00    -0.399 A  
HETATM    8  C   UNL     1     -10.535   8.126  72.914  1.00  0.00    -0.338 A  
HETATM    9  C   UNL     1     -10.546   6.816  73.406  1.00  0.00    -0.351 A  
BRANCH   7  10
HETATM   10  C   UNL     1     -11.349   9.830  71.253  1.00  0.00    -0.445 C  
HETATM   11  C   UNL     1     -11.899  10.130  70.064  1.00  0.00    -0.253 C  
BRANCH  11  12
HETATM   12  C   UNL     1     -11.889  11.471  69.468  1.00  0.00    -0.419 A  
HETATM   13  C   UNL     1     -11.673  11.712  68.113  1.00  0.00    -0.295 A  
HETATM   14  N   UNL     1     -11.630  12.939  67.540  1.00  0.00    -0.335 NA 
HETATM   15  C   UNL     1     -11.771  13.994  68.366  1.00  0.00    -0.354 A  
HETATM   16  C   UNL     1     -12.031  12.594  70.284  1.00  0.00    -0.363 A  
HETATM   17  C   UNL     1     -11.963  13.877  69.734  1.00  0.00    -0.398 A  
BRANCH  15  18
HETATM   18  O   UNL     1     -11.694  15.275  67.864  1.00  0.00    -0.328 OA 
BRANCH  18  19
HETATM   19  C   UNL     1     -11.047  16.181  68.767  1.00  0.00    -0.354 C  
BRANCH  19  20
HETATM   20  C   UNL     1     -10.698  17.466  68.019  1.00  0.00    -0.359 C  
BRANCH  20  21
HETATM   21  O   UNL     1     -10.141  18.411  68.938  1.00  0.00    -0.388 OA 
BRANCH  21  22
HETATM   22  C   UNL     1     -10.011  19.705  68.356  1.00  0.00    -0.439 C  
BRANCH  22  23
HETATM   23  C   UNL     1     -10.325  19.614  66.867  1.00  0.00    -0.465 C  
BRANCH  23  24
HETATM   24  O   UNL     1      -9.313  20.298  66.129  1.00  0.00    -0.310 OA 
BRANCH  24  25
HETATM   25  C   UNL     1      -8.052  19.635  66.237  1.00  0.00    -0.334 C  
HETATM   26  C   UNL     1      -6.953  20.667  66.417  1.00  0.00    -0.212 C  
HETATM   27  F   UNL     1      -5.755  20.034  66.517  1.00  0.00    -0.171 F  
ENDBRANCH  24  25
ENDBRANCH  23  24
ENDBRANCH  22  23
ENDBRANCH  21  22
ENDBRANCH  20  21
ENDBRANCH  19  20
ENDBRANCH  18  19
ENDBRANCH  15  18
ENDBRANCH  11  12
ENDBRANCH   7  10
ENDBRANCH   1   4
TORSDOF 11
ENDMDL
MODEL       37
REMARK 921   NORMALIZED FREE ENERGY PREDICTED BY IDOCK:   -5.21 KCAL/MOL
REMARK 922        TOTAL FREE ENERGY PREDICTED BY IDOCK:   -9.43 KCAL/MOL
REMARK 923 INTER-LIGAND FREE ENERGY PREDICTED BY IDOCK:   -8.43 KCAL/MOL
REMARK 924 INTRA-LIGAND FREE ENERGY PREDICTED BY IDOCK:   -1.00 KCAL/MOL
REMARK 927      BINDING AFFINITY PREDICTED BY RF-SCORE:    0.00 PKD
ROOT
HETATM    1  N   UNL     1      -7.717   6.354  64.625  1.00  0.00    -0.100 NA 
HETATM    2  H   UNL     1      -6.740   6.596  64.462  1.00  0.00     0.000 HD 
HETATM    3  C   UNL     1      -8.286   5.141  64.058  1.00  0.00    -0.131 C  
ENDROOT
BRANCH   1   4
HETATM    4  C   UNL     1      -8.536   7.182  65.399  1.00  0.00    -0.082 A  
HETATM    5  C   UNL     1      -8.672   8.557  65.196  1.00  0.00    -0.156 A  
HETATM    6  C   UNL     1      -9.494   9.326  66.027  1.00  0.00    -0.311 A  
HETATM    7  C   UNL     1     -10.230   8.731  67.058  1.00  0.00    -0.351 A  
HETATM    8  C   UNL     1     -10.143   7.346  67.223  1.00  0.00    -0.296 A  
HETATM    9  C   UNL     1      -9.322   6.582  66.387  1.00  0.00    -0.175 A  
BRANCH   7  10
HETATM   10  C   UNL     1     -10.993   9.593  67.973  1.00  0.00    -0.197 C  
HETATM   11  C   UNL     1     -11.033   9.436  69.306  1.00  0.00    -0.137 C  
BRANCH  11  12
HETATM   12  C   UNL     1     -11.761  10.326  70.217  1.00  0.00    -0.388 A  
HETATM   13  C   UNL     1     -12.440   9.883  71.351  1.00  0.00    -0.398 A  
HETATM   14  N   UNL     1     -13.143  10.677  72.194  1.00  0.00    -0.403 NA 
HETATM   15  C   UNL     1     -13.211  11.984  71.873  1.00  0.00    -0.364 A  
HETATM   16  C   UNL     1     -11.860  11.687  69.926  1.00  0.00    -0.434 A  
HETATM   17  C   UNL     1     -12.601  12.532  70.756  1.00  0.00    -0.299 A  
BRANCH  15  18
HETATM   18  O   UNL     1     -13.946  12.847  72.657  1.00  0.00    -0.589 OA 
BRANCH  18  19
HETATM   19  C   UNL     1     -13.792  14.216  72.261  1.00  0.00    -0.544 C  
BRANCH  19  20
HETATM   20  C   UNL     1     -12.876  14.923  73.257  1.00  0.00    -0.530 C  
BRANCH  20  21
HETATM   21  O   UNL     1     -11.605  15.159  72.643  1.00  0.00    -0.412 OA 
BRANCH  21  22
HETATM   22  C   UNL     1     -11.671  16.203  71.674  1.00  0.00    -0.484 C  
BRANCH  22  23
HETATM   23  C   UNL     1     -10.873  15.790  70.443  1.00  0.00    -0.329 C  
BRANCH  23  24
HETATM   24  O   UNL     1     -10.890  16.854  69.491  1.00  0.00    -0.303 OA 
BRANCH  24  25
HETATM   25  C   UNL     1     -10.852  16.356  68.153  1.00  0.00    -0.346 C  
HETATM   26  C   UNL     1     -11.590  15.031  68.086  1.00  0.00    -0.340 C  
HETATM   27  F   UNL     1     -11.551  14.558  66.813  1.00  0.00    -0.331 F  
ENDBRANCH  24  25
ENDBRANCH  23  24
ENDBRANCH  22  23
ENDBRANCH  21  22
ENDBRANCH  20  21
ENDBRANCH  19  20
ENDBRANCH  18  19
ENDBRANCH  15  18
ENDBRANCH  11  12
ENDBRANCH   7  10
ENDBRANCH   1   4
TORSDOF 11
ENDMDL
MODEL       38
REMARK 921   NORMALIZED FREE ENERGY PREDICTED BY IDOCK:   -5.20 KCAL/MOL
REMARK 922        TOTAL FREE ENERGY PREDICTED BY IDOCK:   -9.40 KCAL/MOL
REMARK 923 INTER-LIGAND FREE ENERGY PREDICTED BY IDOCK:   -8.20 KCAL/MOL
REMARK 924 INTRA-LIGAND FREE ENERGY PREDICTED BY IDOCK:   -1.20 KCAL/MOL
REMARK 927      BINDING AFFINITY PREDICTED BY RF-SCORE:    0.00 PKD
ROOT
HETATM    1  N   UNL     1     -10.863  19.652  67.178  1.00  0.00    -0.465 NA 
HETATM    2  H   UNL     1     -11.797  20.027  67.015  1.00  0.00     0.000 HD 
HETATM    3  C   UNL     1      -9.728  20.544  67.360  1.00  0.00    -0.446 C  
ENDROOT
BRANCH   1   4
HETATM    4  C   UNL     1     -10.648  18.272  67.230  1.00  0.00    -0.381 A  
HETATM    5  C   UNL     1     -10.375  17.481  66.112  1.00  0.00    -0.330 A  
HETATM    6  C   UNL     1     -10.193  16.099  66.239  1.00  0.00    -0.333 A  
HETATM    7  C   UNL     1     -10.242  15.481  67.493  1.00  0.00    -0.254 A  
HETATM    8  C   UNL     1     -10.453  16.281  68.620  1.00  0.00    -0.282 A  
HETATM    9  C   UNL     1     -10.630  17.662  68.487  1.00  0.00    -0.281 A  
BRANCH   7  10
HETATM   10  C   UNL     1     -10.155  14.016  67.565  1.00  0.00    -0.237 C  
HETATM   11  C   UNL     1     -10.556  13.183  66.591  1.00  0.00    -0.284 C  
BRANCH  11  12
HETATM   12  C   UNL     1     -10.425  11.723  66.651  1.00  0.00    -0.259 A  
HETATM   13  C   UNL     1      -9.943  10.946  65.600  1.00  0.00    -0.251 A  
HETATM   14  N   UNL     1      -9.839   9.596  65.617  1.00  0.00    -0.305 NA 
HETATM   15  C   UNL     1     -10.276   8.972  66.728  1.00  0.00    -0.271 A  
HETATM   16  C   UNL     1     -10.865  11.033  67.782  1.00  0.00    -0.297 A  
HETATM   17  C   UNL     1     -10.801   9.638  67.825  1.00  0.00    -0.278 A  
BRANCH  15  18
HETATM   18  O   UNL     1     -10.244   7.596  66.803  1.00  0.00    -0.267 OA 
BRANCH  18  19
HETATM   19  C   UNL     1      -9.740   7.125  68.059  1.00  0.00    -0.138 C  
BRANCH  19  20
HETATM   20  C   UNL     1     -10.597   5.953  68.532  1.00  0.00    -0.252 C  
BRANCH  20  21
HETATM   21  O   UNL     1     -11.712   6.454  69.276  1.00  0.00    -0.277 OA 
BRANCH  21  22
HETATM   22  C   UNL     1     -11.300   7.102  70.476  1.00  0.00    -0.297 C  
BRANCH  22  23
HETATM   23  C   UNL     1     -12.516   7.316  71.369  1.00  0.00    -0.383 C  
BRANCH  23  24
HETATM   24  O   UNL     1     -12.268   8.412  72.251  1.00  0.00    -0.351 OA 
BRANCH  24  25
HETATM   25  C   UNL     1     -11.684   9.516  71.557  1.00  0.00    -0.402 C  
HETATM   26  C   UNL     1     -12.672  10.668  71.521  1.00  0.00    -0.444 C  
HETATM   27  F   UNL     1     -12.116  11.716  70.859  1.00  0.00    -0.436 F  
ENDBRANCH  24  25
ENDBRANCH  23  24
ENDBRANCH  22  23
ENDBRANCH  21  22
ENDBRANCH  20  21
ENDBRANCH  19  20
ENDBRANCH  18  19
ENDBRANCH  15  18
ENDBRANCH  11  12
ENDBRANCH   7  10
ENDBRANCH   1   4
TORSDOF 11
ENDMDL
MODEL       39
REMARK 921   NORMALIZED FREE ENERGY PREDICTED BY IDOCK:   -5.17 KCAL/MOL
REMARK 922        TOTAL FREE ENERGY PREDICTED BY IDOCK:   -9.36 KCAL/MOL
REMARK 923 INTER-LIGAND FREE ENERGY PREDICTED BY IDOCK:   -7.90 KCAL/MOL
REMARK 924 INTRA-LIGAND FREE ENERGY PREDICTED BY IDOCK:   -1.46 KCAL/MOL
REMARK 927      BINDING AFFINITY PREDICTED BY RF-SCORE:    0.00 PKD
ROOT
HETATM    1  N   UNL     1     -13.489  15.463  71.949  1.00  0.00    -0.438 NA 
HETATM    2  H   UNL     1     -13.926  16.069  71.255  1.00  0.00     0.000 HD 
HETATM    3  C   UNL     1     -13.171  15.967  73.276  1.00  0.00    -0.595 C  
ENDROOT
BRANCH   1   4
HETATM    4  C   UNL     1     -13.184  14.134  71.644  1.00  0.00    -0.353 A  
HETATM    5  C   UNL     1     -13.721  13.034  72.317  1.00  0.00    -0.608 A  
HETATM    6  C   UNL     1     -13.350  11.730  71.970  1.00  0.00    -0.417 A  
HETATM    7  C   UNL     1     -12.462  11.494  70.915  1.00  0.00    -0.464 A  
HETATM    8  C   UNL     1     -11.972  12.590  70.200  1.00  0.00    -0.377 A  
HETATM    9  C   UNL     1     -12.349  13.891  70.549  1.00  0.00    -0.439 A  
BRANCH   7  10
HETATM   10  C   UNL     1     -12.017  10.117  70.658  1.00  0.00    -0.423 C  
HETATM   11  C   UNL     1     -11.172   9.433  71.446  1.00  0.00    -0.452 C  
BRANCH  11  12
HETATM   12  C   UNL     1     -10.767   8.043  71.208  1.00  0.00    -0.265 A  
HETATM   13  C   UNL     1      -9.492   7.552  71.484  1.00  0.00    -0.150 A  
HETATM   14  N   UNL     1      -9.082   6.283  71.248  1.00  0.00    -0.146 NA 
HETATM   15  C   UNL     1      -9.975   5.460  70.666  1.00  0.00    -0.214 A  
HETATM   16  C   UNL     1     -11.658   7.153  70.607  1.00  0.00    -0.354 A  
HETATM   17  C   UNL     1     -11.261   5.845  70.321  1.00  0.00    -0.317 A  
BRANCH  15  18
HETATM   18  O   UNL     1      -9.617   4.166  70.353  1.00  0.00    -0.164 OA 
BRANCH  18  19
HETATM   19  C   UNL     1      -8.734   4.098  69.226  1.00  0.00    -0.085 C  
BRANCH  19  20
HETATM   20  C   UNL     1      -9.333   3.160  68.180  1.00  0.00    -0.191 C  
BRANCH  20  21
HETATM   21  O   UNL     1      -9.296   3.797  66.899  1.00  0.00    -0.168 OA 
BRANCH  21  22
HETATM   22  C   UNL     1     -10.246   4.855  66.806  1.00  0.00    -0.235 C  
BRANCH  22  23
HETATM   23  C   UNL     1      -9.554   6.099  66.261  1.00  0.00    -0.085 C  
BRANCH  23  24
HETATM   24  O   UNL     1      -9.575   7.124  67.255  1.00  0.00    -0.132 OA 
BRANCH  24  25
HETATM   25  C   UNL     1     -10.584   8.097  66.978  1.00  0.00    -0.275 C  
HETATM   26  C   UNL     1     -10.146   9.446  67.517  1.00  0.00    -0.215 C  
HETATM   27  F   UNL     1     -11.108  10.369  67.255  1.00  0.00    -0.333 F  
ENDBRANCH  24  25
ENDBRANCH  23  24
ENDBRANCH  22  23
ENDBRANCH  21  22
ENDBRANCH  20  21
ENDBRANCH  19  20
ENDBRANCH  18  19
ENDBRANCH  15  18
ENDBRANCH  11  12
ENDBRANCH   7  10
ENDBRANCH   1   4
TORSDOF 11
ENDMDL
MODEL       40
REMARK 921   NORMALIZED FREE ENERGY PREDICTED BY IDOCK:   -5.17 KCAL/MOL
REMARK 922        TOTAL FREE ENERGY PREDICTED BY IDOCK:   -9.35 KCAL/MOL
REMARK 923 INTER-LIGAND FREE ENERGY PREDICTED BY IDOCK:   -8.57 KCAL/MOL
REMARK 924 INTRA-LIGAND FREE ENERGY PREDICTED BY IDOCK:   -0.78 KCAL/MOL
REMARK 927      BINDING AFFINITY PREDICTED BY RF-SCORE:    0.00 PKD
ROOT
HETATM    1  N   UNL     1      -9.101   2.823  68.037  1.00  0.00    -0.162 NA 
HETATM    2  H   UNL     1      -8.766   2.047  68.608  1.00  0.00     0.000 HD 
HETATM    3  C   UNL     1      -9.040   2.756  66.585  1.00  0.00    -0.136 C  
ENDROOT
BRANCH   1   4
HETATM    4  C   UNL     1      -9.627   3.971  68.635  1.00  0.00    -0.120 A  
HETATM    5  C   UNL     1      -9.646   4.197  70.013  1.00  0.00    -0.274 A  
HETATM    6  C   UNL     1     -10.211   5.363  70.541  1.00  0.00    -0.326 A  
HETATM    7  C   UNL     1     -10.737   6.350  69.701  1.00  0.00    -0.339 A  
HETATM    8  C   UNL     1     -10.662   6.155  68.318  1.00  0.00    -0.361 A  
HETATM    9  C   UNL     1     -10.093   4.989  67.796  1.00  0.00    -0.179 A  
BRANCH   7  10
HETATM   10  C   UNL     1     -11.418   7.504  70.302  1.00  0.00    -0.173 C  
HETATM   11  C   UNL     1     -11.051   8.783  70.118  1.00  0.00    -0.214 C  
BRANCH  11  12
HETATM   12  C   UNL     1     -11.763   9.934  70.687  1.00  0.00    -0.404 A  
HETATM   13  C   UNL     1     -12.698   9.832  71.715  1.00  0.00    -0.426 A  
HETATM   14  N   UNL     1     -13.391  10.871  72.239  1.00  0.00    -0.237 NA 
HETATM   15  C   UNL     1     -13.174  12.080  71.685  1.00  0.00    -0.260 A  
HETATM   16  C   UNL     1     -11.572  11.205  70.145  1.00  0.00    -0.410 A  
HETATM   17  C   UNL     1     -12.290  12.297  70.640  1.00  0.00    -0.375 A  
BRANCH  15  18
HETATM   18  O   UNL     1     -13.875  13.178  72.134  1.00  0.00    -0.486 OA 
BRANCH  18  19
HETATM   19  C   UNL     1     -13.027  14.160  72.744  1.00  0.00    -0.422 C  
BRANCH  19  20
HETATM   20  C   UNL     1     -13.431  15.546  72.245  1.00  0.00    -0.499 C  
BRANCH  20  21
HETATM   21  O   UNL     1     -13.011  15.698  70.885  1.00  0.00    -0.482 OA 
BRANCH  21  22
HETATM   22  C   UNL     1     -11.613  15.957  70.788  1.00  0.00    -0.410 C  
BRANCH  22  23
HETATM   23  C   UNL     1     -11.230  16.073  69.318  1.00  0.00    -0.346 C  
BRANCH  23  24
HETATM   24  O   UNL     1      -9.944  16.685  69.212  1.00  0.00    -0.259 OA 
BRANCH  24  25
HETATM   25  C   UNL     1     -10.054  18.084  68.940  1.00  0.00    -0.344 C  
HETATM   26  C   UNL     1     -10.615  18.283  67.544  1.00  0.00    -0.409 C  
HETATM   27  F   UNL     1     -10.717  19.614  67.286  1.00  0.00    -0.518 F  
ENDBRANCH  24  25
ENDBRANCH  23  24
ENDBRANCH  22  23
ENDBRANCH  21  22
ENDBRANCH  20  21
ENDBRANCH  19  20
ENDBRANCH  18  19
ENDBRANCH  15  18
ENDBRANCH  11  12
ENDBRANCH   7  10
ENDBRANCH   1   4
TORSDOF 11
ENDMDL
MODEL       41
REMARK 921   NORMALIZED FREE ENERGY PREDICTED BY IDOCK:   -5.14 KCAL/MOL
REMARK 922        TOTAL FREE ENERGY PREDICTED BY IDOCK:   -9.31 KCAL/MOL
REMARK 923 INTER-LIGAND FREE ENERGY PREDICTED BY IDOCK:   -8.64 KCAL/MOL
REMARK 924 INTRA-LIGAND FREE ENERGY PREDICTED BY IDOCK:   -0.67 KCAL/MOL
REMARK 927      BINDING AFFINITY PREDICTED BY RF-SCORE:    0.00 PKD
ROOT
HETATM    1  N   UNL     1      -8.984   1.996  68.541  1.00  0.00    -0.107 NA 
HETATM    2  H   UNL     1      -9.668   1.302  68.841  1.00  0.00     0.000 HD 
HETATM    3  C   UNL     1      -7.581   1.639  68.394  1.00  0.00    -0.046 C  
ENDROOT
BRANCH   1   4
HETATM    4  C   UNL     1      -9.376   3.308  68.262  1.00  0.00    -0.184 A  
HETATM    5  C   UNL     1      -9.657   4.265  69.240  1.00  0.00    -0.261 A  
HETATM    6  C   UNL     1     -10.067   5.554  68.885  1.00  0.00    -0.266 A  
HETATM    7  C   UNL     1     -10.168   5.931  67.541  1.00  0.00    -0.232 A  
HETATM    8  C   UNL     1      -9.827   4.994  66.561  1.00  0.00    -0.218 A  
HETATM    9  C   UNL     1      -9.414   3.707  66.923  1.00  0.00    -0.213 A  
BRANCH   7  10
HETATM   10  C   UNL     1     -10.707   7.258  67.216  1.00  0.00    -0.391 C  
HETATM   11  C   UNL     1     -10.001   8.399  67.272  1.00  0.00    -0.291 C  
BRANCH  11  12
HETATM   12  C   UNL     1     -10.534   9.716  66.903  1.00  0.00    -0.282 A  
HETATM   13  C   UNL     1     -11.395  10.455  67.712  1.00  0.00    -0.128 A  
HETATM   14  N   UNL     1     -11.924  11.658  67.384  1.00  0.00    -0.612 NA 
HETATM   15  C   UNL     1     -11.614  12.141  66.166  1.00  0.00    -0.354 A  
HETATM   16  C   UNL     1     -10.241  10.257  65.650  1.00  0.00    -0.301 A  
HETATM   17  C   UNL     1     -10.792  11.482  65.266  1.00  0.00    -0.319 A  
BRANCH  15  18
HETATM   18  O   UNL     1     -12.151  13.339  65.743  1.00  0.00    -0.393 OA 
BRANCH  18  19
HETATM   19  C   UNL     1     -11.454  13.886  64.616  1.00  0.00    -0.377 C  
BRANCH  19  20
HETATM   20  C   UNL     1     -12.119  15.200  64.210  1.00  0.00    -0.261 C  
BRANCH  20  21
HETATM   21  O   UNL     1     -11.172  16.265  64.336  1.00  0.00    -0.716 OA 
BRANCH  21  22
HETATM   22  C   UNL     1     -10.293  16.066  65.440  1.00  0.00    -0.359 C  
BRANCH  22  23
HETATM   23  C   UNL     1     -10.321  17.303  66.329  1.00  0.00    -0.322 C  
BRANCH  23  24
HETATM   24  O   UNL     1     -10.720  18.433  65.552  1.00  0.00    -0.588 OA 
BRANCH  24  25
HETATM   25  C   UNL     1     -10.656  19.639  66.316  1.00  0.00    -0.482 C  
HETATM   26  C   UNL     1     -10.506  19.296  67.787  1.00  0.00    -0.435 C  
HETATM   27  F   UNL     1     -10.448  20.444  68.512  1.00  0.00    -0.505 F  
ENDBRANCH  24  25
ENDBRANCH  23  24
ENDBRANCH  22  23
ENDBRANCH  21  22
ENDBRANCH  20  21
ENDBRANCH  19  20
ENDBRANCH  18  19
ENDBRANCH  15  18
ENDBRANCH  11  12
ENDBRANCH   7  10
ENDBRANCH   1   4
TORSDOF 11
ENDMDL
MODEL       42
REMARK 921   NORMALIZED FREE ENERGY PREDICTED BY IDOCK:   -5.13 KCAL/MOL
REMARK 922        TOTAL FREE ENERGY PREDICTED BY IDOCK:   -9.29 KCAL/MOL
REMARK 923 INTER-LIGAND FREE ENERGY PREDICTED BY IDOCK:   -8.47 KCAL/MOL
REMARK 924 INTRA-LIGAND FREE ENERGY PREDICTED BY IDOCK:   -0.82 KCAL/MOL
REMARK 927      BINDING AFFINITY PREDICTED BY RF-SCORE:    0.00 PKD
ROOT
HETATM    1  N   UNL     1      -9.311   2.754  70.629  1.00  0.00    -0.138 NA 
HETATM    2  H   UNL     1      -9.258   2.081  71.394  1.00  0.00     0.000 HD 
HETATM    3  C   UNL     1      -8.784   2.423  69.314  1.00  0.00    -0.082 C  
ENDROOT
BRANCH   1   4
HETATM    4  C   UNL     1      -9.891   4.010  70.824  1.00  0.00    -0.163 A  
HETATM    5  C   UNL     1     -10.227   4.886  69.789  1.00  0.00    -0.284 A  
HETATM    6  C   UNL     1     -10.785   6.139  70.063  1.00  0.00    -0.370 A  
HETATM    7  C   UNL     1     -11.057   6.532  71.378  1.00  0.00    -0.315 A  
HETATM    8  C   UNL     1     -10.779   5.632  72.411  1.00  0.00    -0.286 A  
HETATM    9  C   UNL     1     -10.224   4.379  72.131  1.00  0.00    -0.247 A  
BRANCH   7  10
HETATM   10  C   UNL     1     -11.539   7.898  71.624  1.00  0.00    -0.311 C  
HETATM   11  C   UNL     1     -11.477   8.898  70.730  1.00  0.00    -0.319 C  
BRANCH  11  12
HETATM   12  C   UNL     1     -12.001  10.248  70.967  1.00  0.00    -0.483 A  
HETATM   13  C   UNL     1     -12.937  10.550  71.955  1.00  0.00    -0.447 A  
HETATM   14  N   UNL     1     -13.459  11.780  72.177  1.00  0.00    -0.349 NA 
HETATM   15  C   UNL     1     -13.061  12.763  71.346  1.00  0.00    -0.227 A  
HETATM   16  C   UNL     1     -11.618  11.298  70.132  1.00  0.00    -0.393 A  
HETATM   17  C   UNL     1     -12.158  12.574  70.312  1.00  0.00    -0.373 A  
BRANCH  15  18
HETATM   18  O   UNL     1     -13.583  14.032  71.482  1.00  0.00    -0.342 OA 
BRANCH  18  19
HETATM   19  C   UNL     1     -13.197  14.656  72.713  1.00  0.00    -0.497 C  
BRANCH  19  20
HETATM   20  C   UNL     1     -11.913  15.452  72.486  1.00  0.00    -0.447 C  
BRANCH  20  21
HETATM   21  O   UNL     1     -12.013  16.167  71.251  1.00  0.00    -0.427 OA 
BRANCH  21  22
HETATM   22  C   UNL     1     -10.932  15.863  70.373  1.00  0.00    -0.350 C  
BRANCH  22  23
HETATM   23  C   UNL     1     -11.424  15.941  68.933  1.00  0.00    -0.386 C  
BRANCH  23  24
HETATM   24  O   UNL     1     -10.607  15.107  68.110  1.00  0.00    -0.238 OA 
BRANCH  24  25
HETATM   25  C   UNL     1     -11.094  15.064  66.768  1.00  0.00    -0.326 C  
HETATM   26  C   UNL     1     -10.293  14.048  65.973  1.00  0.00    -0.306 C  
HETATM   27  F   UNL     1     -10.757  14.011  64.696  1.00  0.00    -0.364 F  
ENDBRANCH  24  25
ENDBRANCH  23  24
ENDBRANCH  22  23
ENDBRANCH  21  22
ENDBRANCH  20  21
ENDBRANCH  19  20
ENDBRANCH  18  19
ENDBRANCH  15  18
ENDBRANCH  11  12
ENDBRANCH   7  10
ENDBRANCH   1   4
TORSDOF 11
ENDMDL
MODEL       43
REMARK 921   NORMALIZED FREE ENERGY PREDICTED BY IDOCK:   -5.13 KCAL/MOL
REMARK 922        TOTAL FREE ENERGY PREDICTED BY IDOCK:   -9.29 KCAL/MOL
REMARK 923 INTER-LIGAND FREE ENERGY PREDICTED BY IDOCK:   -8.42 KCAL/MOL
REMARK 924 INTRA-LIGAND FREE ENERGY PREDICTED BY IDOCK:   -0.87 KCAL/MOL
REMARK 927      BINDING AFFINITY PREDICTED BY RF-SCORE:    0.00 PKD
ROOT
HETATM    1  N   UNL     1     -10.654   4.750  74.123  1.00  0.00    -0.284 NA 
HETATM    2  H   UNL     1     -10.622   5.088  75.085  1.00  0.00     0.000 HD 
HETATM    3  C   UNL     1     -10.692   3.324  73.840  1.00  0.00    -0.210 C  
ENDROOT
BRANCH   1   4
HETATM    4  C   UNL     1     -10.664   5.648  73.052  1.00  0.00    -0.255 A  
HETATM    5  C   UNL     1     -10.761   5.266  71.712  1.00  0.00    -0.240 A  
HETATM    6  C   UNL     1     -10.742   6.223  70.691  1.00  0.00    -0.321 A  
HETATM    7  C   UNL     1     -10.663   7.588  70.988  1.00  0.00    -0.243 A  
HETATM    8  C   UNL     1     -10.628   7.975  72.330  1.00  0.00    -0.373 A  
HETATM    9  C   UNL     1     -10.652   7.015  73.347  1.00  0.00    -0.399 A  
BRANCH   7  10
HETATM   10  C   UNL     1     -10.534   8.547  69.882  1.00  0.00    -0.219 C  
HETATM   11  C   UNL     1     -10.525   8.210  68.582  1.00  0.00    -0.195 C  
BRANCH  11  12
HETATM   12  C   UNL     1     -10.441   9.178  67.482  1.00  0.00    -0.335 A  
HETATM   13  C   UNL     1      -9.957   8.864  66.213  1.00  0.00    -0.266 A  
HETATM   14  N   UNL     1      -9.841   9.742  65.188  1.00  0.00    -0.294 NA 
HETATM   15  C   UNL     1     -10.187  11.018  65.447  1.00  0.00    -0.274 A  
HETATM   16  C   UNL     1     -10.788  10.511  67.702  1.00  0.00    -0.355 A  
HETATM   17  C   UNL     1     -10.654  11.452  66.677  1.00  0.00    -0.302 A  
BRANCH  15  18
HETATM   18  O   UNL     1     -10.054  11.979  64.467  1.00  0.00    -0.271 OA 
BRANCH  18  19
HETATM   19  C   UNL     1     -11.014  11.826  63.413  1.00  0.00    -0.380 C  
BRANCH  19  20
HETATM   20  C   UNL     1     -12.347  12.418  63.864  1.00  0.00    -0.508 C  
BRANCH  20  21
HETATM   21  O   UNL     1     -12.335  13.831  63.642  1.00  0.00    -0.678 OA 
BRANCH  21  22
HETATM   22  C   UNL     1     -12.292  14.560  64.866  1.00  0.00    -0.370 C  
BRANCH  22  23
HETATM   23  C   UNL     1     -10.939  15.250  64.987  1.00  0.00    -0.437 C  
BRANCH  23  24
HETATM   24  O   UNL     1     -10.809  15.808  66.295  1.00  0.00    -0.306 OA 
BRANCH  24  25
HETATM   25  C   UNL     1     -11.267  14.898  67.297  1.00  0.00    -0.345 C  
HETATM   26  C   UNL     1     -11.802  15.680  68.482  1.00  0.00    -0.237 C  
HETATM   27  F   UNL     1     -12.235  14.812  69.434  1.00  0.00    -0.326 F  
ENDBRANCH  24  25
ENDBRANCH  23  24
ENDBRANCH  22  23
ENDBRANCH  21  22
ENDBRANCH  20  21
ENDBRANCH  19  20
ENDBRANCH  18  19
ENDBRANCH  15  18
ENDBRANCH  11  12
ENDBRANCH   7  10
ENDBRANCH   1   4
TORSDOF 11
ENDMDL
MODEL       44
REMARK 921   NORMALIZED FREE ENERGY PREDICTED BY IDOCK:   -5.12 KCAL/MOL
REMARK 922        TOTAL FREE ENERGY PREDICTED BY IDOCK:   -9.27 KCAL/MOL
REMARK 923 INTER-LIGAND FREE ENERGY PREDICTED BY IDOCK:   -8.54 KCAL/MOL
REMARK 924 INTRA-LIGAND FREE ENERGY PREDICTED BY IDOCK:   -0.73 KCAL/MOL
REMARK 927      BINDING AFFINITY PREDICTED BY RF-SCORE:    0.00 PKD
ROOT
HETATM    1  N   UNL     1     -10.509   5.351  73.667  1.00  0.00    -0.236 NA 
HETATM    2  H   UNL     1     -11.274   4.772  74.015  1.00  0.00     0.000 HD 
HETATM    3  C   UNL     1      -9.165   5.203  74.203  1.00  0.00    -0.114 C  
ENDROOT
BRANCH   1   4
HETATM    4  C   UNL     1     -10.734   6.301  72.668  1.00  0.00    -0.232 A  
HETATM    5  C   UNL     1     -11.065   5.985  71.348  1.00  0.00    -0.336 A  
HETATM    6  C   UNL     1     -11.253   6.992  70.395  1.00  0.00    -0.339 A  
HETATM    7  C   UNL     1     -11.152   8.342  70.748  1.00  0.00    -0.286 A  
HETATM    8  C   UNL     1     -10.881   8.662  72.082  1.00  0.00    -0.424 A  
HETATM    9  C   UNL     1     -10.698   7.651  73.031  1.00  0.00    -0.449 A  
BRANCH   7  10
HETATM   10  C   UNL     1     -11.248   9.360  69.692  1.00  0.00    -0.100 C  
HETATM   11  C   UNL     1     -10.596   9.301  68.520  1.00  0.00    -0.222 C  
BRANCH  11  12
HETATM   12  C   UNL     1     -10.731  10.299  67.452  1.00  0.00    -0.339 A  
HETATM   13  C   UNL     1     -10.242  10.117  66.160  1.00  0.00    -0.215 A  
HETATM   14  N   UNL     1     -10.326  11.031  65.164  1.00  0.00    -0.281 NA 
HETATM   15  C   UNL     1     -10.894  12.212  65.476  1.00  0.00    -0.283 A  
HETATM   16  C   UNL     1     -11.311  11.537  67.729  1.00  0.00    -0.364 A  
HETATM   17  C   UNL     1     -11.390  12.515  66.735  1.00  0.00    -0.390 A  
BRANCH  15  18
HETATM   18  O   UNL     1     -10.976  13.209  64.528  1.00  0.00    -0.333 OA 
BRANCH  18  19
HETATM   19  C   UNL     1     -10.583  14.489  65.039  1.00  0.00    -0.437 C  
BRANCH  19  20
HETATM   20  C   UNL     1     -11.390  15.577  64.335  1.00  0.00    -0.252 C  
BRANCH  20  21
HETATM   21  O   UNL     1     -10.953  16.860  64.795  1.00  0.00    -0.772 OA 
BRANCH  21  22
HETATM   22  C   UNL     1     -10.607  16.838  66.177  1.00  0.00    -0.210 C  
BRANCH  22  23
HETATM   23  C   UNL     1     -10.152  18.230  66.598  1.00  0.00    -0.375 C  
BRANCH  23  24
HETATM   24  O   UNL     1     -10.800  18.590  67.818  1.00  0.00    -0.388 OA 
BRANCH  24  25
HETATM   25  C   UNL     1      -9.899  19.244  68.714  1.00  0.00    -0.447 C  
HETATM   26  C   UNL     1      -8.476  18.825  68.393  1.00  0.00    -0.342 C  
HETATM   27  F   UNL     1      -7.622  19.446  69.247  1.00  0.00    -0.380 F  
ENDBRANCH  24  25
ENDBRANCH  23  24
ENDBRANCH  22  23
ENDBRANCH  21  22
ENDBRANCH  20  21
ENDBRANCH  19  20
ENDBRANCH  18  19
ENDBRANCH  15  18
ENDBRANCH  11  12
ENDBRANCH   7  10
ENDBRANCH   1   4
TORSDOF 11
ENDMDL
MODEL       45
REMARK 921   NORMALIZED FREE ENERGY PREDICTED BY IDOCK:   -5.10 KCAL/MOL
REMARK 922        TOTAL FREE ENERGY PREDICTED BY IDOCK:   -9.25 KCAL/MOL
REMARK 923 INTER-LIGAND FREE ENERGY PREDICTED BY IDOCK:   -7.54 KCAL/MOL
REMARK 924 INTRA-LIGAND FREE ENERGY PREDICTED BY IDOCK:   -1.71 KCAL/MOL
REMARK 927      BINDING AFFINITY PREDICTED BY RF-SCORE:    0.00 PKD
ROOT
HETATM    1  N   UNL     1     -13.614  15.732  73.184  1.00  0.00    -0.662 NA 
HETATM    2  H   UNL     1     -14.598  15.998  73.220  1.00  0.00     0.000 HD 
HETATM    3  C   UNL     1     -12.684  16.192  74.204  1.00  0.00    -0.451 C  
ENDROOT
BRANCH   1   4
HETATM    4  C   UNL     1     -13.133  14.919  72.155  1.00  0.00    -0.344 A  
HETATM    5  C   UNL     1     -13.278  13.530  72.123  1.00  0.00    -0.551 A  
HETATM    6  C   UNL     1     -12.750  12.778  71.068  1.00  0.00    -0.331 A  
HETATM    7  C   UNL     1     -12.097  13.401  69.999  1.00  0.00    -0.404 A  
HETATM    8  C   UNL     1     -12.005  14.796  69.998  1.00  0.00    -0.369 A  
HETATM    9  C   UNL     1     -12.539  15.543  71.053  1.00  0.00    -0.513 A  
BRANCH   7  10
HETATM   10  C   UNL     1     -11.463  12.564  68.971  1.00  0.00    -0.355 C  
HETATM   11  C   UNL     1     -11.647  12.715  67.649  1.00  0.00    -0.414 C  
BRANCH  11  12
HETATM   12  C   UNL     1     -10.976  11.904  66.627  1.00  0.00    -0.336 A  
HETATM   13  C   UNL     1     -10.633  12.384  65.364  1.00  0.00    -0.284 A  
HETATM   14  N   UNL     1     -10.040  11.651  64.391  1.00  0.00    -0.265 NA 
HETATM   15  C   UNL     1      -9.808  10.354  64.671  1.00  0.00    -0.338 A  
HETATM   16  C   UNL     1     -10.715  10.556  66.871  1.00  0.00    -0.281 A  
HETATM   17  C   UNL     1     -10.131   9.761  65.881  1.00  0.00    -0.314 A  
BRANCH  15  18
HETATM   18  O   UNL     1      -9.248   9.533  63.716  1.00  0.00    -0.209 OA 
BRANCH  18  19
HETATM   19  C   UNL     1      -8.074   8.859  64.188  1.00  0.00    -0.160 C  
BRANCH  19  20
HETATM   20  C   UNL     1      -6.838   9.570  63.643  1.00  0.00    -0.104 C  
BRANCH  20  21
HETATM   21  O   UNL     1      -6.320  10.451  64.644  1.00  0.00    -0.127 OA 
BRANCH  21  22
HETATM   22  C   UNL     1      -5.919   9.745  65.815  1.00  0.00    -0.063 C  
BRANCH  22  23
HETATM   23  C   UNL     1      -6.610  10.359  67.027  1.00  0.00    -0.075 C  
BRANCH  23  24
HETATM   24  O   UNL     1      -6.898  11.732  66.762  1.00  0.00    -0.127 OA 
BRANCH  24  25
HETATM   25  C   UNL     1      -7.614  12.332  67.842  1.00  0.00    -0.127 C  
HETATM   26  C   UNL     1      -7.931  13.775  67.498  1.00  0.00    -0.181 C  
HETATM   27  F   UNL     1      -8.610  14.345  68.528  1.00  0.00    -0.154 F  
ENDBRANCH  24  25
ENDBRANCH  23  24
ENDBRANCH  22  23
ENDBRANCH  21  22
ENDBRANCH  20  21
ENDBRANCH  19  20
ENDBRANCH  18  19
ENDBRANCH  15  18
ENDBRANCH  11  12
ENDBRANCH   7  10
ENDBRANCH   1   4
TORSDOF 11
ENDMDL
MODEL       46
REMARK 921   NORMALIZED FREE ENERGY PREDICTED BY IDOCK:   -5.09 KCAL/MOL
REMARK 922        TOTAL FREE ENERGY PREDICTED BY IDOCK:   -9.22 KCAL/MOL
REMARK 923 INTER-LIGAND FREE ENERGY PREDICTED BY IDOCK:   -7.98 KCAL/MOL
REMARK 924 INTRA-LIGAND FREE ENERGY PREDICTED BY IDOCK:   -1.24 KCAL/MOL
REMARK 927      BINDING AFFINITY PREDICTED BY RF-SCORE:    0.00 PKD
ROOT
HETATM    1  N   UNL     1     -10.560  19.144  67.380  1.00  0.00    -0.461 NA 
HETATM    2  H   UNL     1     -10.741  19.608  68.270  1.00  0.00     0.000 HD 
HETATM    3  C   UNL     1     -10.336  19.921  66.171  1.00  0.00    -0.494 C  
ENDROOT
BRANCH   1   4
HETATM    4  C   UNL     1     -10.523  17.749  67.300  1.00  0.00    -0.353 A  
HETATM    5  C   UNL     1     -10.864  16.896  68.352  1.00  0.00    -0.347 A  
HETATM    6  C   UNL     1     -10.780  15.507  68.204  1.00  0.00    -0.282 A  
HETATM    7  C   UNL     1     -10.390  14.937  66.987  1.00  0.00    -0.264 A  
HETATM    8  C   UNL     1     -10.109  15.788  65.914  1.00  0.00    -0.381 A  
HETATM    9  C   UNL     1     -10.198  17.176  66.067  1.00  0.00    -0.332 A  
BRANCH   7  10
HETATM   10  C   UNL     1     -10.211  13.481  66.912  1.00  0.00    -0.256 C  
HETATM   11  C   UNL     1     -10.020  12.683  67.976  1.00  0.00    -0.220 C  
BRANCH  11  12
HETATM   12  C   UNL     1      -9.886  11.224  67.897  1.00  0.00    -0.187 A  
HETATM   13  C   UNL     1      -9.342  10.443  68.915  1.00  0.00    -0.186 A  
HETATM   14  N   UNL     1      -9.179   9.099  68.858  1.00  0.00    -0.139 NA 
HETATM   15  C   UNL     1      -9.540   8.497  67.709  1.00  0.00    -0.156 A  
HETATM   16  C   UNL     1     -10.246  10.556  66.727  1.00  0.00    -0.288 A  
HETATM   17  C   UNL     1     -10.066   9.174  66.620  1.00  0.00    -0.343 A  
BRANCH  15  18
HETATM   18  O   UNL     1      -9.363   7.138  67.559  1.00  0.00    -0.124 OA 
BRANCH  18  19
HETATM   19  C   UNL     1     -10.579   6.401  67.740  1.00  0.00    -0.266 C  
BRANCH  19  20
HETATM   20  C   UNL     1     -10.616   5.839  69.159  1.00  0.00    -0.294 C  
BRANCH  20  21
HETATM   21  O   UNL     1     -11.713   6.422  69.869  1.00  0.00    -0.426 OA 
BRANCH  21  22
HETATM   22  C   UNL     1     -11.289   7.055  71.073  1.00  0.00    -0.287 C  
BRANCH  22  23
HETATM   23  C   UNL     1     -12.516   7.512  71.853  1.00  0.00    -0.303 C  
BRANCH  23  24
HETATM   24  O   UNL     1     -12.270   8.806  72.405  1.00  0.00    -0.370 OA 
BRANCH  24  25
HETATM   25  C   UNL     1     -11.839   9.726  71.400  1.00  0.00    -0.408 C  
HETATM   26  C   UNL     1     -12.710  10.968  71.446  1.00  0.00    -0.429 C  
HETATM   27  F   UNL     1     -12.300  11.840  70.489  1.00  0.00    -0.380 F  
ENDBRANCH  24  25
ENDBRANCH  23  24
ENDBRANCH  22  23
ENDBRANCH  21  22
ENDBRANCH  20  21
ENDBRANCH  19  20
ENDBRANCH  18  19
ENDBRANCH  15  18
ENDBRANCH  11  12
ENDBRANCH   7  10
ENDBRANCH   1   4
TORSDOF 11
ENDMDL
MODEL       47
REMARK 921   NORMALIZED FREE ENERGY PREDICTED BY IDOCK:   -5.06 KCAL/MOL
REMARK 922        TOTAL FREE ENERGY PREDICTED BY IDOCK:   -9.17 KCAL/MOL
REMARK 923 INTER-LIGAND FREE ENERGY PREDICTED BY IDOCK:   -7.91 KCAL/MOL
REMARK 924 INTRA-LIGAND FREE ENERGY PREDICTED BY IDOCK:   -1.26 KCAL/MOL
REMARK 927      BINDING AFFINITY PREDICTED BY RF-SCORE:    0.00 PKD
ROOT
HETATM    1  N   UNL     1     -13.835  15.589  72.332  1.00  0.00    -0.542 NA 
HETATM    2  H   UNL     1     -14.649  16.042  71.917  1.00  0.00     0.000 HD 
HETATM    3  C   UNL     1     -13.139  16.196  73.455  1.00  0.00    -0.496 C  
ENDROOT
BRANCH   1   4
HETATM    4  C   UNL     1     -13.367  14.371  71.831  1.00  0.00    -0.374 A  
HETATM    5  C   UNL     1     -13.646  13.129  72.407  1.00  0.00    -0.667 A  
HETATM    6  C   UNL     1     -13.123  11.952  71.861  1.00  0.00    -0.474 A  
HETATM    7  C   UNL     1     -12.340  11.984  70.703  1.00  0.00    -0.394 A  
HETATM    8  C   UNL     1     -12.111  13.219  70.089  1.00  0.00    -0.403 A  
HETATM    9  C   UNL     1     -12.640  14.392  70.637  1.00  0.00    -0.424 A  
BRANCH   7  10
HETATM   10  C   UNL     1     -11.722  10.737  70.230  1.00  0.00    -0.442 C  
HETATM   11  C   UNL     1     -11.017  10.624  69.092  1.00  0.00    -0.296 C  
BRANCH  11  12
HETATM   12  C   UNL     1     -10.365   9.386  68.649  1.00  0.00    -0.227 A  
HETATM   13  C   UNL     1      -9.614   8.565  69.488  1.00  0.00    -0.170 A  
HETATM   14  N   UNL     1      -8.978   7.434  69.100  1.00  0.00    -0.136 NA 
HETATM   15  C   UNL     1      -9.058   7.116  67.793  1.00  0.00    -0.127 A  
HETATM   16  C   UNL     1     -10.419   9.016  67.304  1.00  0.00    -0.343 A  
HETATM   17  C   UNL     1      -9.751   7.872  66.861  1.00  0.00    -0.285 A  
BRANCH  15  18
HETATM   18  O   UNL     1      -8.399   6.004  67.314  1.00  0.00    -0.106 OA 
BRANCH  18  19
HETATM   19  C   UNL     1      -9.242   4.846  67.263  1.00  0.00    -0.124 C  
BRANCH  19  20
HETATM   20  C   UNL     1      -8.925   3.945  68.454  1.00  0.00    -0.121 C  
BRANCH  20  21
HETATM   21  O   UNL     1      -9.942   4.103  69.448  1.00  0.00    -0.158 OA 
BRANCH  21  22
HETATM   22  C   UNL     1      -9.476   3.744  70.746  1.00  0.00    -0.166 C  
BRANCH  22  23
HETATM   23  C   UNL     1      -9.567   4.959  71.661  1.00  0.00    -0.159 C  
BRANCH  23  24
HETATM   24  O   UNL     1     -10.891   5.056  72.186  1.00  0.00    -0.193 OA 
BRANCH  24  25
HETATM   25  C   UNL     1     -11.452   6.348  71.946  1.00  0.00    -0.304 C  
HETATM   26  C   UNL     1     -10.845   7.350  72.910  1.00  0.00    -0.354 C  
HETATM   27  F   UNL     1     -11.382   8.577  72.681  1.00  0.00    -0.425 F  
ENDBRANCH  24  25
ENDBRANCH  23  24
ENDBRANCH  22  23
ENDBRANCH  21  22
ENDBRANCH  20  21
ENDBRANCH  19  20
ENDBRANCH  18  19
ENDBRANCH  15  18
ENDBRANCH  11  12
ENDBRANCH   7  10
ENDBRANCH   1   4
TORSDOF 11
ENDMDL
MODEL       48
REMARK 921   NORMALIZED FREE ENERGY PREDICTED BY IDOCK:   -5.00 KCAL/MOL
REMARK 922        TOTAL FREE ENERGY PREDICTED BY IDOCK:   -9.08 KCAL/MOL
REMARK 923 INTER-LIGAND FREE ENERGY PREDICTED BY IDOCK:   -8.19 KCAL/MOL
REMARK 924 INTRA-LIGAND FREE ENERGY PREDICTED BY IDOCK:   -0.88 KCAL/MOL
REMARK 927      BINDING AFFINITY PREDICTED BY RF-SCORE:    0.00 PKD
ROOT
HETATM    1  N   UNL     1      -9.113   2.059  71.780  1.00  0.00    -0.079 NA 
HETATM    2  H   UNL     1      -9.619   1.205  71.546  1.00  0.00     0.000 HD 
HETATM    3  C   UNL     1      -7.714   2.008  72.174  1.00  0.00    -0.044 C  
ENDROOT
BRANCH   1   4
HETATM    4  C   UNL     1      -9.751   3.302  71.727  1.00  0.00    -0.167 A  
HETATM    5  C   UNL     1      -9.770   4.124  70.598  1.00  0.00    -0.273 A  
HETATM    6  C   UNL     1     -10.411   5.367  70.628  1.00  0.00    -0.329 A  
HETATM    7  C   UNL     1     -11.082   5.802  71.776  1.00  0.00    -0.301 A  
HETATM    8  C   UNL     1     -11.118   4.953  72.887  1.00  0.00    -0.329 A  
HETATM    9  C   UNL     1     -10.478   3.710  72.850  1.00  0.00    -0.239 A  
BRANCH   7  10
HETATM   10  C   UNL     1     -11.646   7.159  71.797  1.00  0.00    -0.314 C  
HETATM   11  C   UNL     1     -11.150   8.197  71.104  1.00  0.00    -0.279 C  
BRANCH  11  12
HETATM   12  C   UNL     1     -11.744   9.539  71.095  1.00  0.00    -0.438 A  
HETATM   13  C   UNL     1     -11.293  10.578  70.284  1.00  0.00    -0.327 A  
HETATM   14  N   UNL     1     -11.802  11.833  70.275  1.00  0.00    -0.324 NA 
HETATM   15  C   UNL     1     -12.794  12.086  71.152  1.00  0.00    -0.235 A  
HETATM   16  C   UNL     1     -12.773   9.849  71.985  1.00  0.00    -0.456 A  
HETATM   17  C   UNL     1     -13.304  11.140  72.026  1.00  0.00    -0.384 A  
BRANCH  15  18
HETATM   18  O   UNL     1     -13.333  13.352  71.233  1.00  0.00    -0.236 OA 
BRANCH  18  19
HETATM   19  C   UNL     1     -13.690  13.712  72.574  1.00  0.00    -0.558 C  
BRANCH  19  20
HETATM   20  C   UNL     1     -13.436  15.205  72.774  1.00  0.00    -0.501 C  
BRANCH  20  21
HETATM   21  O   UNL     1     -12.027  15.453  72.729  1.00  0.00    -0.388 OA 
BRANCH  21  22
HETATM   22  C   UNL     1     -11.669  16.276  71.621  1.00  0.00    -0.420 C  
BRANCH  22  23
HETATM   23  C   UNL     1     -10.798  15.470  70.665  1.00  0.00    -0.303 C  
BRANCH  23  24
HETATM   24  O   UNL     1     -10.848  16.064  69.367  1.00  0.00    -0.253 OA 
BRANCH  24  25
HETATM   25  C   UNL     1     -11.710  15.333  68.493  1.00  0.00    -0.332 C  
HETATM   26  C   UNL     1     -11.085  15.265  67.111  1.00  0.00    -0.323 C  
HETATM   27  F   UNL     1     -11.908  14.571  66.281  1.00  0.00    -0.363 F  
ENDBRANCH  24  25
ENDBRANCH  23  24
ENDBRANCH  22  23
ENDBRANCH  21  22
ENDBRANCH  20  21
ENDBRANCH  19  20
ENDBRANCH  18  19
ENDBRANCH  15  18
ENDBRANCH  11  12
ENDBRANCH   7  10
ENDBRANCH   1   4
TORSDOF 11
ENDMDL
MODEL       49
REMARK 921   NORMALIZED FREE ENERGY PREDICTED BY IDOCK:   -5.00 KCAL/MOL
REMARK 922        TOTAL FREE ENERGY PREDICTED BY IDOCK:   -9.08 KCAL/MOL
REMARK 923 INTER-LIGAND FREE ENERGY PREDICTED BY IDOCK:   -7.46 KCAL/MOL
REMARK 924 INTRA-LIGAND FREE ENERGY PREDICTED BY IDOCK:   -1.61 KCAL/MOL
REMARK 927      BINDING AFFINITY PREDICTED BY RF-SCORE:    0.00 PKD
ROOT
HETATM    1  N   UNL     1      -8.893   3.554  65.989  1.00  0.00    -0.123 NA 
HETATM    2  H   UNL     1      -8.295   3.019  66.619  1.00  0.00     0.000 HD 
HETATM    3  C   UNL     1      -9.335   2.986  64.726  1.00  0.00    -0.148 C  
ENDROOT
BRANCH   1   4
HETATM    4  C   UNL     1      -9.302   4.848  66.325  1.00  0.00    -0.149 A  
HETATM    5  C   UNL     1     -10.637   5.234  66.465  1.00  0.00    -0.348 A  
HETATM    6  C   UNL     1     -10.972   6.555  66.781  1.00  0.00    -0.309 A  
HETATM    7  C   UNL     1      -9.978   7.514  67.002  1.00  0.00    -0.304 A  
HETATM    8  C   UNL     1      -8.640   7.115  66.923  1.00  0.00    -0.124 A  
HETATM    9  C   UNL     1      -8.311   5.792  66.611  1.00  0.00    -0.109 A  
BRANCH   7  10
HETATM   10  C   UNL     1     -10.377   8.911  67.222  1.00  0.00    -0.350 C  
HETATM   11  C   UNL     1      -9.524   9.948  67.253  1.00  0.00    -0.181 C  
BRANCH  11  12
HETATM   12  C   UNL     1      -9.934  11.346  67.429  1.00  0.00    -0.207 A  
HETATM   13  C   UNL     1      -9.049  12.422  67.384  1.00  0.00    -0.183 A  
HETATM   14  N   UNL     1      -9.395  13.718  67.571  1.00  0.00    -0.213 NA 
HETATM   15  C   UNL     1     -10.688  13.961  67.860  1.00  0.00    -0.240 A  
HETATM   16  C   UNL     1     -11.263  11.647  67.730  1.00  0.00    -0.333 A  
HETATM   17  C   UNL     1     -11.651  12.969  67.958  1.00  0.00    -0.383 A  
BRANCH  15  18
HETATM   18  O   UNL     1     -11.108  15.251  68.107  1.00  0.00    -0.282 OA 
BRANCH  18  19
HETATM   19  C   UNL     1     -10.107  16.225  67.786  1.00  0.00    -0.252 C  
BRANCH  19  20
HETATM   20  C   UNL     1     -10.642  17.148  66.693  1.00  0.00    -0.179 C  
BRANCH  20  21
HETATM   21  O   UNL     1     -10.184  16.684  65.419  1.00  0.00    -0.585 OA 
BRANCH  21  22
HETATM   22  C   UNL     1     -11.255  16.194  64.617  1.00  0.00    -0.298 C  
BRANCH  22  23
HETATM   23  C   UNL     1     -11.123  14.681  64.483  1.00  0.00    -0.257 C  
BRANCH  23  24
HETATM   24  O   UNL     1     -12.415  14.112  64.269  1.00  0.00    -0.650 OA 
BRANCH  24  25
HETATM   25  C   UNL     1     -12.371  12.685  64.323  1.00  0.00    -0.435 C  
HETATM   26  C   UNL     1     -10.949  12.215  64.077  1.00  0.00    -0.380 C  
HETATM   27  F   UNL     1     -10.910  10.858  64.126  1.00  0.00    -0.438 F  
ENDBRANCH  24  25
ENDBRANCH  23  24
ENDBRANCH  22  23
ENDBRANCH  21  22
ENDBRANCH  20  21
ENDBRANCH  19  20
ENDBRANCH  18  19
ENDBRANCH  15  18
ENDBRANCH  11  12
ENDBRANCH   7  10
ENDBRANCH   1   4
TORSDOF 11
ENDMDL
MODEL       50
REMARK 921   NORMALIZED FREE ENERGY PREDICTED BY IDOCK:   -4.99 KCAL/MOL
REMARK 922        TOTAL FREE ENERGY PREDICTED BY IDOCK:   -9.06 KCAL/MOL
REMARK 923 INTER-LIGAND FREE ENERGY PREDICTED BY IDOCK:   -8.04 KCAL/MOL
REMARK 924 INTRA-LIGAND FREE ENERGY PREDICTED BY IDOCK:   -1.02 KCAL/MOL
REMARK 927      BINDING AFFINITY PREDICTED BY RF-SCORE:    0.00 PKD
ROOT
HETATM    1  N   UNL     1      -9.714   5.332  66.596  1.00  0.00    -0.150 NA 
HETATM    2  H   UNL     1      -9.696   4.882  67.511  1.00  0.00     0.000 HD 
HETATM    3  C   UNL     1      -9.726   4.537  65.378  1.00  0.00    -0.187 C  
ENDROOT
BRANCH   1   4
HETATM    4  C   UNL     1      -9.726   6.725  66.488  1.00  0.00    -0.125 A  
HETATM    5  C   UNL     1     -10.612   7.556  67.178  1.00  0.00    -0.415 A  
HETATM    6  C   UNL     1     -10.580   8.943  67.002  1.00  0.00    -0.279 A  
HETATM    7  C   UNL     1      -9.635   9.538  66.160  1.00  0.00    -0.302 A  
HETATM    8  C   UNL     1      -8.707   8.714  65.516  1.00  0.00    -0.219 A  
HETATM    9  C   UNL     1      -8.741   7.328  65.699  1.00  0.00    -0.092 A  
BRANCH   7  10
HETATM   10  C   UNL     1      -9.710  10.986  65.920  1.00  0.00    -0.267 C  
HETATM   11  C   UNL     1     -10.838  11.647  65.614  1.00  0.00    -0.330 C  
BRANCH  11  12
HETATM   12  C   UNL     1     -10.913  13.100  65.420  1.00  0.00    -0.298 A  
HETATM   13  C   UNL     1     -11.828  13.719  64.570  1.00  0.00    -0.417 A  
HETATM   14  N   UNL     1     -11.902  15.053  64.350  1.00  0.00    -0.392 NA 
HETATM   15  C   UNL     1     -10.988  15.818  64.978  1.00  0.00    -0.417 A  
HETATM   16  C   UNL     1      -9.988  13.933  66.049  1.00  0.00    -0.325 A  
HETATM   17  C   UNL     1     -10.014  15.311  65.823  1.00  0.00    -0.391 A  
BRANCH  15  18
HETATM   18  O   UNL     1     -10.971  17.181  64.769  1.00  0.00    -0.898 OA 
BRANCH  18  19
HETATM   19  C   UNL     1     -10.339  17.894  65.839  1.00  0.00    -0.259 C  
BRANCH  19  20
HETATM   20  C   UNL     1     -10.737  19.366  65.762  1.00  0.00    -0.365 C  
BRANCH  20  21
HETATM   21  O   UNL     1      -9.717  20.163  66.371  1.00  0.00    -0.411 OA 
BRANCH  21  22
HETATM   22  C   UNL     1      -9.553  19.849  67.751  1.00  0.00    -0.378 C  
BRANCH  22  23
HETATM   23  C   UNL     1      -8.066  19.842  68.087  1.00  0.00    -0.294 C  
BRANCH  23  24
HETATM   24  O   UNL     1      -7.707  18.562  68.609  1.00  0.00    -0.301 OA 
BRANCH  24  25
HETATM   25  C   UNL     1      -7.122  17.735  67.602  1.00  0.00    -0.186 C  
HETATM   26  C   UNL     1      -7.390  16.277  67.929  1.00  0.00    -0.127 C  
HETATM   27  F   UNL     1      -6.831  15.492  66.971  1.00  0.00    -0.218 F  
ENDBRANCH  24  25
ENDBRANCH  23  24
ENDBRANCH  22  23
ENDBRANCH  21  22
ENDBRANCH  20  21
ENDBRANCH  19  20
ENDBRANCH  18  19
ENDBRANCH  15  18
ENDBRANCH  11  12
ENDBRANCH   7  10
ENDBRANCH   1   4
TORSDOF 11
ENDMDL
MODEL       51
REMARK 921   NORMALIZED FREE ENERGY PREDICTED BY IDOCK:   -4.97 KCAL/MOL
REMARK 922        TOTAL FREE ENERGY PREDICTED BY IDOCK:   -9.03 KCAL/MOL
REMARK 923 INTER-LIGAND FREE ENERGY PREDICTED BY IDOCK:   -8.23 KCAL/MOL
REMARK 924 INTRA-LIGAND FREE ENERGY PREDICTED BY IDOCK:   -0.81 KCAL/MOL
REMARK 927      BINDING AFFINITY PREDICTED BY RF-SCORE:    0.00 PKD
ROOT
HETATM    1  N   UNL     1     -10.845   5.369  70.198  1.00  0.00    -0.235 NA 
HETATM    2  H   UNL     1     -11.784   5.048  70.433  1.00  0.00     0.000 HD 
HETATM    3  C   UNL     1      -9.688   4.525  70.454  1.00  0.00    -0.217 C  
ENDROOT
BRANCH   1   4
HETATM    4  C   UNL     1     -10.644   6.627  69.625  1.00  0.00    -0.234 A  
HETATM    5  C   UNL     1     -10.427   7.796  70.359  1.00  0.00    -0.221 A  
HETATM    6  C   UNL     1     -10.257   9.026  69.714  1.00  0.00    -0.214 A  
HETATM    7  C   UNL     1     -10.261   9.111  68.318  1.00  0.00    -0.242 A  
HETATM    8  C   UNL     1     -10.416   7.934  67.580  1.00  0.00    -0.303 A  
HETATM    9  C   UNL     1     -10.582   6.706  68.230  1.00  0.00    -0.291 A  
BRANCH   7  10
HETATM   10  C   UNL     1     -10.189  10.437  67.688  1.00  0.00    -0.240 C  
HETATM   11  C   UNL     1     -11.175  10.986  66.960  1.00  0.00    -0.255 C  
BRANCH  11  12
HETATM   12  C   UNL     1     -11.113  12.329  66.371  1.00  0.00    -0.345 A  
HETATM   13  C   UNL     1     -10.312  12.657  65.279  1.00  0.00    -0.289 A  
HETATM   14  N   UNL     1     -10.213  13.893  64.734  1.00  0.00    -0.390 NA 
HETATM   15  C   UNL     1     -10.921  14.873  65.330  1.00  0.00    -0.380 A  
HETATM   16  C   UNL     1     -11.828  13.376  66.954  1.00  0.00    -0.453 A  
HETATM   17  C   UNL     1     -11.728  14.670  66.437  1.00  0.00    -0.329 A  
BRANCH  15  18
HETATM   18  O   UNL     1     -10.836  16.166  64.859  1.00  0.00    -0.582 OA 
BRANCH  18  19
HETATM   19  C   UNL     1     -10.423  17.093  65.871  1.00  0.00    -0.258 C  
BRANCH  19  20
HETATM   20  C   UNL     1      -9.023  16.716  66.351  1.00  0.00    -0.291 C  
BRANCH  20  21
HETATM   21  O   UNL     1      -8.932  16.942  67.761  1.00  0.00    -0.220 OA 
BRANCH  21  22
HETATM   22  C   UNL     1     -10.207  17.207  68.339  1.00  0.00    -0.340 C  
BRANCH  22  23
HETATM   23  C   UNL     1     -10.407  16.296  69.544  1.00  0.00    -0.284 C  
BRANCH  23  24
HETATM   24  O   UNL     1     -11.768  15.867  69.591  1.00  0.00    -0.333 OA 
BRANCH  24  25
HETATM   25  C   UNL     1     -12.057  15.185  70.813  1.00  0.00    -0.336 C  
HETATM   26  C   UNL     1     -11.925  16.152  71.975  1.00  0.00    -0.526 C  
HETATM   27  F   UNL     1     -12.198  15.501  73.136  1.00  0.00    -0.419 F  
ENDBRANCH  24  25
ENDBRANCH  23  24
ENDBRANCH  22  23
ENDBRANCH  21  22
ENDBRANCH  20  21
ENDBRANCH  19  20
ENDBRANCH  18  19
ENDBRANCH  15  18
ENDBRANCH  11  12
ENDBRANCH   7  10
ENDBRANCH   1   4
TORSDOF 11
ENDMDL
MODEL       52
REMARK 921   NORMALIZED FREE ENERGY PREDICTED BY IDOCK:   -4.96 KCAL/MOL
REMARK 922        TOTAL FREE ENERGY PREDICTED BY IDOCK:   -9.01 KCAL/MOL
REMARK 923 INTER-LIGAND FREE ENERGY PREDICTED BY IDOCK:   -8.13 KCAL/MOL
REMARK 924 INTRA-LIGAND FREE ENERGY PREDICTED BY IDOCK:   -0.88 KCAL/MOL
REMARK 927      BINDING AFFINITY PREDICTED BY RF-SCORE:    0.00 PKD
ROOT
HETATM    1  N   UNL     1      -9.504   3.246  70.571  1.00  0.00    -0.169 NA 
HETATM    2  H   UNL     1     -10.135   2.993  71.331  1.00  0.00     0.000 HD 
HETATM    3  C   UNL     1      -8.264   2.514  70.362  1.00  0.00    -0.041 C  
ENDROOT
BRANCH   1   4
HETATM    4  C   UNL     1      -9.814   4.301  69.709  1.00  0.00    -0.187 A  
HETATM    5  C   UNL     1      -9.531   4.303  68.341  1.00  0.00    -0.215 A  
HETATM    6  C   UNL     1      -9.852   5.408  67.544  1.00  0.00    -0.173 A  
HETATM    7  C   UNL     1     -10.499   6.522  68.089  1.00  0.00    -0.264 A  
HETATM    8  C   UNL     1     -10.840   6.496  69.445  1.00  0.00    -0.363 A  
HETATM    9  C   UNL     1     -10.520   5.388  70.236  1.00  0.00    -0.355 A  
BRANCH   7  10
HETATM   10  C   UNL     1     -10.716   7.701  67.239  1.00  0.00    -0.344 C  
HETATM   11  C   UNL     1     -10.345   8.950  67.565  1.00  0.00    -0.328 C  
BRANCH  11  12
HETATM   12  C   UNL     1     -10.525  10.116  66.692  1.00  0.00    -0.254 A  
HETATM   13  C   UNL     1     -11.190  11.277  67.082  1.00  0.00    -0.275 A  
HETATM   14  N   UNL     1     -11.397  12.356  66.290  1.00  0.00    -0.321 NA 
HETATM   15  C   UNL     1     -10.952  12.265  65.021  1.00  0.00    -0.302 A  
HETATM   16  C   UNL     1     -10.081  10.069  65.370  1.00  0.00    -0.317 A  
HETATM   17  C   UNL     1     -10.302  11.151  64.515  1.00  0.00    -0.400 A  
BRANCH  15  18
HETATM   18  O   UNL     1     -11.164  13.305  64.142  1.00  0.00    -0.378 OA 
BRANCH  18  19
HETATM   19  C   UNL     1     -10.758  14.571  64.678  1.00  0.00    -0.310 C  
BRANCH  19  20
HETATM   20  C   UNL     1     -11.737  15.647  64.214  1.00  0.00    -0.169 C  
BRANCH  20  21
HETATM   21  O   UNL     1     -11.204  16.936  64.529  1.00  0.00    -1.057 OA 
BRANCH  21  22
HETATM   22  C   UNL     1     -10.266  16.875  65.600  1.00  0.00    -0.206 C  
BRANCH  22  23
HETATM   23  C   UNL     1     -10.492  18.062  66.528  1.00  0.00    -0.334 C  
BRANCH  23  24
HETATM   24  O   UNL     1     -10.707  17.588  67.858  1.00  0.00    -0.384 OA 
BRANCH  24  25
HETATM   25  C   UNL     1     -10.856  16.167  67.885  1.00  0.00    -0.332 C  
HETATM   26  C   UNL     1     -11.865  15.786  68.954  1.00  0.00    -0.341 C  
HETATM   27  F   UNL     1     -12.002  14.434  68.979  1.00  0.00    -0.313 F  
ENDBRANCH  24  25
ENDBRANCH  23  24
ENDBRANCH  22  23
ENDBRANCH  21  22
ENDBRANCH  20  21
ENDBRANCH  19  20
ENDBRANCH  18  19
ENDBRANCH  15  18
ENDBRANCH  11  12
ENDBRANCH   7  10
ENDBRANCH   1   4
TORSDOF 11
ENDMDL
MODEL       53
REMARK 921   NORMALIZED FREE ENERGY PREDICTED BY IDOCK:   -4.95 KCAL/MOL
REMARK 922        TOTAL FREE ENERGY PREDICTED BY IDOCK:   -9.00 KCAL/MOL
REMARK 923 INTER-LIGAND FREE ENERGY PREDICTED BY IDOCK:   -7.45 KCAL/MOL
REMARK 924 INTRA-LIGAND FREE ENERGY PREDICTED BY IDOCK:   -1.55 KCAL/MOL
REMARK 927      BINDING AFFINITY PREDICTED BY RF-SCORE:    0.00 PKD
ROOT
HETATM    1  N   UNL     1      -9.771   5.031  73.456  1.00  0.00    -0.139 NA 
HETATM    2  H   UNL     1      -8.853   4.633  73.255  1.00  0.00     0.000 HD 
HETATM    3  C   UNL     1     -10.654   4.404  74.427  1.00  0.00    -0.233 C  
ENDROOT
BRANCH   1   4
HETATM    4  C   UNL     1     -10.204   6.188  72.803  1.00  0.00    -0.185 A  
HETATM    5  C   UNL     1     -11.462   6.330  72.214  1.00  0.00    -0.351 A  
HETATM    6  C   UNL     1     -11.817   7.513  71.557  1.00  0.00    -0.324 A  
HETATM    7  C   UNL     1     -10.935   8.598  71.506  1.00  0.00    -0.360 A  
HETATM    8  C   UNL     1      -9.699   8.481  72.148  1.00  0.00    -0.387 A  
HETATM    9  C   UNL     1      -9.351   7.297  72.807  1.00  0.00    -0.186 A  
BRANCH   7  10
HETATM   10  C   UNL     1     -11.307   9.777  70.711  1.00  0.00    -0.416 C  
HETATM   11  C   UNL     1     -10.937   9.981  69.437  1.00  0.00    -0.280 C  
BRANCH  11  12
HETATM   12  C   UNL     1     -11.349  11.139  68.635  1.00  0.00    -0.342 A  
HETATM   13  C   UNL     1     -11.369  11.146  67.242  1.00  0.00    -0.226 A  
HETATM   14  N   UNL     1     -11.716  12.209  66.477  1.00  0.00    -0.564 NA 
HETATM   15  C   UNL     1     -12.025  13.346  67.130  1.00  0.00    -0.366 A  
HETATM   16  C   UNL     1     -11.677  12.339  69.267  1.00  0.00    -0.388 A  
HETATM   17  C   UNL     1     -12.013  13.464  68.510  1.00  0.00    -0.363 A  
BRANCH  15  18
HETATM   18  O   UNL     1     -12.345  14.482  66.418  1.00  0.00    -0.350 OA 
BRANCH  18  19
HETATM   19  C   UNL     1     -11.519  14.658  65.261  1.00  0.00    -0.361 C  
BRANCH  19  20
HETATM   20  C   UNL     1     -11.023  16.102  65.216  1.00  0.00    -0.270 C  
BRANCH  20  21
HETATM   21  O   UNL     1     -10.172  16.343  66.341  1.00  0.00    -0.291 OA 
BRANCH  21  22
HETATM   22  C   UNL     1      -8.916  15.684  66.206  1.00  0.00    -0.342 C  
BRANCH  22  23
HETATM   23  C   UNL     1      -8.649  14.861  67.461  1.00  0.00    -0.184 C  
BRANCH  23  24
HETATM   24  O   UNL     1      -8.374  13.510  67.091  1.00  0.00    -0.187 OA 
BRANCH  24  25
HETATM   25  C   UNL     1      -8.212  12.678  68.241  1.00  0.00    -0.164 C  
HETATM   26  C   UNL     1      -7.719  11.309  67.807  1.00  0.00    -0.113 C  
HETATM   27  F   UNL     1      -7.567  10.519  68.902  1.00  0.00    -0.079 F  
ENDBRANCH  24  25
ENDBRANCH  23  24
ENDBRANCH  22  23
ENDBRANCH  21  22
ENDBRANCH  20  21
ENDBRANCH  19  20
ENDBRANCH  18  19
ENDBRANCH  15  18
ENDBRANCH  11  12
ENDBRANCH   7  10
ENDBRANCH   1   4
TORSDOF 11
ENDMDL
MODEL       54
REMARK 921   NORMALIZED FREE ENERGY PREDICTED BY IDOCK:   -4.94 KCAL/MOL
REMARK 922        TOTAL FREE ENERGY PREDICTED BY IDOCK:   -8.98 KCAL/MOL
REMARK 923 INTER-LIGAND FREE ENERGY PREDICTED BY IDOCK:   -8.07 KCAL/MOL
REMARK 924 INTRA-LIGAND FREE ENERGY PREDICTED BY IDOCK:   -0.91 KCAL/MOL
REMARK 927      BINDING AFFINITY PREDICTED BY RF-SCORE:    0.00 PKD
ROOT
HETATM    1  N   UNL     1     -10.239   2.615  73.575  1.00  0.00    -0.108 NA 
HETATM    2  H   UNL     1      -9.333   2.378  73.979  1.00  0.00     0.000 HD 
HETATM    3  C   UNL     1     -11.400   1.772  73.811  1.00  0.00    -0.191 C  
ENDROOT
BRANCH   1   4
HETATM    4  C   UNL     1     -10.388   3.757  72.783  1.00  0.00    -0.162 A  
HETATM    5  C   UNL     1      -9.760   3.941  71.549  1.00  0.00    -0.247 A  
HETATM    6  C   UNL     1      -9.940   5.123  70.822  1.00  0.00    -0.285 A  
HETATM    7  C   UNL     1     -10.782   6.135  71.295  1.00  0.00    -0.310 A  
HETATM    8  C   UNL     1     -11.460   5.927  72.500  1.00  0.00    -0.347 A  
HETATM    9  C   UNL     1     -11.279   4.742  73.220  1.00  0.00    -0.421 A  
BRANCH   7  10
HETATM   10  C   UNL     1     -10.853   7.402  70.553  1.00  0.00    -0.259 C  
HETATM   11  C   UNL     1     -11.139   8.591  71.109  1.00  0.00    -0.312 C  
BRANCH  11  12
HETATM   12  C   UNL     1     -11.164   9.859  70.370  1.00  0.00    -0.379 A  
HETATM   13  C   UNL     1     -12.030  10.910  70.670  1.00  0.00    -0.368 A  
HETATM   14  N   UNL     1     -12.096  12.078  69.988  1.00  0.00    -0.303 NA 
HETATM   15  C   UNL     1     -11.283  12.199  68.920  1.00  0.00    -0.269 A  
HETATM   16  C   UNL     1     -10.342  10.030  69.256  1.00  0.00    -0.237 A  
HETATM   17  C   UNL     1     -10.402  11.211  68.511  1.00  0.00    -0.207 A  
BRANCH  15  18
HETATM   18  O   UNL     1     -11.325  13.342  68.150  1.00  0.00    -0.255 OA 
BRANCH  18  19
HETATM   19  C   UNL     1     -10.038  13.957  68.009  1.00  0.00    -0.244 C  
BRANCH  19  20
HETATM   20  C   UNL     1     -10.149  15.434  68.382  1.00  0.00    -0.215 C  
BRANCH  20  21
HETATM   21  O   UNL     1     -11.390  15.658  69.059  1.00  0.00    -0.283 OA 
BRANCH  21  22
HETATM   22  C   UNL     1     -11.191  16.059  70.412  1.00  0.00    -0.387 C  
BRANCH  22  23
HETATM   23  C   UNL     1     -12.509  15.934  71.167  1.00  0.00    -0.365 C  
BRANCH  23  24
HETATM   24  O   UNL     1     -12.257  16.001  72.570  1.00  0.00    -0.437 OA 
BRANCH  24  25
HETATM   25  C   UNL     1     -12.786  14.860  73.249  1.00  0.00    -0.530 C  
HETATM   26  C   UNL     1     -13.605  14.031  72.277  1.00  0.00    -0.525 C  
HETATM   27  F   UNL     1     -14.110  12.948  72.926  1.00  0.00    -0.418 F  
ENDBRANCH  24  25
ENDBRANCH  23  24
ENDBRANCH  22  23
ENDBRANCH  21  22
ENDBRANCH  20  21
ENDBRANCH  19  20
ENDBRANCH  18  19
ENDBRANCH  15  18
ENDBRANCH  11  12
ENDBRANCH   7  10
ENDBRANCH   1   4
TORSDOF 11
ENDMDL
MODEL       55
REMARK 921   NORMALIZED FREE ENERGY PREDICTED BY IDOCK:   -4.94 KCAL/MOL
REMARK 922        TOTAL FREE ENERGY PREDICTED BY IDOCK:   -8.97 KCAL/MOL
REMARK 923 INTER-LIGAND FREE ENERGY PREDICTED BY IDOCK:   -8.08 KCAL/MOL
REMARK 924 INTRA-LIGAND FREE ENERGY PREDICTED BY IDOCK:   -0.90 KCAL/MOL
REMARK 927      BINDING AFFINITY PREDICTED BY RF-SCORE:    0.00 PKD
ROOT
HETATM    1  N   UNL     1      -9.598   4.768  73.795  1.00  0.00    -0.127 NA 
HETATM    2  H   UNL     1      -8.589   4.625  73.824  1.00  0.00     0.000 HD 
HETATM    3  C   UNL     1     -10.491   3.916  74.565  1.00  0.00    -0.204 C  
ENDROOT
BRANCH   1   4
HETATM    4  C   UNL     1     -10.150   5.788  73.015  1.00  0.00    -0.179 A  
HETATM    5  C   UNL     1     -10.811   5.574  71.803  1.00  0.00    -0.277 A  
HETATM    6  C   UNL     1     -11.319   6.649  71.064  1.00  0.00    -0.366 A  
HETATM    7  C   UNL     1     -11.211   7.960  71.539  1.00  0.00    -0.286 A  
HETATM    8  C   UNL     1     -10.605   8.171  72.781  1.00  0.00    -0.386 A  
HETATM    9  C   UNL     1     -10.103   7.092  73.517  1.00  0.00    -0.348 A  
BRANCH   7  10
HETATM   10  C   UNL     1     -11.660   9.064  70.679  1.00  0.00    -0.265 C  
HETATM   11  C   UNL     1     -10.837   9.878  69.997  1.00  0.00    -0.339 C  
BRANCH  11  12
HETATM   12  C   UNL     1     -11.293  10.950  69.105  1.00  0.00    -0.350 A  
HETATM   13  C   UNL     1     -11.393  10.814  67.722  1.00  0.00    -0.279 A  
HETATM   14  N   UNL     1     -11.782  11.794  66.872  1.00  0.00    -0.584 NA 
HETATM   15  C   UNL     1     -12.052  12.995  67.421  1.00  0.00    -0.233 A  
HETATM   16  C   UNL     1     -11.583  12.211  69.627  1.00  0.00    -0.361 A  
HETATM   17  C   UNL     1     -11.960  13.255  68.779  1.00  0.00    -0.335 A  
BRANCH  15  18
HETATM   18  O   UNL     1     -12.411  14.054  66.615  1.00  0.00    -0.420 OA 
BRANCH  18  19
HETATM   19  C   UNL     1     -12.511  13.685  65.234  1.00  0.00    -0.479 C  
BRANCH  19  20
HETATM   20  C   UNL     1     -12.006  14.840  64.372  1.00  0.00    -0.417 C  
BRANCH  20  21
HETATM   21  O   UNL     1     -10.667  15.166  64.757  1.00  0.00    -0.403 OA 
BRANCH  21  22
HETATM   22  C   UNL     1     -10.596  16.427  65.416  1.00  0.00    -0.320 C  
BRANCH  22  23
HETATM   23  C   UNL     1      -9.390  16.435  66.347  1.00  0.00    -0.292 C  
BRANCH  23  24
HETATM   24  O   UNL     1      -8.793  15.138  66.357  1.00  0.00    -0.285 OA 
BRANCH  24  25
HETATM   25  C   UNL     1      -8.793  14.575  67.670  1.00  0.00    -0.187 C  
HETATM   26  C   UNL     1      -8.074  15.514  68.622  1.00  0.00    -0.159 C  
HETATM   27  F   UNL     1      -8.074  14.975  69.870  1.00  0.00    -0.192 F  
ENDBRANCH  24  25
ENDBRANCH  23  24
ENDBRANCH  22  23
ENDBRANCH  21  22
ENDBRANCH  20  21
ENDBRANCH  19  20
ENDBRANCH  18  19
ENDBRANCH  15  18
ENDBRANCH  11  12
ENDBRANCH   7  10
ENDBRANCH   1   4
TORSDOF 11
ENDMDL
MODEL       56
REMARK 921   NORMALIZED FREE ENERGY PREDICTED BY IDOCK:   -4.93 KCAL/MOL
REMARK 922        TOTAL FREE ENERGY PREDICTED BY IDOCK:   -8.96 KCAL/MOL
REMARK 923 INTER-LIGAND FREE ENERGY PREDICTED BY IDOCK:   -7.91 KCAL/MOL
REMARK 924 INTRA-LIGAND FREE ENERGY PREDICTED BY IDOCK:   -1.05 KCAL/MOL
REMARK 927      BINDING AFFINITY PREDICTED BY RF-SCORE:    0.00 PKD
ROOT
HETATM    1  N   UNL     1     -13.350  15.386  71.496  1.00  0.00    -0.470 NA 
HETATM    2  H   UNL     1     -13.422  15.985  70.674  1.00  0.00     0.000 HD 
HETATM    3  C   UNL     1     -13.527  15.936  72.831  1.00  0.00    -0.554 C  
ENDROOT
BRANCH   1   4
HETATM    4  C   UNL     1     -13.079  14.022  71.362  1.00  0.00    -0.353 A  
HETATM    5  C   UNL     1     -13.506  13.047  72.267  1.00  0.00    -0.645 A  
HETATM    6  C   UNL     1     -13.177  11.700  72.078  1.00  0.00    -0.443 A  
HETATM    7  C   UNL     1     -12.444  11.291  70.959  1.00  0.00    -0.503 A  
HETATM    8  C   UNL     1     -12.069  12.256  70.020  1.00  0.00    -0.346 A  
HETATM    9  C   UNL     1     -12.405  13.601  70.212  1.00  0.00    -0.392 A  
BRANCH   7  10
HETATM   10  C   UNL     1     -12.027   9.885  70.860  1.00  0.00    -0.434 C  
HETATM   11  C   UNL     1     -11.540   9.164  71.883  1.00  0.00    -0.430 C  
BRANCH  11  12
HETATM   12  C   UNL     1     -11.167   7.748  71.788  1.00  0.00    -0.298 A  
HETATM   13  C   UNL     1     -10.864   6.953  72.892  1.00  0.00    -0.285 A  
HETATM   14  N   UNL     1     -10.490   5.653  72.832  1.00  0.00    -0.201 NA 
HETATM   15  C   UNL     1     -10.370   5.117  71.602  1.00  0.00    -0.207 A  
HETATM   16  C   UNL     1     -11.030   7.149  70.535  1.00  0.00    -0.287 A  
HETATM   17  C   UNL     1     -10.617   5.818  70.432  1.00  0.00    -0.365 A  
BRANCH  15  18
HETATM   18  O   UNL     1      -9.950   3.812  71.458  1.00  0.00    -0.179 OA 
BRANCH  18  19
HETATM   19  C   UNL     1      -8.528   3.675  71.580  1.00  0.00    -0.073 C  
BRANCH  19  20
HETATM   20  C   UNL     1      -7.999   2.885  70.385  1.00  0.00    -0.042 C  
BRANCH  20  21
HETATM   21  O   UNL     1      -8.395   3.538  69.175  1.00  0.00    -0.059 OA 
BRANCH  21  22
HETATM   22  C   UNL     1      -9.146   2.673  68.327  1.00  0.00    -0.179 C  
BRANCH  22  23
HETATM   23  C   UNL     1      -8.820   2.995  66.873  1.00  0.00    -0.145 C  
BRANCH  23  24
HETATM   24  O   UNL     1      -8.883   4.408  66.678  1.00  0.00    -0.111 OA 
BRANCH  24  25
HETATM   25  C   UNL     1     -10.233   4.853  66.528  1.00  0.00    -0.270 C  
HETATM   26  C   UNL     1     -10.319   6.329  66.869  1.00  0.00    -0.244 C  
HETATM   27  F   UNL     1     -11.603   6.749  66.727  1.00  0.00    -0.396 F  
ENDBRANCH  24  25
ENDBRANCH  23  24
ENDBRANCH  22  23
ENDBRANCH  21  22
ENDBRANCH  20  21
ENDBRANCH  19  20
ENDBRANCH  18  19
ENDBRANCH  15  18
ENDBRANCH  11  12
ENDBRANCH   7  10
ENDBRANCH   1   4
TORSDOF 11
ENDMDL
MODEL       57
REMARK 921   NORMALIZED FREE ENERGY PREDICTED BY IDOCK:   -4.92 KCAL/MOL
REMARK 922        TOTAL FREE ENERGY PREDICTED BY IDOCK:   -8.94 KCAL/MOL
REMARK 923 INTER-LIGAND FREE ENERGY PREDICTED BY IDOCK:   -7.75 KCAL/MOL
REMARK 924 INTRA-LIGAND FREE ENERGY PREDICTED BY IDOCK:   -1.19 KCAL/MOL
REMARK 927      BINDING AFFINITY PREDICTED BY RF-SCORE:    0.00 PKD
ROOT
HETATM    1  N   UNL     1     -11.074  16.204  64.417  1.00  0.00    -1.052 NA 
HETATM    2  H   UNL     1     -11.227  16.122  63.412  1.00  0.00     0.000 HD 
HETATM    3  C   UNL     1     -10.800  17.498  65.022  1.00  0.00     0.407 C  
ENDROOT
BRANCH   1   4
HETATM    4  C   UNL     1     -11.123  15.075  65.239  1.00  0.00    -0.386 A  
HETATM    5  C   UNL     1     -12.169  14.149  65.235  1.00  0.00    -0.440 A  
HETATM    6  C   UNL     1     -12.160  13.053  66.104  1.00  0.00    -0.473 A  
HETATM    7  C   UNL     1     -11.085  12.835  66.973  1.00  0.00    -0.316 A  
HETATM    8  C   UNL     1     -10.008  13.726  66.935  1.00  0.00    -0.264 A  
HETATM    9  C   UNL     1     -10.021  14.818  66.060  1.00  0.00    -0.336 A  
BRANCH   7  10
HETATM   10  C   UNL     1     -11.170  11.735  67.943  1.00  0.00    -0.331 C  
HETATM   11  C   UNL     1     -11.676  11.852  69.182  1.00  0.00    -0.380 C  
BRANCH  11  12
HETATM   12  C   UNL     1     -11.798  10.739  70.130  1.00  0.00    -0.427 A  
HETATM   13  C   UNL     1     -12.786  10.664  71.110  1.00  0.00    -0.420 A  
HETATM   14  N   UNL     1     -12.906   9.665  72.016  1.00  0.00    -0.406 NA 
HETATM   15  C   UNL     1     -11.967   8.700  71.975  1.00  0.00    -0.372 A  
HETATM   16  C   UNL     1     -10.849   9.717  70.126  1.00  0.00    -0.325 A  
HETATM   17  C   UNL     1     -10.922   8.684  71.064  1.00  0.00    -0.314 A  
BRANCH  15  18
HETATM   18  O   UNL     1     -11.996   7.672  72.894  1.00  0.00    -0.161 OA 
BRANCH  18  19
HETATM   19  C   UNL     1     -11.400   6.469  72.392  1.00  0.00    -0.279 C  
BRANCH  19  20
HETATM   20  C   UNL     1     -10.900   5.632  73.568  1.00  0.00    -0.255 C  
BRANCH  20  21
HETATM   21  O   UNL     1     -10.211   6.481  74.491  1.00  0.00    -0.358 OA 
BRANCH  21  22
HETATM   22  C   UNL     1      -8.843   6.657  74.130  1.00  0.00    -0.158 C  
BRANCH  22  23
HETATM   23  C   UNL     1      -8.524   8.148  74.100  1.00  0.00    -0.186 C  
BRANCH  23  24
HETATM   24  O   UNL     1      -7.979   8.488  72.825  1.00  0.00    -0.323 OA 
BRANCH  24  25
HETATM   25  C   UNL     1      -7.371   7.357  72.200  1.00  0.00    -0.072 C  
HETATM   26  C   UNL     1      -7.473   7.498  70.692  1.00  0.00    -0.077 C  
HETATM   27  F   UNL     1      -6.895   6.419  70.100  1.00  0.00    -0.049 F  
ENDBRANCH  24  25
ENDBRANCH  23  24
ENDBRANCH  22  23
ENDBRANCH  21  22
ENDBRANCH  20  21
ENDBRANCH  19  20
ENDBRANCH  18  19
ENDBRANCH  15  18
ENDBRANCH  11  12
ENDBRANCH   7  10
ENDBRANCH   1   4
TORSDOF 11
ENDMDL
MODEL       58
REMARK 921   NORMALIZED FREE ENERGY PREDICTED BY IDOCK:   -4.91 KCAL/MOL
REMARK 922        TOTAL FREE ENERGY PREDICTED BY IDOCK:   -8.92 KCAL/MOL
REMARK 923 INTER-LIGAND FREE ENERGY PREDICTED BY IDOCK:   -8.30 KCAL/MOL
REMARK 924 INTRA-LIGAND FREE ENERGY PREDICTED BY IDOCK:   -0.62 KCAL/MOL
REMARK 927      BINDING AFFINITY PREDICTED BY RF-SCORE:    0.00 PKD
ROOT
HETATM    1  N   UNL     1      -9.184   2.893  70.943  1.00  0.00    -0.123 NA 
HETATM    2  H   UNL     1      -9.151   1.941  70.580  1.00  0.00     0.000 HD 
HETATM    3  C   UNL     1      -8.805   3.177  72.318  1.00  0.00    -0.086 C  
ENDROOT
BRANCH   1   4
HETATM    4  C   UNL     1      -9.593   3.952  70.127  1.00  0.00    -0.197 A  
HETATM    5  C   UNL     1      -9.490   3.951  68.734  1.00  0.00    -0.224 A  
HETATM    6  C   UNL     1      -9.900   5.058  67.984  1.00  0.00    -0.202 A  
HETATM    7  C   UNL     1     -10.461   6.179  68.606  1.00  0.00    -0.285 A  
HETATM    8  C   UNL     1     -10.623   6.157  69.995  1.00  0.00    -0.323 A  
HETATM    9  C   UNL     1     -10.214   5.045  70.739  1.00  0.00    -0.299 A  
BRANCH   7  10
HETATM   10  C   UNL     1     -10.775   7.360  67.791  1.00  0.00    -0.249 C  
HETATM   11  C   UNL     1     -10.265   8.585  68.000  1.00  0.00    -0.264 C  
BRANCH  11  12
HETATM   12  C   UNL     1     -10.549   9.750  67.154  1.00  0.00    -0.298 A  
HETATM   13  C   UNL     1     -11.389  10.795  67.536  1.00  0.00    -0.205 A  
HETATM   14  N   UNL     1     -11.691  11.867  66.766  1.00  0.00    -0.590 NA 
HETATM   15  C   UNL     1     -11.161  11.888  65.527  1.00  0.00    -0.299 A  
HETATM   16  C   UNL     1     -10.023   9.816  65.864  1.00  0.00    -0.345 A  
HETATM   17  C   UNL     1     -10.336  10.892  65.030  1.00  0.00    -0.356 A  
BRANCH  15  18
HETATM   18  O   UNL     1     -11.460  12.924  64.668  1.00  0.00    -0.305 OA 
BRANCH  18  19
HETATM   19  C   UNL     1     -10.472  13.962  64.696  1.00  0.00    -0.396 C  
BRANCH  19  20
HETATM   20  C   UNL     1     -11.162  15.301  64.949  1.00  0.00    -0.415 C  
BRANCH  20  21
HETATM   21  O   UNL     1     -10.172  16.329  65.049  1.00  0.00    -0.553 OA 
BRANCH  21  22
HETATM   22  C   UNL     1      -9.441  16.243  66.270  1.00  0.00    -0.316 C  
BRANCH  22  23
HETATM   23  C   UNL     1     -10.422  16.163  67.433  1.00  0.00    -0.310 C  
BRANCH  23  24
HETATM   24  O   UNL     1     -10.911  17.472  67.729  1.00  0.00    -0.368 OA 
BRANCH  24  25
HETATM   25  C   UNL     1      -9.879  18.453  67.606  1.00  0.00    -0.313 C  
HETATM   26  C   UNL     1     -10.506  19.826  67.446  1.00  0.00    -0.442 C  
HETATM   27  F   UNL     1      -9.523  20.757  67.327  1.00  0.00    -0.539 F  
ENDBRANCH  24  25
ENDBRANCH  23  24
ENDBRANCH  22  23
ENDBRANCH  21  22
ENDBRANCH  20  21
ENDBRANCH  19  20
ENDBRANCH  18  19
ENDBRANCH  15  18
ENDBRANCH  11  12
ENDBRANCH   7  10
ENDBRANCH   1   4
TORSDOF 11
ENDMDL
MODEL       59
REMARK 921   NORMALIZED FREE ENERGY PREDICTED BY IDOCK:   -4.90 KCAL/MOL
REMARK 922        TOTAL FREE ENERGY PREDICTED BY IDOCK:   -8.91 KCAL/MOL
REMARK 923 INTER-LIGAND FREE ENERGY PREDICTED BY IDOCK:   -8.12 KCAL/MOL
REMARK 924 INTRA-LIGAND FREE ENERGY PREDICTED BY IDOCK:   -0.79 KCAL/MOL
REMARK 927      BINDING AFFINITY PREDICTED BY RF-SCORE:    0.00 PKD
ROOT
HETATM    1  N   UNL     1     -10.497   5.938  68.789  1.00  0.00    -0.222 NA 
HETATM    2  H   UNL     1     -10.912   5.616  69.664  1.00  0.00     0.000 HD 
HETATM    3  C   UNL     1      -9.876   4.996  67.872  1.00  0.00    -0.151 C  
ENDROOT
BRANCH   1   4
HETATM    4  C   UNL     1     -10.515   7.294  68.450  1.00  0.00    -0.195 A  
HETATM    5  C   UNL     1     -10.709   8.328  69.369  1.00  0.00    -0.160 A  
HETATM    6  C   UNL     1     -10.737   9.663  68.950  1.00  0.00    -0.230 A  
HETATM    7  C   UNL     1     -10.534   9.998  67.607  1.00  0.00    -0.297 A  
HETATM    8  C   UNL     1     -10.279   8.969  66.696  1.00  0.00    -0.333 A  
HETATM    9  C   UNL     1     -10.248   7.637  67.121  1.00  0.00    -0.360 A  
BRANCH   7  10
HETATM   10  C   UNL     1     -10.682  11.402  67.197  1.00  0.00    -0.292 C  
HETATM   11  C   UNL     1      -9.664  12.269  67.077  1.00  0.00    -0.207 C  
BRANCH  11  12
HETATM   12  C   UNL     1      -9.814  13.656  66.624  1.00  0.00    -0.284 A  
HETATM   13  C   UNL     1      -9.305  14.754  67.316  1.00  0.00    -0.206 A  
HETATM   14  N   UNL     1      -9.453  16.046  66.938  1.00  0.00    -0.220 NA 
HETATM   15  C   UNL     1     -10.182  16.268  65.827  1.00  0.00    -0.367 A  
HETATM   16  C   UNL     1     -10.561  13.936  65.479  1.00  0.00    -0.318 A  
HETATM   17  C   UNL     1     -10.760  15.258  65.074  1.00  0.00    -0.461 A  
BRANCH  15  18
HETATM   18  O   UNL     1     -10.414  17.560  65.403  1.00  0.00    -0.647 OA 
BRANCH  18  19
HETATM   19  C   UNL     1     -10.481  18.491  66.491  1.00  0.00    -0.398 C  
BRANCH  19  20
HETATM   20  C   UNL     1     -10.157  19.890  65.970  1.00  0.00    -0.487 C  
BRANCH  20  21
HETATM   21  O   UNL     1      -9.675  20.694  67.050  1.00  0.00    -0.439 OA 
BRANCH  21  22
HETATM   22  C   UNL     1      -9.074  19.904  68.073  1.00  0.00    -0.299 C  
BRANCH  22  23
HETATM   23  C   UNL     1      -7.558  20.019  67.964  1.00  0.00    -0.278 C  
BRANCH  23  24
HETATM   24  O   UNL     1      -7.224  21.235  67.294  1.00  0.00    -0.508 OA 
BRANCH  24  25
HETATM   25  C   UNL     1      -6.239  21.017  66.282  1.00  0.00    -0.261 C  
HETATM   26  C   UNL     1      -6.703  19.908  65.356  1.00  0.00    -0.295 C  
HETATM   27  F   UNL     1      -5.764  19.701  64.396  1.00  0.00    -0.204 F  
ENDBRANCH  24  25
ENDBRANCH  23  24
ENDBRANCH  22  23
ENDBRANCH  21  22
ENDBRANCH  20  21
ENDBRANCH  19  20
ENDBRANCH  18  19
ENDBRANCH  15  18
ENDBRANCH  11  12
ENDBRANCH   7  10
ENDBRANCH   1   4
TORSDOF 11
ENDMDL
MODEL       60
REMARK 921   NORMALIZED FREE ENERGY PREDICTED BY IDOCK:   -4.90 KCAL/MOL
REMARK 922        TOTAL FREE ENERGY PREDICTED BY IDOCK:   -8.91 KCAL/MOL
REMARK 923 INTER-LIGAND FREE ENERGY PREDICTED BY IDOCK:   -8.17 KCAL/MOL
REMARK 924 INTRA-LIGAND FREE ENERGY PREDICTED BY IDOCK:   -0.74 KCAL/MOL
REMARK 927      BINDING AFFINITY PREDICTED BY RF-SCORE:    0.00 PKD
ROOT
HETATM    1  N   UNL     1      -8.547  20.524  66.368  1.00  0.00    -0.543 NA 
HETATM    2  H   UNL     1      -9.026  21.095  65.672  1.00  0.00     0.000 HD 
HETATM    3  C   UNL     1      -7.177  20.822  66.756  1.00  0.00    -0.227 C  
ENDROOT
BRANCH   1   4
HETATM    4  C   UNL     1      -9.195  19.440  66.968  1.00  0.00    -0.318 A  
HETATM    5  C   UNL     1      -9.548  19.390  68.318  1.00  0.00    -0.454 A  
HETATM    6  C   UNL     1     -10.175  18.260  68.853  1.00  0.00    -0.299 A  
HETATM    7  C   UNL     1     -10.500  17.167  68.042  1.00  0.00    -0.369 A  
HETATM    8  C   UNL     1     -10.204  17.241  66.678  1.00  0.00    -0.319 A  
HETATM    9  C   UNL     1      -9.580  18.375  66.147  1.00  0.00    -0.195 A  
BRANCH   7  10
HETATM   10  C   UNL     1     -11.057  15.960  68.668  1.00  0.00    -0.337 C  
HETATM   11  C   UNL     1     -11.011  14.733  68.124  1.00  0.00    -0.274 C  
BRANCH  11  12
HETATM   12  C   UNL     1     -11.530  13.524  68.775  1.00  0.00    -0.349 A  
HETATM   13  C   UNL     1     -11.728  12.314  68.112  1.00  0.00    -0.349 A  
HETATM   14  N   UNL     1     -12.232  11.193  68.680  1.00  0.00    -0.549 NA 
HETATM   15  C   UNL     1     -12.600  11.285  69.973  1.00  0.00    -0.104 A  
HETATM   16  C   UNL     1     -11.925  13.571  70.113  1.00  0.00    -0.399 A  
HETATM   17  C   UNL     1     -12.477  12.443  70.724  1.00  0.00    -0.356 A  
BRANCH  15  18
HETATM   18  O   UNL     1     -13.163  10.198  70.607  1.00  0.00    -0.336 OA 
BRANCH  18  19
HETATM   19  C   UNL     1     -12.699  10.046  71.954  1.00  0.00    -0.398 C  
BRANCH  19  20
HETATM   20  C   UNL     1     -12.469   8.564  72.239  1.00  0.00    -0.387 C  
BRANCH  20  21
HETATM   21  O   UNL     1     -11.505   8.050  71.314  1.00  0.00    -0.259 OA 
BRANCH  21  22
HETATM   22  C   UNL     1     -11.719   6.669  71.038  1.00  0.00    -0.360 C  
BRANCH  22  23
HETATM   23  C   UNL     1     -11.113   6.334  69.680  1.00  0.00    -0.412 C  
BRANCH  23  24
HETATM   24  O   UNL     1      -9.689   6.358  69.779  1.00  0.00    -0.153 OA 
BRANCH  24  25
HETATM   25  C   UNL     1      -9.101   5.251  69.095  1.00  0.00    -0.108 C  
HETATM   26  C   UNL     1      -9.563   3.956  69.739  1.00  0.00    -0.201 C  
HETATM   27  F   UNL     1      -9.000   2.905  69.088  1.00  0.00    -0.114 F  
ENDBRANCH  24  25
ENDBRANCH  23  24
ENDBRANCH  22  23
ENDBRANCH  21  22
ENDBRANCH  20  21
ENDBRANCH  19  20
ENDBRANCH  18  19
ENDBRANCH  15  18
ENDBRANCH  11  12
ENDBRANCH   7  10
ENDBRANCH   1   4
TORSDOF 11
ENDMDL
MODEL       61
REMARK 921   NORMALIZED FREE ENERGY PREDICTED BY IDOCK:   -4.90 KCAL/MOL
REMARK 922        TOTAL FREE ENERGY PREDICTED BY IDOCK:   -8.91 KCAL/MOL
REMARK 923 INTER-LIGAND FREE ENERGY PREDICTED BY IDOCK:   -8.26 KCAL/MOL
REMARK 924 INTRA-LIGAND FREE ENERGY PREDICTED BY IDOCK:   -0.65 KCAL/MOL
REMARK 927      BINDING AFFINITY PREDICTED BY RF-SCORE:    0.00 PKD
ROOT
HETATM    1  N   UNL     1     -10.438   4.549  72.893  1.00  0.00    -0.183 NA 
HETATM    2  H   UNL     1     -11.250   3.949  73.036  1.00  0.00     0.000 HD 
HETATM    3  C   UNL     1      -9.256   4.409  73.728  1.00  0.00    -0.106 C  
ENDROOT
BRANCH   1   4
HETATM    4  C   UNL     1     -10.440   5.521  71.889  1.00  0.00    -0.225 A  
HETATM    5  C   UNL     1     -10.780   6.860  72.097  1.00  0.00    -0.248 A  
HETATM    6  C   UNL     1     -10.780   7.773  71.037  1.00  0.00    -0.241 A  
HETATM    7  C   UNL     1     -10.404   7.377  69.749  1.00  0.00    -0.226 A  
HETATM    8  C   UNL     1     -10.003   6.053  69.551  1.00  0.00    -0.225 A  
HETATM    9  C   UNL     1     -10.001   5.145  70.616  1.00  0.00    -0.296 A  
BRANCH   7  10
HETATM   10  C   UNL     1     -10.526   8.342  68.647  1.00  0.00    -0.199 C  
HETATM   11  C   UNL     1     -10.969   9.602  68.787  1.00  0.00    -0.153 C  
BRANCH  11  12
HETATM   12  C   UNL     1     -11.046  10.574  67.690  1.00  0.00    -0.375 A  
HETATM   13  C   UNL     1     -11.889  11.684  67.700  1.00  0.00    -0.143 A  
HETATM   14  N   UNL     1     -12.002  12.580  66.690  1.00  0.00    -0.574 NA 
HETATM   15  C   UNL     1     -11.265  12.342  65.588  1.00  0.00    -0.333 A  
HETATM   16  C   UNL     1     -10.302  10.369  66.528  1.00  0.00    -0.287 A  
HETATM   17  C   UNL     1     -10.414  11.256  65.454  1.00  0.00    -0.326 A  
BRANCH  15  18
HETATM   18  O   UNL     1     -11.360  13.185  64.501  1.00  0.00    -0.322 OA 
BRANCH  18  19
HETATM   19  C   UNL     1     -10.814  14.484  64.764  1.00  0.00    -0.393 C  
BRANCH  19  20
HETATM   20  C   UNL     1     -11.774  15.545  64.230  1.00  0.00    -0.190 C  
BRANCH  20  21
HETATM   21  O   UNL     1     -11.211  16.842  64.450  1.00  0.00    -1.159 OA 
BRANCH  21  22
HETATM   22  C   UNL     1     -10.642  16.960  65.751  1.00  0.00    -0.230 C  
BRANCH  22  23
HETATM   23  C   UNL     1     -10.236  18.409  65.988  1.00  0.00    -0.336 C  
BRANCH  23  24
HETATM   24  O   UNL     1      -8.813  18.516  65.929  1.00  0.00    -0.482 OA 
BRANCH  24  25
HETATM   25  C   UNL     1      -8.386  19.871  66.083  1.00  0.00    -0.317 C  
HETATM   26  C   UNL     1      -7.537  19.993  67.336  1.00  0.00    -0.281 C  
HETATM   27  F   UNL     1      -7.134  21.282  67.482  1.00  0.00    -0.410 F  
ENDBRANCH  24  25
ENDBRANCH  23  24
ENDBRANCH  22  23
ENDBRANCH  21  22
ENDBRANCH  20  21
ENDBRANCH  19  20
ENDBRANCH  18  19
ENDBRANCH  15  18
ENDBRANCH  11  12
ENDBRANCH   7  10
ENDBRANCH   1   4
TORSDOF 11
ENDMDL
MODEL       62
REMARK 921   NORMALIZED FREE ENERGY PREDICTED BY IDOCK:   -4.90 KCAL/MOL
REMARK 922        TOTAL FREE ENERGY PREDICTED BY IDOCK:   -8.91 KCAL/MOL
REMARK 923 INTER-LIGAND FREE ENERGY PREDICTED BY IDOCK:   -8.27 KCAL/MOL
REMARK 924 INTRA-LIGAND FREE ENERGY PREDICTED BY IDOCK:   -0.63 KCAL/MOL
REMARK 927      BINDING AFFINITY PREDICTED BY RF-SCORE:    0.00 PKD
ROOT
HETATM    1  N   UNL     1     -10.729   4.046  73.854  1.00  0.00    -0.221 NA 
HETATM    2  H   UNL     1     -10.639   4.557  74.732  1.00  0.00     0.000 HD 
HETATM    3  C   UNL     1     -10.850   2.596  73.849  1.00  0.00    -0.196 C  
ENDROOT
BRANCH   1   4
HETATM    4  C   UNL     1     -10.739   4.725  72.633  1.00  0.00    -0.199 A  
HETATM    5  C   UNL     1      -9.950   4.372  71.535  1.00  0.00    -0.250 A  
HETATM    6  C   UNL     1      -9.997   5.114  70.350  1.00  0.00    -0.316 A  
HETATM    7  C   UNL     1     -10.863   6.206  70.221  1.00  0.00    -0.385 A  
HETATM    8  C   UNL     1     -11.698   6.523  71.296  1.00  0.00    -0.386 A  
HETATM    9  C   UNL     1     -11.649   5.775  72.477  1.00  0.00    -0.321 A  
BRANCH   7  10
HETATM   10  C   UNL     1     -10.798   7.021  69.000  1.00  0.00    -0.212 C  
HETATM   11  C   UNL     1     -10.600   8.350  68.984  1.00  0.00    -0.172 C  
BRANCH  11  12
HETATM   12  C   UNL     1     -10.492   9.151  67.760  1.00  0.00    -0.306 A  
HETATM   13  C   UNL     1      -9.813   8.729  66.618  1.00  0.00    -0.265 A  
HETATM   14  N   UNL     1      -9.672   9.458  65.485  1.00  0.00    -0.276 NA 
HETATM   15  C   UNL     1     -10.203  10.696  65.497  1.00  0.00    -0.262 A  
HETATM   16  C   UNL     1     -11.025  10.440  67.724  1.00  0.00    -0.369 A  
HETATM   17  C   UNL     1     -10.875  11.233  66.583  1.00  0.00    -0.325 A  
BRANCH  15  18
HETATM   18  O   UNL     1     -10.062  11.515  64.397  1.00  0.00    -0.249 OA 
BRANCH  18  19
HETATM   19  C   UNL     1     -11.283  11.662  63.660  1.00  0.00    -0.411 C  
BRANCH  19  20
HETATM   20  C   UNL     1     -11.770  13.104  63.784  1.00  0.00    -0.461 C  
BRANCH  20  21
HETATM   21  O   UNL     1     -10.664  13.947  64.120  1.00  0.00    -0.235 OA 
BRANCH  21  22
HETATM   22  C   UNL     1     -10.941  14.755  65.262  1.00  0.00    -0.374 C  
BRANCH  22  23
HETATM   23  C   UNL     1     -11.012  16.215  64.833  1.00  0.00    -0.349 C  
BRANCH  23  24
HETATM   24  O   UNL     1     -10.086  16.979  65.606  1.00  0.00    -0.554 OA 
BRANCH  24  25
HETATM   25  C   UNL     1     -10.637  18.245  65.976  1.00  0.00    -0.296 C  
HETATM   26  C   UNL     1     -10.572  18.402  67.484  1.00  0.00    -0.416 C  
HETATM   27  F   UNL     1     -11.098  19.606  67.833  1.00  0.00    -0.467 F  
ENDBRANCH  24  25
ENDBRANCH  23  24
ENDBRANCH  22  23
ENDBRANCH  21  22
ENDBRANCH  20  21
ENDBRANCH  19  20
ENDBRANCH  18  19
ENDBRANCH  15  18
ENDBRANCH  11  12
ENDBRANCH   7  10
ENDBRANCH   1   4
TORSDOF 11
ENDMDL
MODEL       63
REMARK 921   NORMALIZED FREE ENERGY PREDICTED BY IDOCK:   -4.88 KCAL/MOL
REMARK 922        TOTAL FREE ENERGY PREDICTED BY IDOCK:   -8.87 KCAL/MOL
REMARK 923 INTER-LIGAND FREE ENERGY PREDICTED BY IDOCK:   -8.14 KCAL/MOL
REMARK 924 INTRA-LIGAND FREE ENERGY PREDICTED BY IDOCK:   -0.73 KCAL/MOL
REMARK 927      BINDING AFFINITY PREDICTED BY RF-SCORE:    0.00 PKD
ROOT
HETATM    1  N   UNL     1      -8.597  20.555  66.666  1.00  0.00    -0.549 NA 
HETATM    2  H   UNL     1      -8.997  21.122  65.920  1.00  0.00     0.000 HD 
HETATM    3  C   UNL     1      -7.296  20.881  67.230  1.00  0.00    -0.321 C  
ENDROOT
BRANCH   1   4
HETATM    4  C   UNL     1      -9.288  19.448  67.167  1.00  0.00    -0.320 A  
HETATM    5  C   UNL     1      -9.539  19.231  68.524  1.00  0.00    -0.465 A  
HETATM    6  C   UNL     1     -10.218  18.086  68.954  1.00  0.00    -0.320 A  
HETATM    7  C   UNL     1     -10.697  17.148  68.033  1.00  0.00    -0.372 A  
HETATM    8  C   UNL     1     -10.502  17.394  66.671  1.00  0.00    -0.253 A  
HETATM    9  C   UNL     1      -9.825  18.543  66.247  1.00  0.00    -0.352 A  
BRANCH   7  10
HETATM   10  C   UNL     1     -11.307  15.909  68.535  1.00  0.00    -0.374 C  
HETATM   11  C   UNL     1     -10.762  14.688  68.406  1.00  0.00    -0.242 C  
BRANCH  11  12
HETATM   12  C   UNL     1     -11.354  13.461  68.949  1.00  0.00    -0.331 A  
HETATM   13  C   UNL     1     -11.463  12.272  68.229  1.00  0.00    -0.315 A  
HETATM   14  N   UNL     1     -12.031  11.134  68.694  1.00  0.00    -0.546 NA 
HETATM   15  C   UNL     1     -12.558  11.186  69.933  1.00  0.00    -0.105 A  
HETATM   16  C   UNL     1     -11.914  13.466  70.227  1.00  0.00    -0.378 A  
HETATM   17  C   UNL     1     -12.534  12.320  70.729  1.00  0.00    -0.356 A  
BRANCH  15  18
HETATM   18  O   UNL     1     -13.193  10.080  70.458  1.00  0.00    -0.232 OA 
BRANCH  18  19
HETATM   19  C   UNL     1     -13.239  10.101  71.890  1.00  0.00    -0.452 C  
BRANCH  19  20
HETATM   20  C   UNL     1     -12.627   8.809  72.427  1.00  0.00    -0.363 C  
BRANCH  20  21
HETATM   21  O   UNL     1     -11.260   8.728  72.014  1.00  0.00    -0.341 OA 
BRANCH  21  22
HETATM   22  C   UNL     1     -10.493   7.894  72.879  1.00  0.00    -0.355 C  
BRANCH  22  23
HETATM   23  C   UNL     1      -9.066   7.808  72.351  1.00  0.00    -0.155 C  
BRANCH  23  24
HETATM   24  O   UNL     1      -8.223   8.655  73.132  1.00  0.00    -0.409 OA 
BRANCH  24  25
HETATM   25  C   UNL     1      -6.927   8.080  73.307  1.00  0.00    -0.103 C  
HETATM   26  C   UNL     1      -7.069   6.601  73.615  1.00  0.00    -0.080 C  
HETATM   27  F   UNL     1      -5.835   6.056  73.784  1.00  0.00    -0.049 F  
ENDBRANCH  24  25
ENDBRANCH  23  24
ENDBRANCH  22  23
ENDBRANCH  21  22
ENDBRANCH  20  21
ENDBRANCH  19  20
ENDBRANCH  18  19
ENDBRANCH  15  18
ENDBRANCH  11  12
ENDBRANCH   7  10
ENDBRANCH   1   4
TORSDOF 11
ENDMDL
MODEL       64
REMARK 921   NORMALIZED FREE ENERGY PREDICTED BY IDOCK:   -4.87 KCAL/MOL
REMARK 922        TOTAL FREE ENERGY PREDICTED BY IDOCK:   -8.86 KCAL/MOL
REMARK 923 INTER-LIGAND FREE ENERGY PREDICTED BY IDOCK:   -7.52 KCAL/MOL
REMARK 924 INTRA-LIGAND FREE ENERGY PREDICTED BY IDOCK:   -1.34 KCAL/MOL
REMARK 927      BINDING AFFINITY PREDICTED BY RF-SCORE:    0.00 PKD
ROOT
HETATM    1  N   UNL     1     -13.466  15.953  73.271  1.00  0.00    -0.688 NA 
HETATM    2  H   UNL     1     -14.401  16.360  73.237  1.00  0.00     0.000 HD 
HETATM    3  C   UNL     1     -12.490  16.419  74.243  1.00  0.00    -0.429 C  
ENDROOT
BRANCH   1   4
HETATM    4  C   UNL     1     -13.100  14.936  72.386  1.00  0.00    -0.366 A  
HETATM    5  C   UNL     1     -13.454  13.594  72.546  1.00  0.00    -0.675 A  
HETATM    6  C   UNL     1     -13.030  12.626  71.628  1.00  0.00    -0.400 A  
HETATM    7  C   UNL     1     -12.274  12.983  70.507  1.00  0.00    -0.392 A  
HETATM    8  C   UNL     1     -11.971  14.334  70.311  1.00  0.00    -0.398 A  
HETATM    9  C   UNL     1     -12.401  15.297  71.230  1.00  0.00    -0.424 A  
BRANCH   7  10
HETATM   10  C   UNL     1     -11.759  11.921  69.632  1.00  0.00    -0.413 C  
HETATM   11  C   UNL     1     -10.547  11.934  69.053  1.00  0.00    -0.152 C  
BRANCH  11  12
HETATM   12  C   UNL     1     -10.022  10.849  68.216  1.00  0.00    -0.187 A  
HETATM   13  C   UNL     1      -8.696  10.772  67.794  1.00  0.00    -0.130 A  
HETATM   14  N   UNL     1      -8.192   9.799  66.999  1.00  0.00    -0.117 NA 
HETATM   15  C   UNL     1      -9.061   8.867  66.562  1.00  0.00    -0.166 A  
HETATM   16  C   UNL     1     -10.885   9.861  67.740  1.00  0.00    -0.321 A  
HETATM   17  C   UNL     1     -10.406   8.858  66.893  1.00  0.00    -0.332 A  
BRANCH  15  18
HETATM   18  O   UNL     1      -8.631   7.870  65.712  1.00  0.00    -0.141 OA 
BRANCH  18  19
HETATM   19  C   UNL     1      -8.918   6.558  66.214  1.00  0.00    -0.156 C  
BRANCH  19  20
HETATM   20  C   UNL     1      -7.732   6.070  67.043  1.00  0.00    -0.101 C  
BRANCH  20  21
HETATM   21  O   UNL     1      -8.216   5.458  68.242  1.00  0.00    -0.095 OA 
BRANCH  21  22
HETATM   22  C   UNL     1      -9.629   5.587  68.370  1.00  0.00    -0.124 C  
BRANCH  22  23
HETATM   23  C   UNL     1      -9.980   5.780  69.841  1.00  0.00    -0.194 C  
BRANCH  23  24
HETATM   24  O   UNL     1     -10.056   7.177  70.128  1.00  0.00    -0.186 OA 
BRANCH  24  25
HETATM   25  C   UNL     1     -10.721   7.417  71.370  1.00  0.00    -0.219 C  
HETATM   26  C   UNL     1     -11.513   8.708  71.277  1.00  0.00    -0.283 C  
HETATM   27  F   UNL     1     -12.142   8.936  72.460  1.00  0.00    -0.428 F  
ENDBRANCH  24  25
ENDBRANCH  23  24
ENDBRANCH  22  23
ENDBRANCH  21  22
ENDBRANCH  20  21
ENDBRANCH  19  20
ENDBRANCH  18  19
ENDBRANCH  15  18
ENDBRANCH  11  12
ENDBRANCH   7  10
ENDBRANCH   1   4
TORSDOF 11
ENDMDL
MODEL       65
REMARK 921   NORMALIZED FREE ENERGY PREDICTED BY IDOCK:   -4.86 KCAL/MOL
REMARK 922        TOTAL FREE ENERGY PREDICTED BY IDOCK:   -8.84 KCAL/MOL
REMARK 923 INTER-LIGAND FREE ENERGY PREDICTED BY IDOCK:   -7.57 KCAL/MOL
REMARK 924 INTRA-LIGAND FREE ENERGY PREDICTED BY IDOCK:   -1.27 KCAL/MOL
REMARK 927      BINDING AFFINITY PREDICTED BY RF-SCORE:    0.00 PKD
ROOT
HETATM    1  N   UNL     1      -9.006   4.122  65.932  1.00  0.00    -0.121 NA 
HETATM    2  H   UNL     1      -8.577   3.838  65.050  1.00  0.00     0.000 HD 
HETATM    3  C   UNL     1      -9.354   3.132  66.938  1.00  0.00    -0.136 C  
ENDROOT
BRANCH   1   4
HETATM    4  C   UNL     1      -9.269   5.469  66.194  1.00  0.00    -0.158 A  
HETATM    5  C   UNL     1      -8.508   6.527  65.693  1.00  0.00    -0.146 A  
HETATM    6  C   UNL     1      -8.819   7.852  66.019  1.00  0.00    -0.191 A  
HETATM    7  C   UNL     1      -9.924   8.152  66.823  1.00  0.00    -0.349 A  
HETATM    8  C   UNL     1     -10.724   7.099  67.275  1.00  0.00    -0.399 A  
HETATM    9  C   UNL     1     -10.410   5.776  66.943  1.00  0.00    -0.306 A  
BRANCH   7  10
HETATM   10  C   UNL     1     -10.147   9.547  67.228  1.00  0.00    -0.272 C  
HETATM   11  C   UNL     1     -10.169  10.589  66.381  1.00  0.00    -0.296 C  
BRANCH  11  12
HETATM   12  C   UNL     1     -10.437  11.974  66.787  1.00  0.00    -0.243 A  
HETATM   13  C   UNL     1      -9.447  12.947  66.911  1.00  0.00    -0.237 A  
HETATM   14  N   UNL     1      -9.660  14.223  67.311  1.00  0.00    -0.226 NA 
HETATM   15  C   UNL     1     -10.925  14.546  67.647  1.00  0.00    -0.288 A  
HETATM   16  C   UNL     1     -11.730  12.355  67.145  1.00  0.00    -0.415 A  
HETATM   17  C   UNL     1     -11.984  13.654  67.591  1.00  0.00    -0.386 A  
BRANCH  15  18
HETATM   18  O   UNL     1     -11.212  15.814  68.106  1.00  0.00    -0.329 OA 
BRANCH  18  19
HETATM   19  C   UNL     1     -12.014  15.799  69.294  1.00  0.00    -0.289 C  
BRANCH  19  20
HETATM   20  C   UNL     1     -11.104  15.939  70.512  1.00  0.00    -0.364 C  
BRANCH  20  21
HETATM   21  O   UNL     1     -11.719  15.302  71.636  1.00  0.00    -0.336 OA 
BRANCH  21  22
HETATM   22  C   UNL     1     -12.920  14.627  71.271  1.00  0.00    -0.339 C  
BRANCH  22  23
HETATM   23  C   UNL     1     -13.474  13.901  72.491  1.00  0.00    -0.572 C  
BRANCH  23  24
HETATM   24  O   UNL     1     -13.463  12.494  72.248  1.00  0.00    -0.556 OA 
BRANCH  24  25
HETATM   25  C   UNL     1     -12.358  12.116  71.424  1.00  0.00     0.034 C  
HETATM   26  C   UNL     1     -12.644  10.770  70.784  1.00  0.00    -0.383 C  
HETATM   27  F   UNL     1     -11.591  10.412  70.002  1.00  0.00    -0.268 F  
ENDBRANCH  24  25
ENDBRANCH  23  24
ENDBRANCH  22  23
ENDBRANCH  21  22
ENDBRANCH  20  21
ENDBRANCH  19  20
ENDBRANCH  18  19
ENDBRANCH  15  18
ENDBRANCH  11  12
ENDBRANCH   7  10
ENDBRANCH   1   4
TORSDOF 11
ENDMDL
MODEL       66
REMARK 921   NORMALIZED FREE ENERGY PREDICTED BY IDOCK:   -4.85 KCAL/MOL
REMARK 922        TOTAL FREE ENERGY PREDICTED BY IDOCK:   -8.83 KCAL/MOL
REMARK 923 INTER-LIGAND FREE ENERGY PREDICTED BY IDOCK:   -7.46 KCAL/MOL
REMARK 924 INTRA-LIGAND FREE ENERGY PREDICTED BY IDOCK:   -1.37 KCAL/MOL
REMARK 927      BINDING AFFINITY PREDICTED BY RF-SCORE:    0.00 PKD
ROOT
HETATM    1  N   UNL     1     -10.499  18.760  67.218  1.00  0.00    -0.411 NA 
HETATM    2  H   UNL     1     -10.425  19.336  68.057  1.00  0.00     0.000 HD 
HETATM    3  C   UNL     1     -10.653  19.374  65.908  1.00  0.00    -0.459 C  
ENDROOT
BRANCH   1   4
HETATM    4  C   UNL     1     -10.457  17.366  67.306  1.00  0.00    -0.321 A  
HETATM    5  C   UNL     1     -10.006  16.531  66.281  1.00  0.00    -0.346 A  
HETATM    6  C   UNL     1     -10.013  15.140  66.433  1.00  0.00    -0.288 A  
HETATM    7  C   UNL     1     -10.437  14.552  67.630  1.00  0.00    -0.246 A  
HETATM    8  C   UNL     1     -10.830  15.388  68.679  1.00  0.00    -0.259 A  
HETATM    9  C   UNL     1     -10.816  16.778  68.522  1.00  0.00    -0.345 A  
BRANCH   7  10
HETATM   10  C   UNL     1     -10.532  13.087  67.705  1.00  0.00    -0.228 C  
HETATM   11  C   UNL     1      -9.477  12.256  67.679  1.00  0.00    -0.188 C  
BRANCH  11  12
HETATM   12  C   UNL     1      -9.577  10.797  67.799  1.00  0.00    -0.176 A  
HETATM   13  C   UNL     1     -10.381  10.008  66.978  1.00  0.00    -0.243 A  
HETATM   14  N   UNL     1     -10.514   8.664  67.084  1.00  0.00    -0.298 NA 
HETATM   15  C   UNL     1      -9.842   8.069  68.089  1.00  0.00    -0.170 A  
HETATM   16  C   UNL     1      -8.900  10.136  68.825  1.00  0.00    -0.146 A  
HETATM   17  C   UNL     1      -9.036   8.755  68.984  1.00  0.00    -0.141 A  
BRANCH  15  18
HETATM   18  O   UNL     1      -9.964   6.711  68.289  1.00  0.00    -0.137 OA 
BRANCH  18  19
HETATM   19  C   UNL     1     -11.225   6.351  68.867  1.00  0.00    -0.307 C  
BRANCH  19  20
HETATM   20  C   UNL     1     -11.011   5.968  70.330  1.00  0.00    -0.328 C  
BRANCH  20  21
HETATM   21  O   UNL     1     -11.382   7.071  71.164  1.00  0.00    -0.259 OA 
BRANCH  21  22
HETATM   22  C   UNL     1     -12.751   7.004  71.553  1.00  0.00    -0.381 C  
BRANCH  22  23
HETATM   23  C   UNL     1     -13.426   8.331  71.226  1.00  0.00    -0.118 C  
BRANCH  23  24
HETATM   24  O   UNL     1     -13.311   9.208  72.346  1.00  0.00    -0.434 OA 
BRANCH  24  25
HETATM   25  C   UNL     1     -13.155  10.566  71.930  1.00  0.00    -0.462 C  
HETATM   26  C   UNL     1     -12.108  10.640  70.834  1.00  0.00    -0.385 C  
HETATM   27  F   UNL     1     -11.959  11.933  70.441  1.00  0.00    -0.387 F  
ENDBRANCH  24  25
ENDBRANCH  23  24
ENDBRANCH  22  23
ENDBRANCH  21  22
ENDBRANCH  20  21
ENDBRANCH  19  20
ENDBRANCH  18  19
ENDBRANCH  15  18
ENDBRANCH  11  12
ENDBRANCH   7  10
ENDBRANCH   1   4
TORSDOF 11
ENDMDL
MODEL       67
REMARK 921   NORMALIZED FREE ENERGY PREDICTED BY IDOCK:   -4.85 KCAL/MOL
REMARK 922        TOTAL FREE ENERGY PREDICTED BY IDOCK:   -8.82 KCAL/MOL
REMARK 923 INTER-LIGAND FREE ENERGY PREDICTED BY IDOCK:   -7.73 KCAL/MOL
REMARK 924 INTRA-LIGAND FREE ENERGY PREDICTED BY IDOCK:   -1.09 KCAL/MOL
REMARK 927      BINDING AFFINITY PREDICTED BY RF-SCORE:    0.00 PKD
ROOT
HETATM    1  N   UNL     1     -10.953   6.631  68.231  1.00  0.00    -0.448 NA 
HETATM    2  H   UNL     1     -11.406   6.336  69.096  1.00  0.00     0.000 HD 
HETATM    3  C   UNL     1     -10.606   5.658  67.207  1.00  0.00    -0.254 C  
ENDROOT
BRANCH   1   4
HETATM    4  C   UNL     1     -10.653   7.977  68.007  1.00  0.00    -0.128 A  
HETATM    5  C   UNL     1     -10.403   8.524  66.746  1.00  0.00    -0.346 A  
HETATM    6  C   UNL     1     -10.087   9.879  66.602  1.00  0.00    -0.297 A  
HETATM    7  C   UNL     1     -10.050  10.730  67.712  1.00  0.00    -0.201 A  
HETATM    8  C   UNL     1     -10.361  10.198  68.968  1.00  0.00    -0.230 A  
HETATM    9  C   UNL     1     -10.680   8.843  69.105  1.00  0.00    -0.162 A  
BRANCH   7  10
HETATM   10  C   UNL     1      -9.606  12.118  67.527  1.00  0.00    -0.179 C  
HETATM   11  C   UNL     1     -10.006  12.916  66.524  1.00  0.00    -0.259 C  
BRANCH  11  12
HETATM   12  C   UNL     1      -9.593  14.315  66.370  1.00  0.00    -0.317 A  
HETATM   13  C   UNL     1     -10.292  15.247  65.605  1.00  0.00    -0.366 A  
HETATM   14  N   UNL     1      -9.919  16.537  65.422  1.00  0.00    -0.545 NA 
HETATM   15  C   UNL     1      -8.763  16.917  66.000  1.00  0.00    -0.158 A  
HETATM   16  C   UNL     1      -8.403  14.755  66.950  1.00  0.00    -0.184 A  
HETATM   17  C   UNL     1      -7.971  16.070  66.759  1.00  0.00    -0.302 A  
BRANCH  15  18
HETATM   18  O   UNL     1      -8.294  18.201  65.822  1.00  0.00    -0.499 OA 
BRANCH  18  19
HETATM   19  C   UNL     1      -9.046  19.168  66.566  1.00  0.00    -0.341 C  
BRANCH  19  20
HETATM   20  C   UNL     1      -8.893  18.880  68.057  1.00  0.00    -0.306 C  
BRANCH  20  21
HETATM   21  O   UNL     1     -10.182  18.902  68.677  1.00  0.00    -0.381 OA 
BRANCH  21  22
HETATM   22  C   UNL     1     -10.899  17.691  68.452  1.00  0.00    -0.143 C  
BRANCH  22  23
HETATM   23  C   UNL     1     -10.424  16.639  69.447  1.00  0.00    -0.320 C  
BRANCH  23  24
HETATM   24  O   UNL     1     -11.417  16.462  70.458  1.00  0.00    -0.328 OA 
BRANCH  24  25
HETATM   25  C   UNL     1     -11.479  15.104  70.894  1.00  0.00    -0.323 C  
HETATM   26  C   UNL     1     -11.959  14.228  69.752  1.00  0.00    -0.339 C  
HETATM   27  F   UNL     1     -12.019  12.936  70.170  1.00  0.00    -0.373 F  
ENDBRANCH  24  25
ENDBRANCH  23  24
ENDBRANCH  22  23
ENDBRANCH  21  22
ENDBRANCH  20  21
ENDBRANCH  19  20
ENDBRANCH  18  19
ENDBRANCH  15  18
ENDBRANCH  11  12
ENDBRANCH   7  10
ENDBRANCH   1   4
TORSDOF 11
ENDMDL
MODEL       68
REMARK 921   NORMALIZED FREE ENERGY PREDICTED BY IDOCK:   -4.84 KCAL/MOL
REMARK 922        TOTAL FREE ENERGY PREDICTED BY IDOCK:   -8.81 KCAL/MOL
REMARK 923 INTER-LIGAND FREE ENERGY PREDICTED BY IDOCK:   -8.00 KCAL/MOL
REMARK 924 INTRA-LIGAND FREE ENERGY PREDICTED BY IDOCK:   -0.81 KCAL/MOL
REMARK 927      BINDING AFFINITY PREDICTED BY RF-SCORE:    0.00 PKD
ROOT
HETATM    1  N   UNL     1     -11.377   6.542  70.301  1.00  0.00    -0.367 NA 
HETATM    2  H   UNL     1     -11.457   5.789  69.617  1.00  0.00     0.000 HD 
HETATM    3  C   UNL     1     -11.571   6.279  71.718  1.00  0.00    -0.304 C  
ENDROOT
BRANCH   1   4
HETATM    4  C   UNL     1     -11.079   7.845  69.894  1.00  0.00    -0.120 A  
HETATM    5  C   UNL     1     -11.364   8.985  70.650  1.00  0.00    -0.311 A  
HETATM    6  C   UNL     1     -11.057  10.261  70.166  1.00  0.00    -0.385 A  
HETATM    7  C   UNL     1     -10.421  10.427  68.930  1.00  0.00    -0.232 A  
HETATM    8  C   UNL     1     -10.080   9.284  68.200  1.00  0.00    -0.222 A  
HETATM    9  C   UNL     1     -10.386   8.011  68.691  1.00  0.00    -0.224 A  
BRANCH   7  10
HETATM   10  C   UNL     1     -10.218  11.787  68.414  1.00  0.00    -0.208 C  
HETATM   11  C   UNL     1     -10.922  12.330  67.407  1.00  0.00    -0.298 C  
BRANCH  11  12
HETATM   12  C   UNL     1     -10.744  13.705  66.926  1.00  0.00    -0.275 A  
HETATM   13  C   UNL     1     -10.667  14.813  67.767  1.00  0.00    -0.268 A  
HETATM   14  N   UNL     1     -10.532  16.095  67.351  1.00  0.00    -0.305 NA 
HETATM   15  C   UNL     1     -10.511  16.296  66.019  1.00  0.00    -0.331 A  
HETATM   16  C   UNL     1     -10.717  13.963  65.555  1.00  0.00    -0.306 A  
HETATM   17  C   UNL     1     -10.608  15.275  65.087  1.00  0.00    -0.453 A  
BRANCH  15  18
HETATM   18  O   UNL     1     -10.422  17.578  65.518  1.00  0.00    -0.628 OA 
BRANCH  18  19
HETATM   19  C   UNL     1     -10.400  18.571  66.551  1.00  0.00    -0.414 C  
BRANCH  19  20
HETATM   20  C   UNL     1      -9.339  19.617  66.215  1.00  0.00    -0.383 C  
BRANCH  20  21
HETATM   21  O   UNL     1      -8.099  18.958  65.939  1.00  0.00    -0.468 OA 
BRANCH  21  22
HETATM   22  C   UNL     1      -7.119  19.862  65.434  1.00  0.00    -0.261 C  
BRANCH  22  23
HETATM   23  C   UNL     1      -6.537  20.663  66.593  1.00  0.00    -0.265 C  
BRANCH  23  24
HETATM   24  O   UNL     1      -5.285  20.094  66.977  1.00  0.00    -0.158 OA 
BRANCH  24  25
HETATM   25  C   UNL     1      -5.233  19.853  68.384  1.00  0.00    -0.192 C  
HETATM   26  C   UNL     1      -6.557  20.246  69.013  1.00  0.00    -0.246 C  
HETATM   27  F   UNL     1      -6.504  20.017  70.351  1.00  0.00    -0.376 F  
ENDBRANCH  24  25
ENDBRANCH  23  24
ENDBRANCH  22  23
ENDBRANCH  21  22
ENDBRANCH  20  21
ENDBRANCH  19  20
ENDBRANCH  18  19
ENDBRANCH  15  18
ENDBRANCH  11  12
ENDBRANCH   7  10
ENDBRANCH   1   4
TORSDOF 11
ENDMDL
MODEL       69
REMARK 921   NORMALIZED FREE ENERGY PREDICTED BY IDOCK:   -4.83 KCAL/MOL
REMARK 922        TOTAL FREE ENERGY PREDICTED BY IDOCK:   -8.80 KCAL/MOL
REMARK 923 INTER-LIGAND FREE ENERGY PREDICTED BY IDOCK:   -7.95 KCAL/MOL
REMARK 924 INTRA-LIGAND FREE ENERGY PREDICTED BY IDOCK:   -0.85 KCAL/MOL
REMARK 927      BINDING AFFINITY PREDICTED BY RF-SCORE:    0.00 PKD
ROOT
HETATM    1  N   UNL     1      -7.524   6.122  64.283  1.00  0.00    -0.074 NA 
HETATM    2  H   UNL     1      -6.674   6.504  63.867  1.00  0.00     0.000 HD 
HETATM    3  C   UNL     1      -7.976   4.782  63.945  1.00  0.00    -0.098 C  
ENDROOT
BRANCH   1   4
HETATM    4  C   UNL     1      -8.275   6.877  65.188  1.00  0.00    -0.115 A  
HETATM    5  C   UNL     1      -9.079   6.325  66.188  1.00  0.00    -0.153 A  
HETATM    6  C   UNL     1      -9.822   7.145  67.044  1.00  0.00    -0.257 A  
HETATM    7  C   UNL     1      -9.748   8.539  66.946  1.00  0.00    -0.286 A  
HETATM    8  C   UNL     1      -8.896   9.094  65.987  1.00  0.00    -0.200 A  
HETATM    9  C   UNL     1      -8.153   8.269  65.136  1.00  0.00    -0.142 A  
BRANCH   7  10
HETATM   10  C   UNL     1     -10.629   9.357  67.792  1.00  0.00    -0.317 C  
HETATM   11  C   UNL     1     -10.538   9.435  69.130  1.00  0.00    -0.234 C  
BRANCH  11  12
HETATM   12  C   UNL     1     -11.392  10.288  69.964  1.00  0.00    -0.370 A  
HETATM   13  C   UNL     1     -11.451  11.675  69.843  1.00  0.00    -0.228 A  
HETATM   14  N   UNL     1     -12.207  12.489  70.618  1.00  0.00    -0.351 NA 
HETATM   15  C   UNL     1     -12.919  11.898  71.597  1.00  0.00    -0.342 A  
HETATM   16  C   UNL     1     -12.147   9.721  70.992  1.00  0.00    -0.434 A  
HETATM   17  C   UNL     1     -12.916  10.532  71.830  1.00  0.00    -0.582 A  
BRANCH  15  18
HETATM   18  O   UNL     1     -13.678  12.666  72.455  1.00  0.00    -0.471 OA 
BRANCH  18  19
HETATM   19  C   UNL     1     -13.926  13.981  71.942  1.00  0.00    -0.449 C  
BRANCH  19  20
HETATM   20  C   UNL     1     -13.318  15.010  72.893  1.00  0.00    -0.485 C  
BRANCH  20  21
HETATM   21  O   UNL     1     -12.676  16.036  72.129  1.00  0.00    -0.449 OA 
BRANCH  21  22
HETATM   22  C   UNL     1     -11.346  15.673  71.767  1.00  0.00    -0.353 C  
BRANCH  22  23
HETATM   23  C   UNL     1     -11.153  15.918  70.275  1.00  0.00    -0.373 C  
BRANCH  23  24
HETATM   24  O   UNL     1      -9.784  15.695  69.934  1.00  0.00    -0.283 OA 
BRANCH  24  25
HETATM   25  C   UNL     1      -9.391  16.490  68.814  1.00  0.00    -0.247 C  
HETATM   26  C   UNL     1     -10.285  17.713  68.725  1.00  0.00    -0.373 C  
HETATM   27  F   UNL     1      -9.910  18.466  67.657  1.00  0.00    -0.283 F  
ENDBRANCH  24  25
ENDBRANCH  23  24
ENDBRANCH  22  23
ENDBRANCH  21  22
ENDBRANCH  20  21
ENDBRANCH  19  20
ENDBRANCH  18  19
ENDBRANCH  15  18
ENDBRANCH  11  12
ENDBRANCH   7  10
ENDBRANCH   1   4
TORSDOF 11
ENDMDL
MODEL       70
REMARK 921   NORMALIZED FREE ENERGY PREDICTED BY IDOCK:   -4.83 KCAL/MOL
REMARK 922        TOTAL FREE ENERGY PREDICTED BY IDOCK:   -8.80 KCAL/MOL
REMARK 923 INTER-LIGAND FREE ENERGY PREDICTED BY IDOCK:   -7.39 KCAL/MOL
REMARK 924 INTRA-LIGAND FREE ENERGY PREDICTED BY IDOCK:   -1.41 KCAL/MOL
REMARK 927      BINDING AFFINITY PREDICTED BY RF-SCORE:    0.00 PKD
ROOT
HETATM    1  N   UNL     1     -11.634  13.381  63.928  1.00  0.00    -0.572 NA 
HETATM    2  H   UNL     1     -11.587  13.161  62.934  1.00  0.00     0.000 HD 
HETATM    3  C   UNL     1     -12.070  14.694  64.378  1.00  0.00    -0.462 C  
ENDROOT
BRANCH   1   4
HETATM    4  C   UNL     1     -11.281  12.426  64.886  1.00  0.00    -0.311 A  
HETATM    5  C   UNL     1     -10.543  11.274  64.606  1.00  0.00    -0.392 A  
HETATM    6  C   UNL     1     -10.246  10.350  65.614  1.00  0.00    -0.308 A  
HETATM    7  C   UNL     1     -10.648  10.576  66.935  1.00  0.00    -0.303 A  
HETATM    8  C   UNL     1     -11.333  11.758  67.229  1.00  0.00    -0.379 A  
HETATM    9  C   UNL     1     -11.624  12.680  66.218  1.00  0.00    -0.440 A  
BRANCH   7  10
HETATM   10  C   UNL     1     -10.411   9.527  67.937  1.00  0.00    -0.293 C  
HETATM   11  C   UNL     1     -10.188   8.235  67.646  1.00  0.00    -0.294 C  
BRANCH  11  12
HETATM   12  C   UNL     1      -9.908   7.202  68.649  1.00  0.00    -0.154 A  
HETATM   13  C   UNL     1      -8.644   6.971  69.189  1.00  0.00    -0.133 A  
HETATM   14  N   UNL     1      -8.350   6.007  70.093  1.00  0.00    -0.118 NA 
HETATM   15  C   UNL     1      -9.362   5.196  70.458  1.00  0.00    -0.158 A  
HETATM   16  C   UNL     1     -10.924   6.337  69.058  1.00  0.00    -0.437 A  
HETATM   17  C   UNL     1     -10.653   5.312  69.967  1.00  0.00    -0.300 A  
BRANCH  15  18
HETATM   18  O   UNL     1      -9.132   4.162  71.341  1.00  0.00    -0.116 OA 
BRANCH  18  19
HETATM   19  C   UNL     1     -10.274   3.871  72.156  1.00  0.00    -0.126 C  
BRANCH  19  20
HETATM   20  C   UNL     1     -10.321   4.859  73.320  1.00  0.00    -0.186 C  
BRANCH  20  21
HETATM   21  O   UNL     1      -8.986   5.152  73.743  1.00  0.00    -0.118 OA 
BRANCH  21  22
HETATM   22  C   UNL     1      -8.782   6.551  73.923  1.00  0.00    -0.130 C  
BRANCH  22  23
HETATM   23  C   UNL     1     -10.044   7.295  73.504  1.00  0.00    -0.340 C  
BRANCH  23  24
HETATM   24  O   UNL     1      -9.680   8.488  72.810  1.00  0.00    -0.257 OA 
BRANCH  24  25
HETATM   25  C   UNL     1     -10.686   8.872  71.871  1.00  0.00    -0.356 C  
HETATM   26  C   UNL     1     -12.004   8.221  72.250  1.00  0.00    -0.386 C  
HETATM   27  F   UNL     1     -12.959   8.586  71.354  1.00  0.00    -0.315 F  
ENDBRANCH  24  25
ENDBRANCH  23  24
ENDBRANCH  22  23
ENDBRANCH  21  22
ENDBRANCH  20  21
ENDBRANCH  19  20
ENDBRANCH  18  19
ENDBRANCH  15  18
ENDBRANCH  11  12
ENDBRANCH   7  10
ENDBRANCH   1   4
TORSDOF 11
ENDMDL
MODEL       71
REMARK 921   NORMALIZED FREE ENERGY PREDICTED BY IDOCK:   -4.83 KCAL/MOL
REMARK 922        TOTAL FREE ENERGY PREDICTED BY IDOCK:   -8.79 KCAL/MOL
REMARK 923 INTER-LIGAND FREE ENERGY PREDICTED BY IDOCK:   -7.52 KCAL/MOL
REMARK 924 INTRA-LIGAND FREE ENERGY PREDICTED BY IDOCK:   -1.27 KCAL/MOL
REMARK 927      BINDING AFFINITY PREDICTED BY RF-SCORE:    0.00 PKD
ROOT
HETATM    1  N   UNL     1     -11.500  16.197  64.068  1.00  0.00    -1.425 NA 
HETATM    2  H   UNL     1     -11.870  16.385  63.137  1.00  0.00     0.000 HD 
HETATM    3  C   UNL     1     -11.100  17.289  64.942  1.00  0.00     0.414 C  
ENDROOT
BRANCH   1   4
HETATM    4  C   UNL     1     -11.367  14.885  64.529  1.00  0.00    -0.300 A  
HETATM    5  C   UNL     1     -12.249  13.850  64.210  1.00  0.00    -0.447 A  
HETATM    6  C   UNL     1     -12.064  12.564  64.729  1.00  0.00    -0.497 A  
HETATM    7  C   UNL     1     -10.969  12.272  65.549  1.00  0.00    -0.337 A  
HETATM    8  C   UNL     1     -10.051  13.290  65.820  1.00  0.00    -0.293 A  
HETATM    9  C   UNL     1     -10.239  14.573  65.295  1.00  0.00    -0.431 A  
BRANCH   7  10
HETATM   10  C   UNL     1     -10.877  10.938  66.159  1.00  0.00    -0.166 C  
HETATM   11  C   UNL     1      -9.918  10.040  65.878  1.00  0.00    -0.339 C  
BRANCH  11  12
HETATM   12  C   UNL     1      -9.806   8.727  66.524  1.00  0.00    -0.349 A  
HETATM   13  C   UNL     1      -8.928   7.731  66.101  1.00  0.00    -0.163 A  
HETATM   14  N   UNL     1      -8.824   6.501  66.658  1.00  0.00    -0.127 NA 
HETATM   15  C   UNL     1      -9.668   6.226  67.672  1.00  0.00    -0.119 A  
HETATM   16  C   UNL     1     -10.659   8.396  67.577  1.00  0.00    -0.285 A  
HETATM   17  C   UNL     1     -10.601   7.127  68.159  1.00  0.00    -0.241 A  
BRANCH  15  18
HETATM   18  O   UNL     1      -9.652   4.980  68.261  1.00  0.00    -0.127 OA 
BRANCH  18  19
HETATM   19  C   UNL     1      -8.710   4.892  69.338  1.00  0.00    -0.087 C  
BRANCH  19  20
HETATM   20  C   UNL     1      -9.374   4.201  70.527  1.00  0.00    -0.141 C  
BRANCH  20  21
HETATM   21  O   UNL     1     -10.551   4.926  70.897  1.00  0.00    -0.147 OA 
BRANCH  21  22
HETATM   22  C   UNL     1     -10.252   6.010  71.773  1.00  0.00    -0.202 C  
BRANCH  22  23
HETATM   23  C   UNL     1     -11.556   6.623  72.269  1.00  0.00    -0.278 C  
BRANCH  23  24
HETATM   24  O   UNL     1     -11.295   7.924  72.796  1.00  0.00    -0.382 OA 
BRANCH  24  25
HETATM   25  C   UNL     1     -10.547   8.719  71.874  1.00  0.00    -0.354 C  
HETATM   26  C   UNL     1     -11.484   9.674  71.156  1.00  0.00    -0.384 C  
HETATM   27  F   UNL     1     -10.771  10.428  70.279  1.00  0.00    -0.316 F  
ENDBRANCH  24  25
ENDBRANCH  23  24
ENDBRANCH  22  23
ENDBRANCH  21  22
ENDBRANCH  20  21
ENDBRANCH  19  20
ENDBRANCH  18  19
ENDBRANCH  15  18
ENDBRANCH  11  12
ENDBRANCH   7  10
ENDBRANCH   1   4
TORSDOF 11
ENDMDL
MODEL       72
REMARK 921   NORMALIZED FREE ENERGY PREDICTED BY IDOCK:   -4.83 KCAL/MOL
REMARK 922        TOTAL FREE ENERGY PREDICTED BY IDOCK:   -8.79 KCAL/MOL
REMARK 923 INTER-LIGAND FREE ENERGY PREDICTED BY IDOCK:   -7.90 KCAL/MOL
REMARK 924 INTRA-LIGAND FREE ENERGY PREDICTED BY IDOCK:   -0.89 KCAL/MOL
REMARK 927      BINDING AFFINITY PREDICTED BY RF-SCORE:    0.00 PKD
ROOT
HETATM    1  N   UNL     1      -9.236   3.638  66.800  1.00  0.00    -0.169 NA 
HETATM    2  H   UNL     1      -9.060   3.054  65.983  1.00  0.00     0.000 HD 
HETATM    3  C   UNL     1      -9.307   3.051  68.129  1.00  0.00    -0.198 C  
ENDROOT
BRANCH   1   4
HETATM    4  C   UNL     1      -9.413   5.018  66.665  1.00  0.00    -0.146 A  
HETATM    5  C   UNL     1      -8.469   5.875  66.094  1.00  0.00    -0.132 A  
HETATM    6  C   UNL     1      -8.707   7.251  66.013  1.00  0.00    -0.168 A  
HETATM    7  C   UNL     1      -9.911   7.799  66.468  1.00  0.00    -0.244 A  
HETATM    8  C   UNL     1     -10.882   6.936  66.983  1.00  0.00    -0.436 A  
HETATM    9  C   UNL     1     -10.640   5.560  67.058  1.00  0.00    -0.332 A  
BRANCH   7  10
HETATM   10  C   UNL     1     -10.072   9.260  66.464  1.00  0.00    -0.343 C  
HETATM   11  C   UNL     1      -9.962  10.033  65.372  1.00  0.00    -0.364 C  
BRANCH  11  12
HETATM   12  C   UNL     1     -10.167  11.486  65.368  1.00  0.00    -0.311 A  
HETATM   13  C   UNL     1     -10.300  12.244  64.205  1.00  0.00    -0.348 A  
HETATM   14  N   UNL     1     -10.461  13.588  64.171  1.00  0.00    -0.285 NA 
HETATM   15  C   UNL     1     -10.450  14.227  65.357  1.00  0.00    -0.365 A  
HETATM   16  C   UNL     1     -10.163  12.191  66.572  1.00  0.00    -0.230 A  
HETATM   17  C   UNL     1     -10.297  13.582  66.574  1.00  0.00    -0.282 A  
BRANCH  15  18
HETATM   18  O   UNL     1     -10.564  15.600  65.400  1.00  0.00    -0.363 OA 
BRANCH  18  19
HETATM   19  C   UNL     1      -9.502  16.217  66.139  1.00  0.00    -0.327 C  
BRANCH  19  20
HETATM   20  C   UNL     1      -9.951  17.603  66.595  1.00  0.00    -0.328 C  
BRANCH  20  21
HETATM   21  O   UNL     1     -10.699  17.481  67.808  1.00  0.00    -0.380 OA 
BRANCH  21  22
HETATM   22  C   UNL     1     -10.085  16.574  68.720  1.00  0.00    -0.255 C  
BRANCH  22  23
HETATM   23  C   UNL     1     -11.044  16.305  69.875  1.00  0.00    -0.347 C  
BRANCH  23  24
HETATM   24  O   UNL     1     -11.019  14.913  70.193  1.00  0.00    -0.239 OA 
BRANCH  24  25
HETATM   25  C   UNL     1     -11.969  14.596  71.212  1.00  0.00    -0.343 C  
HETATM   26  C   UNL     1     -13.154  15.538  71.108  1.00  0.00    -0.507 C  
HETATM   27  F   UNL     1     -14.055  15.236  72.079  1.00  0.00    -0.456 F  
ENDBRANCH  24  25
ENDBRANCH  23  24
ENDBRANCH  22  23
ENDBRANCH  21  22
ENDBRANCH  20  21
ENDBRANCH  19  20
ENDBRANCH  18  19
ENDBRANCH  15  18
ENDBRANCH  11  12
ENDBRANCH   7  10
ENDBRANCH   1   4
TORSDOF 11
ENDMDL
MODEL       73
REMARK 921   NORMALIZED FREE ENERGY PREDICTED BY IDOCK:   -4.82 KCAL/MOL
REMARK 922        TOTAL FREE ENERGY PREDICTED BY IDOCK:   -8.78 KCAL/MOL
REMARK 923 INTER-LIGAND FREE ENERGY PREDICTED BY IDOCK:   -7.93 KCAL/MOL
REMARK 924 INTRA-LIGAND FREE ENERGY PREDICTED BY IDOCK:   -0.85 KCAL/MOL
REMARK 927      BINDING AFFINITY PREDICTED BY RF-SCORE:    0.00 PKD
ROOT
HETATM    1  N   UNL     1     -12.235  14.516  63.857  1.00  0.00    -1.006 NA 
HETATM    2  H   UNL     1     -12.601  14.190  62.963  1.00  0.00     0.000 HD 
HETATM    3  C   UNL     1     -11.998  15.932  64.089  1.00  0.00     0.095 C  
ENDROOT
BRANCH   1   4
HETATM    4  C   UNL     1     -11.950  13.610  64.882  1.00  0.00    -0.383 A  
HETATM    5  C   UNL     1     -11.357  12.362  64.681  1.00  0.00    -0.364 A  
HETATM    6  C   UNL     1     -11.123  11.497  65.756  1.00  0.00    -0.272 A  
HETATM    7  C   UNL     1     -11.443  11.876  67.065  1.00  0.00    -0.384 A  
HETATM    8  C   UNL     1     -11.980  13.150  67.276  1.00  0.00    -0.389 A  
HETATM    9  C   UNL     1     -12.207  14.011  66.197  1.00  0.00    -0.494 A  
BRANCH   7  10
HETATM   10  C   UNL     1     -11.282  10.895  68.146  1.00  0.00    -0.363 C  
HETATM   11  C   UNL     1     -11.727  11.069  69.402  1.00  0.00    -0.394 C  
BRANCH  11  12
HETATM   12  C   UNL     1     -11.602  10.066  70.466  1.00  0.00    -0.403 A  
HETATM   13  C   UNL     1     -12.671   9.635  71.249  1.00  0.00    -0.352 A  
HETATM   14  N   UNL     1     -12.580   8.733  72.256  1.00  0.00    -0.390 NA 
HETATM   15  C   UNL     1     -11.350   8.258  72.530  1.00  0.00    -0.385 A  
HETATM   16  C   UNL     1     -10.348   9.546  70.786  1.00  0.00    -0.377 A  
HETATM   17  C   UNL     1     -10.210   8.636  71.837  1.00  0.00    -0.404 A  
BRANCH  15  18
HETATM   18  O   UNL     1     -11.170   7.371  73.569  1.00  0.00    -0.234 OA 
BRANCH  18  19
HETATM   19  C   UNL     1      -9.786   7.124  73.849  1.00  0.00    -0.304 C  
BRANCH  19  20
HETATM   20  C   UNL     1      -9.611   5.658  74.240  1.00  0.00    -0.162 C  
BRANCH  20  21
HETATM   21  O   UNL     1     -10.839   4.960  74.015  1.00  0.00    -0.294 OA 
BRANCH  21  22
HETATM   22  C   UNL     1     -10.621   3.677  73.435  1.00  0.00    -0.193 C  
BRANCH  22  23
HETATM   23  C   UNL     1      -9.460   3.767  72.452  1.00  0.00    -0.128 C  
BRANCH  23  24
HETATM   24  O   UNL     1      -9.853   3.196  71.203  1.00  0.00    -0.167 OA 
BRANCH  24  25
HETATM   25  C   UNL     1      -8.931   3.530  70.165  1.00  0.00    -0.107 C  
HETATM   26  C   UNL     1      -7.557   3.762  70.765  1.00  0.00    -0.041 C  
HETATM   27  F   UNL     1      -6.682   4.082  69.776  1.00  0.00    -0.031 F  
ENDBRANCH  24  25
ENDBRANCH  23  24
ENDBRANCH  22  23
ENDBRANCH  21  22
ENDBRANCH  20  21
ENDBRANCH  19  20
ENDBRANCH  18  19
ENDBRANCH  15  18
ENDBRANCH  11  12
ENDBRANCH   7  10
ENDBRANCH   1   4
TORSDOF 11
ENDMDL
MODEL       74
REMARK 921   NORMALIZED FREE ENERGY PREDICTED BY IDOCK:   -4.81 KCAL/MOL
REMARK 922        TOTAL FREE ENERGY PREDICTED BY IDOCK:   -8.76 KCAL/MOL
REMARK 923 INTER-LIGAND FREE ENERGY PREDICTED BY IDOCK:   -6.99 KCAL/MOL
REMARK 924 INTRA-LIGAND FREE ENERGY PREDICTED BY IDOCK:   -1.78 KCAL/MOL
REMARK 927      BINDING AFFINITY PREDICTED BY RF-SCORE:    0.00 PKD
ROOT
HETATM    1  N   UNL     1     -13.784  14.232  72.683  1.00  0.00    -0.603 NA 
HETATM    2  H   UNL     1     -14.039  13.742  73.540  1.00  0.00     0.000 HD 
HETATM    3  C   UNL     1     -14.110  15.639  72.509  1.00  0.00    -0.479 C  
ENDROOT
BRANCH   1   4
HETATM    4  C   UNL     1     -13.116  13.565  71.653  1.00  0.00    -0.374 A  
HETATM    5  C   UNL     1     -12.892  12.186  71.630  1.00  0.00    -0.390 A  
HETATM    6  C   UNL     1     -12.193  11.591  70.574  1.00  0.00    -0.469 A  
HETATM    7  C   UNL     1     -11.735  12.355  69.496  1.00  0.00    -0.388 A  
HETATM    8  C   UNL     1     -12.012  13.725  69.486  1.00  0.00    -0.399 A  
HETATM    9  C   UNL     1     -12.714  14.314  70.543  1.00  0.00    -0.391 A  
BRANCH   7  10
HETATM   10  C   UNL     1     -10.912  11.706  68.466  1.00  0.00    -0.264 C  
HETATM   11  C   UNL     1     -11.002  11.960  67.150  1.00  0.00    -0.319 C  
BRANCH  11  12
HETATM   12  C   UNL     1     -10.146  11.340  66.132  1.00  0.00    -0.279 A  
HETATM   13  C   UNL     1      -8.789  11.083  66.316  1.00  0.00    -0.180 A  
HETATM   14  N   UNL     1      -7.969  10.540  65.385  1.00  0.00    -0.150 NA 
HETATM   15  C   UNL     1      -8.517  10.270  64.184  1.00  0.00    -0.179 A  
HETATM   16  C   UNL     1     -10.669  11.043  64.873  1.00  0.00    -0.278 A  
HETATM   17  C   UNL     1      -9.847  10.509  63.877  1.00  0.00    -0.373 A  
BRANCH  15  18
HETATM   18  O   UNL     1      -7.736   9.757  63.171  1.00  0.00    -0.122 OA 
BRANCH  18  19
HETATM   19  C   UNL     1      -6.783   8.796  63.644  1.00  0.00    -0.088 C  
BRANCH  19  20
HETATM   20  C   UNL     1      -7.241   7.397  63.235  1.00  0.00    -0.079 C  
BRANCH  20  21
HETATM   21  O   UNL     1      -7.951   6.797  64.323  1.00  0.00    -0.118 OA 
BRANCH  21  22
HETATM   22  C   UNL     1      -7.342   7.088  65.578  1.00  0.00    -0.079 C  
BRANCH  22  23
HETATM   23  C   UNL     1      -8.417   7.122  66.658  1.00  0.00    -0.121 C  
BRANCH  23  24
HETATM   24  O   UNL     1      -9.645   7.575  66.087  1.00  0.00    -0.114 OA 
BRANCH  24  25
HETATM   25  C   UNL     1     -10.638   7.791  67.091  1.00  0.00    -0.331 C  
HETATM   26  C   UNL     1      -9.963   8.192  68.390  1.00  0.00    -0.190 C  
HETATM   27  F   UNL     1     -10.909   8.394  69.344  1.00  0.00    -0.228 F  
ENDBRANCH  24  25
ENDBRANCH  23  24
ENDBRANCH  22  23
ENDBRANCH  21  22
ENDBRANCH  20  21
ENDBRANCH  19  20
ENDBRANCH  18  19
ENDBRANCH  15  18
ENDBRANCH  11  12
ENDBRANCH   7  10
ENDBRANCH   1   4
TORSDOF 11
ENDMDL
MODEL       75
REMARK 921   NORMALIZED FREE ENERGY PREDICTED BY IDOCK:   -4.79 KCAL/MOL
REMARK 922        TOTAL FREE ENERGY PREDICTED BY IDOCK:   -8.74 KCAL/MOL
REMARK 923 INTER-LIGAND FREE ENERGY PREDICTED BY IDOCK:   -8.11 KCAL/MOL
REMARK 924 INTRA-LIGAND FREE ENERGY PREDICTED BY IDOCK:   -0.62 KCAL/MOL
REMARK 927      BINDING AFFINITY PREDICTED BY RF-SCORE:    0.00 PKD
ROOT
HETATM    1  N   UNL     1      -8.631  19.025  65.840  1.00  0.00    -0.429 NA 
HETATM    2  H   UNL     1      -9.013  19.088  64.896  1.00  0.00     0.000 HD 
HETATM    3  C   UNL     1      -7.675  20.011  66.320  1.00  0.00    -0.300 C  
ENDROOT
BRANCH   1   4
HETATM    4  C   UNL     1      -9.016  17.990  66.696  1.00  0.00    -0.273 A  
HETATM    5  C   UNL     1      -8.557  16.675  66.590  1.00  0.00    -0.293 A  
HETATM    6  C   UNL     1      -9.005  15.686  67.472  1.00  0.00    -0.199 A  
HETATM    7  C   UNL     1      -9.894  15.996  68.506  1.00  0.00    -0.216 A  
HETATM    8  C   UNL     1     -10.306  17.323  68.653  1.00  0.00    -0.357 A  
HETATM    9  C   UNL     1      -9.852  18.309  67.771  1.00  0.00    -0.328 A  
BRANCH   7  10
HETATM   10  C   UNL     1     -10.422  14.905  69.338  1.00  0.00    -0.231 C  
HETATM   11  C   UNL     1     -11.630  14.342  69.173  1.00  0.00    -0.346 C  
BRANCH  11  12
HETATM   12  C   UNL     1     -12.133  13.223  69.979  1.00  0.00    -0.385 A  
HETATM   13  C   UNL     1     -12.813  13.385  71.185  1.00  0.00    -0.291 A  
HETATM   14  N   UNL     1     -13.263  12.372  71.963  1.00  0.00    -0.469 NA 
HETATM   15  C   UNL     1     -12.988  11.121  71.543  1.00  0.00    -0.437 A  
HETATM   16  C   UNL     1     -11.872  11.911  69.584  1.00  0.00    -0.406 A  
HETATM   17  C   UNL     1     -12.295  10.840  70.376  1.00  0.00    -0.438 A  
BRANCH  15  18
HETATM   18  O   UNL     1     -13.374  10.039  72.304  1.00  0.00    -0.429 OA 
BRANCH  18  19
HETATM   19  C   UNL     1     -13.531   8.847  71.525  1.00  0.00    -0.332 C  
BRANCH  19  20
HETATM   20  C   UNL     1     -12.536   7.797  72.014  1.00  0.00    -0.286 C  
BRANCH  20  21
HETATM   21  O   UNL     1     -12.413   6.768  71.027  1.00  0.00    -0.367 OA 
BRANCH  21  22
HETATM   22  C   UNL     1     -11.067   6.613  70.586  1.00  0.00    -0.298 C  
BRANCH  22  23
HETATM   23  C   UNL     1     -10.897   7.319  69.246  1.00  0.00    -0.159 C  
BRANCH  23  24
HETATM   24  O   UNL     1     -11.168   6.398  68.190  1.00  0.00    -0.312 OA 
BRANCH  24  25
HETATM   25  C   UNL     1     -10.031   5.580  67.908  1.00  0.00    -0.149 C  
HETATM   26  C   UNL     1     -10.233   4.878  66.577  1.00  0.00    -0.270 C  
HETATM   27  F   UNL     1      -9.151   4.099  66.312  1.00  0.00    -0.116 F  
ENDBRANCH  24  25
ENDBRANCH  23  24
ENDBRANCH  22  23
ENDBRANCH  21  22
ENDBRANCH  20  21
ENDBRANCH  19  20
ENDBRANCH  18  19
ENDBRANCH  15  18
ENDBRANCH  11  12
ENDBRANCH   7  10
ENDBRANCH   1   4
TORSDOF 11
ENDMDL
MODEL       76
REMARK 921   NORMALIZED FREE ENERGY PREDICTED BY IDOCK:   -4.79 KCAL/MOL
REMARK 922        TOTAL FREE ENERGY PREDICTED BY IDOCK:   -8.73 KCAL/MOL
REMARK 923 INTER-LIGAND FREE ENERGY PREDICTED BY IDOCK:   -7.64 KCAL/MOL
REMARK 924 INTRA-LIGAND FREE ENERGY PREDICTED BY IDOCK:   -1.09 KCAL/MOL
REMARK 927      BINDING AFFINITY PREDICTED BY RF-SCORE:    0.00 PKD
ROOT
HETATM    1  N   UNL     1      -9.105   2.395  71.115  1.00  0.00    -0.091 NA 
HETATM    2  H   UNL     1      -8.771   1.683  70.466  1.00  0.00     0.000 HD 
HETATM    3  C   UNL     1      -9.114   2.146  72.548  1.00  0.00    -0.074 C  
ENDROOT
BRANCH   1   4
HETATM    4  C   UNL     1      -9.564   3.628  70.645  1.00  0.00    -0.183 A  
HETATM    5  C   UNL     1      -9.613   3.982  69.295  1.00  0.00    -0.247 A  
HETATM    6  C   UNL     1     -10.064   5.246  68.901  1.00  0.00    -0.254 A  
HETATM    7  C   UNL     1     -10.515   6.174  69.846  1.00  0.00    -0.294 A  
HETATM    8  C   UNL     1     -10.526   5.800  71.193  1.00  0.00    -0.301 A  
HETATM    9  C   UNL     1     -10.077   4.533  71.580  1.00  0.00    -0.249 A  
BRANCH   7  10
HETATM   10  C   UNL     1     -10.876   7.526  69.396  1.00  0.00    -0.161 C  
HETATM   11  C   UNL     1     -10.864   8.616  70.181  1.00  0.00    -0.242 C  
BRANCH  11  12
HETATM   12  C   UNL     1     -11.182   9.970  69.714  1.00  0.00    -0.307 A  
HETATM   13  C   UNL     1     -11.757  10.950  70.521  1.00  0.00    -0.342 A  
HETATM   14  N   UNL     1     -12.088  12.197  70.110  1.00  0.00    -0.319 NA 
HETATM   15  C   UNL     1     -11.873  12.480  68.811  1.00  0.00    -0.303 A  
HETATM   16  C   UNL     1     -10.977  10.309  68.376  1.00  0.00    -0.308 A  
HETATM   17  C   UNL     1     -11.333  11.576  67.909  1.00  0.00    -0.372 A  
BRANCH  15  18
HETATM   18  O   UNL     1     -12.225  13.714  68.307  1.00  0.00    -0.329 OA 
BRANCH  18  19
HETATM   19  C   UNL     1     -11.910  14.785  69.206  1.00  0.00    -0.318 C  
BRANCH  19  20
HETATM   20  C   UNL     1     -10.871  15.694  68.554  1.00  0.00    -0.282 C  
BRANCH  20  21
HETATM   21  O   UNL     1     -11.129  15.772  67.148  1.00  0.00    -0.286 OA 
BRANCH  21  22
HETATM   22  C   UNL     1      -9.931  15.674  66.383  1.00  0.00    -0.281 C  
BRANCH  22  23
HETATM   23  C   UNL     1      -9.946  14.367  65.600  1.00  0.00    -0.337 C  
BRANCH  23  24
HETATM   24  O   UNL     1     -11.261  14.134  65.095  1.00  0.00    -0.311 OA 
BRANCH  24  25
HETATM   25  C   UNL     1     -11.267  13.088  64.122  1.00  0.00    -0.399 C  
HETATM   26  C   UNL     1     -12.651  12.467  64.058  1.00  0.00    -0.412 C  
HETATM   27  F   UNL     1     -12.654  11.470  63.135  1.00  0.00    -0.635 F  
ENDBRANCH  24  25
ENDBRANCH  23  24
ENDBRANCH  22  23
ENDBRANCH  21  22
ENDBRANCH  20  21
ENDBRANCH  19  20
ENDBRANCH  18  19
ENDBRANCH  15  18
ENDBRANCH  11  12
ENDBRANCH   7  10
ENDBRANCH   1   4
TORSDOF 11
ENDMDL
MODEL       77
REMARK 921   NORMALIZED FREE ENERGY PREDICTED BY IDOCK:   -4.77 KCAL/MOL
REMARK 922        TOTAL FREE ENERGY PREDICTED BY IDOCK:   -8.69 KCAL/MOL
REMARK 923 INTER-LIGAND FREE ENERGY PREDICTED BY IDOCK:   -7.90 KCAL/MOL
REMARK 924 INTRA-LIGAND FREE ENERGY PREDICTED BY IDOCK:   -0.79 KCAL/MOL
REMARK 927      BINDING AFFINITY PREDICTED BY RF-SCORE:    0.00 PKD
ROOT
HETATM    1  N   UNL     1      -8.758   2.530  68.593  1.00  0.00    -0.080 NA 
HETATM    2  H   UNL     1      -8.219   1.976  67.928  1.00  0.00     0.000 HD 
HETATM    3  C   UNL     1      -8.963   2.061  69.954  1.00  0.00    -0.084 C  
ENDROOT
BRANCH   1   4
HETATM    4  C   UNL     1      -9.314   3.755  68.213  1.00  0.00    -0.167 A  
HETATM    5  C   UNL     1      -9.682   4.075  66.904  1.00  0.00    -0.215 A  
HETATM    6  C   UNL     1     -10.213   5.332  66.596  1.00  0.00    -0.291 A  
HETATM    7  C   UNL     1     -10.424   6.287  67.596  1.00  0.00    -0.288 A  
HETATM    8  C   UNL     1     -10.115   5.947  68.916  1.00  0.00    -0.231 A  
HETATM    9  C   UNL     1      -9.588   4.687  69.219  1.00  0.00    -0.251 A  
BRANCH   7  10
HETATM   10  C   UNL     1     -10.879   7.630  67.209  1.00  0.00    -0.263 C  
HETATM   11  C   UNL     1     -10.086   8.711  67.146  1.00  0.00    -0.329 C  
BRANCH  11  12
HETATM   12  C   UNL     1     -10.537  10.040  66.716  1.00  0.00    -0.229 A  
HETATM   13  C   UNL     1     -10.241  10.591  65.471  1.00  0.00    -0.256 A  
HETATM   14  N   UNL     1     -10.620  11.824  65.058  1.00  0.00    -0.277 NA 
HETATM   15  C   UNL     1     -11.300  12.574  65.948  1.00  0.00    -0.340 A  
HETATM   16  C   UNL     1     -11.244  10.853  67.602  1.00  0.00    -0.379 A  
HETATM   17  C   UNL     1     -11.627  12.142  67.223  1.00  0.00    -0.404 A  
BRANCH  15  18
HETATM   18  O   UNL     1     -11.681  13.857  65.617  1.00  0.00    -0.332 OA 
BRANCH  18  19
HETATM   19  C   UNL     1     -10.560  14.717  65.375  1.00  0.00    -0.378 C  
BRANCH  19  20
HETATM   20  C   UNL     1     -10.626  15.903  66.335  1.00  0.00    -0.297 C  
BRANCH  20  21
HETATM   21  O   UNL     1     -10.478  15.432  67.678  1.00  0.00    -0.261 OA 
BRANCH  21  22
HETATM   22  C   UNL     1     -11.393  16.066  68.566  1.00  0.00    -0.382 C  
BRANCH  22  23
HETATM   23  C   UNL     1     -11.779  15.085  69.667  1.00  0.00    -0.321 C  
BRANCH  23  24
HETATM   24  O   UNL     1     -12.649  15.735  70.595  1.00  0.00    -0.426 OA 
BRANCH  24  25
HETATM   25  C   UNL     1     -12.819  14.957  71.781  1.00  0.00    -0.330 C  
HETATM   26  C   UNL     1     -12.538  15.821  72.996  1.00  0.00    -0.483 C  
HETATM   27  F   UNL     1     -12.699  15.078  74.123  1.00  0.00    -0.599 F  
ENDBRANCH  24  25
ENDBRANCH  23  24
ENDBRANCH  22  23
ENDBRANCH  21  22
ENDBRANCH  20  21
ENDBRANCH  19  20
ENDBRANCH  18  19
ENDBRANCH  15  18
ENDBRANCH  11  12
ENDBRANCH   7  10
ENDBRANCH   1   4
TORSDOF 11
ENDMDL
MODEL       78
REMARK 921   NORMALIZED FREE ENERGY PREDICTED BY IDOCK:   -4.75 KCAL/MOL
REMARK 922        TOTAL FREE ENERGY PREDICTED BY IDOCK:   -8.67 KCAL/MOL
REMARK 923 INTER-LIGAND FREE ENERGY PREDICTED BY IDOCK:   -7.47 KCAL/MOL
REMARK 924 INTRA-LIGAND FREE ENERGY PREDICTED BY IDOCK:   -1.20 KCAL/MOL
REMARK 927      BINDING AFFINITY PREDICTED BY RF-SCORE:    0.00 PKD
ROOT
HETATM    1  N   UNL     1      -7.605   6.814  74.476  1.00  0.00    -0.112 NA 
HETATM    2  H   UNL     1      -7.175   7.309  75.258  1.00  0.00     0.000 HD 
HETATM    3  C   UNL     1      -7.642   5.361  74.449  1.00  0.00    -0.092 C  
ENDROOT
BRANCH   1   4
HETATM    4  C   UNL     1      -8.170   7.521  73.411  1.00  0.00    -0.129 A  
HETATM    5  C   UNL     1      -7.439   8.033  72.337  1.00  0.00    -0.132 A  
HETATM    6  C   UNL     1      -8.072   8.751  71.316  1.00  0.00    -0.195 A  
HETATM    7  C   UNL     1      -9.458   8.942  71.326  1.00  0.00    -0.343 A  
HETATM    8  C   UNL     1     -10.200   8.377  72.368  1.00  0.00    -0.399 A  
HETATM    9  C   UNL     1      -9.562   7.657  73.384  1.00  0.00    -0.346 A  
BRANCH   7  10
HETATM   10  C   UNL     1     -10.064   9.795  70.295  1.00  0.00    -0.323 C  
HETATM   11  C   UNL     1      -9.638   9.867  69.023  1.00  0.00    -0.188 C  
BRANCH  11  12
HETATM   12  C   UNL     1     -10.275  10.687  67.987  1.00  0.00    -0.202 A  
HETATM   13  C   UNL     1     -11.468  11.383  68.177  1.00  0.00    -0.305 A  
HETATM   14  N   UNL     1     -12.094  12.124  67.232  1.00  0.00    -0.525 NA 
HETATM   15  C   UNL     1     -11.524  12.146  66.011  1.00  0.00    -0.370 A  
HETATM   16  C   UNL     1      -9.723  10.741  66.706  1.00  0.00    -0.221 A  
HETATM   17  C   UNL     1     -10.356  11.471  65.697  1.00  0.00    -0.308 A  
BRANCH  15  18
HETATM   18  O   UNL     1     -12.127  12.842  64.984  1.00  0.00    -0.388 OA 
BRANCH  18  19
HETATM   19  C   UNL     1     -12.704  14.078  65.422  1.00  0.00    -0.471 C  
BRANCH  19  20
HETATM   20  C   UNL     1     -11.855  15.237  64.901  1.00  0.00    -0.170 C  
BRANCH  20  21
HETATM   21  O   UNL     1     -10.754  15.451  65.789  1.00  0.00    -0.321 OA 
BRANCH  21  22
HETATM   22  C   UNL     1     -11.179  15.557  67.145  1.00  0.00    -0.204 C  
BRANCH  22  23
HETATM   23  C   UNL     1     -10.051  15.092  68.058  1.00  0.00    -0.223 C  
BRANCH  23  24
HETATM   24  O   UNL     1     -10.595  14.704  69.320  1.00  0.00    -0.242 OA 
BRANCH  24  25
HETATM   25  C   UNL     1     -11.988  15.012  69.403  1.00  0.00    -0.303 C  
HETATM   26  C   UNL     1     -12.316  15.488  70.807  1.00  0.00    -0.414 C  
HETATM   27  F   UNL     1     -13.641  15.779  70.884  1.00  0.00    -0.546 F  
ENDBRANCH  24  25
ENDBRANCH  23  24
ENDBRANCH  22  23
ENDBRANCH  21  22
ENDBRANCH  20  21
ENDBRANCH  19  20
ENDBRANCH  18  19
ENDBRANCH  15  18
ENDBRANCH  11  12
ENDBRANCH   7  10
ENDBRANCH   1   4
TORSDOF 11
ENDMDL
MODEL       79
REMARK 921   NORMALIZED FREE ENERGY PREDICTED BY IDOCK:   -4.75 KCAL/MOL
REMARK 922        TOTAL FREE ENERGY PREDICTED BY IDOCK:   -8.66 KCAL/MOL
REMARK 923 INTER-LIGAND FREE ENERGY PREDICTED BY IDOCK:   -8.20 KCAL/MOL
REMARK 924 INTRA-LIGAND FREE ENERGY PREDICTED BY IDOCK:   -0.46 KCAL/MOL
REMARK 927      BINDING AFFINITY PREDICTED BY RF-SCORE:    0.00 PKD
ROOT
HETATM    1  N   UNL     1      -7.926   3.499  68.153  1.00  0.00    -0.071 NA 
HETATM    2  H   UNL     1      -7.782   2.770  67.454  1.00  0.00     0.000 HD 
HETATM    3  C   UNL     1      -7.512   3.295  69.532  1.00  0.00    -0.045 C  
ENDROOT
BRANCH   1   4
HETATM    4  C   UNL     1      -8.523   4.713  67.803  1.00  0.00    -0.103 A  
HETATM    5  C   UNL     1      -7.846   5.933  67.756  1.00  0.00    -0.098 A  
HETATM    6  C   UNL     1      -8.517   7.113  67.418  1.00  0.00    -0.122 A  
HETATM    7  C   UNL     1      -9.875   7.096  67.083  1.00  0.00    -0.235 A  
HETATM    8  C   UNL     1     -10.541   5.867  67.070  1.00  0.00    -0.376 A  
HETATM    9  C   UNL     1      -9.863   4.689  67.404  1.00  0.00    -0.207 A  
BRANCH   7  10
HETATM   10  C   UNL     1     -10.563   8.372  66.844  1.00  0.00    -0.285 C  
HETATM   11  C   UNL     1      -9.977   9.465  66.329  1.00  0.00    -0.353 C  
BRANCH  11  12
HETATM   12  C   UNL     1     -10.680  10.723  66.052  1.00  0.00    -0.168 A  
HETATM   13  C   UNL     1     -11.289  11.500  67.035  1.00  0.00    -0.269 A  
HETATM   14  N   UNL     1     -11.969  12.649  66.805  1.00  0.00    -0.519 NA 
HETATM   15  C   UNL     1     -12.088  13.031  65.518  1.00  0.00    -0.452 A  
HETATM   16  C   UNL     1     -10.829  11.159  64.735  1.00  0.00    -0.277 A  
HETATM   17  C   UNL     1     -11.549  12.323  64.456  1.00  0.00    -0.418 A  
BRANCH  15  18
HETATM   18  O   UNL     1     -12.804  14.165  65.201  1.00  0.00    -0.686 OA 
BRANCH  18  19
HETATM   19  C   UNL     1     -12.093  15.033  64.309  1.00  0.00    -0.306 C  
BRANCH  19  20
HETATM   20  C   UNL     1     -10.818  15.516  64.995  1.00  0.00    -0.450 C  
BRANCH  20  21
HETATM   21  O   UNL     1     -10.820  16.947  65.041  1.00  0.00    -0.666 OA 
BRANCH  21  22
HETATM   22  C   UNL     1     -10.164  17.441  66.205  1.00  0.00    -0.341 C  
BRANCH  22  23
HETATM   23  C   UNL     1     -10.492  18.920  66.371  1.00  0.00    -0.439 C  
BRANCH  23  24
HETATM   24  O   UNL     1      -9.478  19.702  65.740  1.00  0.00    -0.384 OA 
BRANCH  24  25
HETATM   25  C   UNL     1      -8.190  19.428  66.293  1.00  0.00    -0.330 C  
HETATM   26  C   UNL     1      -7.921  20.382  67.443  1.00  0.00    -0.323 C  
HETATM   27  F   UNL     1      -6.694  20.121  67.966  1.00  0.00    -0.277 F  
ENDBRANCH  24  25
ENDBRANCH  23  24
ENDBRANCH  22  23
ENDBRANCH  21  22
ENDBRANCH  20  21
ENDBRANCH  19  20
ENDBRANCH  18  19
ENDBRANCH  15  18
ENDBRANCH  11  12
ENDBRANCH   7  10
ENDBRANCH   1   4
TORSDOF 11
ENDMDL
MODEL       80
REMARK 921   NORMALIZED FREE ENERGY PREDICTED BY IDOCK:   -4.74 KCAL/MOL
REMARK 922        TOTAL FREE ENERGY PREDICTED BY IDOCK:   -8.65 KCAL/MOL
REMARK 923 INTER-LIGAND FREE ENERGY PREDICTED BY IDOCK:   -7.21 KCAL/MOL
REMARK 924 INTRA-LIGAND FREE ENERGY PREDICTED BY IDOCK:   -1.43 KCAL/MOL
REMARK 927      BINDING AFFINITY PREDICTED BY RF-SCORE:    0.00 PKD
ROOT
HETATM    1  N   UNL     1     -10.715   6.645  68.322  1.00  0.00    -0.242 NA 
HETATM    2  H   UNL     1     -10.503   6.012  67.550  1.00  0.00     0.000 HD 
HETATM    3  C   UNL     1     -11.231   6.132  69.581  1.00  0.00    -0.418 C  
ENDROOT
BRANCH   1   4
HETATM    4  C   UNL     1     -10.516   8.022  68.188  1.00  0.00    -0.167 A  
HETATM    5  C   UNL     1     -10.303   8.667  66.967  1.00  0.00    -0.368 A  
HETATM    6  C   UNL     1     -10.088  10.048  66.914  1.00  0.00    -0.287 A  
HETATM    7  C   UNL     1     -10.120  10.825  68.078  1.00  0.00    -0.198 A  
HETATM    8  C   UNL     1     -10.396  10.191  69.293  1.00  0.00    -0.242 A  
HETATM    9  C   UNL     1     -10.613   8.810  69.339  1.00  0.00    -0.218 A  
BRANCH   7  10
HETATM   10  C   UNL     1      -9.781  12.251  67.987  1.00  0.00    -0.205 C  
HETATM   11  C   UNL     1      -8.696  12.811  68.548  1.00  0.00    -0.045 C  
BRANCH  11  12
HETATM   12  C   UNL     1      -8.339  14.228  68.416  1.00  0.00    -0.164 A  
HETATM   13  C   UNL     1      -8.931  15.246  69.163  1.00  0.00    -0.233 A  
HETATM   14  N   UNL     1      -8.643  16.564  69.042  1.00  0.00    -0.237 NA 
HETATM   15  C   UNL     1      -7.743  16.899  68.097  1.00  0.00    -0.187 A  
HETATM   16  C   UNL     1      -7.413  14.624  67.451  1.00  0.00    -0.212 A  
HETATM   17  C   UNL     1      -7.112  15.977  67.277  1.00  0.00    -0.238 A  
BRANCH  15  18
HETATM   18  O   UNL     1      -7.431  18.225  67.884  1.00  0.00    -0.224 OA 
BRANCH  18  19
HETATM   19  C   UNL     1      -8.243  19.113  68.664  1.00  0.00    -0.369 C  
BRANCH  19  20
HETATM   20  C   UNL     1      -9.023  20.030  67.724  1.00  0.00    -0.310 C  
BRANCH  20  21
HETATM   21  O   UNL     1     -10.334  19.494  67.525  1.00  0.00    -0.387 OA 
BRANCH  21  22
HETATM   22  C   UNL     1     -10.633  19.325  66.141  1.00  0.00    -0.459 C  
BRANCH  22  23
HETATM   23  C   UNL     1     -10.490  17.852  65.778  1.00  0.00    -0.196 C  
BRANCH  23  24
HETATM   24  O   UNL     1     -11.367  17.545  64.694  1.00  0.00    -0.810 OA 
BRANCH  24  25
HETATM   25  C   UNL     1     -11.202  16.196  64.256  1.00  0.00    -0.025 C  
HETATM   26  C   UNL     1     -10.533  15.387  65.353  1.00  0.00    -0.402 C  
HETATM   27  F   UNL     1     -10.375  14.105  64.933  1.00  0.00    -0.371 F  
ENDBRANCH  24  25
ENDBRANCH  23  24
ENDBRANCH  22  23
ENDBRANCH  21  22
ENDBRANCH  20  21
ENDBRANCH  19  20
ENDBRANCH  18  19
ENDBRANCH  15  18
ENDBRANCH  11  12
ENDBRANCH   7  10
ENDBRANCH   1   4
TORSDOF 11
ENDMDL
MODEL       81
REMARK 921   NORMALIZED FREE ENERGY PREDICTED BY IDOCK:   -4.74 KCAL/MOL
REMARK 922        TOTAL FREE ENERGY PREDICTED BY IDOCK:   -8.64 KCAL/MOL
REMARK 923 INTER-LIGAND FREE ENERGY PREDICTED BY IDOCK:   -7.01 KCAL/MOL
REMARK 924 INTRA-LIGAND FREE ENERGY PREDICTED BY IDOCK:   -1.63 KCAL/MOL
REMARK 927      BINDING AFFINITY PREDICTED BY RF-SCORE:    0.00 PKD
ROOT
HETATM    1  N   UNL     1     -10.581   7.220  68.610  1.00  0.00    -0.274 NA 
HETATM    2  H   UNL     1      -9.962   6.641  68.042  1.00  0.00     0.000 HD 
HETATM    3  C   UNL     1     -11.444   6.617  69.615  1.00  0.00    -0.298 C  
ENDROOT
BRANCH   1   4
HETATM    4  C   UNL     1     -10.617   8.606  68.439  1.00  0.00    -0.120 A  
HETATM    5  C   UNL     1     -10.460   9.246  67.207  1.00  0.00    -0.334 A  
HETATM    6  C   UNL     1     -10.484  10.642  67.116  1.00  0.00    -0.295 A  
HETATM    7  C   UNL     1     -10.706  11.431  68.250  1.00  0.00    -0.240 A  
HETATM    8  C   UNL     1     -10.926  10.791  69.473  1.00  0.00    -0.317 A  
HETATM    9  C   UNL     1     -10.904   9.395  69.557  1.00  0.00    -0.231 A  
BRANCH   7  10
HETATM   10  C   UNL     1     -10.614  12.892  68.125  1.00  0.00    -0.249 C  
HETATM   11  C   UNL     1     -10.759  13.567  66.973  1.00  0.00    -0.278 C  
BRANCH  11  12
HETATM   12  C   UNL     1     -10.710  15.029  66.863  1.00  0.00    -0.308 A  
HETATM   13  C   UNL     1     -10.425  15.706  65.679  1.00  0.00    -0.382 A  
HETATM   14  N   UNL     1     -10.344  17.052  65.555  1.00  0.00    -0.623 NA 
HETATM   15  C   UNL     1     -10.518  17.772  66.680  1.00  0.00    -0.300 A  
HETATM   16  C   UNL     1     -10.882  15.817  68.002  1.00  0.00    -0.309 A  
HETATM   17  C   UNL     1     -10.777  17.208  67.919  1.00  0.00    -0.355 A  
BRANCH  15  18
HETATM   18  O   UNL     1     -10.406  19.146  66.642  1.00  0.00    -0.369 OA 
BRANCH  18  19
HETATM   19  C   UNL     1      -9.102  19.580  66.236  1.00  0.00    -0.360 C  
BRANCH  19  20
HETATM   20  C   UNL     1      -8.303  19.985  67.474  1.00  0.00    -0.334 C  
BRANCH  20  21
HETATM   21  O   UNL     1      -7.093  19.224  67.523  1.00  0.00    -0.211 OA 
BRANCH  21  22
HETATM   22  C   UNL     1      -7.178  18.152  68.459  1.00  0.00    -0.268 C  
BRANCH  22  23
HETATM   23  C   UNL     1      -7.054  16.829  67.712  1.00  0.00    -0.131 C  
BRANCH  23  24
HETATM   24  O   UNL     1      -7.475  15.765  68.566  1.00  0.00    -0.121 OA 
BRANCH  24  25
HETATM   25  C   UNL     1      -7.266  14.492  67.951  1.00  0.00    -0.158 C  
HETATM   26  C   UNL     1      -6.994  13.453  69.024  1.00  0.00    -0.084 C  
HETATM   27  F   UNL     1      -6.794  12.243  68.437  1.00  0.00    -0.058 F  
ENDBRANCH  24  25
ENDBRANCH  23  24
ENDBRANCH  22  23
ENDBRANCH  21  22
ENDBRANCH  20  21
ENDBRANCH  19  20
ENDBRANCH  18  19
ENDBRANCH  15  18
ENDBRANCH  11  12
ENDBRANCH   7  10
ENDBRANCH   1   4
TORSDOF 11
ENDMDL
MODEL       82
REMARK 921   NORMALIZED FREE ENERGY PREDICTED BY IDOCK:   -4.71 KCAL/MOL
REMARK 922        TOTAL FREE ENERGY PREDICTED BY IDOCK:   -8.59 KCAL/MOL
REMARK 923 INTER-LIGAND FREE ENERGY PREDICTED BY IDOCK:   -7.96 KCAL/MOL
REMARK 924 INTRA-LIGAND FREE ENERGY PREDICTED BY IDOCK:   -0.63 KCAL/MOL
REMARK 927      BINDING AFFINITY PREDICTED BY RF-SCORE:    0.00 PKD
ROOT
HETATM    1  N   UNL     1     -10.207   3.223  73.902  1.00  0.00    -0.132 NA 
HETATM    2  H   UNL     1      -9.494   3.403  74.609  1.00  0.00     0.000 HD 
HETATM    3  C   UNL     1     -11.055   2.045  73.987  1.00  0.00    -0.148 C  
ENDROOT
BRANCH   1   4
HETATM    4  C   UNL     1     -10.387   4.105  72.833  1.00  0.00    -0.173 A  
HETATM    5  C   UNL     1      -9.825   3.924  71.567  1.00  0.00    -0.247 A  
HETATM    6  C   UNL     1     -10.031   4.863  70.550  1.00  0.00    -0.311 A  
HETATM    7  C   UNL     1     -10.836   5.987  70.764  1.00  0.00    -0.358 A  
HETATM    8  C   UNL     1     -11.449   6.139  72.011  1.00  0.00    -0.366 A  
HETATM    9  C   UNL     1     -11.243   5.194  73.023  1.00  0.00    -0.390 A  
BRANCH   7  10
HETATM   10  C   UNL     1     -10.934   7.001  69.705  1.00  0.00    -0.268 C  
HETATM   11  C   UNL     1     -10.661   8.305  69.875  1.00  0.00    -0.234 C  
BRANCH  11  12
HETATM   12  C   UNL     1     -10.718   9.304  68.801  1.00  0.00    -0.184 A  
HETATM   13  C   UNL     1     -11.482  10.468  68.870  1.00  0.00    -0.226 A  
HETATM   14  N   UNL     1     -11.576  11.393  67.884  1.00  0.00    -0.496 NA 
HETATM   15  C   UNL     1     -10.905  11.130  66.746  1.00  0.00    -0.268 A  
HETATM   16  C   UNL     1     -10.040   9.076  67.604  1.00  0.00    -0.271 A  
HETATM   17  C   UNL     1     -10.137   9.993  66.554  1.00  0.00    -0.296 A  
BRANCH  15  18
HETATM   18  O   UNL     1     -10.989  12.002  65.681  1.00  0.00    -0.279 OA 
BRANCH  18  19
HETATM   19  C   UNL     1     -12.253  12.675  65.620  1.00  0.00    -0.411 C  
BRANCH  19  20
HETATM   20  C   UNL     1     -12.097  14.082  66.193  1.00  0.00    -0.446 C  
BRANCH  20  21
HETATM   21  O   UNL     1     -10.705  14.395  66.302  1.00  0.00    -0.297 OA 
BRANCH  21  22
HETATM   22  C   UNL     1     -10.368  14.866  67.604  1.00  0.00    -0.242 C  
BRANCH  22  23
HETATM   23  C   UNL     1     -11.504  15.735  68.128  1.00  0.00    -0.302 C  
BRANCH  23  24
HETATM   24  O   UNL     1     -11.053  16.464  69.270  1.00  0.00    -0.311 OA 
BRANCH  24  25
HETATM   25  C   UNL     1     -10.788  15.593  70.371  1.00  0.00    -0.340 C  
HETATM   26  C   UNL     1     -11.613  16.027  71.568  1.00  0.00    -0.456 C  
HETATM   27  F   UNL     1     -11.357  15.199  72.615  1.00  0.00    -0.511 F  
ENDBRANCH  24  25
ENDBRANCH  23  24
ENDBRANCH  22  23
ENDBRANCH  21  22
ENDBRANCH  20  21
ENDBRANCH  19  20
ENDBRANCH  18  19
ENDBRANCH  15  18
ENDBRANCH  11  12
ENDBRANCH   7  10
ENDBRANCH   1   4
TORSDOF 11
ENDMDL
MODEL       83
REMARK 921   NORMALIZED FREE ENERGY PREDICTED BY IDOCK:   -4.70 KCAL/MOL
REMARK 922        TOTAL FREE ENERGY PREDICTED BY IDOCK:   -8.59 KCAL/MOL
REMARK 923 INTER-LIGAND FREE ENERGY PREDICTED BY IDOCK:   -7.61 KCAL/MOL
REMARK 924 INTRA-LIGAND FREE ENERGY PREDICTED BY IDOCK:   -0.98 KCAL/MOL
REMARK 927      BINDING AFFINITY PREDICTED BY RF-SCORE:    0.00 PKD
ROOT
HETATM    1  N   UNL     1     -10.363  19.284  67.264  1.00  0.00    -0.405 NA 
HETATM    2  H   UNL     1     -10.339  19.894  68.082  1.00  0.00     0.000 HD 
HETATM    3  C   UNL     1     -10.320  19.841  65.922  1.00  0.00    -0.483 C  
ENDROOT
BRANCH   1   4
HETATM    4  C   UNL     1     -10.440  17.897  67.414  1.00  0.00    -0.383 A  
HETATM    5  C   UNL     1     -10.523  17.246  68.647  1.00  0.00    -0.356 A  
HETATM    6  C   UNL     1     -10.573  15.850  68.720  1.00  0.00    -0.245 A  
HETATM    7  C   UNL     1     -10.581  15.071  67.557  1.00  0.00    -0.265 A  
HETATM    8  C   UNL     1     -10.560  15.722  66.320  1.00  0.00    -0.313 A  
HETATM    9  C   UNL     1     -10.514  17.119  66.254  1.00  0.00    -0.260 A  
BRANCH   7  10
HETATM   10  C   UNL     1     -10.523  13.608  67.684  1.00  0.00    -0.238 C  
HETATM   11  C   UNL     1     -10.758  12.749  66.679  1.00  0.00    -0.279 C  
BRANCH  11  12
HETATM   12  C   UNL     1     -10.655  11.291  66.801  1.00  0.00    -0.305 A  
HETATM   13  C   UNL     1     -11.142  10.571  67.892  1.00  0.00    -0.304 A  
HETATM   14  N   UNL     1     -11.035   9.230  68.045  1.00  0.00    -0.096 NA 
HETATM   15  C   UNL     1     -10.372   8.564  67.080  1.00  0.00    -0.309 A  
HETATM   16  C   UNL     1      -9.977  10.558  65.827  1.00  0.00    -0.318 A  
HETATM   17  C   UNL     1      -9.822   9.176  65.965  1.00  0.00    -0.342 A  
BRANCH  15  18
HETATM   18  O   UNL     1     -10.184   7.202  67.188  1.00  0.00    -0.204 OA 
BRANCH  18  19
HETATM   19  C   UNL     1     -11.091   6.594  68.116  1.00  0.00    -0.198 C  
BRANCH  19  20
HETATM   20  C   UNL     1     -10.322   5.604  68.989  1.00  0.00    -0.243 C  
BRANCH  20  21
HETATM   21  O   UNL     1     -10.867   5.621  70.312  1.00  0.00    -0.300 OA 
BRANCH  21  22
HETATM   22  C   UNL     1     -11.892   6.601  70.451  1.00  0.00    -0.346 C  
BRANCH  22  23
HETATM   23  C   UNL     1     -11.876   7.140  71.877  1.00  0.00    -0.300 C  
BRANCH  23  24
HETATM   24  O   UNL     1     -11.600   8.540  71.849  1.00  0.00    -0.295 OA 
BRANCH  24  25
HETATM   25  C   UNL     1     -10.203   8.799  71.999  1.00  0.00    -0.331 C  
HETATM   26  C   UNL     1      -9.658   7.973  73.150  1.00  0.00    -0.274 C  
HETATM   27  F   UNL     1      -8.330   8.222  73.292  1.00  0.00    -0.216 F  
ENDBRANCH  24  25
ENDBRANCH  23  24
ENDBRANCH  22  23
ENDBRANCH  21  22
ENDBRANCH  20  21
ENDBRANCH  19  20
ENDBRANCH  18  19
ENDBRANCH  15  18
ENDBRANCH  11  12
ENDBRANCH   7  10
ENDBRANCH   1   4
TORSDOF 11
ENDMDL
MODEL       84
REMARK 921   NORMALIZED FREE ENERGY PREDICTED BY IDOCK:   -4.70 KCAL/MOL
REMARK 922        TOTAL FREE ENERGY PREDICTED BY IDOCK:   -8.58 KCAL/MOL
REMARK 923 INTER-LIGAND FREE ENERGY PREDICTED BY IDOCK:   -7.19 KCAL/MOL
REMARK 924 INTRA-LIGAND FREE ENERGY PREDICTED BY IDOCK:   -1.39 KCAL/MOL
REMARK 927      BINDING AFFINITY PREDICTED BY RF-SCORE:    0.00 PKD
ROOT
HETATM    1  N   UNL     1     -12.534  15.315  69.939  1.00  0.00    -0.565 NA 
HETATM    2  H   UNL     1     -13.323  15.717  69.434  1.00  0.00     0.000 HD 
HETATM    3  C   UNL     1     -11.341  16.106  70.199  1.00  0.00    -0.340 C  
ENDROOT
BRANCH   1   4
HETATM    4  C   UNL     1     -12.578  13.995  70.396  1.00  0.00    -0.308 A  
HETATM    5  C   UNL     1     -13.284  13.582  71.528  1.00  0.00    -0.402 A  
HETATM    6  C   UNL     1     -13.263  12.245  71.938  1.00  0.00    -0.481 A  
HETATM    7  C   UNL     1     -12.566  11.280  71.203  1.00  0.00    -0.501 A  
HETATM    8  C   UNL     1     -11.910  11.680  70.035  1.00  0.00    -0.435 A  
HETATM    9  C   UNL     1     -11.937  13.018  69.628  1.00  0.00    -0.367 A  
BRANCH   7  10
HETATM   10  C   UNL     1     -12.481   9.911  71.731  1.00  0.00    -0.487 C  
HETATM   11  C   UNL     1     -11.357   9.177  71.761  1.00  0.00    -0.451 C  
BRANCH  11  12
HETATM   12  C   UNL     1     -11.269   7.828  72.330  1.00  0.00    -0.392 A  
HETATM   13  C   UNL     1     -10.492   7.508  73.442  1.00  0.00    -0.348 A  
HETATM   14  N   UNL     1     -10.370   6.267  73.971  1.00  0.00    -0.302 NA 
HETATM   15  C   UNL     1     -11.026   5.275  73.338  1.00  0.00    -0.316 A  
HETATM   16  C   UNL     1     -11.930   6.768  71.709  1.00  0.00    -0.382 A  
HETATM   17  C   UNL     1     -11.805   5.469  72.209  1.00  0.00    -0.054 A  
BRANCH  15  18
HETATM   18  O   UNL     1     -10.914   3.978  73.791  1.00  0.00    -0.236 OA 
BRANCH  18  19
HETATM   19  C   UNL     1      -9.943   3.221  73.057  1.00  0.00    -0.139 C  
BRANCH  19  20
HETATM   20  C   UNL     1      -8.721   2.986  73.943  1.00  0.00    -0.076 C  
BRANCH  20  21
HETATM   21  O   UNL     1      -7.618   3.743  73.434  1.00  0.00    -0.067 OA 
BRANCH  21  22
HETATM   22  C   UNL     1      -7.547   3.686  72.012  1.00  0.00    -0.058 C  
BRANCH  22  23
HETATM   23  C   UNL     1      -6.430   4.606  71.533  1.00  0.00    -0.022 C  
BRANCH  23  24
HETATM   24  O   UNL     1      -6.949   5.924  71.352  1.00  0.00    -0.067 OA 
BRANCH  24  25
HETATM   25  C   UNL     1      -8.306   5.893  70.908  1.00  0.00    -0.126 C  
HETATM   26  C   UNL     1      -8.414   6.593  69.566  1.00  0.00    -0.132 C  
HETATM   27  F   UNL     1      -9.706   6.564  69.147  1.00  0.00    -0.137 F  
ENDBRANCH  24  25
ENDBRANCH  23  24
ENDBRANCH  22  23
ENDBRANCH  21  22
ENDBRANCH  20  21
ENDBRANCH  19  20
ENDBRANCH  18  19
ENDBRANCH  15  18
ENDBRANCH  11  12
ENDBRANCH   7  10
ENDBRANCH   1   4
TORSDOF 11
ENDMDL
MODEL       85
REMARK 921   NORMALIZED FREE ENERGY PREDICTED BY IDOCK:   -4.69 KCAL/MOL
REMARK 922        TOTAL FREE ENERGY PREDICTED BY IDOCK:   -8.56 KCAL/MOL
REMARK 923 INTER-LIGAND FREE ENERGY PREDICTED BY IDOCK:   -7.45 KCAL/MOL
REMARK 924 INTRA-LIGAND FREE ENERGY PREDICTED BY IDOCK:   -1.11 KCAL/MOL
REMARK 927      BINDING AFFINITY PREDICTED BY RF-SCORE:    0.00 PKD
ROOT
HETATM    1  N   UNL     1      -9.692   5.952  67.824  1.00  0.00    -0.115 NA 
HETATM    2  H   UNL     1      -9.219   5.484  67.052  1.00  0.00     0.000 HD 
HETATM    3  C   UNL     1     -10.284   5.183  68.908  1.00  0.00    -0.150 C  
ENDROOT
BRANCH   1   4
HETATM    4  C   UNL     1      -9.785   7.346  67.862  1.00  0.00    -0.143 A  
HETATM    5  C   UNL     1     -10.106   8.139  66.757  1.00  0.00    -0.365 A  
HETATM    6  C   UNL     1     -10.158   9.533  66.866  1.00  0.00    -0.295 A  
HETATM    7  C   UNL     1      -9.927  10.166  68.092  1.00  0.00    -0.170 A  
HETATM    8  C   UNL     1      -9.666   9.371  69.212  1.00  0.00    -0.173 A  
HETATM    9  C   UNL     1      -9.620   7.978  69.098  1.00  0.00    -0.156 A  
BRANCH   7  10
HETATM   10  C   UNL     1      -9.883  11.634  68.134  1.00  0.00    -0.191 C  
HETATM   11  C   UNL     1     -10.779  12.402  68.775  1.00  0.00    -0.242 C  
BRANCH  11  12
HETATM   12  C   UNL     1     -10.704  13.866  68.850  1.00  0.00    -0.256 A  
HETATM   13  C   UNL     1     -11.795  14.707  68.642  1.00  0.00    -0.311 A  
HETATM   14  N   UNL     1     -11.749  16.060  68.676  1.00  0.00    -0.350 NA 
HETATM   15  C   UNL     1     -10.541  16.616  68.891  1.00  0.00    -0.337 A  
HETATM   16  C   UNL     1      -9.474  14.488  69.069  1.00  0.00    -0.087 A  
HETATM   17  C   UNL     1      -9.382  15.882  69.083  1.00  0.00    -0.252 A  
BRANCH  15  18
HETATM   18  O   UNL     1     -10.407  17.989  68.895  1.00  0.00    -0.363 OA 
BRANCH  18  19
HETATM   19  C   UNL     1     -10.784  18.582  67.646  1.00  0.00    -0.364 C  
BRANCH  19  20
HETATM   20  C   UNL     1      -9.673  18.344  66.625  1.00  0.00    -0.337 C  
BRANCH  20  21
HETATM   21  O   UNL     1     -10.215  17.664  65.489  1.00  0.00    -0.600 OA 
BRANCH  21  22
HETATM   22  C   UNL     1      -9.906  16.273  65.507  1.00  0.00    -0.108 C  
BRANCH  22  23
HETATM   23  C   UNL     1     -11.137  15.484  65.078  1.00  0.00    -0.401 C  
BRANCH  23  24
HETATM   24  O   UNL     1     -10.775  14.117  64.876  1.00  0.00    -0.382 OA 
BRANCH  24  25
HETATM   25  C   UNL     1     -11.525  13.532  63.811  1.00  0.00    -0.158 C  
HETATM   26  C   UNL     1     -12.324  12.356  64.343  1.00  0.00    -0.447 C  
HETATM   27  F   UNL     1     -13.035  11.800  63.327  1.00  0.00    -0.701 F  
ENDBRANCH  24  25
ENDBRANCH  23  24
ENDBRANCH  22  23
ENDBRANCH  21  22
ENDBRANCH  20  21
ENDBRANCH  19  20
ENDBRANCH  18  19
ENDBRANCH  15  18
ENDBRANCH  11  12
ENDBRANCH   7  10
ENDBRANCH   1   4
TORSDOF 11
ENDMDL
MODEL       86
REMARK 921   NORMALIZED FREE ENERGY PREDICTED BY IDOCK:   -4.68 KCAL/MOL
REMARK 922        TOTAL FREE ENERGY PREDICTED BY IDOCK:   -8.55 KCAL/MOL
REMARK 923 INTER-LIGAND FREE ENERGY PREDICTED BY IDOCK:   -7.39 KCAL/MOL
REMARK 924 INTRA-LIGAND FREE ENERGY PREDICTED BY IDOCK:   -1.16 KCAL/MOL
REMARK 927      BINDING AFFINITY PREDICTED BY RF-SCORE:    0.00 PKD
ROOT
HETATM    1  N   UNL     1      -8.294   3.000  65.885  1.00  0.00    -0.095 NA 
HETATM    2  H   UNL     1      -7.404   2.700  66.283  1.00  0.00     0.000 HD 
HETATM    3  C   UNL     1      -9.090   2.088  65.079  1.00  0.00    -0.126 C  
ENDROOT
BRANCH   1   4
HETATM    4  C   UNL     1      -8.770   4.296  66.102  1.00  0.00    -0.114 A  
HETATM    5  C   UNL     1      -8.062   5.455  65.776  1.00  0.00    -0.110 A  
HETATM    6  C   UNL     1      -8.595   6.720  66.044  1.00  0.00    -0.149 A  
HETATM    7  C   UNL     1      -9.867   6.857  66.612  1.00  0.00    -0.217 A  
HETATM    8  C   UNL     1     -10.603   5.700  66.882  1.00  0.00    -0.367 A  
HETATM    9  C   UNL     1     -10.066   4.437  66.607  1.00  0.00    -0.197 A  
BRANCH   7  10
HETATM   10  C   UNL     1     -10.339   8.200  66.977  1.00  0.00    -0.403 C  
HETATM   11  C   UNL     1     -10.580   8.603  68.235  1.00  0.00    -0.181 C  
BRANCH  11  12
HETATM   12  C   UNL     1     -11.009   9.960  68.597  1.00  0.00    -0.222 A  
HETATM   13  C   UNL     1     -11.318  10.350  69.898  1.00  0.00    -0.302 A  
HETATM   14  N   UNL     1     -11.744  11.585  70.256  1.00  0.00    -0.320 NA 
HETATM   15  C   UNL     1     -11.911  12.477  69.260  1.00  0.00    -0.304 A  
HETATM   16  C   UNL     1     -11.197  10.917  67.600  1.00  0.00    -0.379 A  
HETATM   17  C   UNL     1     -11.662  12.193  67.927  1.00  0.00    -0.403 A  
BRANCH  15  18
HETATM   18  O   UNL     1     -12.384  13.741  69.541  1.00  0.00    -0.316 OA 
BRANCH  18  19
HETATM   19  C   UNL     1     -11.329  14.681  69.785  1.00  0.00    -0.275 C  
BRANCH  19  20
HETATM   20  C   UNL     1     -11.580  15.939  68.956  1.00  0.00    -0.389 C  
BRANCH  20  21
HETATM   21  O   UNL     1     -11.711  15.576  67.578  1.00  0.00    -0.194 OA 
BRANCH  21  22
HETATM   22  C   UNL     1     -10.523  15.857  66.842  1.00  0.00    -0.309 C  
BRANCH  22  23
HETATM   23  C   UNL     1     -10.324  14.775  65.787  1.00  0.00    -0.340 C  
BRANCH  23  24
HETATM   24  O   UNL     1     -11.300  14.933  64.758  1.00  0.00    -0.390 OA 
BRANCH  24  25
HETATM   25  C   UNL     1     -11.968  13.701  64.481  1.00  0.00    -0.418 C  
HETATM   26  C   UNL     1     -10.947  12.653  64.077  1.00  0.00    -0.406 C  
HETATM   27  F   UNL     1     -11.585  11.482  63.812  1.00  0.00    -0.465 F  
ENDBRANCH  24  25
ENDBRANCH  23  24
ENDBRANCH  22  23
ENDBRANCH  21  22
ENDBRANCH  20  21
ENDBRANCH  19  20
ENDBRANCH  18  19
ENDBRANCH  15  18
ENDBRANCH  11  12
ENDBRANCH   7  10
ENDBRANCH   1   4
TORSDOF 11
ENDMDL
MODEL       87
REMARK 921   NORMALIZED FREE ENERGY PREDICTED BY IDOCK:   -4.68 KCAL/MOL
REMARK 922        TOTAL FREE ENERGY PREDICTED BY IDOCK:   -8.55 KCAL/MOL
REMARK 923 INTER-LIGAND FREE ENERGY PREDICTED BY IDOCK:   -7.55 KCAL/MOL
REMARK 924 INTRA-LIGAND FREE ENERGY PREDICTED BY IDOCK:   -1.00 KCAL/MOL
REMARK 927      BINDING AFFINITY PREDICTED BY RF-SCORE:    0.00 PKD
ROOT
HETATM    1  N   UNL     1     -10.943  17.505  68.325  1.00  0.00    -0.214 NA 
HETATM    2  H   UNL     1     -11.144  18.367  68.832  1.00  0.00     0.000 HD 
HETATM    3  C   UNL     1     -10.306  17.546  67.018  1.00  0.00    -0.324 C  
ENDROOT
BRANCH   1   4
HETATM    4  C   UNL     1     -11.274  16.263  68.872  1.00  0.00    -0.337 A  
HETATM    5  C   UNL     1     -11.474  16.037  70.236  1.00  0.00    -0.369 A  
HETATM    6  C   UNL     1     -11.782  14.758  70.713  1.00  0.00    -0.355 A  
HETATM    7  C   UNL     1     -11.936  13.681  69.834  1.00  0.00    -0.415 A  
HETATM    8  C   UNL     1     -11.797  13.918  68.463  1.00  0.00    -0.401 A  
HETATM    9  C   UNL     1     -11.493  15.199  67.991  1.00  0.00    -0.355 A  
BRANCH   7  10
HETATM   10  C   UNL     1     -12.150  12.338  70.389  1.00  0.00    -0.385 C  
HETATM   11  C   UNL     1     -11.521  11.231  69.961  1.00  0.00    -0.359 C  
BRANCH  11  12
HETATM   12  C   UNL     1     -11.706   9.899  70.549  1.00  0.00    -0.373 A  
HETATM   13  C   UNL     1     -11.207   8.728  69.983  1.00  0.00    -0.106 A  
HETATM   14  N   UNL     1     -11.387   7.484  70.487  1.00  0.00    -0.275 NA 
HETATM   15  C   UNL     1     -12.141   7.390  71.600  1.00  0.00    -0.317 A  
HETATM   16  C   UNL     1     -12.480   9.751  71.701  1.00  0.00    -0.500 A  
HETATM   17  C   UNL     1     -12.712   8.481  72.235  1.00  0.00    -0.420 A  
BRANCH  15  18
HETATM   18  O   UNL     1     -12.407   6.152  72.148  1.00  0.00    -0.299 OA 
BRANCH  18  19
HETATM   19  C   UNL     1     -11.320   5.658  72.941  1.00  0.00    -0.273 C  
BRANCH  19  20
HETATM   20  C   UNL     1     -10.534   4.634  72.126  1.00  0.00    -0.148 C  
BRANCH  20  21
HETATM   21  O   UNL     1      -9.267   5.192  71.765  1.00  0.00    -0.139 OA 
BRANCH  21  22
HETATM   22  C   UNL     1      -8.791   4.670  70.527  1.00  0.00    -0.103 C  
BRANCH  22  23
HETATM   23  C   UNL     1      -8.232   5.812  69.687  1.00  0.00    -0.108 C  
BRANCH  23  24
HETATM   24  O   UNL     1      -8.359   5.487  68.303  1.00  0.00    -0.099 OA 
BRANCH  24  25
HETATM   25  C   UNL     1      -9.178   6.436  67.618  1.00  0.00    -0.116 C  
HETATM   26  C   UNL     1     -10.560   5.848  67.403  1.00  0.00    -0.282 C  
HETATM   27  F   UNL     1     -11.336   6.752  66.750  1.00  0.00    -0.475 F  
ENDBRANCH  24  25
ENDBRANCH  23  24
ENDBRANCH  22  23
ENDBRANCH  21  22
ENDBRANCH  20  21
ENDBRANCH  19  20
ENDBRANCH  18  19
ENDBRANCH  15  18
ENDBRANCH  11  12
ENDBRANCH   7  10
ENDBRANCH   1   4
TORSDOF 11
ENDMDL
MODEL       88
REMARK 921   NORMALIZED FREE ENERGY PREDICTED BY IDOCK:   -4.65 KCAL/MOL
REMARK 922        TOTAL FREE ENERGY PREDICTED BY IDOCK:   -8.50 KCAL/MOL
REMARK 923 INTER-LIGAND FREE ENERGY PREDICTED BY IDOCK:   -7.15 KCAL/MOL
REMARK 924 INTRA-LIGAND FREE ENERGY PREDICTED BY IDOCK:   -1.34 KCAL/MOL
REMARK 927      BINDING AFFINITY PREDICTED BY RF-SCORE:    0.00 PKD
ROOT
HETATM    1  N   UNL     1     -12.593  15.182  69.941  1.00  0.00    -0.589 NA 
HETATM    2  H   UNL     1     -12.288  16.068  69.537  1.00  0.00     0.000 HD 
HETATM    3  C   UNL     1     -13.399  15.159  71.152  1.00  0.00    -0.467 C  
ENDROOT
BRANCH   1   4
HETATM    4  C   UNL     1     -12.246  13.969  69.341  1.00  0.00    -0.292 A  
HETATM    5  C   UNL     1     -12.122  12.762  70.032  1.00  0.00    -0.355 A  
HETATM    6  C   UNL     1     -11.748  11.589  69.367  1.00  0.00    -0.413 A  
HETATM    7  C   UNL     1     -11.527  11.588  67.985  1.00  0.00    -0.381 A  
HETATM    8  C   UNL     1     -11.711  12.781  67.281  1.00  0.00    -0.440 A  
HETATM    9  C   UNL     1     -12.089  13.950  67.952  1.00  0.00    -0.318 A  
BRANCH   7  10
HETATM   10  C   UNL     1     -11.029  10.361  67.348  1.00  0.00    -0.335 C  
HETATM   11  C   UNL     1     -10.768   9.218  68.004  1.00  0.00    -0.231 C  
BRANCH  11  12
HETATM   12  C   UNL     1     -10.314   7.982  67.354  1.00  0.00    -0.354 A  
HETATM   13  C   UNL     1     -11.102   6.840  67.232  1.00  0.00    -0.324 A  
HETATM   14  N   UNL     1     -10.700   5.677  66.664  1.00  0.00    -0.300 NA 
HETATM   15  C   UNL     1      -9.427   5.630  66.226  1.00  0.00    -0.155 A  
HETATM   16  C   UNL     1      -9.004   7.886  66.885  1.00  0.00    -0.157 A  
HETATM   17  C   UNL     1      -8.544   6.694  66.320  1.00  0.00    -0.139 A  
BRANCH  15  18
HETATM   18  O   UNL     1      -8.931   4.467  65.677  1.00  0.00    -0.123 OA 
BRANCH  18  19
HETATM   19  C   UNL     1      -9.227   3.313  66.474  1.00  0.00    -0.154 C  
BRANCH  19  20
HETATM   20  C   UNL     1      -8.338   3.324  67.716  1.00  0.00    -0.085 C  
BRANCH  20  21
HETATM   21  O   UNL     1      -9.162   3.378  68.885  1.00  0.00    -0.138 OA 
BRANCH  21  22
HETATM   22  C   UNL     1      -8.825   4.483  69.720  1.00  0.00    -0.086 C  
BRANCH  22  23
HETATM   23  C   UNL     1     -10.093   5.012  70.380  1.00  0.00    -0.260 C  
BRANCH  23  24
HETATM   24  O   UNL     1      -9.740   5.961  71.387  1.00  0.00    -0.163 OA 
BRANCH  24  25
HETATM   25  C   UNL     1     -10.154   7.280  71.028  1.00  0.00    -0.191 C  
HETATM   26  C   UNL     1     -10.638   8.012  72.266  1.00  0.00    -0.291 C  
HETATM   27  F   UNL     1     -11.034   9.265  71.922  1.00  0.00    -0.411 F  
ENDBRANCH  24  25
ENDBRANCH  23  24
ENDBRANCH  22  23
ENDBRANCH  21  22
ENDBRANCH  20  21
ENDBRANCH  19  20
ENDBRANCH  18  19
ENDBRANCH  15  18
ENDBRANCH  11  12
ENDBRANCH   7  10
ENDBRANCH   1   4
TORSDOF 11
ENDMDL
MODEL       89
REMARK 921   NORMALIZED FREE ENERGY PREDICTED BY IDOCK:   -4.62 KCAL/MOL
REMARK 922        TOTAL FREE ENERGY PREDICTED BY IDOCK:   -8.46 KCAL/MOL
REMARK 923 INTER-LIGAND FREE ENERGY PREDICTED BY IDOCK:   -7.47 KCAL/MOL
REMARK 924 INTRA-LIGAND FREE ENERGY PREDICTED BY IDOCK:   -0.98 KCAL/MOL
REMARK 927      BINDING AFFINITY PREDICTED BY RF-SCORE:    0.00 PKD
ROOT
HETATM    1  N   UNL     1     -11.135   6.381  69.743  1.00  0.00    -0.360 NA 
HETATM    2  H   UNL     1     -11.155   5.619  69.066  1.00  0.00     0.000 HD 
HETATM    3  C   UNL     1     -11.404   6.131  71.150  1.00  0.00    -0.275 C  
ENDROOT
BRANCH   1   4
HETATM    4  C   UNL     1     -10.848   7.687  69.335  1.00  0.00    -0.127 A  
HETATM    5  C   UNL     1     -10.832   8.789  70.194  1.00  0.00    -0.241 A  
HETATM    6  C   UNL     1     -10.558  10.072  69.709  1.00  0.00    -0.301 A  
HETATM    7  C   UNL     1     -10.256  10.280  68.359  1.00  0.00    -0.189 A  
HETATM    8  C   UNL     1     -10.211   9.170  67.509  1.00  0.00    -0.304 A  
HETATM    9  C   UNL     1     -10.482   7.889  68.001  1.00  0.00    -0.245 A  
BRANCH   7  10
HETATM   10  C   UNL     1     -10.084  11.656  67.874  1.00  0.00    -0.198 C  
HETATM   11  C   UNL     1     -10.964  12.300  67.090  1.00  0.00    -0.308 C  
BRANCH  11  12
HETATM   12  C   UNL     1     -10.807  13.690  66.646  1.00  0.00    -0.283 A  
HETATM   13  C   UNL     1     -10.795  14.781  67.514  1.00  0.00    -0.287 A  
HETATM   14  N   UNL     1     -10.681  16.075  67.130  1.00  0.00    -0.308 NA 
HETATM   15  C   UNL     1     -10.615  16.307  65.805  1.00  0.00    -0.324 A  
HETATM   16  C   UNL     1     -10.735  13.980  65.283  1.00  0.00    -0.367 A  
HETATM   17  C   UNL     1     -10.646  15.305  64.849  1.00  0.00    -0.379 A  
BRANCH  15  18
HETATM   18  O   UNL     1     -10.543  17.601  65.336  1.00  0.00    -0.657 OA 
BRANCH  18  19
HETATM   19  C   UNL     1     -10.485  18.567  66.394  1.00  0.00    -0.406 C  
BRANCH  19  20
HETATM   20  C   UNL     1      -9.174  19.342  66.290  1.00  0.00    -0.348 C  
BRANCH  20  21
HETATM   21  O   UNL     1      -8.080  18.420  66.288  1.00  0.00    -0.319 OA 
BRANCH  21  22
HETATM   22  C   UNL     1      -7.024  18.848  67.145  1.00  0.00    -0.203 C  
BRANCH  22  23
HETATM   23  C   UNL     1      -7.515  18.827  68.588  1.00  0.00    -0.313 C  
BRANCH  23  24
HETATM   24  O   UNL     1      -6.762  17.867  69.329  1.00  0.00    -0.255 OA 
BRANCH  24  25
HETATM   25  C   UNL     1      -6.642  16.635  68.614  1.00  0.00    -0.159 C  
HETATM   26  C   UNL     1      -7.557  15.599  69.239  1.00  0.00    -0.222 C  
HETATM   27  F   UNL     1      -7.440  14.428  68.559  1.00  0.00    -0.098 F  
ENDBRANCH  24  25
ENDBRANCH  23  24
ENDBRANCH  22  23
ENDBRANCH  21  22
ENDBRANCH  20  21
ENDBRANCH  19  20
ENDBRANCH  18  19
ENDBRANCH  15  18
ENDBRANCH  11  12
ENDBRANCH   7  10
ENDBRANCH   1   4
TORSDOF 11
ENDMDL
MODEL       90
REMARK 921   NORMALIZED FREE ENERGY PREDICTED BY IDOCK:   -4.62 KCAL/MOL
REMARK 922        TOTAL FREE ENERGY PREDICTED BY IDOCK:   -8.45 KCAL/MOL
REMARK 923 INTER-LIGAND FREE ENERGY PREDICTED BY IDOCK:   -7.53 KCAL/MOL
REMARK 924 INTRA-LIGAND FREE ENERGY PREDICTED BY IDOCK:   -0.92 KCAL/MOL
REMARK 927      BINDING AFFINITY PREDICTED BY RF-SCORE:    0.00 PKD
ROOT
HETATM    1  N   UNL     1     -10.148   4.198  73.438  1.00  0.00    -0.133 NA 
HETATM    2  H   UNL     1      -9.289   4.003  73.952  1.00  0.00     0.000 HD 
HETATM    3  C   UNL     1     -11.303   3.323  73.565  1.00  0.00    -0.125 C  
ENDROOT
BRANCH   1   4
HETATM    4  C   UNL     1     -10.237   5.311  72.597  1.00  0.00    -0.184 A  
HETATM    5  C   UNL     1      -9.157   5.848  71.893  1.00  0.00    -0.142 A  
HETATM    6  C   UNL     1      -9.318   6.980  71.087  1.00  0.00    -0.158 A  
HETATM    7  C   UNL     1     -10.573   7.579  70.934  1.00  0.00    -0.227 A  
HETATM    8  C   UNL     1     -11.668   7.006  71.588  1.00  0.00    -0.332 A  
HETATM    9  C   UNL     1     -11.501   5.872  72.390  1.00  0.00    -0.358 A  
BRANCH   7  10
HETATM   10  C   UNL     1     -10.673   8.829  70.167  1.00  0.00    -0.239 C  
HETATM   11  C   UNL     1      -9.877   9.151  69.134  1.00  0.00    -0.171 C  
BRANCH  11  12
HETATM   12  C   UNL     1     -10.012  10.381  68.344  1.00  0.00    -0.177 A  
HETATM   13  C   UNL     1      -9.082  11.418  68.367  1.00  0.00    -0.179 A  
HETATM   14  N   UNL     1      -9.194  12.575  67.672  1.00  0.00    -0.183 NA 
HETATM   15  C   UNL     1     -10.314  12.732  66.940  1.00  0.00    -0.238 A  
HETATM   16  C   UNL     1     -11.155  10.588  67.572  1.00  0.00    -0.358 A  
HETATM   17  C   UNL     1     -11.320  11.781  66.864  1.00  0.00    -0.386 A  
BRANCH  15  18
HETATM   18  O   UNL     1     -10.521  13.902  66.240  1.00  0.00    -0.278 OA 
BRANCH  18  19
HETATM   19  C   UNL     1     -11.510  14.741  66.852  1.00  0.00    -0.347 C  
BRANCH  19  20
HETATM   20  C   UNL     1     -10.809  15.864  67.612  1.00  0.00    -0.312 C  
BRANCH  20  21
HETATM   21  O   UNL     1     -11.581  16.206  68.767  1.00  0.00    -0.368 OA 
BRANCH  21  22
HETATM   22  C   UNL     1     -11.986  15.049  69.494  1.00  0.00    -0.313 C  
BRANCH  22  23
HETATM   23  C   UNL     1     -12.862  15.479  70.666  1.00  0.00    -0.413 C  
BRANCH  23  24
HETATM   24  O   UNL     1     -13.523  14.335  71.206  1.00  0.00    -0.351 OA 
BRANCH  24  25
HETATM   25  C   UNL     1     -13.681  14.445  72.621  1.00  0.00    -0.445 C  
HETATM   26  C   UNL     1     -12.481  15.165  73.209  1.00  0.00    -0.483 C  
HETATM   27  F   UNL     1     -12.633  15.266  74.555  1.00  0.00    -0.630 F  
ENDBRANCH  24  25
ENDBRANCH  23  24
ENDBRANCH  22  23
ENDBRANCH  21  22
ENDBRANCH  20  21
ENDBRANCH  19  20
ENDBRANCH  18  19
ENDBRANCH  15  18
ENDBRANCH  11  12
ENDBRANCH   7  10
ENDBRANCH   1   4
TORSDOF 11
ENDMDL
MODEL       91
REMARK 921   NORMALIZED FREE ENERGY PREDICTED BY IDOCK:   -4.59 KCAL/MOL
REMARK 922        TOTAL FREE ENERGY PREDICTED BY IDOCK:   -8.41 KCAL/MOL
REMARK 923 INTER-LIGAND FREE ENERGY PREDICTED BY IDOCK:   -7.16 KCAL/MOL
REMARK 924 INTRA-LIGAND FREE ENERGY PREDICTED BY IDOCK:   -1.24 KCAL/MOL
REMARK 927      BINDING AFFINITY PREDICTED BY RF-SCORE:    0.00 PKD
ROOT
HETATM    1  N   UNL     1     -13.764  14.363  72.854  1.00  0.00    -0.598 NA 
HETATM    2  H   UNL     1     -14.464  14.029  73.516  1.00  0.00     0.000 HD 
HETATM    3  C   UNL     1     -13.346  15.756  72.857  1.00  0.00    -0.569 C  
ENDROOT
BRANCH   1   4
HETATM    4  C   UNL     1     -13.186  13.490  71.928  1.00  0.00    -0.422 A  
HETATM    5  C   UNL     1     -13.272  12.098  72.006  1.00  0.00    -0.496 A  
HETATM    6  C   UNL     1     -12.647  11.287  71.052  1.00  0.00    -0.495 A  
HETATM    7  C   UNL     1     -11.953  11.849  69.975  1.00  0.00    -0.409 A  
HETATM    8  C   UNL     1     -11.919  13.242  69.861  1.00  0.00    -0.400 A  
HETATM    9  C   UNL     1     -12.549  14.048  70.816  1.00  0.00    -0.431 A  
BRANCH   7  10
HETATM   10  C   UNL     1     -11.222  10.961  69.062  1.00  0.00    -0.327 C  
HETATM   11  C   UNL     1     -10.426   9.954  69.458  1.00  0.00    -0.261 C  
BRANCH  11  12
HETATM   12  C   UNL     1      -9.733   9.043  68.539  1.00  0.00    -0.171 A  
HETATM   13  C   UNL     1      -8.363   8.791  68.588  1.00  0.00    -0.128 A  
HETATM   14  N   UNL     1      -7.693   7.979  67.737  1.00  0.00    -0.108 NA 
HETATM   15  C   UNL     1      -8.416   7.411  66.752  1.00  0.00    -0.124 A  
HETATM   16  C   UNL     1     -10.440   8.432  67.503  1.00  0.00    -0.328 A  
HETATM   17  C   UNL     1      -9.778   7.610  66.588  1.00  0.00    -0.283 A  
BRANCH  15  18
HETATM   18  O   UNL     1      -7.796   6.607  65.819  1.00  0.00    -0.094 OA 
BRANCH  18  19
HETATM   19  C   UNL     1      -8.393   6.711  64.520  1.00  0.00     0.063 C  
BRANCH  19  20
HETATM   20  C   UNL     1      -7.505   7.578  63.632  1.00  0.00    -0.105 C  
BRANCH  20  21
HETATM   21  O   UNL     1      -6.711   8.438  64.455  1.00  0.00    -0.068 OA 
BRANCH  21  22
HETATM   22  C   UNL     1      -7.065   9.808  64.288  1.00  0.00    -0.126 C  
BRANCH  22  23
HETATM   23  C   UNL     1      -7.813   9.971  62.970  1.00  0.00    -0.142 C  
BRANCH  23  24
HETATM   24  O   UNL     1      -8.856  10.932  63.135  1.00  0.00    -0.202 OA 
BRANCH  24  25
HETATM   25  C   UNL     1      -9.714  10.588  64.224  1.00  0.00    -0.330 C  
HETATM   26  C   UNL     1     -10.327  11.851  64.802  1.00  0.00    -0.281 C  
HETATM   27  F   UNL     1     -11.140  11.521  65.839  1.00  0.00    -0.331 F  
ENDBRANCH  24  25
ENDBRANCH  23  24
ENDBRANCH  22  23
ENDBRANCH  21  22
ENDBRANCH  20  21
ENDBRANCH  19  20
ENDBRANCH  18  19
ENDBRANCH  15  18
ENDBRANCH  11  12
ENDBRANCH   7  10
ENDBRANCH   1   4
TORSDOF 11
ENDMDL
MODEL       92
REMARK 921   NORMALIZED FREE ENERGY PREDICTED BY IDOCK:   -4.59 KCAL/MOL
REMARK 922        TOTAL FREE ENERGY PREDICTED BY IDOCK:   -8.40 KCAL/MOL
REMARK 923 INTER-LIGAND FREE ENERGY PREDICTED BY IDOCK:   -7.61 KCAL/MOL
REMARK 924 INTRA-LIGAND FREE ENERGY PREDICTED BY IDOCK:   -0.79 KCAL/MOL
REMARK 927      BINDING AFFINITY PREDICTED BY RF-SCORE:    0.00 PKD
ROOT
HETATM    1  N   UNL     1      -8.199   3.197  66.224  1.00  0.00    -0.089 NA 
HETATM    2  H   UNL     1      -7.286   2.963  66.614  1.00  0.00     0.000 HD 
HETATM    3  C   UNL     1      -9.005   2.182  65.563  1.00  0.00    -0.120 C  
ENDROOT
BRANCH   1   4
HETATM    4  C   UNL     1      -8.700   4.498  66.315  1.00  0.00    -0.113 A  
HETATM    5  C   UNL     1      -8.004   5.635  65.898  1.00  0.00    -0.107 A  
HETATM    6  C   UNL     1      -8.561   6.910  66.042  1.00  0.00    -0.150 A  
HETATM    7  C   UNL     1      -9.846   7.076  66.572  1.00  0.00    -0.175 A  
HETATM    8  C   UNL     1     -10.569   5.936  66.932  1.00  0.00    -0.384 A  
HETATM    9  C   UNL     1     -10.007   4.663  66.782  1.00  0.00    -0.250 A  
BRANCH   7  10
HETATM   10  C   UNL     1     -10.345   8.438  66.806  1.00  0.00    -0.357 C  
HETATM   11  C   UNL     1     -10.496   8.993  68.020  1.00  0.00    -0.270 C  
BRANCH  11  12
HETATM   12  C   UNL     1     -10.954  10.369  68.244  1.00  0.00    -0.321 A  
HETATM   13  C   UNL     1     -11.335  10.862  69.491  1.00  0.00    -0.283 A  
HETATM   14  N   UNL     1     -11.789  12.118  69.722  1.00  0.00    -0.332 NA 
HETATM   15  C   UNL     1     -11.908  12.922  68.648  1.00  0.00    -0.312 A  
HETATM   16  C   UNL     1     -11.094  11.239  67.163  1.00  0.00    -0.364 A  
HETATM   17  C   UNL     1     -11.586  12.532  67.358  1.00  0.00    -0.434 A  
BRANCH  15  18
HETATM   18  O   UNL     1     -12.405  14.200  68.798  1.00  0.00    -0.272 OA 
BRANCH  18  19
HETATM   19  C   UNL     1     -11.387  15.148  69.143  1.00  0.00    -0.298 C  
BRANCH  19  20
HETATM   20  C   UNL     1     -11.047  15.984  67.911  1.00  0.00    -0.307 C  
BRANCH  20  21
HETATM   21  O   UNL     1      -9.806  15.531  67.362  1.00  0.00    -0.222 OA 
BRANCH  21  22
HETATM   22  C   UNL     1      -9.329  16.402  66.339  1.00  0.00    -0.292 C  
BRANCH  22  23
HETATM   23  C   UNL     1     -10.399  17.444  66.034  1.00  0.00    -0.304 C  
BRANCH  23  24
HETATM   24  O   UNL     1      -9.783  18.723  65.888  1.00  0.00    -0.485 OA 
BRANCH  24  25
HETATM   25  C   UNL     1     -10.434  19.709  66.691  1.00  0.00    -0.497 C  
HETATM   26  C   UNL     1     -10.064  19.497  68.148  1.00  0.00    -0.429 C  
HETATM   27  F   UNL     1     -10.686  20.434  68.910  1.00  0.00    -0.441 F  
ENDBRANCH  24  25
ENDBRANCH  23  24
ENDBRANCH  22  23
ENDBRANCH  21  22
ENDBRANCH  20  21
ENDBRANCH  19  20
ENDBRANCH  18  19
ENDBRANCH  15  18
ENDBRANCH  11  12
ENDBRANCH   7  10
ENDBRANCH   1   4
TORSDOF 11
ENDMDL
MODEL       93
REMARK 921   NORMALIZED FREE ENERGY PREDICTED BY IDOCK:   -4.56 KCAL/MOL
REMARK 922        TOTAL FREE ENERGY PREDICTED BY IDOCK:   -8.35 KCAL/MOL
REMARK 923 INTER-LIGAND FREE ENERGY PREDICTED BY IDOCK:   -7.31 KCAL/MOL
REMARK 924 INTRA-LIGAND FREE ENERGY PREDICTED BY IDOCK:   -1.04 KCAL/MOL
REMARK 927      BINDING AFFINITY PREDICTED BY RF-SCORE:    0.00 PKD
ROOT
HETATM    1  N   UNL     1     -12.460   7.602  72.560  1.00  0.00    -0.539 NA 
HETATM    2  H   UNL     1     -12.382   7.633  73.577  1.00  0.00     0.000 HD 
HETATM    3  C   UNL     1     -12.766   6.355  71.877  1.00  0.00    -0.017 C  
ENDROOT
BRANCH   1   4
HETATM    4  C   UNL     1     -12.275   8.759  71.797  1.00  0.00    -0.349 A  
HETATM    5  C   UNL     1     -11.305   8.891  70.801  1.00  0.00    -0.325 A  
HETATM    6  C   UNL     1     -11.164  10.090  70.093  1.00  0.00    -0.367 A  
HETATM    7  C   UNL     1     -12.016  11.172  70.338  1.00  0.00    -0.469 A  
HETATM    8  C   UNL     1     -13.027  11.021  71.290  1.00  0.00    -0.472 A  
HETATM    9  C   UNL     1     -13.166   9.819  71.993  1.00  0.00    -0.557 A  
BRANCH   7  10
HETATM   10  C   UNL     1     -11.760  12.445  69.649  1.00  0.00    -0.377 C  
HETATM   11  C   UNL     1     -11.899  13.656  70.215  1.00  0.00    -0.336 C  
BRANCH  11  12
HETATM   12  C   UNL     1     -11.599  14.921  69.535  1.00  0.00    -0.333 A  
HETATM   13  C   UNL     1     -11.953  15.191  68.214  1.00  0.00    -0.159 A  
HETATM   14  N   UNL     1     -11.665  16.337  67.553  1.00  0.00     0.300 NA 
HETATM   15  C   UNL     1     -10.948  17.257  68.227  1.00  0.00    -0.188 A  
HETATM   16  C   UNL     1     -10.859  15.904  70.192  1.00  0.00    -0.359 A  
HETATM   17  C   UNL     1     -10.517  17.087  69.533  1.00  0.00    -0.182 A  
BRANCH  15  18
HETATM   18  O   UNL     1     -10.577  18.430  67.606  1.00  0.00    -0.408 OA 
BRANCH  18  19
HETATM   19  C   UNL     1     -10.244  18.240  66.224  1.00  0.00    -0.401 C  
BRANCH  19  20
HETATM   20  C   UNL     1      -8.812  17.719  66.123  1.00  0.00    -0.091 C  
BRANCH  20  21
HETATM   21  O   UNL     1      -8.839  16.341  65.739  1.00  0.00    -0.411 OA 
BRANCH  21  22
HETATM   22  C   UNL     1      -8.296  15.498  66.751  1.00  0.00    -0.265 C  
BRANCH  22  23
HETATM   23  C   UNL     1      -8.733  14.061  66.490  1.00  0.00     0.079 C  
BRANCH  23  24
HETATM   24  O   UNL     1     -10.004  14.065  65.840  1.00  0.00    -0.300 OA 
BRANCH  24  25
HETATM   25  C   UNL     1     -10.256  12.823  65.181  1.00  0.00    -0.278 C  
HETATM   26  C   UNL     1      -9.772  11.681  66.056  1.00  0.00    -0.232 C  
HETATM   27  F   UNL     1     -10.011  10.500  65.427  1.00  0.00    -0.270 F  
ENDBRANCH  24  25
ENDBRANCH  23  24
ENDBRANCH  22  23
ENDBRANCH  21  22
ENDBRANCH  20  21
ENDBRANCH  19  20
ENDBRANCH  18  19
ENDBRANCH  15  18
ENDBRANCH  11  12
ENDBRANCH   7  10
ENDBRANCH   1   4
TORSDOF 11
ENDMDL
MODEL       94
REMARK 921   NORMALIZED FREE ENERGY PREDICTED BY IDOCK:   -4.53 KCAL/MOL
REMARK 922        TOTAL FREE ENERGY PREDICTED BY IDOCK:   -8.31 KCAL/MOL
REMARK 923 INTER-LIGAND FREE ENERGY PREDICTED BY IDOCK:   -6.77 KCAL/MOL
REMARK 924 INTRA-LIGAND FREE ENERGY PREDICTED BY IDOCK:   -1.54 KCAL/MOL
REMARK 927      BINDING AFFINITY PREDICTED BY RF-SCORE:    0.00 PKD
ROOT
HETATM    1  N   UNL     1     -13.550  15.241  71.131  1.00  0.00    -0.603 NA 
HETATM    2  H   UNL     1     -13.456  15.882  70.343  1.00  0.00     0.000 HD 
HETATM    3  C   UNL     1     -14.145  15.685  72.382  1.00  0.00    -0.490 C  
ENDROOT
BRANCH   1   4
HETATM    4  C   UNL     1     -13.110  13.919  71.028  1.00  0.00    -0.243 A  
HETATM    5  C   UNL     1     -12.216  13.465  70.056  1.00  0.00    -0.367 A  
HETATM    6  C   UNL     1     -11.838  12.119  70.001  1.00  0.00    -0.383 A  
HETATM    7  C   UNL     1     -12.316  11.201  70.943  1.00  0.00    -0.500 A  
HETATM    8  C   UNL     1     -13.162  11.665  71.954  1.00  0.00    -0.475 A  
HETATM    9  C   UNL     1     -13.533  13.013  72.006  1.00  0.00    -0.584 A  
BRANCH   7  10
HETATM   10  C   UNL     1     -11.980   9.780  70.781  1.00  0.00    -0.382 C  
HETATM   11  C   UNL     1     -11.048   9.133  71.500  1.00  0.00    -0.436 C  
BRANCH  11  12
HETATM   12  C   UNL     1     -10.749   7.703  71.363  1.00  0.00    -0.247 A  
HETATM   13  C   UNL     1     -10.301   6.904  72.414  1.00  0.00    -0.202 A  
HETATM   14  N   UNL     1      -9.990   5.589  72.310  1.00  0.00    -0.171 NA 
HETATM   15  C   UNL     1     -10.091   5.042  71.083  1.00  0.00    -0.223 A  
HETATM   16  C   UNL     1     -10.838   7.091  70.112  1.00  0.00    -0.285 A  
HETATM   17  C   UNL     1     -10.498   5.745  69.961  1.00  0.00    -0.353 A  
BRANCH  15  18
HETATM   18  O   UNL     1      -9.748   3.720  70.889  1.00  0.00    -0.180 OA 
BRANCH  18  19
HETATM   19  C   UNL     1      -9.552   3.400  69.506  1.00  0.00    -0.081 C  
BRANCH  19  20
HETATM   20  C   UNL     1      -8.083   3.051  69.279  1.00  0.00    -0.051 C  
BRANCH  20  21
HETATM   21  O   UNL     1      -7.555   3.886  68.244  1.00  0.00    -0.065 OA 
BRANCH  21  22
HETATM   22  C   UNL     1      -6.745   4.934  68.770  1.00  0.00    -0.050 C  
BRANCH  22  23
HETATM   23  C   UNL     1      -7.261   6.271  68.250  1.00  0.00    -0.085 C  
BRANCH  23  24
HETATM   24  O   UNL     1      -6.641   7.331  68.978  1.00  0.00    -0.035 OA 
BRANCH  24  25
HETATM   25  C   UNL     1      -7.048   7.330  70.348  1.00  0.00    -0.065 C  
HETATM   26  C   UNL     1      -7.258   8.759  70.813  1.00  0.00    -0.073 C  
HETATM   27  F   UNL     1      -7.642   8.755  72.117  1.00  0.00    -0.143 F  
ENDBRANCH  24  25
ENDBRANCH  23  24
ENDBRANCH  22  23
ENDBRANCH  21  22
ENDBRANCH  20  21
ENDBRANCH  19  20
ENDBRANCH  18  19
ENDBRANCH  15  18
ENDBRANCH  11  12
ENDBRANCH   7  10
ENDBRANCH   1   4
TORSDOF 11
ENDMDL
MODEL       95
REMARK 921   NORMALIZED FREE ENERGY PREDICTED BY IDOCK:   -4.51 KCAL/MOL
REMARK 922        TOTAL FREE ENERGY PREDICTED BY IDOCK:   -8.27 KCAL/MOL
REMARK 923 INTER-LIGAND FREE ENERGY PREDICTED BY IDOCK:   -7.35 KCAL/MOL
REMARK 924 INTRA-LIGAND FREE ENERGY PREDICTED BY IDOCK:   -0.92 KCAL/MOL
REMARK 927      BINDING AFFINITY PREDICTED BY RF-SCORE:    0.00 PKD
ROOT
HETATM    1  N   UNL     1      -9.858   3.719  66.673  1.00  0.00    -0.389 NA 
HETATM    2  H   UNL     1     -10.544   3.205  66.120  1.00  0.00     0.000 HD 
HETATM    3  C   UNL     1      -8.960   3.018  67.577  1.00  0.00    -0.161 C  
ENDROOT
BRANCH   1   4
HETATM    4  C   UNL     1      -9.764   5.110  66.577  1.00  0.00    -0.171 A  
HETATM    5  C   UNL     1      -8.723   5.780  65.929  1.00  0.00    -0.149 A  
HETATM    6  C   UNL     1      -8.684   7.178  65.893  1.00  0.00    -0.146 A  
HETATM    7  C   UNL     1      -9.705   7.940  66.471  1.00  0.00    -0.279 A  
HETATM    8  C   UNL     1     -10.779   7.271  67.066  1.00  0.00    -0.406 A  
HETATM    9  C   UNL     1     -10.814   5.872  67.095  1.00  0.00    -0.373 A  
BRANCH   7  10
HETATM   10  C   UNL     1      -9.566   9.402  66.505  1.00  0.00    -0.267 C  
HETATM   11  C   UNL     1     -10.576  10.266  66.311  1.00  0.00    -0.150 C  
BRANCH  11  12
HETATM   12  C   UNL     1     -10.438  11.725  66.391  1.00  0.00    -0.271 A  
HETATM   13  C   UNL     1     -10.429  12.435  67.590  1.00  0.00    -0.216 A  
HETATM   14  N   UNL     1     -10.332  13.782  67.692  1.00  0.00    -0.237 NA 
HETATM   15  C   UNL     1     -10.281  14.472  66.536  1.00  0.00    -0.279 A  
HETATM   16  C   UNL     1     -10.382  12.482  65.220  1.00  0.00    -0.310 A  
HETATM   17  C   UNL     1     -10.312  13.876  65.286  1.00  0.00    -0.396 A  
BRANCH  15  18
HETATM   18  O   UNL     1     -10.227  15.849  66.559  1.00  0.00    -0.270 OA 
BRANCH  18  19
HETATM   19  C   UNL     1      -9.132  16.344  67.340  1.00  0.00    -0.199 C  
BRANCH  19  20
HETATM   20  C   UNL     1      -7.953  16.638  66.415  1.00  0.00    -0.325 C  
BRANCH  20  21
HETATM   21  O   UNL     1      -7.038  17.513  67.082  1.00  0.00    -0.159 OA 
BRANCH  21  22
HETATM   22  C   UNL     1      -7.536  17.935  68.349  1.00  0.00    -0.282 C  
BRANCH  22  23
HETATM   23  C   UNL     1      -7.181  19.402  68.559  1.00  0.00    -0.321 C  
BRANCH  23  24
HETATM   24  O   UNL     1      -7.997  20.212  67.712  1.00  0.00    -0.294 OA 
BRANCH  24  25
HETATM   25  C   UNL     1      -9.385  19.933  67.906  1.00  0.00    -0.344 C  
HETATM   26  C   UNL     1     -10.078  19.862  66.558  1.00  0.00    -0.488 C  
HETATM   27  F   UNL     1     -11.398  19.599  66.745  1.00  0.00    -0.466 F  
ENDBRANCH  24  25
ENDBRANCH  23  24
ENDBRANCH  22  23
ENDBRANCH  21  22
ENDBRANCH  20  21
ENDBRANCH  19  20
ENDBRANCH  18  19
ENDBRANCH  15  18
ENDBRANCH  11  12
ENDBRANCH   7  10
ENDBRANCH   1   4
TORSDOF 11
ENDMDL
MODEL       96
REMARK 921   NORMALIZED FREE ENERGY PREDICTED BY IDOCK:   -4.50 KCAL/MOL
REMARK 922        TOTAL FREE ENERGY PREDICTED BY IDOCK:   -8.25 KCAL/MOL
REMARK 923 INTER-LIGAND FREE ENERGY PREDICTED BY IDOCK:   -6.54 KCAL/MOL
REMARK 924 INTRA-LIGAND FREE ENERGY PREDICTED BY IDOCK:   -1.71 KCAL/MOL
REMARK 927      BINDING AFFINITY PREDICTED BY RF-SCORE:    0.00 PKD
ROOT
HETATM    1  N   UNL     1     -13.785  13.981  72.768  1.00  0.00    -0.691 NA 
HETATM    2  H   UNL     1     -14.766  13.822  73.000  1.00  0.00     0.000 HD 
HETATM    3  C   UNL     1     -13.030  15.035  73.427  1.00  0.00    -0.498 C  
ENDROOT
BRANCH   1   4
HETATM    4  C   UNL     1     -13.142  13.191  71.812  1.00  0.00    -0.383 A  
HETATM    5  C   UNL     1     -13.135  11.794  71.828  1.00  0.00    -0.480 A  
HETATM    6  C   UNL     1     -12.449  11.069  70.847  1.00  0.00    -0.509 A  
HETATM    7  C   UNL     1     -11.785  11.724  69.804  1.00  0.00    -0.408 A  
HETATM    8  C   UNL     1     -11.844  13.119  69.751  1.00  0.00    -0.386 A  
HETATM    9  C   UNL     1     -12.535  13.838  70.732  1.00  0.00    -0.441 A  
BRANCH   7  10
HETATM   10  C   UNL     1     -10.988  10.927  68.861  1.00  0.00    -0.278 C  
HETATM   11  C   UNL     1     -11.064  11.032  67.525  1.00  0.00    -0.366 C  
BRANCH  11  12
HETATM   12  C   UNL     1     -10.233  10.265  66.590  1.00  0.00    -0.294 A  
HETATM   13  C   UNL     1      -9.615  10.821  65.471  1.00  0.00    -0.222 A  
HETATM   14  N   UNL     1      -8.866  10.132  64.577  1.00  0.00    -0.186 NA 
HETATM   15  C   UNL     1      -8.755   8.805  64.780  1.00  0.00    -0.097 A  
HETATM   16  C   UNL     1     -10.089   8.887  66.759  1.00  0.00    -0.350 A  
HETATM   17  C   UNL     1      -9.349   8.139  65.840  1.00  0.00    -0.126 A  
BRANCH  15  18
HETATM   18  O   UNL     1      -8.047   8.029  63.886  1.00  0.00    -0.149 OA 
BRANCH  18  19
HETATM   19  C   UNL     1      -6.896   7.416  64.483  1.00  0.00    -0.047 C  
BRANCH  19  20
HETATM   20  C   UNL     1      -5.645   8.174  64.045  1.00  0.00    -0.052 C  
BRANCH  20  21
HETATM   21  O   UNL     1      -5.177   8.979  65.131  1.00  0.00    -0.037 OA 
BRANCH  21  22
HETATM   22  C   UNL     1      -5.302  10.371  64.851  1.00  0.00    -0.134 C  
BRANCH  22  23
HETATM   23  C   UNL     1      -5.618  11.113  66.144  1.00  0.00    -0.141 C  
BRANCH  23  24
HETATM   24  O   UNL     1      -6.287  10.229  67.044  1.00  0.00    -0.068 OA 
BRANCH  24  25
HETATM   25  C   UNL     1      -6.791  10.929  68.183  1.00  0.00    -0.067 C  
HETATM   26  C   UNL     1      -7.396   9.936  69.158  1.00  0.00    -0.083 C  
HETATM   27  F   UNL     1      -7.877  10.604  70.240  1.00  0.00    -0.045 F  
ENDBRANCH  24  25
ENDBRANCH  23  24
ENDBRANCH  22  23
ENDBRANCH  21  22
ENDBRANCH  20  21
ENDBRANCH  19  20
ENDBRANCH  18  19
ENDBRANCH  15  18
ENDBRANCH  11  12
ENDBRANCH   7  10
ENDBRANCH   1   4
TORSDOF 11
ENDMDL
MODEL       97
REMARK 921   NORMALIZED FREE ENERGY PREDICTED BY IDOCK:   -4.49 KCAL/MOL
REMARK 922        TOTAL FREE ENERGY PREDICTED BY IDOCK:   -8.24 KCAL/MOL
REMARK 923 INTER-LIGAND FREE ENERGY PREDICTED BY IDOCK:   -7.45 KCAL/MOL
REMARK 924 INTRA-LIGAND FREE ENERGY PREDICTED BY IDOCK:   -0.79 KCAL/MOL
REMARK 927      BINDING AFFINITY PREDICTED BY RF-SCORE:    0.00 PKD
ROOT
HETATM    1  N   UNL     1     -10.746  17.908  67.772  1.00  0.00    -0.382 NA 
HETATM    2  H   UNL     1     -11.159  18.264  66.910  1.00  0.00     0.000 HD 
HETATM    3  C   UNL     1      -9.912  18.764  68.602  1.00  0.00    -0.394 C  
ENDROOT
BRANCH   1   4
HETATM    4  C   UNL     1     -10.970  16.590  68.179  1.00  0.00    -0.336 A  
HETATM    5  C   UNL     1     -11.252  16.215  69.494  1.00  0.00    -0.337 A  
HETATM    6  C   UNL     1     -11.443  14.870  69.831  1.00  0.00    -0.321 A  
HETATM    7  C   UNL     1     -11.394  13.872  68.852  1.00  0.00    -0.319 A  
HETATM    8  C   UNL     1     -11.173  14.251  67.525  1.00  0.00    -0.322 A  
HETATM    9  C   UNL     1     -10.987  15.598  67.194  1.00  0.00    -0.270 A  
BRANCH   7  10
HETATM   10  C   UNL     1     -11.490  12.466  69.269  1.00  0.00    -0.349 C  
HETATM   11  C   UNL     1     -12.071  12.049  70.406  1.00  0.00    -0.407 C  
BRANCH  11  12
HETATM   12  C   UNL     1     -12.203  10.640  70.794  1.00  0.00    -0.474 A  
HETATM   13  C   UNL     1     -13.154  10.174  71.700  1.00  0.00    -0.447 A  
HETATM   14  N   UNL     1     -13.280   8.886  72.099  1.00  0.00    -0.397 NA 
HETATM   15  C   UNL     1     -12.385   8.011  71.599  1.00  0.00    -0.314 A  
HETATM   16  C   UNL     1     -11.299   9.697  70.303  1.00  0.00    -0.311 A  
HETATM   17  C   UNL     1     -11.380   8.364  70.714  1.00  0.00    -0.290 A  
BRANCH  15  18
HETATM   18  O   UNL     1     -12.421   6.690  71.993  1.00  0.00    -0.325 OA 
BRANCH  18  19
HETATM   19  C   UNL     1     -11.270   6.313  72.758  1.00  0.00    -0.237 C  
BRANCH  19  20
HETATM   20  C   UNL     1     -10.528   5.197  72.025  1.00  0.00    -0.215 C  
BRANCH  20  21
HETATM   21  O   UNL     1      -9.253   5.682  71.595  1.00  0.00    -0.142 OA 
BRANCH  21  22
HETATM   22  C   UNL     1      -8.895   5.168  70.315  1.00  0.00    -0.120 C  
BRANCH  22  23
HETATM   23  C   UNL     1     -10.155   5.007  69.473  1.00  0.00    -0.231 C  
BRANCH  23  24
HETATM   24  O   UNL     1      -9.817   5.120  68.090  1.00  0.00    -0.141 OA 
BRANCH  24  25
HETATM   25  C   UNL     1      -8.729   4.258  67.748  1.00  0.00    -0.106 C  
HETATM   26  C   UNL     1      -9.214   2.820  67.723  1.00  0.00    -0.202 C  
HETATM   27  F   UNL     1      -8.177   2.003  67.400  1.00  0.00    -0.063 F  
ENDBRANCH  24  25
ENDBRANCH  23  24
ENDBRANCH  22  23
ENDBRANCH  21  22
ENDBRANCH  20  21
ENDBRANCH  19  20
ENDBRANCH  18  19
ENDBRANCH  15  18
ENDBRANCH  11  12
ENDBRANCH   7  10
ENDBRANCH   1   4
TORSDOF 11
ENDMDL
MODEL       98
REMARK 921   NORMALIZED FREE ENERGY PREDICTED BY IDOCK:   -4.48 KCAL/MOL
REMARK 922        TOTAL FREE ENERGY PREDICTED BY IDOCK:   -8.22 KCAL/MOL
REMARK 923 INTER-LIGAND FREE ENERGY PREDICTED BY IDOCK:   -7.18 KCAL/MOL
REMARK 924 INTRA-LIGAND FREE ENERGY PREDICTED BY IDOCK:   -1.04 KCAL/MOL
REMARK 927      BINDING AFFINITY PREDICTED BY RF-SCORE:    0.00 PKD
ROOT
HETATM    1  N   UNL     1     -10.832   4.591  72.938  1.00  0.00    -0.211 NA 
HETATM    2  H   UNL     1     -10.968   3.764  72.357  1.00  0.00     0.000 HD 
HETATM    3  C   UNL     1     -10.656   4.466  74.376  1.00  0.00    -0.233 C  
ENDROOT
BRANCH   1   4
HETATM    4  C   UNL     1     -10.811   5.867  72.367  1.00  0.00    -0.244 A  
HETATM    5  C   UNL     1      -9.645   6.597  72.128  1.00  0.00    -0.149 A  
HETATM    6  C   UNL     1      -9.704   7.880  71.573  1.00  0.00    -0.201 A  
HETATM    7  C   UNL     1     -10.929   8.449  71.208  1.00  0.00    -0.305 A  
HETATM    8  C   UNL     1     -12.092   7.694  71.389  1.00  0.00    -0.342 A  
HETATM    9  C   UNL     1     -12.027   6.411  71.941  1.00  0.00    -0.381 A  
BRANCH   7  10
HETATM   10  C   UNL     1     -10.952   9.839  70.732  1.00  0.00    -0.406 C  
HETATM   11  C   UNL     1     -12.064  10.582  70.614  1.00  0.00    -0.452 C  
BRANCH  11  12
HETATM   12  C   UNL     1     -12.075  11.984  70.181  1.00  0.00    -0.377 A  
HETATM   13  C   UNL     1     -11.617  12.411  68.935  1.00  0.00    -0.316 A  
HETATM   14  N   UNL     1     -11.588  13.700  68.520  1.00  0.00    -0.312 NA 
HETATM   15  C   UNL     1     -12.000  14.628  69.406  1.00  0.00    -0.313 A  
HETATM   16  C   UNL     1     -12.492  12.981  71.064  1.00  0.00    -0.385 A  
HETATM   17  C   UNL     1     -12.448  14.324  70.681  1.00  0.00    -0.428 A  
BRANCH  15  18
HETATM   18  O   UNL     1     -11.957  15.964  69.072  1.00  0.00    -0.378 OA 
BRANCH  18  19
HETATM   19  C   UNL     1     -10.970  16.686  69.819  1.00  0.00    -0.205 C  
BRANCH  19  20
HETATM   20  C   UNL     1      -9.782  16.993  68.909  1.00  0.00    -0.259 C  
BRANCH  20  21
HETATM   21  O   UNL     1     -10.220  16.996  67.547  1.00  0.00    -0.302 OA 
BRANCH  21  22
HETATM   22  C   UNL     1      -9.205  16.526  66.663  1.00  0.00    -0.250 C  
BRANCH  22  23
HETATM   23  C   UNL     1      -8.938  15.053  66.951  1.00  0.00    -0.251 C  
BRANCH  23  24
HETATM   24  O   UNL     1      -7.537  14.799  66.849  1.00  0.00    -0.044 OA 
BRANCH  24  25
HETATM   25  C   UNL     1      -7.120  13.797  67.778  1.00  0.00    -0.167 C  
HETATM   26  C   UNL     1      -8.029  12.587  67.655  1.00  0.00    -0.170 C  
HETATM   27  F   UNL     1      -7.632  11.636  68.541  1.00  0.00    -0.098 F  
ENDBRANCH  24  25
ENDBRANCH  23  24
ENDBRANCH  22  23
ENDBRANCH  21  22
ENDBRANCH  20  21
ENDBRANCH  19  20
ENDBRANCH  18  19
ENDBRANCH  15  18
ENDBRANCH  11  12
ENDBRANCH   7  10
ENDBRANCH   1   4
TORSDOF 11
ENDMDL
MODEL       99
REMARK 921   NORMALIZED FREE ENERGY PREDICTED BY IDOCK:   -4.42 KCAL/MOL
REMARK 922        TOTAL FREE ENERGY PREDICTED BY IDOCK:   -8.13 KCAL/MOL
REMARK 923 INTER-LIGAND FREE ENERGY PREDICTED BY IDOCK:   -7.48 KCAL/MOL
REMARK 924 INTRA-LIGAND FREE ENERGY PREDICTED BY IDOCK:   -0.65 KCAL/MOL
REMARK 927      BINDING AFFINITY PREDICTED BY RF-SCORE:    0.00 PKD
ROOT
HETATM    1  N   UNL     1      -9.001   3.936  65.393  1.00  0.00    -0.126 NA 
HETATM    2  H   UNL     1      -8.172   3.476  65.769  1.00  0.00     0.000 HD 
HETATM    3  C   UNL     1      -9.803   3.293  64.364  1.00  0.00    -0.162 C  
ENDROOT
BRANCH   1   4
HETATM    4  C   UNL     1      -9.388   5.196  65.857  1.00  0.00    -0.159 A  
HETATM    5  C   UNL     1     -10.574   5.443  66.551  1.00  0.00    -0.353 A  
HETATM    6  C   UNL     1     -10.906   6.738  66.965  1.00  0.00    -0.453 A  
HETATM    7  C   UNL     1     -10.040   7.811  66.729  1.00  0.00    -0.341 A  
HETATM    8  C   UNL     1      -8.823   7.555  66.089  1.00  0.00    -0.185 A  
HETATM    9  C   UNL     1      -8.495   6.258  65.681  1.00  0.00    -0.148 A  
BRANCH   7  10
HETATM   10  C   UNL     1     -10.479   9.168  67.083  1.00  0.00    -0.325 C  
HETATM   11  C   UNL     1     -10.776   9.569  68.330  1.00  0.00    -0.241 C  
BRANCH  11  12
HETATM   12  C   UNL     1     -11.172  10.937  68.682  1.00  0.00    -0.326 A  
HETATM   13  C   UNL     1     -10.851  12.055  67.914  1.00  0.00    -0.215 A  
HETATM   14  N   UNL     1     -11.177  13.332  68.230  1.00  0.00    -0.260 NA 
HETATM   15  C   UNL     1     -11.827  13.517  69.395  1.00  0.00    -0.335 A  
HETATM   16  C   UNL     1     -11.845  11.179  69.880  1.00  0.00    -0.439 A  
HETATM   17  C   UNL     1     -12.173  12.485  70.253  1.00  0.00    -0.345 A  
BRANCH  15  18
HETATM   18  O   UNL     1     -12.153  14.792  69.806  1.00  0.00    -0.302 OA 
BRANCH  18  19
HETATM   19  C   UNL     1     -11.731  15.795  68.873  1.00  0.00    -0.394 C  
BRANCH  19  20
HETATM   20  C   UNL     1     -10.545  16.556  69.461  1.00  0.00    -0.321 C  
BRANCH  20  21
HETATM   21  O   UNL     1     -10.219  17.655  68.605  1.00  0.00    -0.346 OA 
BRANCH  21  22
HETATM   22  C   UNL     1      -8.852  17.627  68.203  1.00  0.00    -0.269 C  
BRANCH  22  23
HETATM   23  C   UNL     1      -8.751  16.970  66.832  1.00  0.00    -0.227 C  
BRANCH  23  24
HETATM   24  O   UNL     1      -8.613  17.981  65.833  1.00  0.00    -0.507 OA 
BRANCH  24  25
HETATM   25  C   UNL     1      -7.641  18.958  66.213  1.00  0.00    -0.271 C  
HETATM   26  C   UNL     1      -6.294  18.586  65.621  1.00  0.00    -0.273 C  
HETATM   27  F   UNL     1      -5.372  19.515  65.986  1.00  0.00    -0.153 F  
ENDBRANCH  24  25
ENDBRANCH  23  24
ENDBRANCH  22  23
ENDBRANCH  21  22
ENDBRANCH  20  21
ENDBRANCH  19  20
ENDBRANCH  18  19
ENDBRANCH  15  18
ENDBRANCH  11  12
ENDBRANCH   7  10
ENDBRANCH   1   4
TORSDOF 11
ENDMDL
MODEL      100
REMARK 921   NORMALIZED FREE ENERGY PREDICTED BY IDOCK:   -4.41 KCAL/MOL
REMARK 922        TOTAL FREE ENERGY PREDICTED BY IDOCK:   -8.11 KCAL/MOL
REMARK 923 INTER-LIGAND FREE ENERGY PREDICTED BY IDOCK:   -7.11 KCAL/MOL
REMARK 924 INTRA-LIGAND FREE ENERGY PREDICTED BY IDOCK:   -1.00 KCAL/MOL
REMARK 927      BINDING AFFINITY PREDICTED BY RF-SCORE:    0.00 PKD
ROOT
HETATM    1  N   UNL     1     -11.293  16.443  64.257  1.00  0.00    -1.293 NA 
HETATM    2  H   UNL     1     -11.656  16.738  63.350  1.00  0.00     0.000 HD 
HETATM    3  C   UNL     1     -10.900  17.427  65.253  1.00  0.00     0.056 C  
ENDROOT
BRANCH   1   4
HETATM    4  C   UNL     1     -11.164  15.086  64.565  1.00  0.00    -0.265 A  
HETATM    5  C   UNL     1     -10.152  14.560  65.371  1.00  0.00    -0.394 A  
HETATM    6  C   UNL     1     -10.074  13.185  65.618  1.00  0.00    -0.279 A  
HETATM    7  C   UNL     1     -11.029  12.307  65.095  1.00  0.00    -0.344 A  
HETATM    8  C   UNL     1     -12.079  12.838  64.339  1.00  0.00    -0.484 A  
HETATM    9  C   UNL     1     -12.154  14.215  64.099  1.00  0.00    -0.437 A  
BRANCH   7  10
HETATM   10  C   UNL     1     -10.845  10.862  65.288  1.00  0.00    -0.123 C  
HETATM   11  C   UNL     1      -9.926  10.316  66.102  1.00  0.00    -0.300 C  
BRANCH  11  12
HETATM   12  C   UNL     1      -9.777   8.873  66.323  1.00  0.00    -0.345 A  
HETATM   13  C   UNL     1      -8.794   8.096  65.713  1.00  0.00    -0.135 A  
HETATM   14  N   UNL     1      -8.651   6.759  65.876  1.00  0.00    -0.147 NA 
HETATM   15  C   UNL     1      -9.559   6.147  66.661  1.00  0.00    -0.152 A  
HETATM   16  C   UNL     1     -10.694   8.195  67.127  1.00  0.00    -0.264 A  
HETATM   17  C   UNL     1     -10.596   6.812  67.296  1.00  0.00    -0.390 A  
BRANCH  15  18
HETATM   18  O   UNL     1      -9.506   4.781  66.839  1.00  0.00    -0.135 OA 
BRANCH  18  19
HETATM   19  C   UNL     1      -8.162   4.285  66.884  1.00  0.00    -0.101 C  
BRANCH  19  20
HETATM   20  C   UNL     1      -7.763   4.057  68.340  1.00  0.00    -0.066 C  
BRANCH  20  21
HETATM   21  O   UNL     1      -8.941   3.851  69.125  1.00  0.00    -0.093 OA 
BRANCH  21  22
HETATM   22  C   UNL     1      -8.759   4.271  70.474  1.00  0.00    -0.079 C  
BRANCH  22  23
HETATM   23  C   UNL     1      -9.171   5.733  70.601  1.00  0.00    -0.152 C  
BRANCH  23  24
HETATM   24  O   UNL     1     -10.405   5.815  71.315  1.00  0.00    -0.206 OA 
BRANCH  24  25
HETATM   25  C   UNL     1     -11.161   6.960  70.918  1.00  0.00    -0.289 C  
HETATM   26  C   UNL     1     -12.520   6.926  71.592  1.00  0.00    -0.375 C  
HETATM   27  F   UNL     1     -13.238   8.015  71.211  1.00  0.00    -0.319 F  
ENDBRANCH  24  25
ENDBRANCH  23  24
ENDBRANCH  22  23
ENDBRANCH  21  22
ENDBRANCH  20  21
ENDBRANCH  19  20
ENDBRANCH  18  19
ENDBRANCH  15  18
ENDBRANCH  11  12
ENDBRANCH   7  10
ENDBRANCH   1   4
TORSDOF 11
ENDMDL
MODEL      101
REMARK 921   NORMALIZED FREE ENERGY PREDICTED BY IDOCK:   -4.41 KCAL/MOL
REMARK 922        TOTAL FREE ENERGY PREDICTED BY IDOCK:   -8.10 KCAL/MOL
REMARK 923 INTER-LIGAND FREE ENERGY PREDICTED BY IDOCK:   -7.42 KCAL/MOL
REMARK 924 INTRA-LIGAND FREE ENERGY PREDICTED BY IDOCK:   -0.69 KCAL/MOL
REMARK 927      BINDING AFFINITY PREDICTED BY RF-SCORE:    0.00 PKD
ROOT
HETATM    1  N   UNL     1      -8.664   4.108  64.994  1.00  0.00    -0.120 NA 
HETATM    2  H   UNL     1      -7.779   3.703  65.298  1.00  0.00     0.000 HD 
HETATM    3  C   UNL     1      -9.377   3.559  63.852  1.00  0.00    -0.129 C  
ENDROOT
BRANCH   1   4
HETATM    4  C   UNL     1      -9.215   5.201  65.668  1.00  0.00    -0.151 A  
HETATM    5  C   UNL     1     -10.406   5.152  66.397  1.00  0.00    -0.332 A  
HETATM    6  C   UNL     1     -10.908   6.295  67.027  1.00  0.00    -0.458 A  
HETATM    7  C   UNL     1     -10.211   7.508  66.977  1.00  0.00    -0.368 A  
HETATM    8  C   UNL     1      -8.988   7.544  66.301  1.00  0.00    -0.199 A  
HETATM    9  C   UNL     1      -8.489   6.396  65.675  1.00  0.00    -0.147 A  
BRANCH   7  10
HETATM   10  C   UNL     1     -10.831   8.706  67.559  1.00  0.00    -0.087 C  
HETATM   11  C   UNL     1     -10.759   9.043  68.858  1.00  0.00    -0.149 C  
BRANCH  11  12
HETATM   12  C   UNL     1     -11.343  10.264  69.424  1.00  0.00    -0.279 A  
HETATM   13  C   UNL     1     -11.200  11.526  68.850  1.00  0.00    -0.247 A  
HETATM   14  N   UNL     1     -11.702  12.674  69.366  1.00  0.00    -0.314 NA 
HETATM   15  C   UNL     1     -12.353  12.572  70.541  1.00  0.00    -0.262 A  
HETATM   16  C   UNL     1     -12.025  10.209  70.640  1.00  0.00    -0.423 A  
HETATM   17  C   UNL     1     -12.532  11.376  71.217  1.00  0.00    -0.423 A  
BRANCH  15  18
HETATM   18  O   UNL     1     -12.853  13.703  71.151  1.00  0.00    -0.337 OA 
BRANCH  18  19
HETATM   19  C   UNL     1     -12.594  14.894  70.397  1.00  0.00    -0.343 C  
BRANCH  19  20
HETATM   20  C   UNL     1     -11.373  15.600  70.984  1.00  0.00    -0.381 C  
BRANCH  20  21
HETATM   21  O   UNL     1     -11.053  16.736  70.176  1.00  0.00    -0.228 OA 
BRANCH  21  22
HETATM   22  C   UNL     1     -10.083  16.422  69.180  1.00  0.00    -0.278 C  
BRANCH  22  23
HETATM   23  C   UNL     1     -10.649  16.767  67.807  1.00  0.00    -0.341 C  
BRANCH  23  24
HETATM   24  O   UNL     1      -9.580  17.124  66.932  1.00  0.00    -0.246 OA 
BRANCH  24  25
HETATM   25  C   UNL     1      -9.302  16.079  65.997  1.00  0.00    -0.345 C  
HETATM   26  C   UNL     1     -10.606  15.557  65.422  1.00  0.00    -0.408 C  
HETATM   27  F   UNL     1     -10.340  14.562  64.536  1.00  0.00    -0.420 F  
ENDBRANCH  24  25
ENDBRANCH  23  24
ENDBRANCH  22  23
ENDBRANCH  21  22
ENDBRANCH  20  21
ENDBRANCH  19  20
ENDBRANCH  18  19
ENDBRANCH  15  18
ENDBRANCH  11  12
ENDBRANCH   7  10
ENDBRANCH   1   4
TORSDOF 11
ENDMDL
MODEL      102
REMARK 921   NORMALIZED FREE ENERGY PREDICTED BY IDOCK:   -4.41 KCAL/MOL
REMARK 922        TOTAL FREE ENERGY PREDICTED BY IDOCK:   -8.10 KCAL/MOL
REMARK 923 INTER-LIGAND FREE ENERGY PREDICTED BY IDOCK:   -6.78 KCAL/MOL
REMARK 924 INTRA-LIGAND FREE ENERGY PREDICTED BY IDOCK:   -1.33 KCAL/MOL
REMARK 927      BINDING AFFINITY PREDICTED BY RF-SCORE:    0.00 PKD
ROOT
HETATM    1  N   UNL     1     -10.185   6.353  70.251  1.00  0.00    -0.190 NA 
HETATM    2  H   UNL     1      -9.653   5.595  69.825  1.00  0.00     0.000 HD 
HETATM    3  C   UNL     1     -11.131   6.084  71.322  1.00  0.00    -0.274 C  
ENDROOT
BRANCH   1   4
HETATM    4  C   UNL     1     -10.018   7.671  69.817  1.00  0.00    -0.184 A  
HETATM    5  C   UNL     1     -10.460   8.790  70.527  1.00  0.00    -0.246 A  
HETATM    6  C   UNL     1     -10.277  10.080  70.018  1.00  0.00    -0.306 A  
HETATM    7  C   UNL     1      -9.614  10.285  68.803  1.00  0.00    -0.175 A  
HETATM    8  C   UNL     1      -9.116   9.171  68.122  1.00  0.00    -0.134 A  
HETATM    9  C   UNL     1      -9.298   7.883  68.638  1.00  0.00    -0.145 A  
BRANCH   7  10
HETATM   10  C   UNL     1      -9.543  11.647  68.255  1.00  0.00    -0.198 C  
HETATM   11  C   UNL     1      -8.406  12.256  67.881  1.00  0.00    -0.163 C  
BRANCH  11  12
HETATM   12  C   UNL     1      -8.347  13.599  67.293  1.00  0.00    -0.182 A  
HETATM   13  C   UNL     1      -7.356  14.531  67.594  1.00  0.00    -0.183 A  
HETATM   14  N   UNL     1      -7.293  15.787  67.089  1.00  0.00    -0.220 NA 
HETATM   15  C   UNL     1      -8.294  16.156  66.267  1.00  0.00    -0.287 A  
HETATM   16  C   UNL     1      -9.362  14.027  66.436  1.00  0.00    -0.242 A  
HETATM   17  C   UNL     1      -9.347  15.324  65.919  1.00  0.00    -0.308 A  
BRANCH  15  18
HETATM   18  O   UNL     1      -8.323  17.433  65.749  1.00  0.00    -0.538 OA 
BRANCH  18  19
HETATM   19  C   UNL     1      -8.678  18.416  66.730  1.00  0.00    -0.277 C  
BRANCH  19  20
HETATM   20  C   UNL     1     -10.172  18.714  66.620  1.00  0.00    -0.404 C  
BRANCH  20  21
HETATM   21  O   UNL     1     -10.884  17.909  67.565  1.00  0.00    -0.364 OA 
BRANCH  21  22
HETATM   22  C   UNL     1     -10.289  17.962  68.859  1.00  0.00    -0.268 C  
BRANCH  22  23
HETATM   23  C   UNL     1     -10.199  16.548  69.423  1.00  0.00    -0.264 C  
BRANCH  23  24
HETATM   24  O   UNL     1     -11.501  16.114  69.817  1.00  0.00    -0.321 OA 
BRANCH  24  25
HETATM   25  C   UNL     1     -11.661  14.707  69.622  1.00  0.00    -0.313 C  
HETATM   26  C   UNL     1     -12.104  14.442  68.195  1.00  0.00    -0.223 C  
HETATM   27  F   UNL     1     -12.257  13.104  68.013  1.00  0.00    -0.365 F  
ENDBRANCH  24  25
ENDBRANCH  23  24
ENDBRANCH  22  23
ENDBRANCH  21  22
ENDBRANCH  20  21
ENDBRANCH  19  20
ENDBRANCH  18  19
ENDBRANCH  15  18
ENDBRANCH  11  12
ENDBRANCH   7  10
ENDBRANCH   1   4
TORSDOF 11
ENDMDL
MODEL      103
REMARK 921   NORMALIZED FREE ENERGY PREDICTED BY IDOCK:   -4.40 KCAL/MOL
REMARK 922        TOTAL FREE ENERGY PREDICTED BY IDOCK:   -8.10 KCAL/MOL
REMARK 923 INTER-LIGAND FREE ENERGY PREDICTED BY IDOCK:   -7.47 KCAL/MOL
REMARK 924 INTRA-LIGAND FREE ENERGY PREDICTED BY IDOCK:   -0.62 KCAL/MOL
REMARK 927      BINDING AFFINITY PREDICTED BY RF-SCORE:    0.00 PKD
ROOT
HETATM    1  N   UNL     1      -9.457   3.386  68.136  1.00  0.00    -0.178 NA 
HETATM    2  H   UNL     1      -9.831   2.971  68.989  1.00  0.00     0.000 HD 
HETATM    3  C   UNL     1      -8.761   2.566  67.156  1.00  0.00    -0.123 C  
ENDROOT
BRANCH   1   4
HETATM    4  C   UNL     1      -9.603   4.753  67.886  1.00  0.00    -0.154 A  
HETATM    5  C   UNL     1      -8.747   5.736  68.388  1.00  0.00    -0.111 A  
HETATM    6  C   UNL     1      -8.970   7.089  68.113  1.00  0.00    -0.127 A  
HETATM    7  C   UNL     1     -10.033   7.490  67.297  1.00  0.00    -0.273 A  
HETATM    8  C   UNL     1     -10.854   6.504  66.742  1.00  0.00    -0.345 A  
HETATM    9  C   UNL     1     -10.623   5.152  67.017  1.00  0.00    -0.201 A  
BRANCH   7  10
HETATM   10  C   UNL     1     -10.293   8.926  67.126  1.00  0.00    -0.351 C  
HETATM   11  C   UNL     1     -10.868   9.709  68.054  1.00  0.00    -0.250 C  
BRANCH  11  12
HETATM   12  C   UNL     1     -11.085  11.152  67.894  1.00  0.00    -0.331 A  
HETATM   13  C   UNL     1     -11.145  12.046  68.961  1.00  0.00    -0.239 A  
HETATM   14  N   UNL     1     -11.373  13.377  68.845  1.00  0.00    -0.270 NA 
HETATM   15  C   UNL     1     -11.592  13.844  67.601  1.00  0.00    -0.348 A  
HETATM   16  C   UNL     1     -11.317  11.682  66.625  1.00  0.00    -0.338 A  
HETATM   17  C   UNL     1     -11.584  13.045  66.469  1.00  0.00    -0.407 A  
BRANCH  15  18
HETATM   18  O   UNL     1     -11.875  15.180  67.408  1.00  0.00    -0.264 OA 
BRANCH  18  19
HETATM   19  C   UNL     1     -10.693  15.975  67.252  1.00  0.00    -0.295 C  
BRANCH  19  20
HETATM   20  C   UNL     1     -10.767  17.169  68.200  1.00  0.00    -0.366 C  
BRANCH  20  21
HETATM   21  O   UNL     1     -10.828  18.376  67.434  1.00  0.00    -0.403 OA 
BRANCH  21  22
HETATM   22  C   UNL     1     -10.235  19.473  68.124  1.00  0.00    -0.444 C  
BRANCH  22  23
HETATM   23  C   UNL     1      -9.583  20.405  67.110  1.00  0.00    -0.447 C  
BRANCH  23  24
HETATM   24  O   UNL     1      -8.237  19.989  66.883  1.00  0.00    -0.301 OA 
BRANCH  24  25
HETATM   25  C   UNL     1      -7.304  20.932  67.415  1.00  0.00    -0.314 C  
HETATM   26  C   UNL     1      -6.238  20.196  68.205  1.00  0.00    -0.281 C  
HETATM   27  F   UNL     1      -5.353  21.094  68.712  1.00  0.00    -0.314 F  
ENDBRANCH  24  25
ENDBRANCH  23  24
ENDBRANCH  22  23
ENDBRANCH  21  22
ENDBRANCH  20  21
ENDBRANCH  19  20
ENDBRANCH  18  19
ENDBRANCH  15  18
ENDBRANCH  11  12
ENDBRANCH   7  10
ENDBRANCH   1   4
TORSDOF 11
ENDMDL
MODEL      104
REMARK 921   NORMALIZED FREE ENERGY PREDICTED BY IDOCK:   -4.40 KCAL/MOL
REMARK 922        TOTAL FREE ENERGY PREDICTED BY IDOCK:   -8.10 KCAL/MOL
REMARK 923 INTER-LIGAND FREE ENERGY PREDICTED BY IDOCK:   -7.22 KCAL/MOL
REMARK 924 INTRA-LIGAND FREE ENERGY PREDICTED BY IDOCK:   -0.87 KCAL/MOL
REMARK 927      BINDING AFFINITY PREDICTED BY RF-SCORE:    0.00 PKD
ROOT
HETATM    1  N   UNL     1     -10.558   3.056  73.514  1.00  0.00    -0.161 NA 
HETATM    2  H   UNL     1     -11.156   3.001  74.339  1.00  0.00     0.000 HD 
HETATM    3  C   UNL     1      -9.623   1.987  73.204  1.00  0.00    -0.077 C  
ENDROOT
BRANCH   1   4
HETATM    4  C   UNL     1     -10.623   4.161  72.661  1.00  0.00    -0.122 A  
HETATM    5  C   UNL     1      -9.908   4.269  71.466  1.00  0.00    -0.260 A  
HETATM    6  C   UNL     1     -10.006   5.418  70.673  1.00  0.00    -0.280 A  
HETATM    7  C   UNL     1     -10.851   6.471  71.037  1.00  0.00    -0.301 A  
HETATM    8  C   UNL     1     -11.614   6.340  72.201  1.00  0.00    -0.367 A  
HETATM    9  C   UNL     1     -11.515   5.187  72.988  1.00  0.00    -0.349 A  
BRANCH   7  10
HETATM   10  C   UNL     1     -10.837   7.702  70.234  1.00  0.00    -0.253 C  
HETATM   11  C   UNL     1     -10.836   8.943  70.746  1.00  0.00    -0.294 C  
BRANCH  11  12
HETATM   12  C   UNL     1     -10.778  10.167  69.938  1.00  0.00    -0.340 A  
HETATM   13  C   UNL     1      -9.700  10.502  69.121  1.00  0.00    -0.211 A  
HETATM   14  N   UNL     1      -9.606  11.636  68.387  1.00  0.00    -0.194 NA 
HETATM   15  C   UNL     1     -10.624  12.512  68.499  1.00  0.00    -0.243 A  
HETATM   16  C   UNL     1     -11.809  11.103  70.021  1.00  0.00    -0.441 A  
HETATM   17  C   UNL     1     -11.734  12.299  69.301  1.00  0.00    -0.388 A  
BRANCH  15  18
HETATM   18  O   UNL     1     -10.579  13.709  67.818  1.00  0.00    -0.238 OA 
BRANCH  18  19
HETATM   19  C   UNL     1      -9.691  13.670  66.694  1.00  0.00    -0.284 C  
BRANCH  19  20
HETATM   20  C   UNL     1     -10.172  14.667  65.642  1.00  0.00    -0.359 C  
BRANCH  20  21
HETATM   21  O   UNL     1     -10.932  15.697  66.283  1.00  0.00    -0.295 OA 
BRANCH  21  22
HETATM   22  C   UNL     1     -10.423  16.994  65.984  1.00  0.00    -0.274 C  
BRANCH  22  23
HETATM   23  C   UNL     1     -10.518  17.865  67.232  1.00  0.00    -0.366 C  
BRANCH  23  24
HETATM   24  O   UNL     1     -10.019  17.137  68.354  1.00  0.00    -0.277 OA 
BRANCH  24  25
HETATM   25  C   UNL     1      -8.604  17.285  68.483  1.00  0.00    -0.270 C  
HETATM   26  C   UNL     1      -8.234  18.750  68.340  1.00  0.00    -0.341 C  
HETATM   27  F   UNL     1      -6.888  18.888  68.460  1.00  0.00    -0.239 F  
ENDBRANCH  24  25
ENDBRANCH  23  24
ENDBRANCH  22  23
ENDBRANCH  21  22
ENDBRANCH  20  21
ENDBRANCH  19  20
ENDBRANCH  18  19
ENDBRANCH  15  18
ENDBRANCH  11  12
ENDBRANCH   7  10
ENDBRANCH   1   4
TORSDOF 11
ENDMDL
MODEL      105
REMARK 921   NORMALIZED FREE ENERGY PREDICTED BY IDOCK:   -4.40 KCAL/MOL
REMARK 922        TOTAL FREE ENERGY PREDICTED BY IDOCK:   -8.09 KCAL/MOL
REMARK 923 INTER-LIGAND FREE ENERGY PREDICTED BY IDOCK:   -7.35 KCAL/MOL
REMARK 924 INTRA-LIGAND FREE ENERGY PREDICTED BY IDOCK:   -0.74 KCAL/MOL
REMARK 927      BINDING AFFINITY PREDICTED BY RF-SCORE:    0.00 PKD
ROOT
HETATM    1  N   UNL     1      -6.987  18.763  65.336  1.00  0.00    -0.514 NA 
HETATM    2  H   UNL     1      -6.438  18.352  64.582  1.00  0.00     0.000 HD 
HETATM    3  C   UNL     1      -7.055  20.207  65.502  1.00  0.00    -0.289 C  
ENDROOT
BRANCH   1   4
HETATM    4  C   UNL     1      -7.688  17.950  66.232  1.00  0.00    -0.266 A  
HETATM    5  C   UNL     1      -7.198  16.747  66.744  1.00  0.00    -0.270 A  
HETATM    6  C   UNL     1      -7.968  15.974  67.620  1.00  0.00    -0.160 A  
HETATM    7  C   UNL     1      -9.232  16.406  68.036  1.00  0.00    -0.204 A  
HETATM    8  C   UNL     1      -9.699  17.640  67.573  1.00  0.00    -0.280 A  
HETATM    9  C   UNL     1      -8.923  18.410  66.700  1.00  0.00    -0.295 A  
BRANCH   7  10
HETATM   10  C   UNL     1     -10.048  15.511  68.868  1.00  0.00    -0.214 C  
HETATM   11  C   UNL     1     -10.438  14.279  68.501  1.00  0.00    -0.253 C  
BRANCH  11  12
HETATM   12  C   UNL     1     -11.216  13.374  69.355  1.00  0.00    -0.235 A  
HETATM   13  C   UNL     1     -12.018  13.806  70.410  1.00  0.00    -0.315 A  
HETATM   14  N   UNL     1     -12.723  12.993  71.231  1.00  0.00    -0.348 NA 
HETATM   15  C   UNL     1     -12.596  11.668  71.021  1.00  0.00    -0.331 A  
HETATM   16  C   UNL     1     -11.117  11.994  69.175  1.00  0.00    -0.272 A  
HETATM   17  C   UNL     1     -11.807  11.122  70.022  1.00  0.00    -0.441 A  
BRANCH  15  18
HETATM   18  O   UNL     1     -13.248  10.775  71.845  1.00  0.00    -0.469 OA 
BRANCH  18  19
HETATM   19  C   UNL     1     -13.483   9.512  71.210  1.00  0.00    -0.283 C  
BRANCH  19  20
HETATM   20  C   UNL     1     -13.970   8.511  72.256  1.00  0.00    -0.360 C  
BRANCH  20  21
HETATM   21  O   UNL     1     -13.343   7.246  72.024  1.00  0.00    -0.233 OA 
BRANCH  21  22
HETATM   22  C   UNL     1     -11.953   7.387  71.743  1.00  0.00    -0.305 C  
BRANCH  22  23
HETATM   23  C   UNL     1     -11.155   6.570  72.753  1.00  0.00    -0.245 C  
BRANCH  23  24
HETATM   24  O   UNL     1      -9.959   6.094  72.135  1.00  0.00    -0.168 OA 
BRANCH  24  25
HETATM   25  C   UNL     1     -10.016   4.684  71.909  1.00  0.00    -0.189 C  
HETATM   26  C   UNL     1     -10.668   4.008  73.101  1.00  0.00    -0.186 C  
HETATM   27  F   UNL     1     -10.719   2.667  72.884  1.00  0.00    -0.225 F  
ENDBRANCH  24  25
ENDBRANCH  23  24
ENDBRANCH  22  23
ENDBRANCH  21  22
ENDBRANCH  20  21
ENDBRANCH  19  20
ENDBRANCH  18  19
ENDBRANCH  15  18
ENDBRANCH  11  12
ENDBRANCH   7  10
ENDBRANCH   1   4
TORSDOF 11
ENDMDL
MODEL      106
REMARK 921   NORMALIZED FREE ENERGY PREDICTED BY IDOCK:   -4.40 KCAL/MOL
REMARK 922        TOTAL FREE ENERGY PREDICTED BY IDOCK:   -8.09 KCAL/MOL
REMARK 923 INTER-LIGAND FREE ENERGY PREDICTED BY IDOCK:   -7.33 KCAL/MOL
REMARK 924 INTRA-LIGAND FREE ENERGY PREDICTED BY IDOCK:   -0.76 KCAL/MOL
REMARK 927      BINDING AFFINITY PREDICTED BY RF-SCORE:    0.00 PKD
ROOT
HETATM    1  N   UNL     1     -10.895  17.701  64.927  1.00  0.00    -0.668 NA 
HETATM    2  H   UNL     1     -11.253  17.936  64.001  1.00  0.00     0.000 HD 
HETATM    3  C   UNL     1     -10.672  18.738  65.922  1.00  0.00    -0.264 C  
ENDROOT
BRANCH   1   4
HETATM    4  C   UNL     1     -10.608  16.375  65.263  1.00  0.00    -0.299 A  
HETATM    5  C   UNL     1      -9.607  15.994  66.160  1.00  0.00    -0.366 A  
HETATM    6  C   UNL     1      -9.362  14.644  66.430  1.00  0.00    -0.313 A  
HETATM    7  C   UNL     1     -10.139  13.641  65.839  1.00  0.00    -0.320 A  
HETATM    8  C   UNL     1     -11.181  14.022  64.989  1.00  0.00    -0.352 A  
HETATM    9  C   UNL     1     -11.424  15.375  64.725  1.00  0.00    -0.337 A  
BRANCH   7  10
HETATM   10  C   UNL     1      -9.774  12.236  66.066  1.00  0.00    -0.254 C  
HETATM   11  C   UNL     1     -10.076  11.543  67.176  1.00  0.00    -0.223 C  
BRANCH  11  12
HETATM   12  C   UNL     1      -9.748  10.127  67.378  1.00  0.00    -0.192 A  
HETATM   13  C   UNL     1      -8.514   9.680  67.845  1.00  0.00    -0.122 A  
HETATM   14  N   UNL     1      -8.174   8.379  68.013  1.00  0.00    -0.126 NA 
HETATM   15  C   UNL     1      -9.098   7.465  67.660  1.00  0.00    -0.125 A  
HETATM   16  C   UNL     1     -10.673   9.144  67.026  1.00  0.00    -0.189 A  
HETATM   17  C   UNL     1     -10.347   7.791  67.157  1.00  0.00    -0.389 A  
BRANCH  15  18
HETATM   18  O   UNL     1      -8.808   6.120  67.760  1.00  0.00    -0.113 OA 
BRANCH  18  19
HETATM   19  C   UNL     1      -7.905   5.831  68.834  1.00  0.00    -0.097 C  
BRANCH  19  20
HETATM   20  C   UNL     1      -8.704   5.652  70.123  1.00  0.00    -0.137 C  
BRANCH  20  21
HETATM   21  O   UNL     1     -10.068   5.368  69.796  1.00  0.00    -0.202 OA 
BRANCH  21  22
HETATM   22  C   UNL     1     -10.967   5.901  70.765  1.00  0.00    -0.273 C  
BRANCH  22  23
HETATM   23  C   UNL     1     -10.918   7.423  70.705  1.00  0.00    -0.256 C  
BRANCH  23  24
HETATM   24  O   UNL     1     -12.077   7.958  71.344  1.00  0.00    -0.296 OA 
BRANCH  24  25
HETATM   25  C   UNL     1     -11.894   9.333  71.686  1.00  0.00    -0.383 C  
HETATM   26  C   UNL     1     -13.244   9.965  71.974  1.00  0.00    -0.456 C  
HETATM   27  F   UNL     1     -13.068  11.273  72.297  1.00  0.00    -0.579 F  
ENDBRANCH  24  25
ENDBRANCH  23  24
ENDBRANCH  22  23
ENDBRANCH  21  22
ENDBRANCH  20  21
ENDBRANCH  19  20
ENDBRANCH  18  19
ENDBRANCH  15  18
ENDBRANCH  11  12
ENDBRANCH   7  10
ENDBRANCH   1   4
TORSDOF 11
ENDMDL
MODEL      107
REMARK 921   NORMALIZED FREE ENERGY PREDICTED BY IDOCK:   -4.36 KCAL/MOL
REMARK 922        TOTAL FREE ENERGY PREDICTED BY IDOCK:   -8.02 KCAL/MOL
REMARK 923 INTER-LIGAND FREE ENERGY PREDICTED BY IDOCK:   -6.72 KCAL/MOL
REMARK 924 INTRA-LIGAND FREE ENERGY PREDICTED BY IDOCK:   -1.31 KCAL/MOL
REMARK 927      BINDING AFFINITY PREDICTED BY RF-SCORE:    0.00 PKD
ROOT
HETATM    1  N   UNL     1      -9.057   4.306  66.353  1.00  0.00    -0.123 NA 
HETATM    2  H   UNL     1      -9.189   3.820  65.466  1.00  0.00     0.000 HD 
HETATM    3  C   UNL     1      -8.530   3.603  67.512  1.00  0.00    -0.096 C  
ENDROOT
BRANCH   1   4
HETATM    4  C   UNL     1      -9.380   5.660  66.478  1.00  0.00    -0.150 A  
HETATM    5  C   UNL     1      -8.614   6.699  65.946  1.00  0.00    -0.153 A  
HETATM    6  C   UNL     1      -8.989   8.034  66.131  1.00  0.00    -0.215 A  
HETATM    7  C   UNL     1     -10.162   8.361  66.821  1.00  0.00    -0.376 A  
HETATM    8  C   UNL     1     -10.963   7.320  67.301  1.00  0.00    -0.284 A  
HETATM    9  C   UNL     1     -10.584   5.987  67.109  1.00  0.00    -0.374 A  
BRANCH   7  10
HETATM   10  C   UNL     1     -10.457   9.775  67.087  1.00  0.00    -0.316 C  
HETATM   11  C   UNL     1     -11.361  10.207  67.982  1.00  0.00    -0.152 C  
BRANCH  11  12
HETATM   12  C   UNL     1     -11.619  11.622  68.273  1.00  0.00    -0.378 A  
HETATM   13  C   UNL     1     -11.726  12.606  67.291  1.00  0.00    -0.370 A  
HETATM   14  N   UNL     1     -11.935  13.922  67.532  1.00  0.00    -0.394 NA 
HETATM   15  C   UNL     1     -12.003  14.294  68.826  1.00  0.00    -0.311 A  
HETATM   16  C   UNL     1     -11.697  12.055  69.597  1.00  0.00    -0.405 A  
HETATM   17  C   UNL     1     -11.882  13.410  69.885  1.00  0.00    -0.385 A  
BRANCH  15  18
HETATM   18  O   UNL     1     -12.169  15.624  69.151  1.00  0.00    -0.298 OA 
BRANCH  18  19
HETATM   19  C   UNL     1     -10.947  16.243  69.573  1.00  0.00    -0.339 C  
BRANCH  19  20
HETATM   20  C   UNL     1     -10.443  17.159  68.459  1.00  0.00    -0.377 C  
BRANCH  20  21
HETATM   21  O   UNL     1      -9.014  17.097  68.409  1.00  0.00    -0.243 OA 
BRANCH  21  22
HETATM   22  C   UNL     1      -8.501  16.042  69.219  1.00  0.00    -0.224 C  
BRANCH  22  23
HETATM   23  C   UNL     1      -7.015  15.869  68.928  1.00  0.00    -0.143 C  
BRANCH  23  24
HETATM   24  O   UNL     1      -6.735  14.487  68.705  1.00  0.00    -0.082 OA 
BRANCH  24  25
HETATM   25  C   UNL     1      -7.303  14.032  67.476  1.00  0.00    -0.170 C  
HETATM   26  C   UNL     1      -8.040  12.727  67.713  1.00  0.00    -0.168 C  
HETATM   27  F   UNL     1      -8.578  12.295  66.541  1.00  0.00    -0.191 F  
ENDBRANCH  24  25
ENDBRANCH  23  24
ENDBRANCH  22  23
ENDBRANCH  21  22
ENDBRANCH  20  21
ENDBRANCH  19  20
ENDBRANCH  18  19
ENDBRANCH  15  18
ENDBRANCH  11  12
ENDBRANCH   7  10
ENDBRANCH   1   4
TORSDOF 11
ENDMDL
MODEL      108
REMARK 921   NORMALIZED FREE ENERGY PREDICTED BY IDOCK:   -4.36 KCAL/MOL
REMARK 922        TOTAL FREE ENERGY PREDICTED BY IDOCK:   -8.02 KCAL/MOL
REMARK 923 INTER-LIGAND FREE ENERGY PREDICTED BY IDOCK:   -6.54 KCAL/MOL
REMARK 924 INTRA-LIGAND FREE ENERGY PREDICTED BY IDOCK:   -1.47 KCAL/MOL
REMARK 927      BINDING AFFINITY PREDICTED BY RF-SCORE:    0.00 PKD
ROOT
HETATM    1  N   UNL     1     -13.802  14.017  72.667  1.00  0.00    -0.691 NA 
HETATM    2  H   UNL     1     -14.798  13.880  72.840  1.00  0.00     0.000 HD 
HETATM    3  C   UNL     1     -13.055  15.031  73.394  1.00  0.00    -0.425 C  
ENDROOT
BRANCH   1   4
HETATM    4  C   UNL     1     -13.130  13.232  71.726  1.00  0.00    -0.379 A  
HETATM    5  C   UNL     1     -13.076  11.837  71.766  1.00  0.00    -0.480 A  
HETATM    6  C   UNL     1     -12.363  11.119  70.800  1.00  0.00    -0.504 A  
HETATM    7  C   UNL     1     -11.717  11.777  69.748  1.00  0.00    -0.408 A  
HETATM    8  C   UNL     1     -11.822  13.169  69.671  1.00  0.00    -0.390 A  
HETATM    9  C   UNL     1     -12.540  13.881  70.637  1.00  0.00    -0.405 A  
BRANCH   7  10
HETATM   10  C   UNL     1     -10.890  10.992  68.822  1.00  0.00    -0.253 C  
HETATM   11  C   UNL     1      -9.878  10.193  69.198  1.00  0.00    -0.225 C  
BRANCH  11  12
HETATM   12  C   UNL     1      -9.084   9.378  68.272  1.00  0.00    -0.128 A  
HETATM   13  C   UNL     1      -8.214   8.370  68.682  1.00  0.00    -0.123 A  
HETATM   14  N   UNL     1      -7.448   7.621  67.852  1.00  0.00    -0.105 NA 
HETATM   15  C   UNL     1      -7.519   7.915  66.539  1.00  0.00    -0.088 A  
HETATM   16  C   UNL     1      -9.125   9.645  66.903  1.00  0.00    -0.160 A  
HETATM   17  C   UNL     1      -8.327   8.913  66.019  1.00  0.00    -0.128 A  
BRANCH  15  18
HETATM   18  O   UNL     1      -6.736   7.227  65.637  1.00  0.00    -0.050 OA 
BRANCH  18  19
HETATM   19  C   UNL     1      -7.477   6.244  64.902  1.00  0.00    -0.084 C  
BRANCH  19  20
HETATM   20  C   UNL     1      -6.755   4.902  64.996  1.00  0.00    -0.048 C  
BRANCH  20  21
HETATM   21  O   UNL     1      -7.621   3.943  65.613  1.00  0.00    -0.080 OA 
BRANCH  21  22
HETATM   22  C   UNL     1      -7.484   3.941  67.031  1.00  0.00    -0.072 C  
BRANCH  22  23
HETATM   23  C   UNL     1      -8.841   4.228  67.663  1.00  0.00    -0.111 C  
BRANCH  23  24
HETATM   24  O   UNL     1      -9.874   3.835  66.759  1.00  0.00    -0.182 OA 
BRANCH  24  25
HETATM   25  C   UNL     1     -10.615   4.964  66.293  1.00  0.00    -0.255 C  
HETATM   26  C   UNL     1     -10.698   6.004  67.396  1.00  0.00    -0.310 C  
HETATM   27  F   UNL     1     -11.404   7.076  66.951  1.00  0.00    -0.461 F  
ENDBRANCH  24  25
ENDBRANCH  23  24
ENDBRANCH  22  23
ENDBRANCH  21  22
ENDBRANCH  20  21
ENDBRANCH  19  20
ENDBRANCH  18  19
ENDBRANCH  15  18
ENDBRANCH  11  12
ENDBRANCH   7  10
ENDBRANCH   1   4
TORSDOF 11
ENDMDL
MODEL      109
REMARK 921   NORMALIZED FREE ENERGY PREDICTED BY IDOCK:   -4.35 KCAL/MOL
REMARK 922        TOTAL FREE ENERGY PREDICTED BY IDOCK:   -8.01 KCAL/MOL
REMARK 923 INTER-LIGAND FREE ENERGY PREDICTED BY IDOCK:   -7.56 KCAL/MOL
REMARK 924 INTRA-LIGAND FREE ENERGY PREDICTED BY IDOCK:   -0.45 KCAL/MOL
REMARK 927      BINDING AFFINITY PREDICTED BY RF-SCORE:    0.00 PKD
ROOT
HETATM    1  N   UNL     1     -10.364  18.471  65.682  1.00  0.00    -0.577 NA 
HETATM    2  H   UNL     1     -10.555  18.583  64.686  1.00  0.00     0.000 HD 
HETATM    3  C   UNL     1      -9.958  19.610  66.491  1.00  0.00    -0.440 C  
ENDROOT
BRANCH   1   4
HETATM    4  C   UNL     1     -10.487  17.222  66.295  1.00  0.00    -0.268 A  
HETATM    5  C   UNL     1     -10.260  16.006  65.645  1.00  0.00    -0.412 A  
HETATM    6  C   UNL     1     -10.425  14.791  66.320  1.00  0.00    -0.300 A  
HETATM    7  C   UNL     1     -10.784  14.764  67.672  1.00  0.00    -0.270 A  
HETATM    8  C   UNL     1     -10.950  15.980  68.340  1.00  0.00    -0.331 A  
HETATM    9  C   UNL     1     -10.780  17.192  67.662  1.00  0.00    -0.302 A  
BRANCH   7  10
HETATM   10  C   UNL     1     -11.053  13.466  68.307  1.00  0.00    -0.289 C  
HETATM   11  C   UNL     1     -11.542  13.317  69.549  1.00  0.00    -0.349 C  
BRANCH  11  12
HETATM   12  C   UNL     1     -11.850  12.019  70.161  1.00  0.00    -0.383 A  
HETATM   13  C   UNL     1     -12.606  11.873  71.324  1.00  0.00    -0.277 A  
HETATM   14  N   UNL     1     -12.881  10.692  71.926  1.00  0.00    -0.432 NA 
HETATM   15  C   UNL     1     -12.343   9.591  71.367  1.00  0.00    -0.364 A  
HETATM   16  C   UNL     1     -11.315  10.851  69.618  1.00  0.00    -0.362 A  
HETATM   17  C   UNL     1     -11.553   9.617  70.229  1.00  0.00    -0.255 A  
BRANCH  15  18
HETATM   18  O   UNL     1     -12.542   8.357  71.949  1.00  0.00    -0.316 OA 
BRANCH  18  19
HETATM   19  C   UNL     1     -11.379   7.880  72.637  1.00  0.00    -0.408 C  
BRANCH  19  20
HETATM   20  C   UNL     1     -11.089   6.448  72.194  1.00  0.00    -0.263 C  
BRANCH  20  21
HETATM   21  O   UNL     1     -11.746   6.198  70.948  1.00  0.00    -0.282 OA 
BRANCH  21  22
HETATM   22  C   UNL     1     -10.877   5.573  70.007  1.00  0.00    -0.231 C  
BRANCH  22  23
HETATM   23  C   UNL     1      -9.491   6.197  70.118  1.00  0.00    -0.159 C  
BRANCH  23  24
HETATM   24  O   UNL     1      -8.681   5.397  70.980  1.00  0.00    -0.130 OA 
BRANCH  24  25
HETATM   25  C   UNL     1      -7.610   4.780  70.263  1.00  0.00    -0.057 C  
HETATM   26  C   UNL     1      -7.251   5.633  69.060  1.00  0.00    -0.073 C  
HETATM   27  F   UNL     1      -6.235   5.043  68.378  1.00  0.00    -0.026 F  
ENDBRANCH  24  25
ENDBRANCH  23  24
ENDBRANCH  22  23
ENDBRANCH  21  22
ENDBRANCH  20  21
ENDBRANCH  19  20
ENDBRANCH  18  19
ENDBRANCH  15  18
ENDBRANCH  11  12
ENDBRANCH   7  10
ENDBRANCH   1   4
TORSDOF 11
ENDMDL
MODEL      110
REMARK 921   NORMALIZED FREE ENERGY PREDICTED BY IDOCK:   -4.35 KCAL/MOL
REMARK 922        TOTAL FREE ENERGY PREDICTED BY IDOCK:   -8.01 KCAL/MOL
REMARK 923 INTER-LIGAND FREE ENERGY PREDICTED BY IDOCK:   -7.34 KCAL/MOL
REMARK 924 INTRA-LIGAND FREE ENERGY PREDICTED BY IDOCK:   -0.67 KCAL/MOL
REMARK 927      BINDING AFFINITY PREDICTED BY RF-SCORE:    0.00 PKD
ROOT
HETATM    1  N   UNL     1     -12.537   9.877  70.561  1.00  0.00    -0.508 NA 
HETATM    2  H   UNL     1     -13.541   9.846  70.380  1.00  0.00     0.000 HD 
HETATM    3  C   UNL     1     -11.944   9.040  71.593  1.00  0.00    -0.356 C  
ENDROOT
BRANCH   1   4
HETATM    4  C   UNL     1     -11.706  10.724  69.823  1.00  0.00    -0.324 A  
HETATM    5  C   UNL     1     -10.491  10.330  69.258  1.00  0.00    -0.250 A  
HETATM    6  C   UNL     1      -9.700  11.241  68.550  1.00  0.00    -0.199 A  
HETATM    7  C   UNL     1     -10.125  12.560  68.355  1.00  0.00    -0.216 A  
HETATM    8  C   UNL     1     -11.370  12.940  68.866  1.00  0.00    -0.335 A  
HETATM    9  C   UNL     1     -12.158  12.023  69.570  1.00  0.00    -0.273 A  
BRANCH   7  10
HETATM   10  C   UNL     1      -9.214  13.509  67.702  1.00  0.00    -0.214 C  
HETATM   11  C   UNL     1      -9.194  14.831  67.941  1.00  0.00    -0.191 C  
BRANCH  11  12
HETATM   12  C   UNL     1      -8.251  15.766  67.317  1.00  0.00    -0.211 A  
HETATM   13  C   UNL     1      -8.615  16.694  66.342  1.00  0.00    -0.310 A  
HETATM   14  N   UNL     1      -7.761  17.548  65.729  1.00  0.00    -0.504 NA 
HETATM   15  C   UNL     1      -6.462  17.453  66.073  1.00  0.00    -0.126 A  
HETATM   16  C   UNL     1      -6.895  15.705  67.641  1.00  0.00    -0.201 A  
HETATM   17  C   UNL     1      -5.981  16.551  67.008  1.00  0.00    -0.157 A  
BRANCH  15  18
HETATM   18  O   UNL     1      -5.527  18.259  65.460  1.00  0.00    -0.158 OA 
BRANCH  18  19
HETATM   19  C   UNL     1      -6.123  19.363  64.766  1.00  0.00    -0.274 C  
BRANCH  19  20
HETATM   20  C   UNL     1      -5.821  20.652  65.527  1.00  0.00    -0.219 C  
BRANCH  20  21
HETATM   21  O   UNL     1      -6.902  20.936  66.419  1.00  0.00    -0.243 OA 
BRANCH  21  22
HETATM   22  C   UNL     1      -6.451  21.112  67.760  1.00  0.00    -0.310 C  
BRANCH  22  23
HETATM   23  C   UNL     1      -6.511  19.772  68.484  1.00  0.00    -0.275 C  
BRANCH  23  24
HETATM   24  O   UNL     1      -7.764  19.657  69.160  1.00  0.00    -0.339 OA 
BRANCH  24  25
HETATM   25  C   UNL     1      -8.859  19.794  68.253  1.00  0.00    -0.276 C  
HETATM   26  C   UNL     1      -9.995  18.889  68.693  1.00  0.00    -0.412 C  
HETATM   27  F   UNL     1     -11.035  19.020  67.828  1.00  0.00    -0.460 F  
ENDBRANCH  24  25
ENDBRANCH  23  24
ENDBRANCH  22  23
ENDBRANCH  21  22
ENDBRANCH  20  21
ENDBRANCH  19  20
ENDBRANCH  18  19
ENDBRANCH  15  18
ENDBRANCH  11  12
ENDBRANCH   7  10
ENDBRANCH   1   4
TORSDOF 11
ENDMDL
MODEL      111
REMARK 921   NORMALIZED FREE ENERGY PREDICTED BY IDOCK:   -4.32 KCAL/MOL
REMARK 922        TOTAL FREE ENERGY PREDICTED BY IDOCK:   -7.96 KCAL/MOL
REMARK 923 INTER-LIGAND FREE ENERGY PREDICTED BY IDOCK:   -6.75 KCAL/MOL
REMARK 924 INTRA-LIGAND FREE ENERGY PREDICTED BY IDOCK:   -1.20 KCAL/MOL
REMARK 927      BINDING AFFINITY PREDICTED BY RF-SCORE:    0.00 PKD
ROOT
HETATM    1  N   UNL     1     -11.588  14.453  65.608  1.00  0.00    -0.343 NA 
HETATM    2  H   UNL     1     -12.314  14.458  64.892  1.00  0.00     0.000 HD 
HETATM    3  C   UNL     1     -10.640  15.552  65.711  1.00  0.00    -0.356 C  
ENDROOT
BRANCH   1   4
HETATM    4  C   UNL     1     -11.484  13.390  66.510  1.00  0.00    -0.341 A  
HETATM    5  C   UNL     1     -11.722  13.502  67.882  1.00  0.00    -0.392 A  
HETATM    6  C   UNL     1     -11.576  12.397  68.728  1.00  0.00    -0.373 A  
HETATM    7  C   UNL     1     -11.225  11.143  68.216  1.00  0.00    -0.343 A  
HETATM    8  C   UNL     1     -11.047  11.015  66.835  1.00  0.00    -0.280 A  
HETATM    9  C   UNL     1     -11.198  12.122  65.994  1.00  0.00    -0.382 A  
BRANCH   7  10
HETATM   10  C   UNL     1     -10.976  10.039  69.153  1.00  0.00    -0.256 C  
HETATM   11  C   UNL     1     -11.189  10.106  70.478  1.00  0.00    -0.411 C  
BRANCH  11  12
HETATM   12  C   UNL     1     -10.980   8.985  71.402  1.00  0.00    -0.394 A  
HETATM   13  C   UNL     1      -9.838   8.834  72.186  1.00  0.00    -0.277 A  
HETATM   14  N   UNL     1      -9.605   7.796  73.025  1.00  0.00    -0.232 NA 
HETATM   15  C   UNL     1     -10.542   6.829  73.061  1.00  0.00    -0.267 A  
HETATM   16  C   UNL     1     -11.922   7.959  71.473  1.00  0.00    -0.333 A  
HETATM   17  C   UNL     1     -11.703   6.858  72.305  1.00  0.00    -0.296 A  
BRANCH  15  18
HETATM   18  O   UNL     1     -10.355   5.719  73.857  1.00  0.00    -0.229 OA 
BRANCH  18  19
HETATM   19  C   UNL     1      -9.021   5.202  73.774  1.00  0.00    -0.117 C  
BRANCH  19  20
HETATM   20  C   UNL     1      -8.947   4.197  72.627  1.00  0.00    -0.109 C  
BRANCH  20  21
HETATM   21  O   UNL     1      -8.017   4.669  71.647  1.00  0.00    -0.096 OA 
BRANCH  21  22
HETATM   22  C   UNL     1      -8.679   5.251  70.526  1.00  0.00    -0.121 C  
BRANCH  22  23
HETATM   23  C   UNL     1      -9.819   4.337  70.092  1.00  0.00    -0.201 C  
BRANCH  23  24
HETATM   24  O   UNL     1      -9.417   3.597  68.938  1.00  0.00    -0.161 OA 
BRANCH  24  25
HETATM   25  C   UNL     1      -9.112   4.464  67.844  1.00  0.00    -0.127 C  
HETATM   26  C   UNL     1     -10.402   4.924  67.191  1.00  0.00    -0.123 C  
HETATM   27  F   UNL     1     -10.110   5.747  66.149  1.00  0.00    -0.193 F  
ENDBRANCH  24  25
ENDBRANCH  23  24
ENDBRANCH  22  23
ENDBRANCH  21  22
ENDBRANCH  20  21
ENDBRANCH  19  20
ENDBRANCH  18  19
ENDBRANCH  15  18
ENDBRANCH  11  12
ENDBRANCH   7  10
ENDBRANCH   1   4
TORSDOF 11
ENDMDL
MODEL      112
REMARK 921   NORMALIZED FREE ENERGY PREDICTED BY IDOCK:   -4.29 KCAL/MOL
REMARK 922        TOTAL FREE ENERGY PREDICTED BY IDOCK:   -7.92 KCAL/MOL
REMARK 923 INTER-LIGAND FREE ENERGY PREDICTED BY IDOCK:   -6.90 KCAL/MOL
REMARK 924 INTRA-LIGAND FREE ENERGY PREDICTED BY IDOCK:   -1.01 KCAL/MOL
REMARK 927      BINDING AFFINITY PREDICTED BY RF-SCORE:    0.00 PKD
ROOT
HETATM    1  N   UNL     1     -11.212   7.175  68.701  1.00  0.00    -0.474 NA 
HETATM    2  H   UNL     1     -11.443   6.469  68.002  1.00  0.00     0.000 HD 
HETATM    3  C   UNL     1     -11.343   6.884  70.120  1.00  0.00    -0.314 C  
ENDROOT
BRANCH   1   4
HETATM    4  C   UNL     1     -10.764   8.441  68.313  1.00  0.00    -0.028 A  
HETATM    5  C   UNL     1     -10.793   9.568  69.138  1.00  0.00    -0.194 A  
HETATM    6  C   UNL     1     -10.347  10.809  68.671  1.00  0.00    -0.208 A  
HETATM    7  C   UNL     1      -9.826  10.946  67.380  1.00  0.00    -0.199 A  
HETATM    8  C   UNL     1      -9.738   9.807  66.575  1.00  0.00    -0.267 A  
HETATM    9  C   UNL     1     -10.182   8.567  67.048  1.00  0.00    -0.371 A  
BRANCH   7  10
HETATM   10  C   UNL     1      -9.474  12.288  66.896  1.00  0.00    -0.217 C  
HETATM   11  C   UNL     1      -8.821  13.210  67.623  1.00  0.00    -0.191 C  
BRANCH  11  12
HETATM   12  C   UNL     1      -8.433  14.532  67.119  1.00  0.00    -0.234 A  
HETATM   13  C   UNL     1      -9.196  15.266  66.212  1.00  0.00    -0.315 A  
HETATM   14  N   UNL     1      -8.849  16.474  65.707  1.00  0.00    -0.450 NA 
HETATM   15  C   UNL     1      -7.657  16.969  66.093  1.00  0.00    -0.245 A  
HETATM   16  C   UNL     1      -7.207  15.085  67.490  1.00  0.00    -0.228 A  
HETATM   17  C   UNL     1      -6.803  16.315  66.967  1.00  0.00    -0.235 A  
BRANCH  15  18
HETATM   18  O   UNL     1      -7.215  18.173  65.587  1.00  0.00    -0.513 OA 
BRANCH  18  19
HETATM   19  C   UNL     1      -8.123  19.249  65.857  1.00  0.00    -0.104 C  
BRANCH  19  20
HETATM   20  C   UNL     1      -7.370  20.369  66.571  1.00  0.00    -0.240 C  
BRANCH  20  21
HETATM   21  O   UNL     1      -6.650  19.821  67.679  1.00  0.00    -0.222 OA 
BRANCH  21  22
HETATM   22  C   UNL     1      -7.380  19.943  68.897  1.00  0.00    -0.231 C  
BRANCH  22  23
HETATM   23  C   UNL     1      -8.269  18.718  69.069  1.00  0.00    -0.128 C  
BRANCH  23  24
HETATM   24  O   UNL     1      -9.637  19.106  68.940  1.00  0.00    -0.390 OA 
BRANCH  24  25
HETATM   25  C   UNL     1     -10.418  18.069  68.344  1.00  0.00    -0.315 C  
HETATM   26  C   UNL     1     -10.468  16.874  69.277  1.00  0.00    -0.319 C  
HETATM   27  F   UNL     1     -11.210  15.888  68.707  1.00  0.00    -0.274 F  
ENDBRANCH  24  25
ENDBRANCH  23  24
ENDBRANCH  22  23
ENDBRANCH  21  22
ENDBRANCH  20  21
ENDBRANCH  19  20
ENDBRANCH  18  19
ENDBRANCH  15  18
ENDBRANCH  11  12
ENDBRANCH   7  10
ENDBRANCH   1   4
TORSDOF 11
ENDMDL
MODEL      113
REMARK 921   NORMALIZED FREE ENERGY PREDICTED BY IDOCK:   -4.28 KCAL/MOL
REMARK 922        TOTAL FREE ENERGY PREDICTED BY IDOCK:   -7.89 KCAL/MOL
REMARK 923 INTER-LIGAND FREE ENERGY PREDICTED BY IDOCK:   -6.97 KCAL/MOL
REMARK 924 INTRA-LIGAND FREE ENERGY PREDICTED BY IDOCK:   -0.92 KCAL/MOL
REMARK 927      BINDING AFFINITY PREDICTED BY RF-SCORE:    0.00 PKD
ROOT
HETATM    1  N   UNL     1     -10.250  19.013  67.686  1.00  0.00    -0.375 NA 
HETATM    2  H   UNL     1      -9.936  19.640  68.427  1.00  0.00     0.000 HD 
HETATM    3  C   UNL     1     -10.631  19.536  66.384  1.00  0.00    -0.472 C  
ENDROOT
BRANCH   1   4
HETATM    4  C   UNL     1     -10.320  17.634  67.904  1.00  0.00    -0.371 A  
HETATM    5  C   UNL     1     -10.500  17.049  69.159  1.00  0.00    -0.323 A  
HETATM    6  C   UNL     1     -10.538  15.657  69.302  1.00  0.00    -0.238 A  
HETATM    7  C   UNL     1     -10.436  14.818  68.187  1.00  0.00    -0.239 A  
HETATM    8  C   UNL     1     -10.320  15.403  66.923  1.00  0.00    -0.277 A  
HETATM    9  C   UNL     1     -10.286  16.795  66.786  1.00  0.00    -0.304 A  
BRANCH   7  10
HETATM   10  C   UNL     1     -10.371  13.365  68.397  1.00  0.00    -0.253 C  
HETATM   11  C   UNL     1     -10.807  12.450  67.516  1.00  0.00    -0.271 C  
BRANCH  11  12
HETATM   12  C   UNL     1     -10.698  11.000  67.713  1.00  0.00    -0.270 A  
HETATM   13  C   UNL     1     -10.884  10.372  68.944  1.00  0.00    -0.236 A  
HETATM   14  N   UNL     1     -10.761   9.041  69.161  1.00  0.00    -0.198 NA 
HETATM   15  C   UNL     1     -10.393   8.290  68.105  1.00  0.00    -0.202 A  
HETATM   16  C   UNL     1     -10.318  10.182  66.649  1.00  0.00    -0.274 A  
HETATM   17  C   UNL     1     -10.153   8.808  66.842  1.00  0.00    -0.348 A  
BRANCH  15  18
HETATM   18  O   UNL     1     -10.204   6.933  68.258  1.00  0.00    -0.163 OA 
BRANCH  18  19
HETATM   19  C   UNL     1      -9.587   6.602  69.509  1.00  0.00    -0.146 C  
BRANCH  19  20
HETATM   20  C   UNL     1      -9.804   5.117  69.794  1.00  0.00    -0.212 C  
BRANCH  20  21
HETATM   21  O   UNL     1      -9.044   4.743  70.947  1.00  0.00    -0.126 OA 
BRANCH  21  22
HETATM   22  C   UNL     1      -9.879   4.291  72.009  1.00  0.00    -0.175 C  
BRANCH  22  23
HETATM   23  C   UNL     1      -9.727   5.233  73.198  1.00  0.00    -0.145 C  
BRANCH  23  24
HETATM   24  O   UNL     1     -10.964   5.908  73.427  1.00  0.00    -0.260 OA 
BRANCH  24  25
HETATM   25  C   UNL     1     -10.806   7.326  73.347  1.00  0.00    -0.324 C  
HETATM   26  C   UNL     1     -11.783   7.886  72.330  1.00  0.00    -0.355 C  
HETATM   27  F   UNL     1     -11.630   9.234  72.254  1.00  0.00    -0.410 F  
ENDBRANCH  24  25
ENDBRANCH  23  24
ENDBRANCH  22  23
ENDBRANCH  21  22
ENDBRANCH  20  21
ENDBRANCH  19  20
ENDBRANCH  18  19
ENDBRANCH  15  18
ENDBRANCH  11  12
ENDBRANCH   7  10
ENDBRANCH   1   4
TORSDOF 11
ENDMDL
MODEL      114
REMARK 921   NORMALIZED FREE ENERGY PREDICTED BY IDOCK:   -4.19 KCAL/MOL
REMARK 922        TOTAL FREE ENERGY PREDICTED BY IDOCK:   -7.74 KCAL/MOL
REMARK 923 INTER-LIGAND FREE ENERGY PREDICTED BY IDOCK:   -6.91 KCAL/MOL
REMARK 924 INTRA-LIGAND FREE ENERGY PREDICTED BY IDOCK:   -0.83 KCAL/MOL
REMARK 927      BINDING AFFINITY PREDICTED BY RF-SCORE:    0.00 PKD
ROOT
HETATM    1  N   UNL     1     -13.752  14.251  72.880  1.00  0.00    -0.618 NA 
HETATM    2  H   UNL     1     -14.501  13.788  73.395  1.00  0.00     0.000 HD 
HETATM    3  C   UNL     1     -13.298  15.578  73.267  1.00  0.00    -0.474 C  
ENDROOT
BRANCH   1   4
HETATM    4  C   UNL     1     -13.143  13.623  71.790  1.00  0.00    -0.382 A  
HETATM    5  C   UNL     1     -12.934  12.245  71.698  1.00  0.00    -0.416 A  
HETATM    6  C   UNL     1     -12.296  11.690  70.584  1.00  0.00    -0.437 A  
HETATM    7  C   UNL     1     -11.885  12.496  69.516  1.00  0.00    -0.375 A  
HETATM    8  C   UNL     1     -12.150  13.867  69.578  1.00  0.00    -0.393 A  
HETATM    9  C   UNL     1     -12.792  14.416  70.694  1.00  0.00    -0.390 A  
BRANCH   7  10
HETATM   10  C   UNL     1     -11.122  11.885  68.419  1.00  0.00    -0.292 C  
HETATM   11  C   UNL     1     -11.306  12.164  67.119  1.00  0.00    -0.393 C  
BRANCH  11  12
HETATM   12  C   UNL     1     -10.510  11.583  66.032  1.00  0.00    -0.298 A  
HETATM   13  C   UNL     1      -9.224  11.074  66.203  1.00  0.00    -0.190 A  
HETATM   14  N   UNL     1      -8.455  10.559  65.214  1.00  0.00    -0.172 NA 
HETATM   15  C   UNL     1      -8.976  10.585  63.972  1.00  0.00    -0.217 A  
HETATM   16  C   UNL     1     -11.006  11.588  64.728  1.00  0.00    -0.338 A  
HETATM   17  C   UNL     1     -10.231  11.092  63.677  1.00  0.00    -0.444 A  
BRANCH  15  18
HETATM   18  O   UNL     1      -8.235  10.119  62.906  1.00  0.00    -0.143 OA 
BRANCH  18  19
HETATM   19  C   UNL     1      -8.654   8.819  62.472  1.00  0.00    -0.170 C  
BRANCH  19  20
HETATM   20  C   UNL     1      -7.458   7.871  62.508  1.00  0.00    -0.106 C  
BRANCH  20  21
HETATM   21  O   UNL     1      -7.816   6.687  63.227  1.00  0.00    -0.111 OA 
BRANCH  21  22
HETATM   22  C   UNL     1      -7.916   6.927  64.628  1.00  0.00    -0.112 C  
BRANCH  22  23
HETATM   23  C   UNL     1      -8.260   5.620  65.333  1.00  0.00    -0.132 C  
BRANCH  23  24
HETATM   24  O   UNL     1      -7.237   4.659  65.072  1.00  0.00    -0.065 OA 
BRANCH  24  25
HETATM   25  C   UNL     1      -7.779   3.344  64.937  1.00  0.00    -0.078 C  
HETATM   26  C   UNL     1      -8.210   3.122  63.499  1.00  0.00    -0.085 C  
HETATM   27  F   UNL     1      -8.728   1.872  63.373  1.00  0.00    -0.080 F  
ENDBRANCH  24  25
ENDBRANCH  23  24
ENDBRANCH  22  23
ENDBRANCH  21  22
ENDBRANCH  20  21
ENDBRANCH  19  20
ENDBRANCH  18  19
ENDBRANCH  15  18
ENDBRANCH  11  12
ENDBRANCH   7  10
ENDBRANCH   1   4
TORSDOF 11
ENDMDL
MODEL      115
REMARK 921   NORMALIZED FREE ENERGY PREDICTED BY IDOCK:   -4.17 KCAL/MOL
REMARK 922        TOTAL FREE ENERGY PREDICTED BY IDOCK:   -7.72 KCAL/MOL
REMARK 923 INTER-LIGAND FREE ENERGY PREDICTED BY IDOCK:   -7.05 KCAL/MOL
REMARK 924 INTRA-LIGAND FREE ENERGY PREDICTED BY IDOCK:   -0.67 KCAL/MOL
REMARK 927      BINDING AFFINITY PREDICTED BY RF-SCORE:    0.00 PKD
ROOT
HETATM    1  N   UNL     1     -10.801  17.687  67.939  1.00  0.00    -0.324 NA 
HETATM    2  H   UNL     1     -11.434  18.153  67.289  1.00  0.00     0.000 HD 
HETATM    3  C   UNL     1      -9.648  18.388  68.482  1.00  0.00    -0.345 C  
ENDROOT
BRANCH   1   4
HETATM    4  C   UNL     1     -11.026  16.363  68.325  1.00  0.00    -0.355 A  
HETATM    5  C   UNL     1     -11.248  15.960  69.644  1.00  0.00    -0.331 A  
HETATM    6  C   UNL     1     -11.443  14.610  69.958  1.00  0.00    -0.313 A  
HETATM    7  C   UNL     1     -11.459  13.635  68.955  1.00  0.00    -0.346 A  
HETATM    8  C   UNL     1     -11.299  14.044  67.628  1.00  0.00    -0.336 A  
HETATM    9  C   UNL     1     -11.108  15.395  67.320  1.00  0.00    -0.302 A  
BRANCH   7  10
HETATM   10  C   UNL     1     -11.556  12.221  69.343  1.00  0.00    -0.378 C  
HETATM   11  C   UNL     1     -12.055  11.787  70.512  1.00  0.00    -0.439 C  
BRANCH  11  12
HETATM   12  C   UNL     1     -12.191  10.372  70.874  1.00  0.00    -0.484 A  
HETATM   13  C   UNL     1     -13.406   9.769  71.191  1.00  0.00    -0.291 A  
HETATM   14  N   UNL     1     -13.557   8.473  71.556  1.00  0.00    -0.331 NA 
HETATM   15  C   UNL     1     -12.431   7.739  71.652  1.00  0.00    -0.326 A  
HETATM   16  C   UNL     1     -11.053   9.572  70.987  1.00  0.00    -0.433 A  
HETATM   17  C   UNL     1     -11.166   8.239  71.389  1.00  0.00    -0.304 A  
BRANCH  15  18
HETATM   18  O   UNL     1     -12.500   6.425  72.062  1.00  0.00    -0.333 OA 
BRANCH  18  19
HETATM   19  C   UNL     1     -11.222   5.901  72.444  1.00  0.00    -0.291 C  
BRANCH  19  20
HETATM   20  C   UNL     1     -10.640   5.105  71.278  1.00  0.00    -0.133 C  
BRANCH  20  21
HETATM   21  O   UNL     1      -9.213   5.214  71.297  1.00  0.00    -0.140 OA 
BRANCH  21  22
HETATM   22  C   UNL     1      -8.623   4.658  70.126  1.00  0.00    -0.078 C  
BRANCH  22  23
HETATM   23  C   UNL     1      -7.590   5.636  69.577  1.00  0.00    -0.072 C  
BRANCH  23  24
HETATM   24  O   UNL     1      -8.043   6.972  69.796  1.00  0.00    -0.121 OA 
BRANCH  24  25
HETATM   25  C   UNL     1      -6.946   7.870  69.972  1.00  0.00    -0.049 C  
HETATM   26  C   UNL     1      -7.359   8.994  70.905  1.00  0.00    -0.111 C  
HETATM   27  F   UNL     1      -6.315   9.848  71.070  1.00  0.00    -0.085 F  
ENDBRANCH  24  25
ENDBRANCH  23  24
ENDBRANCH  22  23
ENDBRANCH  21  22
ENDBRANCH  20  21
ENDBRANCH  19  20
ENDBRANCH  18  19
ENDBRANCH  15  18
ENDBRANCH  11  12
ENDBRANCH   7  10
ENDBRANCH   1   4
TORSDOF 11
ENDMDL
MODEL      116
REMARK 921   NORMALIZED FREE ENERGY PREDICTED BY IDOCK:   -4.17 KCAL/MOL
REMARK 922        TOTAL FREE ENERGY PREDICTED BY IDOCK:   -7.70 KCAL/MOL
REMARK 923 INTER-LIGAND FREE ENERGY PREDICTED BY IDOCK:   -7.35 KCAL/MOL
REMARK 924 INTRA-LIGAND FREE ENERGY PREDICTED BY IDOCK:   -0.35 KCAL/MOL
REMARK 927      BINDING AFFINITY PREDICTED BY RF-SCORE:    0.00 PKD
ROOT
HETATM    1  N   UNL     1      -9.769   4.289  67.057  1.00  0.00    -0.209 NA 
HETATM    2  H   UNL     1     -10.322   3.852  67.794  1.00  0.00     0.000 HD 
HETATM    3  C   UNL     1      -8.921   3.486  66.190  1.00  0.00    -0.142 C  
ENDROOT
BRANCH   1   4
HETATM    4  C   UNL     1      -9.812   5.672  66.860  1.00  0.00    -0.159 A  
HETATM    5  C   UNL     1     -10.771   6.514  67.429  1.00  0.00    -0.412 A  
HETATM    6  C   UNL     1     -10.763   7.888  67.168  1.00  0.00    -0.306 A  
HETATM    7  C   UNL     1      -9.773   8.460  66.362  1.00  0.00    -0.312 A  
HETATM    8  C   UNL     1      -8.777   7.629  65.842  1.00  0.00    -0.176 A  
HETATM    9  C   UNL     1      -8.787   6.256  66.110  1.00  0.00    -0.160 A  
BRANCH   7  10
HETATM   10  C   UNL     1      -9.870   9.888  66.027  1.00  0.00    -0.330 C  
HETATM   11  C   UNL     1     -11.024  10.566  65.918  1.00  0.00     0.146 C  
BRANCH  11  12
HETATM   12  C   UNL     1     -11.111  12.001  65.626  1.00  0.00    -0.361 A  
HETATM   13  C   UNL     1     -12.315  12.686  65.468  1.00  0.00    -0.391 A  
HETATM   14  N   UNL     1     -12.425  14.002  65.171  1.00  0.00    -0.526 NA 
HETATM   15  C   UNL     1     -11.273  14.675  64.979  1.00  0.00    -0.386 A  
HETATM   16  C   UNL     1      -9.945  12.739  65.419  1.00  0.00    -0.215 A  
HETATM   17  C   UNL     1     -10.019  14.093  65.081  1.00  0.00    -0.263 A  
BRANCH  15  18
HETATM   18  O   UNL     1     -11.305  16.008  64.629  1.00  0.00    -0.431 OA 
BRANCH  18  19
HETATM   19  C   UNL     1     -10.470  16.816  65.468  1.00  0.00    -0.237 C  
BRANCH  19  20
HETATM   20  C   UNL     1     -10.756  16.479  66.929  1.00  0.00    -0.175 C  
BRANCH  20  21
HETATM   21  O   UNL     1     -10.947  17.692  67.664  1.00  0.00    -0.296 OA 
BRANCH  21  22
HETATM   22  C   UNL     1      -9.895  17.917  68.599  1.00  0.00    -0.374 C  
BRANCH  22  23
HETATM   23  C   UNL     1      -9.680  19.418  68.754  1.00  0.00    -0.449 C  
BRANCH  23  24
HETATM   24  O   UNL     1      -8.341  19.744  68.382  1.00  0.00    -0.319 OA 
BRANCH  24  25
HETATM   25  C   UNL     1      -8.296  20.390  67.109  1.00  0.00    -0.318 C  
HETATM   26  C   UNL     1      -7.077  19.911  66.343  1.00  0.00    -0.242 C  
HETATM   27  F   UNL     1      -7.035  20.528  65.133  1.00  0.00    -0.309 F  
ENDBRANCH  24  25
ENDBRANCH  23  24
ENDBRANCH  22  23
ENDBRANCH  21  22
ENDBRANCH  20  21
ENDBRANCH  19  20
ENDBRANCH  18  19
ENDBRANCH  15  18
ENDBRANCH  11  12
ENDBRANCH   7  10
ENDBRANCH   1   4
TORSDOF 11
ENDMDL
MODEL      117
REMARK 921   NORMALIZED FREE ENERGY PREDICTED BY IDOCK:   -4.15 KCAL/MOL
REMARK 922        TOTAL FREE ENERGY PREDICTED BY IDOCK:   -7.67 KCAL/MOL
REMARK 923 INTER-LIGAND FREE ENERGY PREDICTED BY IDOCK:   -6.97 KCAL/MOL
REMARK 924 INTRA-LIGAND FREE ENERGY PREDICTED BY IDOCK:   -0.70 KCAL/MOL
REMARK 927      BINDING AFFINITY PREDICTED BY RF-SCORE:    0.00 PKD
ROOT
HETATM    1  N   UNL     1      -9.366   2.195  69.399  1.00  0.00    -0.117 NA 
HETATM    2  H   UNL     1      -9.227   1.645  70.246  1.00  0.00     0.000 HD 
HETATM    3  C   UNL     1      -9.289   1.570  68.088  1.00  0.00    -0.182 C  
ENDROOT
BRANCH   1   4
HETATM    4  C   UNL     1      -9.636   3.564  69.475  1.00  0.00    -0.109 A  
HETATM    5  C   UNL     1      -9.952   4.235  70.659  1.00  0.00    -0.218 A  
HETATM    6  C   UNL     1     -10.233   5.605  70.654  1.00  0.00    -0.292 A  
HETATM    7  C   UNL     1     -10.166   6.347  69.469  1.00  0.00    -0.228 A  
HETATM    8  C   UNL     1      -9.788   5.691  68.294  1.00  0.00    -0.177 A  
HETATM    9  C   UNL     1      -9.505   4.321  68.306  1.00  0.00    -0.212 A  
BRANCH   7  10
HETATM   10  C   UNL     1     -10.575   7.758  69.493  1.00  0.00    -0.221 C  
HETATM   11  C   UNL     1     -10.400   8.616  68.474  1.00  0.00    -0.228 C  
BRANCH  11  12
HETATM   12  C   UNL     1     -10.852  10.012  68.488  1.00  0.00    -0.270 A  
HETATM   13  C   UNL     1     -11.510  10.601  69.567  1.00  0.00    -0.291 A  
HETATM   14  N   UNL     1     -11.963  11.877  69.596  1.00  0.00    -0.309 NA 
HETATM   15  C   UNL     1     -11.789  12.604  68.475  1.00  0.00    -0.300 A  
HETATM   16  C   UNL     1     -10.694  10.804  67.350  1.00  0.00    -0.317 A  
HETATM   17  C   UNL     1     -11.175  12.116  67.333  1.00  0.00    -0.362 A  
BRANCH  15  18
HETATM   18  O   UNL     1     -12.264  13.897  68.413  1.00  0.00    -0.339 OA 
BRANCH  18  19
HETATM   19  C   UNL     1     -11.967  14.648  69.597  1.00  0.00    -0.323 C  
BRANCH  19  20
HETATM   20  C   UNL     1     -11.627  16.084  69.204  1.00  0.00    -0.336 C  
BRANCH  20  21
HETATM   21  O   UNL     1     -10.822  16.070  68.021  1.00  0.00    -0.312 OA 
BRANCH  21  22
HETATM   22  C   UNL     1      -9.560  16.698  68.231  1.00  0.00    -0.233 C  
BRANCH  22  23
HETATM   23  C   UNL     1      -9.723  18.206  68.084  1.00  0.00    -0.325 C  
BRANCH  23  24
HETATM   24  O   UNL     1      -9.870  18.532  66.702  1.00  0.00    -0.317 OA 
BRANCH  24  25
HETATM   25  C   UNL     1      -9.174  19.736  66.375  1.00  0.00    -0.389 C  
HETATM   26  C   UNL     1      -7.684  19.456  66.306  1.00  0.00    -0.297 C  
HETATM   27  F   UNL     1      -7.024  20.603  65.997  1.00  0.00    -0.267 F  
ENDBRANCH  24  25
ENDBRANCH  23  24
ENDBRANCH  22  23
ENDBRANCH  21  22
ENDBRANCH  20  21
ENDBRANCH  19  20
ENDBRANCH  18  19
ENDBRANCH  15  18
ENDBRANCH  11  12
ENDBRANCH   7  10
ENDBRANCH   1   4
TORSDOF 11
ENDMDL
MODEL      118
REMARK 921   NORMALIZED FREE ENERGY PREDICTED BY IDOCK:   -4.14 KCAL/MOL
REMARK 922        TOTAL FREE ENERGY PREDICTED BY IDOCK:   -7.67 KCAL/MOL
REMARK 923 INTER-LIGAND FREE ENERGY PREDICTED BY IDOCK:   -6.90 KCAL/MOL
REMARK 924 INTRA-LIGAND FREE ENERGY PREDICTED BY IDOCK:   -0.76 KCAL/MOL
REMARK 927      BINDING AFFINITY PREDICTED BY RF-SCORE:    0.00 PKD
ROOT
HETATM    1  N   UNL     1     -13.513  15.529  71.204  1.00  0.00    -0.618 NA 
HETATM    2  H   UNL     1     -13.573  16.200  70.439  1.00  0.00     0.000 HD 
HETATM    3  C   UNL     1     -13.946  15.892  72.544  1.00  0.00    -0.349 C  
ENDROOT
BRANCH   1   4
HETATM    4  C   UNL     1     -13.012  14.242  70.986  1.00  0.00    -0.342 A  
HETATM    5  C   UNL     1     -12.137  13.909  69.949  1.00  0.00    -0.406 A  
HETATM    6  C   UNL     1     -11.696  12.592  69.779  1.00  0.00    -0.354 A  
HETATM    7  C   UNL     1     -12.088  11.583  70.665  1.00  0.00    -0.450 A  
HETATM    8  C   UNL     1     -12.914  11.927  71.740  1.00  0.00    -0.455 A  
HETATM    9  C   UNL     1     -13.350  13.246  71.907  1.00  0.00    -0.540 A  
BRANCH   7  10
HETATM   10  C   UNL     1     -11.690  10.198  70.383  1.00  0.00    -0.390 C  
HETATM   11  C   UNL     1     -11.086   9.387  71.268  1.00  0.00    -0.446 C  
BRANCH  11  12
HETATM   12  C   UNL     1     -10.731   7.989  70.994  1.00  0.00    -0.245 A  
HETATM   13  C   UNL     1     -11.374   7.202  70.041  1.00  0.00    -0.206 A  
HETATM   14  N   UNL     1     -11.087   5.903  69.787  1.00  0.00    -0.389 NA 
HETATM   15  C   UNL     1     -10.131   5.337  70.550  1.00  0.00    -0.245 A  
HETATM   16  C   UNL     1      -9.748   7.360  71.759  1.00  0.00    -0.172 A  
HETATM   17  C   UNL     1      -9.445   6.013  71.546  1.00  0.00    -0.164 A  
BRANCH  15  18
HETATM   18  O   UNL     1      -9.815   4.006  70.381  1.00  0.00    -0.198 OA 
BRANCH  18  19
HETATM   19  C   UNL     1      -8.427   3.804  70.085  1.00  0.00    -0.060 C  
BRANCH  19  20
HETATM   20  C   UNL     1      -8.248   3.713  68.571  1.00  0.00    -0.073 C  
BRANCH  20  21
HETATM   21  O   UNL     1      -9.517   3.453  67.962  1.00  0.00    -0.187 OA 
BRANCH  21  22
HETATM   22  C   UNL     1      -9.718   4.249  66.797  1.00  0.00    -0.219 C  
BRANCH  22  23
HETATM   23  C   UNL     1      -8.615   3.944  65.790  1.00  0.00    -0.111 C  
BRANCH  23  24
HETATM   24  O   UNL     1      -8.960   4.512  64.526  1.00  0.00    -0.147 OA 
BRANCH  24  25
HETATM   25  C   UNL     1      -7.851   4.490  63.626  1.00  0.00    -0.081 C  
HETATM   26  C   UNL     1      -6.580   4.187  64.398  1.00  0.00    -0.043 C  
HETATM   27  F   UNL     1      -5.527   4.169  63.540  1.00  0.00    -0.011 F  
ENDBRANCH  24  25
ENDBRANCH  23  24
ENDBRANCH  22  23
ENDBRANCH  21  22
ENDBRANCH  20  21
ENDBRANCH  19  20
ENDBRANCH  18  19
ENDBRANCH  15  18
ENDBRANCH  11  12
ENDBRANCH   7  10
ENDBRANCH   1   4
TORSDOF 11
ENDMDL
MODEL      119
REMARK 921   NORMALIZED FREE ENERGY PREDICTED BY IDOCK:   -4.12 KCAL/MOL
REMARK 922        TOTAL FREE ENERGY PREDICTED BY IDOCK:   -7.63 KCAL/MOL
REMARK 923 INTER-LIGAND FREE ENERGY PREDICTED BY IDOCK:   -6.52 KCAL/MOL
REMARK 924 INTRA-LIGAND FREE ENERGY PREDICTED BY IDOCK:   -1.11 KCAL/MOL
REMARK 927      BINDING AFFINITY PREDICTED BY RF-SCORE:    0.00 PKD
ROOT
HETATM    1  N   UNL     1      -7.965   2.942  67.053  1.00  0.00    -0.075 NA 
HETATM    2  H   UNL     1      -8.489   2.069  67.004  1.00  0.00     0.000 HD 
HETATM    3  C   UNL     1      -6.510   2.934  67.077  1.00  0.00    -0.036 C  
ENDROOT
BRANCH   1   4
HETATM    4  C   UNL     1      -8.630   4.170  67.097  1.00  0.00    -0.104 A  
HETATM    5  C   UNL     1     -10.007   4.321  66.911  1.00  0.00    -0.178 A  
HETATM    6  C   UNL     1     -10.600   5.587  66.947  1.00  0.00    -0.348 A  
HETATM    7  C   UNL     1      -9.837   6.731  67.208  1.00  0.00    -0.187 A  
HETATM    8  C   UNL     1      -8.470   6.576  67.456  1.00  0.00    -0.120 A  
HETATM    9  C   UNL     1      -7.883   5.306  67.423  1.00  0.00    -0.100 A  
BRANCH   7  10
HETATM   10  C   UNL     1     -10.484   8.048  67.126  1.00  0.00    -0.408 C  
HETATM   11  C   UNL     1      -9.987   9.096  66.449  1.00  0.00    -0.358 C  
BRANCH  11  12
HETATM   12  C   UNL     1     -10.660  10.396  66.335  1.00  0.00    -0.198 A  
HETATM   13  C   UNL     1     -10.675  11.157  65.168  1.00  0.00    -0.210 A  
HETATM   14  N   UNL     1     -11.263  12.372  65.043  1.00  0.00    -0.304 NA 
HETATM   15  C   UNL     1     -11.836  12.880  66.151  1.00  0.00    -0.429 A  
HETATM   16  C   UNL     1     -11.267  10.963  67.456  1.00  0.00    -0.364 A  
HETATM   17  C   UNL     1     -11.858  12.227  67.372  1.00  0.00    -0.327 A  
BRANCH  15  18
HETATM   18  O   UNL     1     -12.415  14.131  66.113  1.00  0.00    -0.466 OA 
BRANCH  18  19
HETATM   19  C   UNL     1     -11.883  14.952  65.065  1.00  0.00    -0.299 C  
BRANCH  19  20
HETATM   20  C   UNL     1     -10.872  15.928  65.661  1.00  0.00    -0.284 C  
BRANCH  20  21
HETATM   21  O   UNL     1      -9.548  15.489  65.342  1.00  0.00    -0.271 OA 
BRANCH  21  22
HETATM   22  C   UNL     1      -8.672  15.589  66.461  1.00  0.00    -0.305 C  
BRANCH  22  23
HETATM   23  C   UNL     1      -8.513  14.212  67.094  1.00  0.00    -0.195 C  
BRANCH  23  24
HETATM   24  O   UNL     1      -8.431  14.352  68.513  1.00  0.00    -0.162 OA 
BRANCH  24  25
HETATM   25  C   UNL     1      -8.974  15.600  68.945  1.00  0.00    -0.221 C  
HETATM   26  C   UNL     1     -10.371  15.379  69.497  1.00  0.00    -0.266 C  
HETATM   27  F   UNL     1     -10.886  16.568  69.905  1.00  0.00    -0.307 F  
ENDBRANCH  24  25
ENDBRANCH  23  24
ENDBRANCH  22  23
ENDBRANCH  21  22
ENDBRANCH  20  21
ENDBRANCH  19  20
ENDBRANCH  18  19
ENDBRANCH  15  18
ENDBRANCH  11  12
ENDBRANCH   7  10
ENDBRANCH   1   4
TORSDOF 11
ENDMDL
MODEL      120
REMARK 921   NORMALIZED FREE ENERGY PREDICTED BY IDOCK:   -4.11 KCAL/MOL
REMARK 922        TOTAL FREE ENERGY PREDICTED BY IDOCK:   -7.62 KCAL/MOL
REMARK 923 INTER-LIGAND FREE ENERGY PREDICTED BY IDOCK:   -6.93 KCAL/MOL
REMARK 924 INTRA-LIGAND FREE ENERGY PREDICTED BY IDOCK:   -0.68 KCAL/MOL
REMARK 927      BINDING AFFINITY PREDICTED BY RF-SCORE:    0.00 PKD
ROOT
HETATM    1  N   UNL     1      -7.742   2.196  66.766  1.00  0.00    -0.066 NA 
HETATM    2  H   UNL     1      -8.229   1.371  67.118  1.00  0.00     0.000 HD 
HETATM    3  C   UNL     1      -6.432   2.075  66.146  1.00  0.00    -0.024 C  
ENDROOT
BRANCH   1   4
HETATM    4  C   UNL     1      -8.323   3.463  66.869  1.00  0.00    -0.100 A  
HETATM    5  C   UNL     1      -9.458   3.743  67.634  1.00  0.00    -0.234 A  
HETATM    6  C   UNL     1      -9.996   5.034  67.671  1.00  0.00    -0.202 A  
HETATM    7  C   UNL     1      -9.389   6.085  66.975  1.00  0.00    -0.128 A  
HETATM    8  C   UNL     1      -8.218   5.820  66.260  1.00  0.00    -0.109 A  
HETATM    9  C   UNL     1      -7.682   4.528  66.229  1.00  0.00    -0.094 A  
BRANCH   7  10
HETATM   10  C   UNL     1     -10.051   7.397  66.954  1.00  0.00    -0.327 C  
HETATM   11  C   UNL     1      -9.590   8.469  66.290  1.00  0.00    -0.306 C  
BRANCH  11  12
HETATM   12  C   UNL     1     -10.279   9.764  66.237  1.00  0.00    -0.282 A  
HETATM   13  C   UNL     1     -10.246  10.612  65.132  1.00  0.00    -0.299 A  
HETATM   14  N   UNL     1     -10.848  11.823  65.066  1.00  0.00    -0.289 NA 
HETATM   15  C   UNL     1     -11.489  12.239  66.175  1.00  0.00    -0.374 A  
HETATM   16  C   UNL     1     -10.956  10.236  67.362  1.00  0.00    -0.317 A  
HETATM   17  C   UNL     1     -11.564  11.494  67.342  1.00  0.00    -0.307 A  
BRANCH  15  18
HETATM   18  O   UNL     1     -12.088  13.480  66.200  1.00  0.00    -0.396 OA 
BRANCH  18  19
HETATM   19  C   UNL     1     -11.223  14.497  66.722  1.00  0.00    -0.334 C  
BRANCH  19  20
HETATM   20  C   UNL     1     -11.653  14.831  68.150  1.00  0.00    -0.332 C  
BRANCH  20  21
HETATM   21  O   UNL     1     -10.576  14.539  69.046  1.00  0.00    -0.240 OA 
BRANCH  21  22
HETATM   22  C   UNL     1      -9.895  15.721  69.459  1.00  0.00    -0.283 C  
BRANCH  22  23
HETATM   23  C   UNL     1     -10.851  16.904  69.368  1.00  0.00    -0.186 C  
BRANCH  23  24
HETATM   24  O   UNL     1     -10.160  18.028  68.821  1.00  0.00    -0.372 OA 
BRANCH  24  25
HETATM   25  C   UNL     1     -10.371  18.134  67.412  1.00  0.00    -0.389 C  
HETATM   26  C   UNL     1     -10.268  19.589  66.995  1.00  0.00    -0.426 C  
HETATM   27  F   UNL     1     -10.471  19.688  65.655  1.00  0.00    -0.516 F  
ENDBRANCH  24  25
ENDBRANCH  23  24
ENDBRANCH  22  23
ENDBRANCH  21  22
ENDBRANCH  20  21
ENDBRANCH  19  20
ENDBRANCH  18  19
ENDBRANCH  15  18
ENDBRANCH  11  12
ENDBRANCH   7  10
ENDBRANCH   1   4
TORSDOF 11
ENDMDL
MODEL      121
REMARK 921   NORMALIZED FREE ENERGY PREDICTED BY IDOCK:   -4.09 KCAL/MOL
REMARK 922        TOTAL FREE ENERGY PREDICTED BY IDOCK:   -7.59 KCAL/MOL
REMARK 923 INTER-LIGAND FREE ENERGY PREDICTED BY IDOCK:   -5.97 KCAL/MOL
REMARK 924 INTRA-LIGAND FREE ENERGY PREDICTED BY IDOCK:   -1.62 KCAL/MOL
REMARK 927      BINDING AFFINITY PREDICTED BY RF-SCORE:    0.00 PKD
ROOT
HETATM    1  N   UNL     1      -9.880  19.396  66.845  1.00  0.00    -0.330 NA 
HETATM    2  H   UNL     1      -9.284  19.930  67.476  1.00  0.00     0.000 HD 
HETATM    3  C   UNL     1     -10.554  20.046  65.732  1.00  0.00    -0.323 C  
ENDROOT
BRANCH   1   4
HETATM    4  C   UNL     1     -10.064  18.023  67.032  1.00  0.00    -0.346 A  
HETATM    5  C   UNL     1     -10.058  17.396  68.280  1.00  0.00    -0.339 A  
HETATM    6  C   UNL     1     -10.227  16.011  68.387  1.00  0.00    -0.236 A  
HETATM    7  C   UNL     1     -10.444  15.224  67.251  1.00  0.00    -0.275 A  
HETATM    8  C   UNL     1     -10.512  15.858  66.007  1.00  0.00    -0.357 A  
HETATM    9  C   UNL     1     -10.347  17.243  65.906  1.00  0.00    -0.287 A  
BRANCH   7  10
HETATM   10  C   UNL     1     -10.506  13.764  67.401  1.00  0.00    -0.256 C  
HETATM   11  C   UNL     1     -10.516  12.895  66.377  1.00  0.00    -0.278 C  
BRANCH  11  12
HETATM   12  C   UNL     1     -10.533  11.436  66.535  1.00  0.00    -0.292 A  
HETATM   13  C   UNL     1     -11.112  10.784  67.623  1.00  0.00    -0.319 A  
HETATM   14  N   UNL     1     -11.117   9.443  67.809  1.00  0.00    -0.047 NA 
HETATM   15  C   UNL     1     -10.476   8.704  66.883  1.00  0.00    -0.258 A  
HETATM   16  C   UNL     1      -9.882  10.629  65.602  1.00  0.00    -0.307 A  
HETATM   17  C   UNL     1      -9.841   9.244  65.777  1.00  0.00    -0.302 A  
BRANCH  15  18
HETATM   18  O   UNL     1     -10.399   7.335  67.028  1.00  0.00    -0.251 OA 
BRANCH  18  19
HETATM   19  C   UNL     1      -9.188   6.917  67.670  1.00  0.00    -0.119 C  
BRANCH  19  20
HETATM   20  C   UNL     1      -9.537   6.068  68.891  1.00  0.00    -0.126 C  
BRANCH  20  21
HETATM   21  O   UNL     1      -8.768   6.515  70.011  1.00  0.00    -0.138 OA 
BRANCH  21  22
HETATM   22  C   UNL     1      -9.069   7.864  70.357  1.00  0.00    -0.154 C  
BRANCH  22  23
HETATM   23  C   UNL     1      -7.773   8.595  70.687  1.00  0.00    -0.086 C  
BRANCH  23  24
HETATM   24  O   UNL     1      -7.904   9.972  70.331  1.00  0.00    -0.216 OA 
BRANCH  24  25
HETATM   25  C   UNL     1      -7.610  10.183  68.949  1.00  0.00    -0.090 C  
HETATM   26  C   UNL     1      -7.553  11.673  68.667  1.00  0.00    -0.133 C  
HETATM   27  F   UNL     1      -7.275  11.871  67.352  1.00  0.00    -0.102 F  
ENDBRANCH  24  25
ENDBRANCH  23  24
ENDBRANCH  22  23
ENDBRANCH  21  22
ENDBRANCH  20  21
ENDBRANCH  19  20
ENDBRANCH  18  19
ENDBRANCH  15  18
ENDBRANCH  11  12
ENDBRANCH   7  10
ENDBRANCH   1   4
TORSDOF 11
ENDMDL
MODEL      122
REMARK 921   NORMALIZED FREE ENERGY PREDICTED BY IDOCK:   -4.05 KCAL/MOL
REMARK 922        TOTAL FREE ENERGY PREDICTED BY IDOCK:   -7.51 KCAL/MOL
REMARK 923 INTER-LIGAND FREE ENERGY PREDICTED BY IDOCK:   -6.83 KCAL/MOL
REMARK 924 INTRA-LIGAND FREE ENERGY PREDICTED BY IDOCK:   -0.68 KCAL/MOL
REMARK 927      BINDING AFFINITY PREDICTED BY RF-SCORE:    0.00 PKD
ROOT
HETATM    1  N   UNL     1     -10.433  19.032  67.554  1.00  0.00    -0.429 NA 
HETATM    2  H   UNL     1     -10.492  19.615  68.388  1.00  0.00     0.000 HD 
HETATM    3  C   UNL     1     -10.270  19.633  66.239  1.00  0.00    -0.498 C  
ENDROOT
BRANCH   1   4
HETATM    4  C   UNL     1     -10.509  17.639  67.651  1.00  0.00    -0.372 A  
HETATM    5  C   UNL     1     -10.877  16.955  68.811  1.00  0.00    -0.289 A  
HETATM    6  C   UNL     1     -10.908  15.557  68.840  1.00  0.00    -0.254 A  
HETATM    7  C   UNL     1     -10.608  14.809  67.696  1.00  0.00    -0.262 A  
HETATM    8  C   UNL     1     -10.299  15.493  66.517  1.00  0.00    -0.293 A  
HETATM    9  C   UNL     1     -10.274  16.891  66.493  1.00  0.00    -0.320 A  
BRANCH   7  10
HETATM   10  C   UNL     1     -10.546  13.345  67.803  1.00  0.00    -0.252 C  
HETATM   11  C   UNL     1     -10.663  12.502  66.764  1.00  0.00    -0.261 C  
BRANCH  11  12
HETATM   12  C   UNL     1     -10.555  11.042  66.871  1.00  0.00    -0.307 A  
HETATM   13  C   UNL     1     -11.008  10.314  67.970  1.00  0.00    -0.289 A  
HETATM   14  N   UNL     1     -10.896   8.971  68.109  1.00  0.00    -0.097 NA 
HETATM   15  C   UNL     1     -10.263   8.314  67.118  1.00  0.00    -0.295 A  
HETATM   16  C   UNL     1      -9.907  10.318  65.871  1.00  0.00    -0.298 A  
HETATM   17  C   UNL     1      -9.746   8.936  65.993  1.00  0.00    -0.308 A  
BRANCH  15  18
HETATM   18  O   UNL     1     -10.070   6.952  67.210  1.00  0.00    -0.163 OA 
BRANCH  18  19
HETATM   19  C   UNL     1     -10.988   6.327  68.117  1.00  0.00    -0.323 C  
BRANCH  19  20
HETATM   20  C   UNL     1     -10.223   5.345  69.002  1.00  0.00    -0.221 C  
BRANCH  20  21
HETATM   21  O   UNL     1     -10.679   5.473  70.352  1.00  0.00    -0.285 OA 
BRANCH  21  22
HETATM   22  C   UNL     1      -9.600   5.686  71.258  1.00  0.00    -0.160 C  
BRANCH  22  23
HETATM   23  C   UNL     1     -10.095   5.466  72.682  1.00  0.00    -0.176 C  
BRANCH  23  24
HETATM   24  O   UNL     1      -9.239   4.532  73.341  1.00  0.00    -0.113 OA 
BRANCH  24  25
HETATM   25  C   UNL     1      -9.734   3.197  73.219  1.00  0.00    -0.107 C  
HETATM   26  C   UNL     1     -11.222   3.181  73.518  1.00  0.00    -0.185 C  
HETATM   27  F   UNL     1     -11.690   1.911  73.403  1.00  0.00    -0.276 F  
ENDBRANCH  24  25
ENDBRANCH  23  24
ENDBRANCH  22  23
ENDBRANCH  21  22
ENDBRANCH  20  21
ENDBRANCH  19  20
ENDBRANCH  18  19
ENDBRANCH  15  18
ENDBRANCH  11  12
ENDBRANCH   7  10
ENDBRANCH   1   4
TORSDOF 11
ENDMDL
MODEL      123
REMARK 921   NORMALIZED FREE ENERGY PREDICTED BY IDOCK:   -4.05 KCAL/MOL
REMARK 922        TOTAL FREE ENERGY PREDICTED BY IDOCK:   -7.51 KCAL/MOL
REMARK 923 INTER-LIGAND FREE ENERGY PREDICTED BY IDOCK:   -6.15 KCAL/MOL
REMARK 924 INTRA-LIGAND FREE ENERGY PREDICTED BY IDOCK:   -1.36 KCAL/MOL
REMARK 927      BINDING AFFINITY PREDICTED BY RF-SCORE:    0.00 PKD
ROOT
HETATM    1  N   UNL     1     -11.931  15.063  64.280  1.00  0.00    -0.723 NA 
HETATM    2  H   UNL     1     -12.645  14.826  63.591  1.00  0.00     0.000 HD 
HETATM    3  C   UNL     1     -11.417  16.419  64.380  1.00  0.00     0.003 C  
ENDROOT
BRANCH   1   4
HETATM    4  C   UNL     1     -11.429  14.088  65.147  1.00  0.00    -0.328 A  
HETATM    5  C   UNL     1     -10.097  14.022  65.562  1.00  0.00    -0.343 A  
HETATM    6  C   UNL     1      -9.661  13.003  66.415  1.00  0.00    -0.268 A  
HETATM    7  C   UNL     1     -10.557  12.046  66.905  1.00  0.00    -0.260 A  
HETATM    8  C   UNL     1     -11.902  12.146  66.541  1.00  0.00    -0.322 A  
HETATM    9  C   UNL     1     -12.333  13.171  65.691  1.00  0.00    -0.519 A  
BRANCH   7  10
HETATM   10  C   UNL     1     -10.034  10.931  67.708  1.00  0.00    -0.198 C  
HETATM   11  C   UNL     1      -8.769  10.843  68.152  1.00  0.00    -0.133 C  
BRANCH  11  12
HETATM   12  C   UNL     1      -8.266   9.750  68.991  1.00  0.00    -0.121 A  
HETATM   13  C   UNL     1      -8.322   8.406  68.623  1.00  0.00    -0.120 A  
HETATM   14  N   UNL     1      -7.892   7.375  69.389  1.00  0.00    -0.119 NA 
HETATM   15  C   UNL     1      -7.413   7.688  70.608  1.00  0.00    -0.072 A  
HETATM   16  C   UNL     1      -7.761  10.025  70.262  1.00  0.00    -0.093 A  
HETATM   17  C   UNL     1      -7.335   8.984  71.091  1.00  0.00    -0.115 A  
BRANCH  15  18
HETATM   18  O   UNL     1      -6.998   6.688  71.462  1.00  0.00    -0.068 OA 
BRANCH  18  19
HETATM   19  C   UNL     1      -7.878   6.521  72.581  1.00  0.00    -0.103 C  
BRANCH  19  20
HETATM   20  C   UNL     1      -9.161   5.841  72.108  1.00  0.00    -0.146 C  
BRANCH  20  21
HETATM   21  O   UNL     1     -10.038   5.660  73.225  1.00  0.00    -0.172 OA 
BRANCH  21  22
HETATM   22  C   UNL     1     -11.394   5.507  72.815  1.00  0.00    -0.303 C  
BRANCH  22  23
HETATM   23  C   UNL     1     -11.640   6.364  71.579  1.00  0.00    -0.310 C  
BRANCH  23  24
HETATM   24  O   UNL     1     -12.847   7.107  71.752  1.00  0.00    -0.345 OA 
BRANCH  24  25
HETATM   25  C   UNL     1     -12.649   8.494  71.472  1.00  0.00    -0.316 C  
HETATM   26  C   UNL     1     -11.168   8.765  71.288  1.00  0.00    -0.284 C  
HETATM   27  F   UNL     1     -10.982  10.085  71.025  1.00  0.00    -0.369 F  
ENDBRANCH  24  25
ENDBRANCH  23  24
ENDBRANCH  22  23
ENDBRANCH  21  22
ENDBRANCH  20  21
ENDBRANCH  19  20
ENDBRANCH  18  19
ENDBRANCH  15  18
ENDBRANCH  11  12
ENDBRANCH   7  10
ENDBRANCH   1   4
TORSDOF 11
ENDMDL
MODEL      124
REMARK 921   NORMALIZED FREE ENERGY PREDICTED BY IDOCK:   -4.05 KCAL/MOL
REMARK 922        TOTAL FREE ENERGY PREDICTED BY IDOCK:   -7.51 KCAL/MOL
REMARK 923 INTER-LIGAND FREE ENERGY PREDICTED BY IDOCK:   -6.69 KCAL/MOL
REMARK 924 INTRA-LIGAND FREE ENERGY PREDICTED BY IDOCK:   -0.82 KCAL/MOL
REMARK 927      BINDING AFFINITY PREDICTED BY RF-SCORE:    0.00 PKD
ROOT
HETATM    1  N   UNL     1     -10.170  19.185  67.250  1.00  0.00    -0.371 NA 
HETATM    2  H   UNL     1     -10.062  19.669  68.141  1.00  0.00     0.000 HD 
HETATM    3  C   UNL     1     -10.126  19.923  65.997  1.00  0.00    -0.487 C  
ENDROOT
BRANCH   1   4
HETATM    4  C   UNL     1     -10.362  17.802  67.209  1.00  0.00    -0.363 A  
HETATM    5  C   UNL     1     -10.780  17.037  68.301  1.00  0.00    -0.372 A  
HETATM    6  C   UNL     1     -10.929  15.651  68.190  1.00  0.00    -0.314 A  
HETATM    7  C   UNL     1     -10.701  14.999  66.973  1.00  0.00    -0.304 A  
HETATM    8  C   UNL     1     -10.344  15.770  65.863  1.00  0.00    -0.372 A  
HETATM    9  C   UNL     1     -10.200  17.157  65.979  1.00  0.00    -0.332 A  
BRANCH   7  10
HETATM   10  C   UNL     1     -10.763  13.532  66.932  1.00  0.00    -0.274 C  
HETATM   11  C   UNL     1      -9.787  12.744  66.451  1.00  0.00    -0.269 C  
BRANCH  11  12
HETATM   12  C   UNL     1      -9.837  11.277  66.454  1.00  0.00    -0.243 A  
HETATM   13  C   UNL     1      -9.354  10.486  65.413  1.00  0.00    -0.211 A  
HETATM   14  N   UNL     1      -9.413   9.134  65.376  1.00  0.00    -0.216 NA 
HETATM   15  C   UNL     1     -10.022   8.528  66.414  1.00  0.00    -0.244 A  
HETATM   16  C   UNL     1     -10.458  10.606  67.508  1.00  0.00    -0.272 A  
HETATM   17  C   UNL     1     -10.563   9.213  67.490  1.00  0.00    -0.317 A  
BRANCH  15  18
HETATM   18  O   UNL     1     -10.160   7.157  66.426  1.00  0.00    -0.122 OA 
BRANCH  18  19
HETATM   19  C   UNL     1     -10.758   6.675  67.636  1.00  0.00    -0.302 C  
BRANCH  19  20
HETATM   20  C   UNL     1      -9.856   5.603  68.246  1.00  0.00    -0.141 C  
BRANCH  20  21
HETATM   21  O   UNL     1      -9.374   6.059  69.514  1.00  0.00    -0.134 OA 
BRANCH  21  22
HETATM   22  C   UNL     1      -8.188   5.373  69.906  1.00  0.00    -0.096 C  
BRANCH  22  23
HETATM   23  C   UNL     1      -7.590   6.071  71.122  1.00  0.00    -0.100 C  
BRANCH  23  24
HETATM   24  O   UNL     1      -8.119   5.483  72.311  1.00  0.00    -0.106 OA 
BRANCH  24  25
HETATM   25  C   UNL     1      -8.744   6.462  73.142  1.00  0.00    -0.122 C  
HETATM   26  C   UNL     1     -10.247   6.413  72.936  1.00  0.00    -0.191 C  
HETATM   27  F   UNL     1     -10.839   7.347  73.726  1.00  0.00    -0.414 F  
ENDBRANCH  24  25
ENDBRANCH  23  24
ENDBRANCH  22  23
ENDBRANCH  21  22
ENDBRANCH  20  21
ENDBRANCH  19  20
ENDBRANCH  18  19
ENDBRANCH  15  18
ENDBRANCH  11  12
ENDBRANCH   7  10
ENDBRANCH   1   4
TORSDOF 11
ENDMDL
MODEL      125
REMARK 921   NORMALIZED FREE ENERGY PREDICTED BY IDOCK:   -4.05 KCAL/MOL
REMARK 922        TOTAL FREE ENERGY PREDICTED BY IDOCK:   -7.51 KCAL/MOL
REMARK 923 INTER-LIGAND FREE ENERGY PREDICTED BY IDOCK:   -6.45 KCAL/MOL
REMARK 924 INTRA-LIGAND FREE ENERGY PREDICTED BY IDOCK:   -1.06 KCAL/MOL
REMARK 927      BINDING AFFINITY PREDICTED BY RF-SCORE:    0.00 PKD
ROOT
HETATM    1  N   UNL     1     -10.469  19.071  67.486  1.00  0.00    -0.429 NA 
HETATM    2  H   UNL     1     -10.539  19.588  68.363  1.00  0.00     0.000 HD 
HETATM    3  C   UNL     1     -10.345  19.774  66.219  1.00  0.00    -0.519 C  
ENDROOT
BRANCH   1   4
HETATM    4  C   UNL     1     -10.489  17.674  67.480  1.00  0.00    -0.365 A  
HETATM    5  C   UNL     1     -10.902  16.893  68.562  1.00  0.00    -0.335 A  
HETATM    6  C   UNL     1     -10.873  15.496  68.490  1.00  0.00    -0.272 A  
HETATM    7  C   UNL     1     -10.466  14.846  67.320  1.00  0.00    -0.263 A  
HETATM    8  C   UNL     1     -10.111  15.625  66.215  1.00  0.00    -0.316 A  
HETATM    9  C   UNL     1     -10.146  17.022  66.292  1.00  0.00    -0.330 A  
BRANCH   7  10
HETATM   10  C   UNL     1     -10.346  13.381  67.328  1.00  0.00    -0.244 C  
HETATM   11  C   UNL     1     -10.233  12.623  66.225  1.00  0.00    -0.264 C  
BRANCH  11  12
HETATM   12  C   UNL     1     -10.069  11.165  66.242  1.00  0.00    -0.277 A  
HETATM   13  C   UNL     1     -10.772  10.319  67.099  1.00  0.00    -0.241 A  
HETATM   14  N   UNL     1     -10.620   8.974  67.157  1.00  0.00    -0.261 NA 
HETATM   15  C   UNL     1      -9.689   8.437  66.345  1.00  0.00    -0.242 A  
HETATM   16  C   UNL     1      -9.116  10.563  65.420  1.00  0.00    -0.215 A  
HETATM   17  C   UNL     1      -8.911   9.182  65.473  1.00  0.00    -0.252 A  
BRANCH  15  18
HETATM   18  O   UNL     1      -9.445   7.081  66.380  1.00  0.00    -0.175 OA 
BRANCH  18  19
HETATM   19  C   UNL     1     -10.518   6.345  66.981  1.00  0.00    -0.282 C  
BRANCH  19  20
HETATM   20  C   UNL     1      -9.935   5.286  67.914  1.00  0.00    -0.160 C  
BRANCH  20  21
HETATM   21  O   UNL     1     -10.777   5.157  69.064  1.00  0.00    -0.102 OA 
BRANCH  21  22
HETATM   22  C   UNL     1     -10.027   5.183  70.276  1.00  0.00    -0.250 C  
BRANCH  22  23
HETATM   23  C   UNL     1      -8.680   5.844  70.013  1.00  0.00    -0.133 C  
BRANCH  23  24
HETATM   24  O   UNL     1      -8.288   6.592  71.164  1.00  0.00    -0.122 OA 
BRANCH  24  25
HETATM   25  C   UNL     1      -8.753   7.941  71.091  1.00  0.00    -0.136 C  
HETATM   26  C   UNL     1      -8.127   8.626  69.890  1.00  0.00    -0.111 C  
HETATM   27  F   UNL     1      -8.570   9.909  69.824  1.00  0.00    -0.151 F  
ENDBRANCH  24  25
ENDBRANCH  23  24
ENDBRANCH  22  23
ENDBRANCH  21  22
ENDBRANCH  20  21
ENDBRANCH  19  20
ENDBRANCH  18  19
ENDBRANCH  15  18
ENDBRANCH  11  12
ENDBRANCH   7  10
ENDBRANCH   1   4
TORSDOF 11
ENDMDL
MODEL      126
REMARK 921   NORMALIZED FREE ENERGY PREDICTED BY IDOCK:   -4.03 KCAL/MOL
REMARK 922        TOTAL FREE ENERGY PREDICTED BY IDOCK:   -7.49 KCAL/MOL
REMARK 923 INTER-LIGAND FREE ENERGY PREDICTED BY IDOCK:   -6.76 KCAL/MOL
REMARK 924 INTRA-LIGAND FREE ENERGY PREDICTED BY IDOCK:   -0.73 KCAL/MOL
REMARK 927      BINDING AFFINITY PREDICTED BY RF-SCORE:    0.00 PKD
ROOT
HETATM    1  N   UNL     1      -5.591  20.453  64.795  1.00  0.00    -0.182 NA 
HETATM    2  H   UNL     1      -4.636  20.603  65.122  1.00  0.00     0.000 HD 
HETATM    3  C   UNL     1      -6.093  21.158  63.626  1.00  0.00    -0.316 C  
ENDROOT
BRANCH   1   4
HETATM    4  C   UNL     1      -6.441  19.567  65.462  1.00  0.00    -0.255 A  
HETATM    5  C   UNL     1      -6.126  18.233  65.730  1.00  0.00    -0.268 A  
HETATM    6  C   UNL     1      -7.039  17.398  66.383  1.00  0.00    -0.328 A  
HETATM    7  C   UNL     1      -8.274  17.888  66.820  1.00  0.00    -0.273 A  
HETATM    8  C   UNL     1      -8.566  19.239  66.609  1.00  0.00    -0.339 A  
HETATM    9  C   UNL     1      -7.648  20.070  65.958  1.00  0.00    -0.326 A  
BRANCH   7  10
HETATM   10  C   UNL     1      -9.244  16.950  67.402  1.00  0.00    -0.224 C  
HETATM   11  C   UNL     1      -9.033  15.631  67.543  1.00  0.00    -0.199 C  
BRANCH  11  12
HETATM   12  C   UNL     1      -9.988  14.706  68.165  1.00  0.00    -0.224 A  
HETATM   13  C   UNL     1     -11.181  15.113  68.760  1.00  0.00    -0.284 A  
HETATM   14  N   UNL     1     -12.066  14.287  69.367  1.00  0.00    -0.326 NA 
HETATM   15  C   UNL     1     -11.731  12.983  69.424  1.00  0.00    -0.326 A  
HETATM   16  C   UNL     1      -9.685  13.347  68.249  1.00  0.00    -0.226 A  
HETATM   17  C   UNL     1     -10.559  12.469  68.893  1.00  0.00    -0.152 A  
BRANCH  15  18
HETATM   18  O   UNL     1     -12.561  12.088  70.065  1.00  0.00    -0.041 OA 
BRANCH  18  19
HETATM   19  C   UNL     1     -12.275  10.727  69.716  1.00  0.00    -0.288 C  
BRANCH  19  20
HETATM   20  C   UNL     1     -12.220   9.887  70.991  1.00  0.00    -0.353 C  
BRANCH  20  21
HETATM   21  O   UNL     1     -10.867   9.492  71.236  1.00  0.00    -0.332 OA 
BRANCH  21  22
HETATM   22  C   UNL     1     -10.770   8.585  72.331  1.00  0.00    -0.306 C  
BRANCH  22  23
HETATM   23  C   UNL     1     -11.663   7.380  72.059  1.00  0.00    -0.289 C  
BRANCH  23  24
HETATM   24  O   UNL     1     -10.994   6.488  71.168  1.00  0.00    -0.244 OA 
BRANCH  24  25
HETATM   25  C   UNL     1     -10.214   5.527  71.882  1.00  0.00    -0.199 C  
HETATM   26  C   UNL     1     -11.065   4.890  72.964  1.00  0.00    -0.295 C  
HETATM   27  F   UNL     1     -10.320   3.978  73.643  1.00  0.00    -0.162 F  
ENDBRANCH  24  25
ENDBRANCH  23  24
ENDBRANCH  22  23
ENDBRANCH  21  22
ENDBRANCH  20  21
ENDBRANCH  19  20
ENDBRANCH  18  19
ENDBRANCH  15  18
ENDBRANCH  11  12
ENDBRANCH   7  10
ENDBRANCH   1   4
TORSDOF 11
ENDMDL
MODEL      127
REMARK 921   NORMALIZED FREE ENERGY PREDICTED BY IDOCK:   -4.00 KCAL/MOL
REMARK 922        TOTAL FREE ENERGY PREDICTED BY IDOCK:   -7.43 KCAL/MOL
REMARK 923 INTER-LIGAND FREE ENERGY PREDICTED BY IDOCK:   -6.66 KCAL/MOL
REMARK 924 INTRA-LIGAND FREE ENERGY PREDICTED BY IDOCK:   -0.77 KCAL/MOL
REMARK 927      BINDING AFFINITY PREDICTED BY RF-SCORE:    0.00 PKD
ROOT
HETATM    1  N   UNL     1     -10.692  19.287  67.239  1.00  0.00    -0.478 NA 
HETATM    2  H   UNL     1     -10.869  19.818  68.091  1.00  0.00     0.000 HD 
HETATM    3  C   UNL     1     -10.508  19.966  65.966  1.00  0.00    -0.475 C  
ENDROOT
BRANCH   1   4
HETATM    4  C   UNL     1     -10.622  17.891  67.272  1.00  0.00    -0.332 A  
HETATM    5  C   UNL     1     -10.745  17.129  68.436  1.00  0.00    -0.347 A  
HETATM    6  C   UNL     1     -10.641  15.734  68.394  1.00  0.00    -0.264 A  
HETATM    7  C   UNL     1     -10.450  15.065  67.180  1.00  0.00    -0.277 A  
HETATM    8  C   UNL     1     -10.388  15.822  66.006  1.00  0.00    -0.356 A  
HETATM    9  C   UNL     1     -10.497  17.216  66.054  1.00  0.00    -0.271 A  
BRANCH   7  10
HETATM   10  C   UNL     1     -10.236  13.611  67.199  1.00  0.00    -0.244 C  
HETATM   11  C   UNL     1     -10.359  12.813  66.126  1.00  0.00    -0.283 C  
BRANCH  11  12
HETATM   12  C   UNL     1     -10.101  11.368  66.142  1.00  0.00    -0.271 A  
HETATM   13  C   UNL     1     -10.231  10.573  67.279  1.00  0.00    -0.215 A  
HETATM   14  N   UNL     1      -9.972   9.244  67.330  1.00  0.00    -0.192 NA 
HETATM   15  C   UNL     1      -9.519   8.675  66.196  1.00  0.00    -0.240 A  
HETATM   16  C   UNL     1      -9.630  10.734  64.991  1.00  0.00    -0.305 A  
HETATM   17  C   UNL     1      -9.324   9.371  65.013  1.00  0.00    -0.258 A  
BRANCH  15  18
HETATM   18  O   UNL     1      -9.191   7.336  66.181  1.00  0.00    -0.160 OA 
BRANCH  18  19
HETATM   19  C   UNL     1      -8.226   6.996  67.184  1.00  0.00    -0.118 C  
BRANCH  19  20
HETATM   20  C   UNL     1      -8.350   5.510  67.512  1.00  0.00    -0.100 C  
BRANCH  20  21
HETATM   21  O   UNL     1      -8.284   5.333  68.930  1.00  0.00    -0.089 OA 
BRANCH  21  22
HETATM   22  C   UNL     1      -9.352   6.000  69.598  1.00  0.00    -0.144 C  
BRANCH  22  23
HETATM   23  C   UNL     1      -8.839   6.564  70.917  1.00  0.00    -0.147 C  
BRANCH  23  24
HETATM   24  O   UNL     1      -9.931   7.126  71.646  1.00  0.00    -0.178 OA 
BRANCH  24  25
HETATM   25  C   UNL     1     -11.015   6.202  71.754  1.00  0.00    -0.264 C  
HETATM   26  C   UNL     1     -10.953   5.505  73.101  1.00  0.00    -0.293 C  
HETATM   27  F   UNL     1     -11.984   4.625  73.199  1.00  0.00    -0.360 F  
ENDBRANCH  24  25
ENDBRANCH  23  24
ENDBRANCH  22  23
ENDBRANCH  21  22
ENDBRANCH  20  21
ENDBRANCH  19  20
ENDBRANCH  18  19
ENDBRANCH  15  18
ENDBRANCH  11  12
ENDBRANCH   7  10
ENDBRANCH   1   4
TORSDOF 11
ENDMDL
MODEL      128
REMARK 921   NORMALIZED FREE ENERGY PREDICTED BY IDOCK:   -3.99 KCAL/MOL
REMARK 922        TOTAL FREE ENERGY PREDICTED BY IDOCK:   -7.42 KCAL/MOL
REMARK 923 INTER-LIGAND FREE ENERGY PREDICTED BY IDOCK:   -6.49 KCAL/MOL
REMARK 924 INTRA-LIGAND FREE ENERGY PREDICTED BY IDOCK:   -0.93 KCAL/MOL
REMARK 927      BINDING AFFINITY PREDICTED BY RF-SCORE:    0.00 PKD
ROOT
HETATM    1  N   UNL     1     -11.490  16.146  64.205  1.00  0.00    -1.050 NA 
HETATM    2  H   UNL     1     -11.976  16.250  63.314  1.00  0.00     0.000 HD 
HETATM    3  C   UNL     1     -10.960  17.309  64.901  1.00  0.00     0.347 C  
ENDROOT
BRANCH   1   4
HETATM    4  C   UNL     1     -11.322  14.884  64.781  1.00  0.00    -0.397 A  
HETATM    5  C   UNL     1     -10.243  14.534  65.596  1.00  0.00    -0.379 A  
HETATM    6  C   UNL     1     -10.130  13.242  66.120  1.00  0.00    -0.293 A  
HETATM    7  C   UNL     1     -11.115  12.279  65.873  1.00  0.00    -0.360 A  
HETATM    8  C   UNL     1     -12.227  12.645  65.109  1.00  0.00    -0.539 A  
HETATM    9  C   UNL     1     -12.336  13.940  64.591  1.00  0.00    -0.421 A  
BRANCH   7  10
HETATM   10  C   UNL     1     -10.899  10.906  66.351  1.00  0.00    -0.210 C  
HETATM   11  C   UNL     1      -9.700  10.305  66.417  1.00  0.00    -0.252 C  
BRANCH  11  12
HETATM   12  C   UNL     1      -9.487   8.949  66.937  1.00  0.00    -0.230 A  
HETATM   13  C   UNL     1     -10.433   7.930  66.847  1.00  0.00    -0.318 A  
HETATM   14  N   UNL     1     -10.275   6.679  67.343  1.00  0.00    -0.168 NA 
HETATM   15  C   UNL     1      -9.126   6.434  68.003  1.00  0.00    -0.113 A  
HETATM   16  C   UNL     1      -8.313   8.647  67.628  1.00  0.00    -0.121 A  
HETATM   17  C   UNL     1      -8.126   7.377  68.179  1.00  0.00    -0.124 A  
BRANCH  15  18
HETATM   18  O   UNL     1      -8.912   5.197  68.574  1.00  0.00    -0.103 OA 
BRANCH  18  19
HETATM   19  C   UNL     1     -10.032   4.749  69.349  1.00  0.00    -0.199 C  
BRANCH  19  20
HETATM   20  C   UNL     1      -9.832   5.168  70.803  1.00  0.00    -0.202 C  
BRANCH  20  21
HETATM   21  O   UNL     1     -11.100   5.187  71.466  1.00  0.00    -0.045 OA 
BRANCH  21  22
HETATM   22  C   UNL     1     -11.610   6.511  71.599  1.00  0.00    -0.308 C  
BRANCH  22  23
HETATM   23  C   UNL     1     -10.448   7.470  71.830  1.00  0.00    -0.193 C  
BRANCH  23  24
HETATM   24  O   UNL     1     -10.363   7.783  73.220  1.00  0.00    -0.334 OA 
BRANCH  24  25
HETATM   25  C   UNL     1      -9.004   7.844  73.658  1.00  0.00    -0.275 C  
HETATM   26  C   UNL     1      -8.467   6.436  73.835  1.00  0.00    -0.115 C  
HETATM   27  F   UNL     1      -7.176   6.497  74.254  1.00  0.00    -0.090 F  
ENDBRANCH  24  25
ENDBRANCH  23  24
ENDBRANCH  22  23
ENDBRANCH  21  22
ENDBRANCH  20  21
ENDBRANCH  19  20
ENDBRANCH  18  19
ENDBRANCH  15  18
ENDBRANCH  11  12
ENDBRANCH   7  10
ENDBRANCH   1   4
TORSDOF 11
ENDMDL
MODEL      129
REMARK 921   NORMALIZED FREE ENERGY PREDICTED BY IDOCK:   -3.96 KCAL/MOL
REMARK 922        TOTAL FREE ENERGY PREDICTED BY IDOCK:   -7.37 KCAL/MOL
REMARK 923 INTER-LIGAND FREE ENERGY PREDICTED BY IDOCK:   -6.46 KCAL/MOL
REMARK 924 INTRA-LIGAND FREE ENERGY PREDICTED BY IDOCK:   -0.92 KCAL/MOL
REMARK 927      BINDING AFFINITY PREDICTED BY RF-SCORE:    0.00 PKD
ROOT
HETATM    1  N   UNL     1      -6.858  19.308  67.455  1.00  0.00    -0.202 NA 
HETATM    2  H   UNL     1      -6.742  19.693  68.392  1.00  0.00     0.000 HD 
HETATM    3  C   UNL     1      -6.534  20.105  66.281  1.00  0.00    -0.205 C  
ENDROOT
BRANCH   1   4
HETATM    4  C   UNL     1      -7.330  18.006  67.273  1.00  0.00    -0.198 A  
HETATM    5  C   UNL     1      -8.259  17.639  66.297  1.00  0.00    -0.264 A  
HETATM    6  C   UNL     1      -8.703  16.316  66.190  1.00  0.00    -0.353 A  
HETATM    7  C   UNL     1      -8.198  15.320  67.033  1.00  0.00    -0.267 A  
HETATM    8  C   UNL     1      -7.222  15.672  67.969  1.00  0.00    -0.140 A  
HETATM    9  C   UNL     1      -6.779  16.996  68.069  1.00  0.00    -0.155 A  
BRANCH   7  10
HETATM   10  C   UNL     1      -8.773  13.970  66.958  1.00  0.00    -0.220 C  
HETATM   11  C   UNL     1      -8.358  12.926  67.694  1.00  0.00    -0.176 C  
BRANCH  11  12
HETATM   12  C   UNL     1      -8.967  11.591  67.645  1.00  0.00    -0.160 A  
HETATM   13  C   UNL     1     -10.312  11.366  67.359  1.00  0.00    -0.202 A  
HETATM   14  N   UNL     1     -10.907  10.149  67.336  1.00  0.00    -0.280 NA 
HETATM   15  C   UNL     1     -10.132   9.094  67.654  1.00  0.00    -0.220 A  
HETATM   16  C   UNL     1      -8.204  10.468  67.967  1.00  0.00    -0.112 A  
HETATM   17  C   UNL     1      -8.790   9.200  67.983  1.00  0.00    -0.129 A  
BRANCH  15  18
HETATM   18  O   UNL     1     -10.677   7.828  67.696  1.00  0.00    -0.225 OA 
BRANCH  18  19
HETATM   19  C   UNL     1     -10.094   7.013  68.721  1.00  0.00    -0.170 C  
BRANCH  19  20
HETATM   20  C   UNL     1     -11.167   6.665  69.750  1.00  0.00    -0.356 C  
BRANCH  20  21
HETATM   21  O   UNL     1     -10.915   7.389  70.958  1.00  0.00    -0.243 OA 
BRANCH  21  22
HETATM   22  C   UNL     1     -11.720   8.561  71.052  1.00  0.00    -0.275 C  
BRANCH  22  23
HETATM   23  C   UNL     1     -12.546   8.496  72.331  1.00  0.00    -0.348 C  
BRANCH  23  24
HETATM   24  O   UNL     1     -13.489   9.568  72.338  1.00  0.00    -0.453 OA 
BRANCH  24  25
HETATM   25  C   UNL     1     -13.184  10.537  71.333  1.00  0.00    -0.345 C  
HETATM   26  C   UNL     1     -13.171  11.921  71.954  1.00  0.00    -0.362 C  
HETATM   27  F   UNL     1     -12.883  12.841  70.996  1.00  0.00    -0.395 F  
ENDBRANCH  24  25
ENDBRANCH  23  24
ENDBRANCH  22  23
ENDBRANCH  21  22
ENDBRANCH  20  21
ENDBRANCH  19  20
ENDBRANCH  18  19
ENDBRANCH  15  18
ENDBRANCH  11  12
ENDBRANCH   7  10
ENDBRANCH   1   4
TORSDOF 11
ENDMDL
MODEL      130
REMARK 921   NORMALIZED FREE ENERGY PREDICTED BY IDOCK:   -3.92 KCAL/MOL
REMARK 922        TOTAL FREE ENERGY PREDICTED BY IDOCK:   -7.31 KCAL/MOL
REMARK 923 INTER-LIGAND FREE ENERGY PREDICTED BY IDOCK:   -6.36 KCAL/MOL
REMARK 924 INTRA-LIGAND FREE ENERGY PREDICTED BY IDOCK:   -0.95 KCAL/MOL
REMARK 927      BINDING AFFINITY PREDICTED BY RF-SCORE:    0.00 PKD
ROOT
HETATM    1  N   UNL     1     -13.512  14.419  72.425  1.00  0.00    -0.422 NA 
HETATM    2  H   UNL     1     -13.196  14.649  73.367  1.00  0.00     0.000 HD 
HETATM    3  C   UNL     1     -14.404  15.313  71.704  1.00  0.00    -0.561 C  
ENDROOT
BRANCH   1   4
HETATM    4  C   UNL     1     -13.096  13.239  71.803  1.00  0.00    -0.379 A  
HETATM    5  C   UNL     1     -13.494  11.962  72.203  1.00  0.00    -0.300 A  
HETATM    6  C   UNL     1     -13.017  10.823  71.544  1.00  0.00    -0.562 A  
HETATM    7  C   UNL     1     -12.160  10.936  70.444  1.00  0.00    -0.453 A  
HETATM    8  C   UNL     1     -11.810  12.216  70.003  1.00  0.00    -0.383 A  
HETATM    9  C   UNL     1     -12.293  13.351  70.663  1.00  0.00    -0.423 A  
BRANCH   7  10
HETATM   10  C   UNL     1     -11.598   9.713  69.854  1.00  0.00    -0.077 C  
HETATM   11  C   UNL     1     -11.252   8.622  70.556  1.00  0.00    -0.266 C  
BRANCH  11  12
HETATM   12  C   UNL     1     -10.733   7.388  69.956  1.00  0.00    -0.258 A  
HETATM   13  C   UNL     1     -10.610   7.190  68.581  1.00  0.00    -0.189 A  
HETATM   14  N   UNL     1     -10.162   6.053  67.999  1.00  0.00    -0.163 NA 
HETATM   15  C   UNL     1      -9.854   5.034  68.825  1.00  0.00    -0.168 A  
HETATM   16  C   UNL     1     -10.401   6.305  70.771  1.00  0.00    -0.256 A  
HETATM   17  C   UNL     1      -9.963   5.105  70.204  1.00  0.00    -0.324 A  
BRANCH  15  18
HETATM   18  O   UNL     1      -9.433   3.829  68.304  1.00  0.00    -0.168 OA 
BRANCH  18  19
HETATM   19  C   UNL     1      -9.598   3.757  66.881  1.00  0.00    -0.179 C  
BRANCH  19  20
HETATM   20  C   UNL     1      -8.233   3.539  66.232  1.00  0.00    -0.100 C  
BRANCH  20  21
HETATM   21  O   UNL     1      -7.377   4.641  66.552  1.00  0.00    -0.079 OA 
BRANCH  21  22
HETATM   22  C   UNL     1      -6.849   5.259  65.382  1.00  0.00    -0.060 C  
BRANCH  22  23
HETATM   23  C   UNL     1      -7.936   6.108  64.733  1.00  0.00    -0.124 C  
BRANCH  23  24
HETATM   24  O   UNL     1      -7.357   7.311  64.229  1.00  0.00    -0.073 OA 
BRANCH  24  25
HETATM   25  C   UNL     1      -7.312   8.327  65.232  1.00  0.00    -0.081 C  
HETATM   26  C   UNL     1      -8.718   8.829  65.506  1.00  0.00    -0.185 C  
HETATM   27  F   UNL     1      -8.672   9.797  66.459  1.00  0.00    -0.124 F  
ENDBRANCH  24  25
ENDBRANCH  23  24
ENDBRANCH  22  23
ENDBRANCH  21  22
ENDBRANCH  20  21
ENDBRANCH  19  20
ENDBRANCH  18  19
ENDBRANCH  15  18
ENDBRANCH  11  12
ENDBRANCH   7  10
ENDBRANCH   1   4
TORSDOF 11
ENDMDL
MODEL      131
REMARK 921   NORMALIZED FREE ENERGY PREDICTED BY IDOCK:   -3.92 KCAL/MOL
REMARK 922        TOTAL FREE ENERGY PREDICTED BY IDOCK:   -7.30 KCAL/MOL
REMARK 923 INTER-LIGAND FREE ENERGY PREDICTED BY IDOCK:   -6.28 KCAL/MOL
REMARK 924 INTRA-LIGAND FREE ENERGY PREDICTED BY IDOCK:   -1.02 KCAL/MOL
REMARK 927      BINDING AFFINITY PREDICTED BY RF-SCORE:    0.00 PKD
ROOT
HETATM    1  N   UNL     1     -12.776  14.744  72.316  1.00  0.00    -0.319 NA 
HETATM    2  H   UNL     1     -12.170  14.725  73.137  1.00  0.00     0.000 HD 
HETATM    3  C   UNL     1     -14.086  15.373  72.377  1.00  0.00    -0.549 C  
ENDROOT
BRANCH   1   4
HETATM    4  C   UNL     1     -12.363  14.166  71.113  1.00  0.00    -0.372 A  
HETATM    5  C   UNL     1     -12.530  12.816  70.795  1.00  0.00    -0.357 A  
HETATM    6  C   UNL     1     -12.069  12.304  69.578  1.00  0.00    -0.260 A  
HETATM    7  C   UNL     1     -11.465  13.138  68.631  1.00  0.00    -0.342 A  
HETATM    8  C   UNL     1     -11.353  14.501  68.920  1.00  0.00    -0.298 A  
HETATM    9  C   UNL     1     -11.819  15.008  70.138  1.00  0.00    -0.357 A  
BRANCH   7  10
HETATM   10  C   UNL     1     -10.899  12.537  67.415  1.00  0.00    -0.272 C  
HETATM   11  C   UNL     1      -9.840  11.710  67.399  1.00  0.00    -0.197 C  
BRANCH  11  12
HETATM   12  C   UNL     1      -9.308  11.079  66.187  1.00  0.00    -0.214 A  
HETATM   13  C   UNL     1     -10.096  10.708  65.099  1.00  0.00    -0.307 A  
HETATM   14  N   UNL     1      -9.637  10.098  63.980  1.00  0.00    -0.291 NA 
HETATM   15  C   UNL     1      -8.323   9.801  63.953  1.00  0.00    -0.173 A  
HETATM   16  C   UNL     1      -7.953  10.751  66.112  1.00  0.00    -0.157 A  
HETATM   17  C   UNL     1      -7.449  10.095  64.987  1.00  0.00    -0.140 A  
BRANCH  15  18
HETATM   18  O   UNL     1      -7.790   9.139  62.867  1.00  0.00    -0.120 OA 
BRANCH  18  19
HETATM   19  C   UNL     1      -6.950   8.043  63.249  1.00  0.00    -0.085 C  
BRANCH  19  20
HETATM   20  C   UNL     1      -7.677   6.732  62.957  1.00  0.00    -0.103 C  
BRANCH  20  21
HETATM   21  O   UNL     1      -8.406   6.328  64.119  1.00  0.00    -0.058 OA 
BRANCH  21  22
HETATM   22  C   UNL     1      -7.605   6.392  65.296  1.00  0.00    -0.091 C  
BRANCH  22  23
HETATM   23  C   UNL     1      -8.488   6.139  66.513  1.00  0.00    -0.119 C  
BRANCH  23  24
HETATM   24  O   UNL     1      -9.666   5.443  66.105  1.00  0.00    -0.157 OA 
BRANCH  24  25
HETATM   25  C   UNL     1     -10.780   5.774  66.936  1.00  0.00    -0.305 C  
HETATM   26  C   UNL     1     -10.344   5.769  68.390  1.00  0.00    -0.213 C  
HETATM   27  F   UNL     1     -11.406   6.082  69.178  1.00  0.00    -0.428 F  
ENDBRANCH  24  25
ENDBRANCH  23  24
ENDBRANCH  22  23
ENDBRANCH  21  22
ENDBRANCH  20  21
ENDBRANCH  19  20
ENDBRANCH  18  19
ENDBRANCH  15  18
ENDBRANCH  11  12
ENDBRANCH   7  10
ENDBRANCH   1   4
TORSDOF 11
ENDMDL
MODEL      132
REMARK 921   NORMALIZED FREE ENERGY PREDICTED BY IDOCK:   -3.90 KCAL/MOL
REMARK 922        TOTAL FREE ENERGY PREDICTED BY IDOCK:   -7.26 KCAL/MOL
REMARK 923 INTER-LIGAND FREE ENERGY PREDICTED BY IDOCK:   -5.68 KCAL/MOL
REMARK 924 INTRA-LIGAND FREE ENERGY PREDICTED BY IDOCK:   -1.58 KCAL/MOL
REMARK 927      BINDING AFFINITY PREDICTED BY RF-SCORE:    0.00 PKD
ROOT
HETATM    1  N   UNL     1      -9.203  18.854  66.088  1.00  0.00    -0.472 NA 
HETATM    2  H   UNL     1      -8.376  19.417  65.893  1.00  0.00     0.000 HD 
HETATM    3  C   UNL     1     -10.534  19.432  65.988  1.00  0.00    -0.505 C  
ENDROOT
BRANCH   1   4
HETATM    4  C   UNL     1      -9.080  17.511  66.456  1.00  0.00    -0.263 A  
HETATM    5  C   UNL     1     -10.162  16.647  66.637  1.00  0.00    -0.304 A  
HETATM    6  C   UNL     1      -9.962  15.319  67.029  1.00  0.00    -0.235 A  
HETATM    7  C   UNL     1      -8.671  14.812  67.211  1.00  0.00    -0.226 A  
HETATM    8  C   UNL     1      -7.584  15.657  66.970  1.00  0.00    -0.245 A  
HETATM    9  C   UNL     1      -7.791  16.983  66.575  1.00  0.00    -0.331 A  
BRANCH   7  10
HETATM   10  C   UNL     1      -8.512  13.445  67.729  1.00  0.00    -0.181 C  
HETATM   11  C   UNL     1      -8.201  12.379  66.974  1.00  0.00    -0.141 C  
BRANCH  11  12
HETATM   12  C   UNL     1      -8.001  11.026  67.504  1.00  0.00    -0.116 A  
HETATM   13  C   UNL     1      -8.510   9.877  66.901  1.00  0.00    -0.125 A  
HETATM   14  N   UNL     1      -8.366   8.619  67.383  1.00  0.00    -0.115 NA 
HETATM   15  C   UNL     1      -7.712   8.494  68.554  1.00  0.00    -0.103 A  
HETATM   16  C   UNL     1      -7.331  10.846  68.714  1.00  0.00    -0.104 A  
HETATM   17  C   UNL     1      -7.188   9.567  69.257  1.00  0.00    -0.063 A  
BRANCH  15  18
HETATM   18  O   UNL     1      -7.564   7.251  69.130  1.00  0.00    -0.098 OA 
BRANCH  18  19
HETATM   19  C   UNL     1      -7.968   6.189  68.257  1.00  0.00    -0.107 C  
BRANCH  19  20
HETATM   20  C   UNL     1      -9.154   5.455  68.878  1.00  0.00    -0.118 C  
BRANCH  20  21
HETATM   21  O   UNL     1      -9.538   6.119  70.086  1.00  0.00    -0.159 OA 
BRANCH  21  22
HETATM   22  C   UNL     1     -10.939   6.381  70.123  1.00  0.00    -0.334 C  
BRANCH  22  23
HETATM   23  C   UNL     1     -11.165   7.804  70.619  1.00  0.00    -0.268 C  
BRANCH  23  24
HETATM   24  O   UNL     1     -11.010   8.714  69.530  1.00  0.00    -0.179 OA 
BRANCH  24  25
HETATM   25  C   UNL     1     -10.905  10.063  69.989  1.00  0.00    -0.302 C  
HETATM   26  C   UNL     1     -11.512  10.996  68.957  1.00  0.00    -0.299 C  
HETATM   27  F   UNL     1     -11.409  12.278  69.395  1.00  0.00    -0.283 F  
ENDBRANCH  24  25
ENDBRANCH  23  24
ENDBRANCH  22  23
ENDBRANCH  21  22
ENDBRANCH  20  21
ENDBRANCH  19  20
ENDBRANCH  18  19
ENDBRANCH  15  18
ENDBRANCH  11  12
ENDBRANCH   7  10
ENDBRANCH   1   4
TORSDOF 11
ENDMDL
MODEL      133
REMARK 921   NORMALIZED FREE ENERGY PREDICTED BY IDOCK:   -3.88 KCAL/MOL
REMARK 922        TOTAL FREE ENERGY PREDICTED BY IDOCK:   -7.24 KCAL/MOL
REMARK 923 INTER-LIGAND FREE ENERGY PREDICTED BY IDOCK:   -6.36 KCAL/MOL
REMARK 924 INTRA-LIGAND FREE ENERGY PREDICTED BY IDOCK:   -0.88 KCAL/MOL
REMARK 927      BINDING AFFINITY PREDICTED BY RF-SCORE:    0.00 PKD
ROOT
HETATM    1  N   UNL     1      -7.678   4.025  72.298  1.00  0.00    -0.077 NA 
HETATM    2  H   UNL     1      -8.132   3.123  72.157  1.00  0.00     0.000 HD 
HETATM    3  C   UNL     1      -6.851   4.264  73.470  1.00  0.00    -0.059 C  
ENDROOT
BRANCH   1   4
HETATM    4  C   UNL     1      -7.837   5.055  71.367  1.00  0.00    -0.109 A  
HETATM    5  C   UNL     1      -6.959   5.295  70.307  1.00  0.00    -0.056 A  
HETATM    6  C   UNL     1      -7.172   6.361  69.427  1.00  0.00    -0.086 A  
HETATM    7  C   UNL     1      -8.290   7.191  69.562  1.00  0.00    -0.133 A  
HETATM    8  C   UNL     1      -9.203   6.916  70.584  1.00  0.00    -0.158 A  
HETATM    9  C   UNL     1      -8.987   5.845  71.459  1.00  0.00    -0.147 A  
BRANCH   7  10
HETATM   10  C   UNL     1      -8.413   8.363  68.684  1.00  0.00    -0.128 C  
HETATM   11  C   UNL     1      -9.509   8.663  67.968  1.00  0.00    -0.154 C  
BRANCH  11  12
HETATM   12  C   UNL     1      -9.641   9.859  67.128  1.00  0.00    -0.201 A  
HETATM   13  C   UNL     1      -9.365  11.150  67.574  1.00  0.00    -0.168 A  
HETATM   14  N   UNL     1      -9.505  12.274  66.830  1.00  0.00    -0.211 NA 
HETATM   15  C   UNL     1      -9.986  12.114  65.582  1.00  0.00    -0.249 A  
HETATM   16  C   UNL     1     -10.135   9.743  65.829  1.00  0.00    -0.308 A  
HETATM   17  C   UNL     1     -10.321  10.883  65.042  1.00  0.00    -0.356 A  
BRANCH  15  18
HETATM   18  O   UNL     1     -10.199  13.215  64.780  1.00  0.00    -0.334 OA 
BRANCH  18  19
HETATM   19  C   UNL     1     -10.511  14.392  65.535  1.00  0.00    -0.350 C  
BRANCH  19  20
HETATM   20  C   UNL     1     -12.027  14.499  65.687  1.00  0.00    -0.311 C  
BRANCH  20  21
HETATM   21  O   UNL     1     -12.382  14.253  67.052  1.00  0.00    -0.386 OA 
BRANCH  21  22
HETATM   22  C   UNL     1     -11.555  14.982  67.954  1.00  0.00    -0.333 C  
BRANCH  22  23
HETATM   23  C   UNL     1     -11.954  14.637  69.384  1.00  0.00    -0.313 C  
BRANCH  23  24
HETATM   24  O   UNL     1     -12.645  15.745  69.962  1.00  0.00    -0.301 OA 
BRANCH  24  25
HETATM   25  C   UNL     1     -13.210  15.403  71.229  1.00  0.00    -0.510 C  
HETATM   26  C   UNL     1     -13.144  13.899  71.420  1.00  0.00    -0.340 C  
HETATM   27  F   UNL     1     -13.684  13.576  72.625  1.00  0.00    -0.579 F  
ENDBRANCH  24  25
ENDBRANCH  23  24
ENDBRANCH  22  23
ENDBRANCH  21  22
ENDBRANCH  20  21
ENDBRANCH  19  20
ENDBRANCH  18  19
ENDBRANCH  15  18
ENDBRANCH  11  12
ENDBRANCH   7  10
ENDBRANCH   1   4
TORSDOF 11
ENDMDL
MODEL      134
REMARK 921   NORMALIZED FREE ENERGY PREDICTED BY IDOCK:   -3.85 KCAL/MOL
REMARK 922        TOTAL FREE ENERGY PREDICTED BY IDOCK:   -7.18 KCAL/MOL
REMARK 923 INTER-LIGAND FREE ENERGY PREDICTED BY IDOCK:   -6.33 KCAL/MOL
REMARK 924 INTRA-LIGAND FREE ENERGY PREDICTED BY IDOCK:   -0.85 KCAL/MOL
REMARK 927      BINDING AFFINITY PREDICTED BY RF-SCORE:    0.00 PKD
ROOT
HETATM    1  N   UNL     1      -9.777   4.677  72.581  1.00  0.00    -0.139 NA 
HETATM    2  H   UNL     1      -9.016   4.000  72.535  1.00  0.00     0.000 HD 
HETATM    3  C   UNL     1     -11.002   4.368  73.303  1.00  0.00    -0.273 C  
ENDROOT
BRANCH   1   4
HETATM    4  C   UNL     1      -9.665   5.919  71.950  1.00  0.00    -0.151 A  
HETATM    5  C   UNL     1      -9.462   7.124  72.627  1.00  0.00    -0.174 A  
HETATM    6  C   UNL     1      -9.382   8.334  71.929  1.00  0.00    -0.282 A  
HETATM    7  C   UNL     1      -9.464   8.363  70.532  1.00  0.00    -0.186 A  
HETATM    8  C   UNL     1      -9.605   7.152  69.849  1.00  0.00    -0.163 A  
HETATM    9  C   UNL     1      -9.680   5.945  70.553  1.00  0.00    -0.217 A  
BRANCH   7  10
HETATM   10  C   UNL     1      -9.486   9.665  69.851  1.00  0.00    -0.260 C  
HETATM   11  C   UNL     1      -8.425  10.221  69.243  1.00  0.00    -0.172 C  
BRANCH  11  12
HETATM   12  C   UNL     1      -8.465  11.501  68.526  1.00  0.00    -0.143 A  
HETATM   13  C   UNL     1      -7.508  12.502  68.679  1.00  0.00    -0.090 A  
HETATM   14  N   UNL     1      -7.535  13.703  68.053  1.00  0.00    -0.116 NA 
HETATM   15  C   UNL     1      -8.595  13.943  67.256  1.00  0.00    -0.211 A  
HETATM   16  C   UNL     1      -9.543  11.794  67.690  1.00  0.00    -0.184 A  
HETATM   17  C   UNL     1      -9.620  13.034  67.050  1.00  0.00    -0.236 A  
BRANCH  15  18
HETATM   18  O   UNL     1      -8.715  15.160  66.620  1.00  0.00    -0.262 OA 
BRANCH  18  19
HETATM   19  C   UNL     1      -9.125  16.207  67.509  1.00  0.00    -0.203 C  
BRANCH  19  20
HETATM   20  C   UNL     1     -10.562  16.606  67.181  1.00  0.00    -0.264 C  
BRANCH  20  21
HETATM   21  O   UNL     1     -11.458  15.885  68.034  1.00  0.00    -0.328 OA 
BRANCH  21  22
HETATM   22  C   UNL     1     -10.863  15.586  69.294  1.00  0.00    -0.252 C  
BRANCH  22  23
HETATM   23  C   UNL     1     -11.521  16.443  70.370  1.00  0.00    -0.130 C  
BRANCH  23  24
HETATM   24  O   UNL     1     -12.744  15.831  70.779  1.00  0.00    -0.453 OA 
BRANCH  24  25
HETATM   25  C   UNL     1     -12.533  14.912  71.852  1.00  0.00    -0.333 C  
HETATM   26  C   UNL     1     -12.388  15.681  73.153  1.00  0.00    -0.475 C  
HETATM   27  F   UNL     1     -12.185  14.805  74.172  1.00  0.00    -0.635 F  
ENDBRANCH  24  25
ENDBRANCH  23  24
ENDBRANCH  22  23
ENDBRANCH  21  22
ENDBRANCH  20  21
ENDBRANCH  19  20
ENDBRANCH  18  19
ENDBRANCH  15  18
ENDBRANCH  11  12
ENDBRANCH   7  10
ENDBRANCH   1   4
TORSDOF 11
ENDMDL
MODEL      135
REMARK 921   NORMALIZED FREE ENERGY PREDICTED BY IDOCK:   -3.84 KCAL/MOL
REMARK 922        TOTAL FREE ENERGY PREDICTED BY IDOCK:   -7.17 KCAL/MOL
REMARK 923 INTER-LIGAND FREE ENERGY PREDICTED BY IDOCK:   -6.55 KCAL/MOL
REMARK 924 INTRA-LIGAND FREE ENERGY PREDICTED BY IDOCK:   -0.62 KCAL/MOL
REMARK 927      BINDING AFFINITY PREDICTED BY RF-SCORE:    0.00 PKD
ROOT
HETATM    1  N   UNL     1      -5.793   3.020  67.659  1.00  0.00    -0.022 NA 
HETATM    2  H   UNL     1      -5.109   2.962  68.414  1.00  0.00     0.000 HD 
HETATM    3  C   UNL     1      -5.984   1.904  66.745  1.00  0.00    -0.019 C  
ENDROOT
BRANCH   1   4
HETATM    4  C   UNL     1      -6.564   4.172  67.483  1.00  0.00    -0.046 A  
HETATM    5  C   UNL     1      -6.835   4.750  66.241  1.00  0.00    -0.062 A  
HETATM    6  C   UNL     1      -7.597   5.919  66.145  1.00  0.00    -0.090 A  
HETATM    7  C   UNL     1      -8.140   6.518  67.287  1.00  0.00    -0.113 A  
HETATM    8  C   UNL     1      -7.922   5.906  68.525  1.00  0.00    -0.102 A  
HETATM    9  C   UNL     1      -7.162   4.735  68.615  1.00  0.00    -0.057 A  
BRANCH   7  10
HETATM   10  C   UNL     1      -8.839   7.802  67.149  1.00  0.00    -0.130 C  
HETATM   11  C   UNL     1      -8.853   8.543  66.029  1.00  0.00    -0.208 C  
BRANCH  11  12
HETATM   12  C   UNL     1      -9.591   9.804  65.885  1.00  0.00    -0.313 A  
HETATM   13  C   UNL     1     -10.085  10.537  66.962  1.00  0.00    -0.213 A  
HETATM   14  N   UNL     1     -10.793  11.687  66.858  1.00  0.00    -0.263 NA 
HETATM   15  C   UNL     1     -11.062  12.117  65.610  1.00  0.00    -0.316 A  
HETATM   16  C   UNL     1      -9.894  10.289  64.613  1.00  0.00    -0.396 A  
HETATM   17  C   UNL     1     -10.648  11.456  64.465  1.00  0.00    -0.390 A  
BRANCH  15  18
HETATM   18  O   UNL     1     -11.817  13.256  65.423  1.00  0.00    -0.327 OA 
BRANCH  18  19
HETATM   19  C   UNL     1     -12.076  13.951  66.650  1.00  0.00    -0.448 C  
BRANCH  19  20
HETATM   20  C   UNL     1     -11.124  15.141  66.759  1.00  0.00    -0.307 C  
BRANCH  20  21
HETATM   21  O   UNL     1     -11.508  15.950  67.874  1.00  0.00    -0.299 OA 
BRANCH  21  22
HETATM   22  C   UNL     1     -11.583  15.192  69.079  1.00  0.00    -0.330 C  
BRANCH  22  23
HETATM   23  C   UNL     1     -10.572  15.743  70.077  1.00  0.00    -0.326 C  
BRANCH  23  24
HETATM   24  O   UNL     1     -11.263  16.452  71.106  1.00  0.00    -0.282 OA 
BRANCH  24  25
HETATM   25  C   UNL     1     -11.590  15.594  72.200  1.00  0.00    -0.443 C  
HETATM   26  C   UNL     1     -12.509  16.328  73.159  1.00  0.00    -0.460 C  
HETATM   27  F   UNL     1     -12.818  15.511  74.200  1.00  0.00    -0.588 F  
ENDBRANCH  24  25
ENDBRANCH  23  24
ENDBRANCH  22  23
ENDBRANCH  21  22
ENDBRANCH  20  21
ENDBRANCH  19  20
ENDBRANCH  18  19
ENDBRANCH  15  18
ENDBRANCH  11  12
ENDBRANCH   7  10
ENDBRANCH   1   4
TORSDOF 11
ENDMDL
MODEL      136
REMARK 921   NORMALIZED FREE ENERGY PREDICTED BY IDOCK:   -3.83 KCAL/MOL
REMARK 922        TOTAL FREE ENERGY PREDICTED BY IDOCK:   -7.16 KCAL/MOL
REMARK 923 INTER-LIGAND FREE ENERGY PREDICTED BY IDOCK:   -5.90 KCAL/MOL
REMARK 924 INTRA-LIGAND FREE ENERGY PREDICTED BY IDOCK:   -1.26 KCAL/MOL
REMARK 927      BINDING AFFINITY PREDICTED BY RF-SCORE:    0.00 PKD
ROOT
HETATM    1  N   UNL     1     -10.866  19.455  67.425  1.00  0.00    -0.490 NA 
HETATM    2  H   UNL     1     -11.557  19.884  66.810  1.00  0.00     0.000 HD 
HETATM    3  C   UNL     1     -10.190  20.243  68.444  1.00  0.00    -0.199 C  
ENDROOT
BRANCH   1   4
HETATM    4  C   UNL     1     -10.550  18.099  67.305  1.00  0.00    -0.367 A  
HETATM    5  C   UNL     1     -10.148  17.493  66.112  1.00  0.00    -0.317 A  
HETATM    6  C   UNL     1      -9.870  16.122  66.063  1.00  0.00    -0.375 A  
HETATM    7  C   UNL     1      -9.949  15.332  67.215  1.00  0.00    -0.226 A  
HETATM    8  C   UNL     1     -10.291  15.949  68.422  1.00  0.00    -0.240 A  
HETATM    9  C   UNL     1     -10.564  17.321  68.466  1.00  0.00    -0.350 A  
BRANCH   7  10
HETATM   10  C   UNL     1      -9.756  13.881  67.094  1.00  0.00    -0.244 C  
HETATM   11  C   UNL     1      -9.787  13.022  68.127  1.00  0.00    -0.228 C  
BRANCH  11  12
HETATM   12  C   UNL     1      -9.637  11.569  67.992  1.00  0.00    -0.180 A  
HETATM   13  C   UNL     1     -10.712  10.686  67.906  1.00  0.00    -0.248 A  
HETATM   14  N   UNL     1     -10.604   9.339  67.811  1.00  0.00    -0.259 NA 
HETATM   15  C   UNL     1      -9.357   8.831  67.843  1.00  0.00    -0.142 A  
HETATM   16  C   UNL     1      -8.365  10.996  68.021  1.00  0.00    -0.125 A  
HETATM   17  C   UNL     1      -8.215   9.609  67.954  1.00  0.00    -0.106 A  
BRANCH  15  18
HETATM   18  O   UNL     1      -9.169   7.466  67.796  1.00  0.00    -0.132 OA 
BRANCH  18  19
HETATM   19  C   UNL     1      -9.713   6.877  66.608  1.00  0.00    -0.163 C  
BRANCH  19  20
HETATM   20  C   UNL     1      -8.752   5.806  66.098  1.00  0.00    -0.139 C  
BRANCH  20  21
HETATM   21  O   UNL     1      -8.394   6.100  64.744  1.00  0.00    -0.135 OA 
BRANCH  21  22
HETATM   22  C   UNL     1      -7.740   7.361  64.631  1.00  0.00    -0.118 C  
BRANCH  22  23
HETATM   23  C   UNL     1      -7.668   7.754  63.160  1.00  0.00    -0.135 C  
BRANCH  23  24
HETATM   24  O   UNL     1      -8.554   8.847  62.920  1.00  0.00    -0.202 OA 
BRANCH  24  25
HETATM   25  C   UNL     1      -8.578   9.751  64.026  1.00  0.00    -0.197 C  
HETATM   26  C   UNL     1      -9.801  10.643  63.922  1.00  0.00    -0.338 C  
HETATM   27  F   UNL     1      -9.821  11.504  64.974  1.00  0.00    -0.248 F  
ENDBRANCH  24  25
ENDBRANCH  23  24
ENDBRANCH  22  23
ENDBRANCH  21  22
ENDBRANCH  20  21
ENDBRANCH  19  20
ENDBRANCH  18  19
ENDBRANCH  15  18
ENDBRANCH  11  12
ENDBRANCH   7  10
ENDBRANCH   1   4
TORSDOF 11
ENDMDL
MODEL      137
REMARK 921   NORMALIZED FREE ENERGY PREDICTED BY IDOCK:   -3.82 KCAL/MOL
REMARK 922        TOTAL FREE ENERGY PREDICTED BY IDOCK:   -7.14 KCAL/MOL
REMARK 923 INTER-LIGAND FREE ENERGY PREDICTED BY IDOCK:   -5.62 KCAL/MOL
REMARK 924 INTRA-LIGAND FREE ENERGY PREDICTED BY IDOCK:   -1.53 KCAL/MOL
REMARK 927      BINDING AFFINITY PREDICTED BY RF-SCORE:    0.00 PKD
ROOT
HETATM    1  N   UNL     1      -8.482   2.500  67.269  1.00  0.00    -0.091 NA 
HETATM    2  H   UNL     1      -7.821   2.078  66.617  1.00  0.00     0.000 HD 
HETATM    3  C   UNL     1      -9.110   1.700  68.309  1.00  0.00    -0.152 C  
ENDROOT
BRANCH   1   4
HETATM    4  C   UNL     1      -8.801   3.858  67.181  1.00  0.00    -0.122 A  
HETATM    5  C   UNL     1      -8.017   4.804  66.517  1.00  0.00    -0.103 A  
HETATM    6  C   UNL     1      -8.389   6.152  66.491  1.00  0.00    -0.113 A  
HETATM    7  C   UNL     1      -9.576   6.581  67.095  1.00  0.00    -0.162 A  
HETATM    8  C   UNL     1     -10.393   5.626  67.707  1.00  0.00    -0.260 A  
HETATM    9  C   UNL     1     -10.017   4.279  67.727  1.00  0.00    -0.066 A  
BRANCH   7  10
HETATM   10  C   UNL     1      -9.870   8.020  67.138  1.00  0.00    -0.274 C  
HETATM   11  C   UNL     1      -9.789   8.779  68.243  1.00  0.00    -0.185 C  
BRANCH  11  12
HETATM   12  C   UNL     1     -10.042  10.225  68.268  1.00  0.00    -0.176 A  
HETATM   13  C   UNL     1      -9.032  11.185  68.254  1.00  0.00    -0.166 A  
HETATM   14  N   UNL     1      -9.234  12.524  68.306  1.00  0.00    -0.202 NA 
HETATM   15  C   UNL     1     -10.512  12.936  68.418  1.00  0.00    -0.251 A  
HETATM   16  C   UNL     1     -11.348  10.699  68.384  1.00  0.00    -0.348 A  
HETATM   17  C   UNL     1     -11.594  12.072  68.470  1.00  0.00    -0.363 A  
BRANCH  15  18
HETATM   18  O   UNL     1     -10.794  14.281  68.522  1.00  0.00    -0.238 OA 
BRANCH  18  19
HETATM   19  C   UNL     1     -10.076  15.069  67.563  1.00  0.00    -0.228 C  
BRANCH  19  20
HETATM   20  C   UNL     1     -10.882  15.132  66.267  1.00  0.00    -0.333 C  
BRANCH  20  21
HETATM   21  O   UNL     1     -10.057  14.703  65.179  1.00  0.00    -0.377 OA 
BRANCH  21  22
HETATM   22  C   UNL     1     -10.686  13.683  64.407  1.00  0.00    -0.354 C  
BRANCH  22  23
HETATM   23  C   UNL     1     -10.224  12.321  64.912  1.00  0.00    -0.281 C  
BRANCH  23  24
HETATM   24  O   UNL     1     -10.590  11.318  63.964  1.00  0.00    -0.340 OA 
BRANCH  24  25
HETATM   25  C   UNL     1      -9.862  10.108  64.179  1.00  0.00    -0.156 C  
HETATM   26  C   UNL     1      -8.476  10.440  64.702  1.00  0.00    -0.173 C  
HETATM   27  F   UNL     1      -7.784   9.288  64.903  1.00  0.00    -0.101 F  
ENDBRANCH  24  25
ENDBRANCH  23  24
ENDBRANCH  22  23
ENDBRANCH  21  22
ENDBRANCH  20  21
ENDBRANCH  19  20
ENDBRANCH  18  19
ENDBRANCH  15  18
ENDBRANCH  11  12
ENDBRANCH   7  10
ENDBRANCH   1   4
TORSDOF 11
ENDMDL
MODEL      138
REMARK 921   NORMALIZED FREE ENERGY PREDICTED BY IDOCK:   -3.81 KCAL/MOL
REMARK 922        TOTAL FREE ENERGY PREDICTED BY IDOCK:   -7.11 KCAL/MOL
REMARK 923 INTER-LIGAND FREE ENERGY PREDICTED BY IDOCK:   -5.46 KCAL/MOL
REMARK 924 INTRA-LIGAND FREE ENERGY PREDICTED BY IDOCK:   -1.66 KCAL/MOL
REMARK 927      BINDING AFFINITY PREDICTED BY RF-SCORE:    0.00 PKD
ROOT
HETATM    1  N   UNL     1     -11.472  12.472  63.211  1.00  0.00    -0.719 NA 
HETATM    2  H   UNL     1     -11.360  12.257  62.220  1.00  0.00     0.000 HD 
HETATM    3  C   UNL     1     -12.197  13.659  63.635  1.00  0.00    -0.317 C  
ENDROOT
BRANCH   1   4
HETATM    4  C   UNL     1     -10.931  11.630  64.187  1.00  0.00    -0.376 A  
HETATM    5  C   UNL     1     -10.003  10.621  63.923  1.00  0.00    -0.390 A  
HETATM    6  C   UNL     1      -9.522   9.802  64.950  1.00  0.00    -0.331 A  
HETATM    7  C   UNL     1      -9.929   9.997  66.274  1.00  0.00    -0.310 A  
HETATM    8  C   UNL     1     -10.811  11.047  66.550  1.00  0.00    -0.269 A  
HETATM    9  C   UNL     1     -11.285  11.865  65.519  1.00  0.00    -0.353 A  
BRANCH   7  10
HETATM   10  C   UNL     1      -9.485   9.045  67.300  1.00  0.00    -0.189 C  
HETATM   11  C   UNL     1      -8.339   8.347  67.243  1.00  0.00    -0.123 C  
BRANCH  11  12
HETATM   12  C   UNL     1      -7.879   7.430  68.293  1.00  0.00    -0.122 A  
HETATM   13  C   UNL     1      -7.879   7.749  69.650  1.00  0.00    -0.107 A  
HETATM   14  N   UNL     1      -7.435   6.935  70.637  1.00  0.00    -0.081 NA 
HETATM   15  C   UNL     1      -6.923   5.749  70.255  1.00  0.00    -0.058 A  
HETATM   16  C   UNL     1      -7.341   6.191  67.946  1.00  0.00    -0.084 A  
HETATM   17  C   UNL     1      -6.846   5.337  68.935  1.00  0.00    -0.055 A  
BRANCH  15  18
HETATM   18  O   UNL     1      -6.410   4.885  71.199  1.00  0.00    -0.018 OA 
BRANCH  18  19
HETATM   19  C   UNL     1      -6.907   3.549  71.050  1.00  0.00    -0.032 C  
BRANCH  19  20
HETATM   20  C   UNL     1      -8.294   3.458  71.682  1.00  0.00    -0.065 C  
BRANCH  20  21
HETATM   21  O   UNL     1      -8.332   4.280  72.853  1.00  0.00    -0.093 OA 
BRANCH  21  22
HETATM   22  C   UNL     1      -9.571   4.974  72.973  1.00  0.00    -0.142 C  
BRANCH  22  23
HETATM   23  C   UNL     1     -10.335   4.858  71.660  1.00  0.00    -0.170 C  
BRANCH  23  24
HETATM   24  O   UNL     1     -11.112   6.040  71.459  1.00  0.00    -0.268 OA 
BRANCH  24  25
HETATM   25  C   UNL     1     -11.217   6.364  70.072  1.00  0.00    -0.411 C  
HETATM   26  C   UNL     1     -10.573   5.265  69.247  1.00  0.00    -0.118 C  
HETATM   27  F   UNL     1     -10.672   5.577  67.928  1.00  0.00    -0.256 F  
ENDBRANCH  24  25
ENDBRANCH  23  24
ENDBRANCH  22  23
ENDBRANCH  21  22
ENDBRANCH  20  21
ENDBRANCH  19  20
ENDBRANCH  18  19
ENDBRANCH  15  18
ENDBRANCH  11  12
ENDBRANCH   7  10
ENDBRANCH   1   4
TORSDOF 11
ENDMDL
MODEL      139
REMARK 921   NORMALIZED FREE ENERGY PREDICTED BY IDOCK:   -3.79 KCAL/MOL
REMARK 922        TOTAL FREE ENERGY PREDICTED BY IDOCK:   -7.09 KCAL/MOL
REMARK 923 INTER-LIGAND FREE ENERGY PREDICTED BY IDOCK:   -6.33 KCAL/MOL
REMARK 924 INTRA-LIGAND FREE ENERGY PREDICTED BY IDOCK:   -0.76 KCAL/MOL
REMARK 927      BINDING AFFINITY PREDICTED BY RF-SCORE:    0.00 PKD
ROOT
HETATM    1  N   UNL     1     -13.708  15.418  70.984  1.00  0.00    -0.763 NA 
HETATM    2  H   UNL     1     -13.655  16.088  70.217  1.00  0.00     0.000 HD 
HETATM    3  C   UNL     1     -14.341  15.780  72.243  1.00  0.00    -0.273 C  
ENDROOT
BRANCH   1   4
HETATM    4  C   UNL     1     -13.172  14.135  70.847  1.00  0.00    -0.225 A  
HETATM    5  C   UNL     1     -12.334  13.745  69.799  1.00  0.00    -0.311 A  
HETATM    6  C   UNL     1     -11.854  12.434  69.715  1.00  0.00    -0.387 A  
HETATM    7  C   UNL     1     -12.169  11.490  70.698  1.00  0.00    -0.473 A  
HETATM    8  C   UNL     1     -12.957  11.894  71.780  1.00  0.00    -0.455 A  
HETATM    9  C   UNL     1     -13.431  13.207  71.861  1.00  0.00    -0.513 A  
BRANCH   7  10
HETATM   10  C   UNL     1     -11.734  10.099  70.510  1.00  0.00    -0.407 C  
HETATM   11  C   UNL     1     -11.473   9.243  71.512  1.00  0.00    -0.454 C  
BRANCH  11  12
HETATM   12  C   UNL     1     -11.082   7.842  71.317  1.00  0.00    -0.278 A  
HETATM   13  C   UNL     1     -11.403   6.820  72.208  1.00  0.00    -0.273 A  
HETATM   14  N   UNL     1     -11.031   5.525  72.069  1.00  0.00    -0.236 NA 
HETATM   15  C   UNL     1     -10.262   5.230  71.003  1.00  0.00    -0.229 A  
HETATM   16  C   UNL     1     -10.285   7.489  70.228  1.00  0.00    -0.204 A  
HETATM   17  C   UNL     1      -9.857   6.169  70.067  1.00  0.00    -0.207 A  
BRANCH  15  18
HETATM   18  O   UNL     1      -9.807   3.942  70.818  1.00  0.00    -0.194 OA 
BRANCH  18  19
HETATM   19  C   UNL     1      -9.521   3.653  69.443  1.00  0.00    -0.179 C  
BRANCH  19  20
HETATM   20  C   UNL     1      -8.143   3.001  69.347  1.00  0.00    -0.047 C  
BRANCH  20  21
HETATM   21  O   UNL     1      -7.828   2.765  67.971  1.00  0.00    -0.059 OA 
BRANCH  21  22
HETATM   22  C   UNL     1      -6.538   3.264  67.630  1.00  0.00    -0.038 C  
BRANCH  22  23
HETATM   23  C   UNL     1      -6.696   4.591  66.896  1.00  0.00    -0.051 C  
BRANCH  23  24
HETATM   24  O   UNL     1      -5.748   4.656  65.830  1.00  0.00    -0.017 OA 
BRANCH  24  25
HETATM   25  C   UNL     1      -5.221   5.976  65.682  1.00  0.00    -0.013 C  
HETATM   26  C   UNL     1      -5.757   6.861  66.793  1.00  0.00    -0.018 C  
HETATM   27  F   UNL     1      -5.256   8.116  66.649  1.00  0.00    -0.025 F  
ENDBRANCH  24  25
ENDBRANCH  23  24
ENDBRANCH  22  23
ENDBRANCH  21  22
ENDBRANCH  20  21
ENDBRANCH  19  20
ENDBRANCH  18  19
ENDBRANCH  15  18
ENDBRANCH  11  12
ENDBRANCH   7  10
ENDBRANCH   1   4
TORSDOF 11
ENDMDL
MODEL      140
REMARK 921   NORMALIZED FREE ENERGY PREDICTED BY IDOCK:   -3.76 KCAL/MOL
REMARK 922        TOTAL FREE ENERGY PREDICTED BY IDOCK:   -7.04 KCAL/MOL
REMARK 923 INTER-LIGAND FREE ENERGY PREDICTED BY IDOCK:   -5.98 KCAL/MOL
REMARK 924 INTRA-LIGAND FREE ENERGY PREDICTED BY IDOCK:   -1.05 KCAL/MOL
REMARK 927      BINDING AFFINITY PREDICTED BY RF-SCORE:    0.00 PKD
ROOT
HETATM    1  N   UNL     1      -9.970   6.216  65.905  1.00  0.00    -0.372 NA 
HETATM    2  H   UNL     1     -10.010   6.058  64.898  1.00  0.00     0.000 HD 
HETATM    3  C   UNL     1     -10.177   5.118  66.836  1.00  0.00    -0.239 C  
ENDROOT
BRANCH   1   4
HETATM    4  C   UNL     1      -9.713   7.491  66.417  1.00  0.00    -0.110 A  
HETATM    5  C   UNL     1     -10.442   8.079  67.453  1.00  0.00    -0.357 A  
HETATM    6  C   UNL     1     -10.141   9.371  67.898  1.00  0.00    -0.239 A  
HETATM    7  C   UNL     1      -9.078  10.092  67.342  1.00  0.00    -0.146 A  
HETATM    8  C   UNL     1      -8.309   9.481  66.347  1.00  0.00    -0.120 A  
HETATM    9  C   UNL     1      -8.612   8.188  65.910  1.00  0.00    -0.171 A  
BRANCH   7  10
HETATM   10  C   UNL     1      -8.869  11.484  67.763  1.00  0.00    -0.153 C  
HETATM   11  C   UNL     1      -7.673  12.092  67.808  1.00  0.00    -0.139 C  
BRANCH  11  12
HETATM   12  C   UNL     1      -7.477  13.496  68.187  1.00  0.00    -0.132 A  
HETATM   13  C   UNL     1      -8.346  14.200  69.018  1.00  0.00     0.083 A  
HETATM   14  N   UNL     1      -8.207  15.503  69.361  1.00  0.00    -0.252 NA 
HETATM   15  C   UNL     1      -7.164  16.160  68.817  1.00  0.00    -0.170 A  
HETATM   16  C   UNL     1      -6.411  14.218  67.649  1.00  0.00    -0.151 A  
HETATM   17  C   UNL     1      -6.251  15.572  67.956  1.00  0.00    -0.153 A  
BRANCH  15  18
HETATM   18  O   UNL     1      -6.981  17.501  69.083  1.00  0.00    -0.246 OA 
BRANCH  18  19
HETATM   19  C   UNL     1      -7.472  18.342  68.032  1.00  0.00    -0.253 C  
BRANCH  19  20
HETATM   20  C   UNL     1      -8.944  18.656  68.292  1.00  0.00    -0.318 C  
BRANCH  20  21
HETATM   21  O   UNL     1      -9.757  17.670  67.647  1.00  0.00    -0.266 OA 
BRANCH  21  22
HETATM   22  C   UNL     1      -9.341  17.436  66.304  1.00  0.00    -0.217 C  
BRANCH  22  23
HETATM   23  C   UNL     1      -9.453  15.947  66.000  1.00  0.00    -0.354 C  
BRANCH  23  24
HETATM   24  O   UNL     1     -10.702  15.458  66.491  1.00  0.00    -0.303 OA 
BRANCH  24  25
HETATM   25  C   UNL     1     -11.244  14.457  65.627  1.00  0.00    -0.323 C  
HETATM   26  C   UNL     1     -11.880  13.361  66.463  1.00  0.00    -0.396 C  
HETATM   27  F   UNL     1     -12.394  12.410  65.639  1.00  0.00    -0.485 F  
ENDBRANCH  24  25
ENDBRANCH  23  24
ENDBRANCH  22  23
ENDBRANCH  21  22
ENDBRANCH  20  21
ENDBRANCH  19  20
ENDBRANCH  18  19
ENDBRANCH  15  18
ENDBRANCH  11  12
ENDBRANCH   7  10
ENDBRANCH   1   4
TORSDOF 11
ENDMDL
MODEL      141
REMARK 921   NORMALIZED FREE ENERGY PREDICTED BY IDOCK:   -3.74 KCAL/MOL
REMARK 922        TOTAL FREE ENERGY PREDICTED BY IDOCK:   -7.01 KCAL/MOL
REMARK 923 INTER-LIGAND FREE ENERGY PREDICTED BY IDOCK:   -6.05 KCAL/MOL
REMARK 924 INTRA-LIGAND FREE ENERGY PREDICTED BY IDOCK:   -0.96 KCAL/MOL
REMARK 927      BINDING AFFINITY PREDICTED BY RF-SCORE:    0.00 PKD
ROOT
HETATM    1  N   UNL     1     -13.224  15.604  70.929  1.00  0.00    -0.671 NA 
HETATM    2  H   UNL     1     -13.196  16.494  70.431  1.00  0.00     0.000 HD 
HETATM    3  C   UNL     1     -13.752  15.528  72.282  1.00  0.00    -0.535 C  
ENDROOT
BRANCH   1   4
HETATM    4  C   UNL     1     -12.755  14.435  70.324  1.00  0.00    -0.263 A  
HETATM    5  C   UNL     1     -12.263  14.373  69.018  1.00  0.00    -0.233 A  
HETATM    6  C   UNL     1     -11.831  13.160  68.471  1.00  0.00    -0.377 A  
HETATM    7  C   UNL     1     -11.846  11.985  69.230  1.00  0.00    -0.377 A  
HETATM    8  C   UNL     1     -12.280  12.056  70.557  1.00  0.00    -0.414 A  
HETATM    9  C   UNL     1     -12.707  13.273  71.100  1.00  0.00    -0.404 A  
BRANCH   7  10
HETATM   10  C   UNL     1     -11.488  10.716  68.580  1.00  0.00    -0.332 C  
HETATM   11  C   UNL     1     -10.938   9.668  69.214  1.00  0.00    -0.194 C  
BRANCH  11  12
HETATM   12  C   UNL     1     -10.624   8.388  68.567  1.00  0.00    -0.149 A  
HETATM   13  C   UNL     1     -10.510   7.182  69.257  1.00  0.00    -0.211 A  
HETATM   14  N   UNL     1     -10.193   5.993  68.692  1.00  0.00    -0.170 NA 
HETATM   15  C   UNL     1      -9.936   6.004  67.369  1.00  0.00    -0.141 A  
HETATM   16  C   UNL     1     -10.349   8.350  67.200  1.00  0.00    -0.381 A  
HETATM   17  C   UNL     1      -9.991   7.147  66.587  1.00  0.00    -0.234 A  
BRANCH  15  18
HETATM   18  O   UNL     1      -9.563   4.840  66.731  1.00  0.00    -0.145 OA 
BRANCH  18  19
HETATM   19  C   UNL     1     -10.423   4.516  65.631  1.00  0.00    -0.229 C  
BRANCH  19  20
HETATM   20  C   UNL     1      -9.624   3.744  64.584  1.00  0.00    -0.173 C  
BRANCH  20  21
HETATM   21  O   UNL     1      -9.180   4.649  63.569  1.00  0.00    -0.126 OA 
BRANCH  21  22
HETATM   22  C   UNL     1      -7.760   4.766  63.547  1.00  0.00    -0.070 C  
BRANCH  22  23
HETATM   23  C   UNL     1      -7.372   5.961  62.684  1.00  0.00    -0.054 C  
BRANCH  23  24
HETATM   24  O   UNL     1      -6.344   6.703  63.341  1.00  0.00    -0.039 OA 
BRANCH  24  25
HETATM   25  C   UNL     1      -6.806   7.250  64.577  1.00  0.00    -0.050 C  
HETATM   26  C   UNL     1      -5.810   6.926  65.676  1.00  0.00    -0.035 C  
HETATM   27  F   UNL     1      -6.253   7.446  66.851  1.00  0.00    -0.040 F  
ENDBRANCH  24  25
ENDBRANCH  23  24
ENDBRANCH  22  23
ENDBRANCH  21  22
ENDBRANCH  20  21
ENDBRANCH  19  20
ENDBRANCH  18  19
ENDBRANCH  15  18
ENDBRANCH  11  12
ENDBRANCH   7  10
ENDBRANCH   1   4
TORSDOF 11
ENDMDL
MODEL      142
REMARK 921   NORMALIZED FREE ENERGY PREDICTED BY IDOCK:   -3.74 KCAL/MOL
REMARK 922        TOTAL FREE ENERGY PREDICTED BY IDOCK:   -7.00 KCAL/MOL
REMARK 923 INTER-LIGAND FREE ENERGY PREDICTED BY IDOCK:   -5.79 KCAL/MOL
REMARK 924 INTRA-LIGAND FREE ENERGY PREDICTED BY IDOCK:   -1.21 KCAL/MOL
REMARK 927      BINDING AFFINITY PREDICTED BY RF-SCORE:    0.00 PKD
ROOT
HETATM    1  N   UNL     1      -9.228  19.132  66.056  1.00  0.00    -0.447 NA 
HETATM    2  H   UNL     1      -8.346  19.584  65.817  1.00  0.00     0.000 HD 
HETATM    3  C   UNL     1     -10.438  19.918  66.245  1.00  0.00    -0.479 C  
ENDROOT
BRANCH   1   4
HETATM    4  C   UNL     1      -9.298  17.744  66.209  1.00  0.00    -0.201 A  
HETATM    5  C   UNL     1      -8.237  16.952  66.654  1.00  0.00    -0.292 A  
HETATM    6  C   UNL     1      -8.374  15.564  66.760  1.00  0.00    -0.301 A  
HETATM    7  C   UNL     1      -9.589  14.938  66.461  1.00  0.00    -0.297 A  
HETATM    8  C   UNL     1     -10.671  15.735  66.075  1.00  0.00    -0.311 A  
HETATM    9  C   UNL     1     -10.529  17.123  65.975  1.00  0.00    -0.271 A  
BRANCH   7  10
HETATM   10  C   UNL     1      -9.654  13.470  66.481  1.00  0.00    -0.284 C  
HETATM   11  C   UNL     1     -10.440  12.756  67.304  1.00  0.00    -0.238 C  
BRANCH  11  12
HETATM   12  C   UNL     1     -10.532  11.291  67.288  1.00  0.00    -0.249 A  
HETATM   13  C   UNL     1     -11.080  10.541  68.326  1.00  0.00    -0.284 A  
HETATM   14  N   UNL     1     -11.152   9.189  68.352  1.00  0.00     0.072 NA 
HETATM   15  C   UNL     1     -10.614   8.537  67.302  1.00  0.00    -0.245 A  
HETATM   16  C   UNL     1      -9.988  10.573  66.223  1.00  0.00    -0.276 A  
HETATM   17  C   UNL     1     -10.018   9.176  66.227  1.00  0.00    -0.352 A  
BRANCH  15  18
HETATM   18  O   UNL     1     -10.609   7.159  67.277  1.00  0.00    -0.261 OA 
BRANCH  18  19
HETATM   19  C   UNL     1     -11.099   6.585  68.496  1.00  0.00    -0.265 C  
BRANCH  19  20
HETATM   20  C   UNL     1     -10.121   5.512  68.970  1.00  0.00    -0.205 C  
BRANCH  20  21
HETATM   21  O   UNL     1      -9.052   5.399  68.026  1.00  0.00    -0.108 OA 
BRANCH  21  22
HETATM   22  C   UNL     1      -7.793   5.722  68.609  1.00  0.00    -0.097 C  
BRANCH  22  23
HETATM   23  C   UNL     1      -7.310   7.053  68.045  1.00  0.00    -0.097 C  
BRANCH  23  24
HETATM   24  O   UNL     1      -7.081   7.965  69.119  1.00  0.00    -0.065 OA 
BRANCH  24  25
HETATM   25  C   UNL     1      -7.326   9.314  68.718  1.00  0.00    -0.075 C  
HETATM   26  C   UNL     1      -6.632  10.261  69.680  1.00  0.00    -0.077 C  
HETATM   27  F   UNL     1      -6.868  11.543  69.297  1.00  0.00    -0.086 F  
ENDBRANCH  24  25
ENDBRANCH  23  24
ENDBRANCH  22  23
ENDBRANCH  21  22
ENDBRANCH  20  21
ENDBRANCH  19  20
ENDBRANCH  18  19
ENDBRANCH  15  18
ENDBRANCH  11  12
ENDBRANCH   7  10
ENDBRANCH   1   4
TORSDOF 11
ENDMDL
MODEL      143
REMARK 921   NORMALIZED FREE ENERGY PREDICTED BY IDOCK:   -3.74 KCAL/MOL
REMARK 922        TOTAL FREE ENERGY PREDICTED BY IDOCK:   -7.00 KCAL/MOL
REMARK 923 INTER-LIGAND FREE ENERGY PREDICTED BY IDOCK:   -5.86 KCAL/MOL
REMARK 924 INTRA-LIGAND FREE ENERGY PREDICTED BY IDOCK:   -1.14 KCAL/MOL
REMARK 927      BINDING AFFINITY PREDICTED BY RF-SCORE:    0.00 PKD
ROOT
HETATM    1  N   UNL     1      -5.763   3.089  67.450  1.00  0.00    -0.021 NA 
HETATM    2  H   UNL     1      -5.045   3.172  68.171  1.00  0.00     0.000 HD 
HETATM    3  C   UNL     1      -6.029   1.810  66.812  1.00  0.00    -0.019 C  
ENDROOT
BRANCH   1   4
HETATM    4  C   UNL     1      -6.509   4.204  67.058  1.00  0.00    -0.041 A  
HETATM    5  C   UNL     1      -6.473   4.758  65.776  1.00  0.00    -0.040 A  
HETATM    6  C   UNL     1      -7.232   5.890  65.462  1.00  0.00    -0.074 A  
HETATM    7  C   UNL     1      -8.076   6.474  66.413  1.00  0.00    -0.113 A  
HETATM    8  C   UNL     1      -8.161   5.884  67.678  1.00  0.00    -0.105 A  
HETATM    9  C   UNL     1      -7.403   4.750  67.985  1.00  0.00    -0.070 A  
BRANCH   7  10
HETATM   10  C   UNL     1      -8.769   7.724  66.073  1.00  0.00    -0.184 C  
HETATM   11  C   UNL     1      -8.495   8.475  64.994  1.00  0.00    -0.183 C  
BRANCH  11  12
HETATM   12  C   UNL     1      -9.221   9.699  64.637  1.00  0.00    -0.293 A  
HETATM   13  C   UNL     1     -10.159  10.310  65.467  1.00  0.00    -0.281 A  
HETATM   14  N   UNL     1     -10.864  11.423  65.152  1.00  0.00    -0.269 NA 
HETATM   15  C   UNL     1     -10.657  11.940  63.925  1.00  0.00    -0.394 A  
HETATM   16  C   UNL     1      -9.040  10.271  63.377  1.00  0.00    -0.284 A  
HETATM   17  C   UNL     1      -9.771  11.402  63.006  1.00  0.00    -0.393 A  
BRANCH  15  18
HETATM   18  O   UNL     1     -11.371  13.046  63.516  1.00  0.00    -0.406 OA 
BRANCH  18  19
HETATM   19  C   UNL     1     -11.995  13.733  64.608  1.00  0.00    -0.416 C  
BRANCH  19  20
HETATM   20  C   UNL     1     -11.350  15.109  64.766  1.00  0.00    -0.395 C  
BRANCH  20  21
HETATM   21  O   UNL     1     -11.487  15.541  66.123  1.00  0.00    -0.108 OA 
BRANCH  21  22
HETATM   22  C   UNL     1     -10.951  14.590  67.039  1.00  0.00    -0.312 C  
BRANCH  22  23
HETATM   23  C   UNL     1     -11.634  14.761  68.391  1.00  0.00    -0.324 C  
BRANCH  23  24
HETATM   24  O   UNL     1     -12.223  13.521  68.783  1.00  0.00    -0.317 OA 
BRANCH  24  25
HETATM   25  C   UNL     1     -11.292  12.443  68.664  1.00  0.00    -0.288 C  
HETATM   26  C   UNL     1     -12.017  11.126  68.875  1.00  0.00    -0.298 C  
HETATM   27  F   UNL     1     -11.130  10.102  68.764  1.00  0.00    -0.235 F  
ENDBRANCH  24  25
ENDBRANCH  23  24
ENDBRANCH  22  23
ENDBRANCH  21  22
ENDBRANCH  20  21
ENDBRANCH  19  20
ENDBRANCH  18  19
ENDBRANCH  15  18
ENDBRANCH  11  12
ENDBRANCH   7  10
ENDBRANCH   1   4
TORSDOF 11
ENDMDL
MODEL      144
REMARK 921   NORMALIZED FREE ENERGY PREDICTED BY IDOCK:   -3.73 KCAL/MOL
REMARK 922        TOTAL FREE ENERGY PREDICTED BY IDOCK:   -6.99 KCAL/MOL
REMARK 923 INTER-LIGAND FREE ENERGY PREDICTED BY IDOCK:   -6.19 KCAL/MOL
REMARK 924 INTRA-LIGAND FREE ENERGY PREDICTED BY IDOCK:   -0.81 KCAL/MOL
REMARK 927      BINDING AFFINITY PREDICTED BY RF-SCORE:    0.00 PKD
ROOT
HETATM    1  N   UNL     1      -6.099   4.119  65.505  1.00  0.00    -0.023 NA 
HETATM    2  H   UNL     1      -5.276   3.834  66.037  1.00  0.00     0.000 HD 
HETATM    3  C   UNL     1      -6.553   3.338  64.365  1.00  0.00    -0.035 C  
ENDROOT
BRANCH   1   4
HETATM    4  C   UNL     1      -6.811   5.269  65.858  1.00  0.00    -0.061 A  
HETATM    5  C   UNL     1      -8.169   5.459  65.596  1.00  0.00    -0.124 A  
HETATM    6  C   UNL     1      -8.811   6.648  65.959  1.00  0.00    -0.151 A  
HETATM    7  C   UNL     1      -8.117   7.661  66.629  1.00  0.00    -0.119 A  
HETATM    8  C   UNL     1      -6.773   7.448  66.949  1.00  0.00    -0.065 A  
HETATM    9  C   UNL     1      -6.138   6.255  66.586  1.00  0.00    -0.029 A  
BRANCH   7  10
HETATM   10  C   UNL     1      -8.801   8.935  66.892  1.00  0.00    -0.141 C  
HETATM   11  C   UNL     1     -10.041   9.040  67.398  1.00  0.00    -0.291 C  
BRANCH  11  12
HETATM   12  C   UNL     1     -10.702  10.315  67.699  1.00  0.00    -0.339 A  
HETATM   13  C   UNL     1     -10.854  11.344  66.772  1.00  0.00    -0.286 A  
HETATM   14  N   UNL     1     -11.433  12.541  67.030  1.00  0.00    -0.334 NA 
HETATM   15  C   UNL     1     -11.851  12.747  68.294  1.00  0.00    -0.312 A  
HETATM   16  C   UNL     1     -11.151  10.575  68.994  1.00  0.00    -0.300 A  
HETATM   17  C   UNL     1     -11.727  11.809  69.306  1.00  0.00    -0.398 A  
BRANCH  15  18
HETATM   18  O   UNL     1     -12.410  13.958  68.644  1.00  0.00    -0.278 OA 
BRANCH  18  19
HETATM   19  C   UNL     1     -12.259  14.250  70.039  1.00  0.00    -0.359 C  
BRANCH  19  20
HETATM   20  C   UNL     1     -11.643  15.639  70.195  1.00  0.00    -0.354 C  
BRANCH  20  21
HETATM   21  O   UNL     1     -10.271  15.506  70.578  1.00  0.00    -0.191 OA 
BRANCH  21  22
HETATM   22  C   UNL     1      -9.411  15.417  69.445  1.00  0.00    -0.266 C  
BRANCH  22  23
HETATM   23  C   UNL     1      -8.979  16.821  69.038  1.00  0.00    -0.188 C  
BRANCH  23  24
HETATM   24  O   UNL     1      -9.591  17.160  67.793  1.00  0.00    -0.249 OA 
BRANCH  24  25
HETATM   25  C   UNL     1     -10.300  18.397  67.882  1.00  0.00    -0.401 C  
HETATM   26  C   UNL     1      -9.464  19.504  67.266  1.00  0.00    -0.329 C  
HETATM   27  F   UNL     1     -10.140  20.679  67.353  1.00  0.00    -0.562 F  
ENDBRANCH  24  25
ENDBRANCH  23  24
ENDBRANCH  22  23
ENDBRANCH  21  22
ENDBRANCH  20  21
ENDBRANCH  19  20
ENDBRANCH  18  19
ENDBRANCH  15  18
ENDBRANCH  11  12
ENDBRANCH   7  10
ENDBRANCH   1   4
TORSDOF 11
ENDMDL
MODEL      145
REMARK 921   NORMALIZED FREE ENERGY PREDICTED BY IDOCK:   -3.73 KCAL/MOL
REMARK 922        TOTAL FREE ENERGY PREDICTED BY IDOCK:   -6.99 KCAL/MOL
REMARK 923 INTER-LIGAND FREE ENERGY PREDICTED BY IDOCK:   -5.97 KCAL/MOL
REMARK 924 INTRA-LIGAND FREE ENERGY PREDICTED BY IDOCK:   -1.01 KCAL/MOL
REMARK 927      BINDING AFFINITY PREDICTED BY RF-SCORE:    0.00 PKD
ROOT
HETATM    1  N   UNL     1      -9.668  19.302  67.475  1.00  0.00    -0.312 NA 
HETATM    2  H   UNL     1      -9.186  19.952  68.096  1.00  0.00     0.000 HD 
HETATM    3  C   UNL     1     -10.378  19.787  66.302  1.00  0.00    -0.519 C  
ENDROOT
BRANCH   1   4
HETATM    4  C   UNL     1      -9.659  17.929  67.736  1.00  0.00    -0.277 A  
HETATM    5  C   UNL     1      -8.669  17.281  68.478  1.00  0.00    -0.273 A  
HETATM    6  C   UNL     1      -8.714  15.897  68.678  1.00  0.00    -0.199 A  
HETATM    7  C   UNL     1      -9.772  15.133  68.173  1.00  0.00    -0.217 A  
HETATM    8  C   UNL     1     -10.795  15.789  67.483  1.00  0.00    -0.315 A  
HETATM    9  C   UNL     1     -10.747  17.173  67.289  1.00  0.00    -0.208 A  
BRANCH   7  10
HETATM   10  C   UNL     1      -9.720  13.671  68.313  1.00  0.00    -0.231 C  
HETATM   11  C   UNL     1     -10.774  12.855  68.147  1.00  0.00    -0.258 C  
BRANCH  11  12
HETATM   12  C   UNL     1     -10.706  11.392  68.244  1.00  0.00    -0.240 A  
HETATM   13  C   UNL     1     -10.818  10.692  69.445  1.00  0.00    -0.246 A  
HETATM   14  N   UNL     1     -10.729   9.346  69.568  1.00  0.00    -0.223 NA 
HETATM   15  C   UNL     1     -10.476   8.653  68.441  1.00  0.00    -0.176 A  
HETATM   16  C   UNL     1     -10.444  10.632  67.104  1.00  0.00    -0.295 A  
HETATM   17  C   UNL     1     -10.317   9.244  67.197  1.00  0.00    -0.330 A  
BRANCH  15  18
HETATM   18  O   UNL     1     -10.328   7.284  68.494  1.00  0.00    -0.180 OA 
BRANCH  18  19
HETATM   19  C   UNL     1      -9.252   6.880  69.351  1.00  0.00    -0.147 C  
BRANCH  19  20
HETATM   20  C   UNL     1      -9.701   5.679  70.182  1.00  0.00    -0.174 C  
BRANCH  20  21
HETATM   21  O   UNL     1     -10.276   4.696  69.316  1.00  0.00    -0.161 OA 
BRANCH  21  22
HETATM   22  C   UNL     1      -9.358   3.646  69.023  1.00  0.00    -0.169 C  
BRANCH  22  23
HETATM   23  C   UNL     1      -9.350   3.396  67.520  1.00  0.00    -0.204 C  
BRANCH  23  24
HETATM   24  O   UNL     1     -10.278   4.280  66.890  1.00  0.00    -0.145 OA 
BRANCH  24  25
HETATM   25  C   UNL     1      -9.885   4.579  65.550  1.00  0.00    -0.208 C  
HETATM   26  C   UNL     1      -8.830   5.670  65.565  1.00  0.00    -0.130 C  
HETATM   27  F   UNL     1      -8.459   5.954  64.289  1.00  0.00    -0.134 F  
ENDBRANCH  24  25
ENDBRANCH  23  24
ENDBRANCH  22  23
ENDBRANCH  21  22
ENDBRANCH  20  21
ENDBRANCH  19  20
ENDBRANCH  18  19
ENDBRANCH  15  18
ENDBRANCH  11  12
ENDBRANCH   7  10
ENDBRANCH   1   4
TORSDOF 11
ENDMDL
MODEL      146
REMARK 921   NORMALIZED FREE ENERGY PREDICTED BY IDOCK:   -3.73 KCAL/MOL
REMARK 922        TOTAL FREE ENERGY PREDICTED BY IDOCK:   -6.98 KCAL/MOL
REMARK 923 INTER-LIGAND FREE ENERGY PREDICTED BY IDOCK:   -6.05 KCAL/MOL
REMARK 924 INTRA-LIGAND FREE ENERGY PREDICTED BY IDOCK:   -0.93 KCAL/MOL
REMARK 927      BINDING AFFINITY PREDICTED BY RF-SCORE:    0.00 PKD
ROOT
HETATM    1  N   UNL     1      -9.874   6.829  66.082  1.00  0.00    -0.406 NA 
HETATM    2  H   UNL     1      -9.363   6.412  65.304  1.00  0.00     0.000 HD 
HETATM    3  C   UNL     1     -10.878   6.064  66.805  1.00  0.00    -0.279 C  
ENDROOT
BRANCH   1   4
HETATM    4  C   UNL     1      -9.624   8.147  66.472  1.00  0.00    -0.234 A  
HETATM    5  C   UNL     1     -10.608   9.029  66.927  1.00  0.00    -0.243 A  
HETATM    6  C   UNL     1     -10.285  10.344  67.279  1.00  0.00    -0.258 A  
HETATM    7  C   UNL     1      -8.963  10.798  67.223  1.00  0.00    -0.143 A  
HETATM    8  C   UNL     1      -7.968   9.899  66.828  1.00  0.00    -0.116 A  
HETATM    9  C   UNL     1      -8.296   8.585  66.480  1.00  0.00    -0.113 A  
BRANCH   7  10
HETATM   10  C   UNL     1      -8.688  12.215  67.496  1.00  0.00    -0.173 C  
HETATM   11  C   UNL     1      -7.861  12.656  68.458  1.00  0.00    -0.104 C  
BRANCH  11  12
HETATM   12  C   UNL     1      -7.557  14.072  68.697  1.00  0.00    -0.130 A  
HETATM   13  C   UNL     1      -8.492  15.096  68.560  1.00  0.00    -0.160 A  
HETATM   14  N   UNL     1      -8.233  16.413  68.745  1.00  0.00    -0.223 NA 
HETATM   15  C   UNL     1      -6.961  16.739  69.046  1.00  0.00    -0.218 A  
HETATM   16  C   UNL     1      -6.254  14.459  69.010  1.00  0.00    -0.094 A  
HETATM   17  C   UNL     1      -5.942  15.810  69.180  1.00  0.00    -0.112 A  
BRANCH  15  18
HETATM   18  O   UNL     1      -6.610  18.063  69.205  1.00  0.00    -0.250 OA 
BRANCH  18  19
HETATM   19  C   UNL     1      -5.252  18.321  68.826  1.00  0.00    -0.179 C  
BRANCH  19  20
HETATM   20  C   UNL     1      -5.144  19.753  68.307  1.00  0.00    -0.185 C  
BRANCH  20  21
HETATM   21  O   UNL     1      -6.368  20.445  68.571  1.00  0.00    -0.294 OA 
BRANCH  21  22
HETATM   22  C   UNL     1      -6.923  21.012  67.387  1.00  0.00    -0.354 C  
BRANCH  22  23
HETATM   23  C   UNL     1      -7.983  20.068  66.833  1.00  0.00    -0.309 C  
BRANCH  23  24
HETATM   24  O   UNL     1      -9.006  19.880  67.812  1.00  0.00    -0.318 OA 
BRANCH  24  25
HETATM   25  C   UNL     1     -10.295  19.773  67.204  1.00  0.00    -0.458 C  
HETATM   26  C   UNL     1     -10.176  20.056  65.718  1.00  0.00    -0.351 C  
HETATM   27  F   UNL     1     -11.403  19.956  65.142  1.00  0.00    -0.349 F  
ENDBRANCH  24  25
ENDBRANCH  23  24
ENDBRANCH  22  23
ENDBRANCH  21  22
ENDBRANCH  20  21
ENDBRANCH  19  20
ENDBRANCH  18  19
ENDBRANCH  15  18
ENDBRANCH  11  12
ENDBRANCH   7  10
ENDBRANCH   1   4
TORSDOF 11
ENDMDL
MODEL      147
REMARK 921   NORMALIZED FREE ENERGY PREDICTED BY IDOCK:   -3.72 KCAL/MOL
REMARK 922        TOTAL FREE ENERGY PREDICTED BY IDOCK:   -6.98 KCAL/MOL
REMARK 923 INTER-LIGAND FREE ENERGY PREDICTED BY IDOCK:   -5.93 KCAL/MOL
REMARK 924 INTRA-LIGAND FREE ENERGY PREDICTED BY IDOCK:   -1.05 KCAL/MOL
REMARK 927      BINDING AFFINITY PREDICTED BY RF-SCORE:    0.00 PKD
ROOT
HETATM    1  N   UNL     1      -9.853   5.318  72.962  1.00  0.00    -0.153 NA 
HETATM    2  H   UNL     1      -9.216   5.414  73.752  1.00  0.00     0.000 HD 
HETATM    3  C   UNL     1     -10.620   4.097  72.771  1.00  0.00    -0.148 C  
ENDROOT
BRANCH   1   4
HETATM    4  C   UNL     1     -10.008   6.359  72.042  1.00  0.00    -0.167 A  
HETATM    5  C   UNL     1     -11.220   7.004  71.786  1.00  0.00    -0.278 A  
HETATM    6  C   UNL     1     -11.302   8.024  70.832  1.00  0.00    -0.291 A  
HETATM    7  C   UNL     1     -10.165   8.451  70.138  1.00  0.00    -0.198 A  
HETATM    8  C   UNL     1      -8.939   7.849  70.436  1.00  0.00    -0.147 A  
HETATM    9  C   UNL     1      -8.862   6.832  71.394  1.00  0.00    -0.131 A  
BRANCH   7  10
HETATM   10  C   UNL     1     -10.320   9.447  69.069  1.00  0.00    -0.224 C  
HETATM   11  C   UNL     1      -9.805  10.687  69.106  1.00  0.00    -0.217 C  
BRANCH  11  12
HETATM   12  C   UNL     1      -9.926  11.661  68.016  1.00  0.00    -0.194 A  
HETATM   13  C   UNL     1      -8.993  12.668  67.774  1.00  0.00    -0.189 A  
HETATM   14  N   UNL     1      -9.093  13.598  66.794  1.00  0.00    -0.241 NA 
HETATM   15  C   UNL     1     -10.203  13.553  66.032  1.00  0.00    -0.305 A  
HETATM   16  C   UNL     1     -11.058  11.655  67.201  1.00  0.00    -0.354 A  
HETATM   17  C   UNL     1     -11.210  12.616  66.199  1.00  0.00    -0.350 A  
BRANCH  15  18
HETATM   18  O   UNL     1     -10.398  14.494  65.043  1.00  0.00    -0.404 OA 
BRANCH  18  19
HETATM   19  C   UNL     1      -9.566  15.649  65.212  1.00  0.00     0.075 C  
BRANCH  19  20
HETATM   20  C   UNL     1     -10.428  16.822  65.674  1.00  0.00    -0.269 C  
BRANCH  20  21
HETATM   21  O   UNL     1     -10.730  16.665  67.064  1.00  0.00    -0.278 OA 
BRANCH  21  22
HETATM   22  C   UNL     1     -10.534  17.876  67.789  1.00  0.00    -0.400 C  
BRANCH  22  23
HETATM   23  C   UNL     1      -9.042  18.182  67.852  1.00  0.00    -0.265 C  
BRANCH  23  24
HETATM   24  O   UNL     1      -8.377  17.143  68.571  1.00  0.00    -0.245 OA 
BRANCH  24  25
HETATM   25  C   UNL     1      -7.229  16.673  67.862  1.00  0.00    -0.140 C  
HETATM   26  C   UNL     1      -6.818  17.704  66.827  1.00  0.00    -0.199 C  
HETATM   27  F   UNL     1      -5.727  17.253  66.153  1.00  0.00    -0.218 F  
ENDBRANCH  24  25
ENDBRANCH  23  24
ENDBRANCH  22  23
ENDBRANCH  21  22
ENDBRANCH  20  21
ENDBRANCH  19  20
ENDBRANCH  18  19
ENDBRANCH  15  18
ENDBRANCH  11  12
ENDBRANCH   7  10
ENDBRANCH   1   4
TORSDOF 11
ENDMDL
MODEL      148
REMARK 921   NORMALIZED FREE ENERGY PREDICTED BY IDOCK:   -3.72 KCAL/MOL
REMARK 922        TOTAL FREE ENERGY PREDICTED BY IDOCK:   -6.97 KCAL/MOL
REMARK 923 INTER-LIGAND FREE ENERGY PREDICTED BY IDOCK:   -6.65 KCAL/MOL
REMARK 924 INTRA-LIGAND FREE ENERGY PREDICTED BY IDOCK:   -0.32 KCAL/MOL
REMARK 927      BINDING AFFINITY PREDICTED BY RF-SCORE:    0.00 PKD
ROOT
HETATM    1  N   UNL     1     -11.439  15.759  67.422  1.00  0.00    -0.110 NA 
HETATM    2  H   UNL     1     -12.117  16.006  66.702  1.00  0.00     0.000 HD 
HETATM    3  C   UNL     1     -10.285  16.607  67.678  1.00  0.00    -0.285 C  
ENDROOT
BRANCH   1   4
HETATM    4  C   UNL     1     -11.600  14.597  68.183  1.00  0.00    -0.335 A  
HETATM    5  C   UNL     1     -11.969  14.589  69.530  1.00  0.00    -0.363 A  
HETATM    6  C   UNL     1     -12.089  13.386  70.233  1.00  0.00    -0.419 A  
HETATM    7  C   UNL     1     -11.881  12.158  69.596  1.00  0.00    -0.391 A  
HETATM    8  C   UNL     1     -11.573  12.161  68.232  1.00  0.00    -0.382 A  
HETATM    9  C   UNL     1     -11.458  13.367  67.533  1.00  0.00    -0.357 A  
BRANCH   7  10
HETATM   10  C   UNL     1     -11.910  10.928  70.399  1.00  0.00    -0.449 C  
HETATM   11  C   UNL     1     -10.900  10.047  70.475  1.00  0.00    -0.380 C  
BRANCH  11  12
HETATM   12  C   UNL     1     -10.919   8.843  71.314  1.00  0.00    -0.363 A  
HETATM   13  C   UNL     1     -11.941   7.897  71.284  1.00  0.00    -0.298 A  
HETATM   14  N   UNL     1     -11.999   6.793  72.067  1.00  0.00    -0.319 NA 
HETATM   15  C   UNL     1     -11.005   6.636  72.962  1.00  0.00    -0.247 A  
HETATM   16  C   UNL     1      -9.910   8.638  72.256  1.00  0.00    -0.360 A  
HETATM   17  C   UNL     1      -9.952   7.526  73.101  1.00  0.00    -0.344 A  
BRANCH  15  18
HETATM   18  O   UNL     1     -11.018   5.561  73.824  1.00  0.00    -0.263 OA 
BRANCH  18  19
HETATM   19  C   UNL     1     -10.814   4.313  73.150  1.00  0.00    -0.219 C  
BRANCH  19  20
HETATM   20  C   UNL     1      -9.700   4.480  72.119  1.00  0.00    -0.163 C  
BRANCH  20  21
HETATM   21  O   UNL     1      -9.092   3.208  71.871  1.00  0.00    -0.092 OA 
BRANCH  21  22
HETATM   22  C   UNL     1      -8.628   3.095  70.529  1.00  0.00    -0.063 C  
BRANCH  22  23
HETATM   23  C   UNL     1      -9.545   3.900  69.615  1.00  0.00    -0.189 C  
BRANCH  23  24
HETATM   24  O   UNL     1      -8.964   3.977  68.313  1.00  0.00    -0.102 OA 
BRANCH  24  25
HETATM   25  C   UNL     1      -7.709   3.298  68.262  1.00  0.00    -0.059 C  
HETATM   26  C   UNL     1      -7.608   2.521  66.962  1.00  0.00    -0.069 C  
HETATM   27  F   UNL     1      -6.413   1.874  66.916  1.00  0.00    -0.025 F  
ENDBRANCH  24  25
ENDBRANCH  23  24
ENDBRANCH  22  23
ENDBRANCH  21  22
ENDBRANCH  20  21
ENDBRANCH  19  20
ENDBRANCH  18  19
ENDBRANCH  15  18
ENDBRANCH  11  12
ENDBRANCH   7  10
ENDBRANCH   1   4
TORSDOF 11
ENDMDL
MODEL      149
REMARK 921   NORMALIZED FREE ENERGY PREDICTED BY IDOCK:   -3.69 KCAL/MOL
REMARK 922        TOTAL FREE ENERGY PREDICTED BY IDOCK:   -6.92 KCAL/MOL
REMARK 923 INTER-LIGAND FREE ENERGY PREDICTED BY IDOCK:   -5.96 KCAL/MOL
REMARK 924 INTRA-LIGAND FREE ENERGY PREDICTED BY IDOCK:   -0.96 KCAL/MOL
REMARK 927      BINDING AFFINITY PREDICTED BY RF-SCORE:    0.00 PKD
ROOT
HETATM    1  N   UNL     1     -10.798  19.073  67.190  1.00  0.00    -0.448 NA 
HETATM    2  H   UNL     1     -11.472  19.477  66.540  1.00  0.00     0.000 HD 
HETATM    3  C   UNL     1     -10.135  19.905  68.183  1.00  0.00    -0.441 C  
ENDROOT
BRANCH   1   4
HETATM    4  C   UNL     1     -10.495  17.710  67.145  1.00  0.00    -0.319 A  
HETATM    5  C   UNL     1      -9.955  17.065  66.030  1.00  0.00    -0.288 A  
HETATM    6  C   UNL     1      -9.698  15.690  66.051  1.00  0.00    -0.378 A  
HETATM    7  C   UNL     1      -9.939  14.933  67.202  1.00  0.00    -0.231 A  
HETATM    8  C   UNL     1     -10.420  15.587  68.340  1.00  0.00    -0.240 A  
HETATM    9  C   UNL     1     -10.672  16.963  68.314  1.00  0.00    -0.377 A  
BRANCH   7  10
HETATM   10  C   UNL     1      -9.759  13.476  67.143  1.00  0.00    -0.244 C  
HETATM   11  C   UNL     1      -8.958  12.776  67.964  1.00  0.00    -0.196 C  
BRANCH  11  12
HETATM   12  C   UNL     1      -8.817  11.315  67.927  1.00  0.00    -0.142 A  
HETATM   13  C   UNL     1      -7.597  10.661  67.768  1.00  0.00    -0.095 A  
HETATM   14  N   UNL     1      -7.440   9.318  67.701  1.00  0.00    -0.087 NA 
HETATM   15  C   UNL     1      -8.564   8.577  67.757  1.00  0.00    -0.134 A  
HETATM   16  C   UNL     1      -9.953  10.507  67.981  1.00  0.00    -0.177 A  
HETATM   17  C   UNL     1      -9.833   9.118  67.886  1.00  0.00    -0.204 A  
BRANCH  15  18
HETATM   18  O   UNL     1      -8.489   7.204  67.651  1.00  0.00    -0.119 OA 
BRANCH  18  19
HETATM   19  C   UNL     1      -9.351   6.684  66.630  1.00  0.00    -0.163 C  
BRANCH  19  20
HETATM   20  C   UNL     1      -9.678   5.227  66.949  1.00  0.00    -0.156 C  
BRANCH  20  21
HETATM   21  O   UNL     1      -8.475   4.543  67.316  1.00  0.00    -0.104 OA 
BRANCH  21  22
HETATM   22  C   UNL     1      -8.626   3.824  68.537  1.00  0.00    -0.095 C  
BRANCH  22  23
HETATM   23  C   UNL     1      -9.862   4.336  69.267  1.00  0.00    -0.110 C  
BRANCH  23  24
HETATM   24  O   UNL     1      -9.458   5.217  70.317  1.00  0.00    -0.152 OA 
BRANCH  24  25
HETATM   25  C   UNL     1     -10.585   5.731  71.027  1.00  0.00    -0.253 C  
HETATM   26  C   UNL     1     -11.470   6.512  70.073  1.00  0.00    -0.412 C  
HETATM   27  F   UNL     1     -12.541   7.002  70.751  1.00  0.00    -0.394 F  
ENDBRANCH  24  25
ENDBRANCH  23  24
ENDBRANCH  22  23
ENDBRANCH  21  22
ENDBRANCH  20  21
ENDBRANCH  19  20
ENDBRANCH  18  19
ENDBRANCH  15  18
ENDBRANCH  11  12
ENDBRANCH   7  10
ENDBRANCH   1   4
TORSDOF 11
ENDMDL
MODEL      150
REMARK 921   NORMALIZED FREE ENERGY PREDICTED BY IDOCK:   -3.68 KCAL/MOL
REMARK 922        TOTAL FREE ENERGY PREDICTED BY IDOCK:   -6.92 KCAL/MOL
REMARK 923 INTER-LIGAND FREE ENERGY PREDICTED BY IDOCK:   -6.04 KCAL/MOL
REMARK 924 INTRA-LIGAND FREE ENERGY PREDICTED BY IDOCK:   -0.88 KCAL/MOL
REMARK 927      BINDING AFFINITY PREDICTED BY RF-SCORE:    0.00 PKD
ROOT
HETATM    1  N   UNL     1     -11.380  14.216  65.095  1.00  0.00    -0.323 NA 
HETATM    2  H   UNL     1     -11.849  14.039  64.206  1.00  0.00     0.000 HD 
HETATM    3  C   UNL     1     -10.765  15.506  65.365  1.00  0.00    -0.405 C  
ENDROOT
BRANCH   1   4
HETATM    4  C   UNL     1     -11.317  13.223  66.076  1.00  0.00    -0.305 A  
HETATM    5  C   UNL     1     -11.864  13.350  67.355  1.00  0.00    -0.418 A  
HETATM    6  C   UNL     1     -11.741  12.320  68.293  1.00  0.00    -0.392 A  
HETATM    7  C   UNL     1     -11.101  11.121  67.963  1.00  0.00    -0.334 A  
HETATM    8  C   UNL     1     -10.607  10.967  66.664  1.00  0.00    -0.305 A  
HETATM    9  C   UNL     1     -10.736  11.999  65.729  1.00  0.00    -0.319 A  
BRANCH   7  10
HETATM   10  C   UNL     1     -10.898  10.112  69.012  1.00  0.00    -0.257 C  
HETATM   11  C   UNL     1     -11.077  10.336  70.324  1.00  0.00    -0.388 C  
BRANCH  11  12
HETATM   12  C   UNL     1     -10.916   9.312  71.363  1.00  0.00    -0.429 A  
HETATM   13  C   UNL     1      -9.688   8.971  71.927  1.00  0.00    -0.171 A  
HETATM   14  N   UNL     1      -9.506   8.011  72.866  1.00  0.00    -0.254 NA 
HETATM   15  C   UNL     1     -10.600   7.320  73.240  1.00  0.00    -0.382 A  
HETATM   16  C   UNL     1     -12.020   8.570  71.783  1.00  0.00    -0.393 A  
HETATM   17  C   UNL     1     -11.867   7.552  72.728  1.00  0.00    -0.156 A  
BRANCH  15  18
HETATM   18  O   UNL     1     -10.487   6.297  74.158  1.00  0.00    -0.301 OA 
BRANCH  18  19
HETATM   19  C   UNL     1      -9.225   5.624  74.078  1.00  0.00    -0.126 C  
BRANCH  19  20
HETATM   20  C   UNL     1      -9.468   4.130  73.875  1.00  0.00    -0.097 C  
BRANCH  20  21
HETATM   21  O   UNL     1      -8.212   3.467  73.700  1.00  0.00    -0.077 OA 
BRANCH  21  22
HETATM   22  C   UNL     1      -7.891   3.297  72.322  1.00  0.00    -0.059 C  
BRANCH  22  23
HETATM   23  C   UNL     1      -6.568   3.994  72.029  1.00  0.00    -0.022 C  
BRANCH  23  24
HETATM   24  O   UNL     1      -6.665   4.689  70.785  1.00  0.00    -0.033 OA 
BRANCH  24  25
HETATM   25  C   UNL     1      -5.739   5.774  70.721  1.00  0.00    -0.013 C  
HETATM   26  C   UNL     1      -6.373   7.014  71.325  1.00  0.00    -0.041 C  
HETATM   27  F   UNL     1      -5.491   8.046  71.261  1.00  0.00    -0.033 F  
ENDBRANCH  24  25
ENDBRANCH  23  24
ENDBRANCH  22  23
ENDBRANCH  21  22
ENDBRANCH  20  21
ENDBRANCH  19  20
ENDBRANCH  18  19
ENDBRANCH  15  18
ENDBRANCH  11  12
ENDBRANCH   7  10
ENDBRANCH   1   4
TORSDOF 11
ENDMDL
MODEL      151
REMARK 921   NORMALIZED FREE ENERGY PREDICTED BY IDOCK:   -3.68 KCAL/MOL
REMARK 922        TOTAL FREE ENERGY PREDICTED BY IDOCK:   -6.90 KCAL/MOL
REMARK 923 INTER-LIGAND FREE ENERGY PREDICTED BY IDOCK:   -6.21 KCAL/MOL
REMARK 924 INTRA-LIGAND FREE ENERGY PREDICTED BY IDOCK:   -0.69 KCAL/MOL
REMARK 927      BINDING AFFINITY PREDICTED BY RF-SCORE:    0.00 PKD
ROOT
HETATM    1  N   UNL     1      -9.628   2.373  66.461  1.00  0.00    -0.365 NA 
HETATM    2  H   UNL     1     -10.549   1.939  66.510  1.00  0.00     0.000 HD 
HETATM    3  C   UNL     1      -8.446   1.575  66.171  1.00  0.00    -0.101 C  
ENDROOT
BRANCH   1   4
HETATM    4  C   UNL     1      -9.476   3.747  66.669  1.00  0.00    -0.192 A  
HETATM    5  C   UNL     1      -9.664   4.377  67.902  1.00  0.00    -0.186 A  
HETATM    6  C   UNL     1      -9.516   5.762  68.029  1.00  0.00    -0.116 A  
HETATM    7  C   UNL     1      -9.138   6.547  66.934  1.00  0.00    -0.144 A  
HETATM    8  C   UNL     1      -8.889   5.911  65.714  1.00  0.00    -0.145 A  
HETATM    9  C   UNL     1      -9.035   4.525  65.594  1.00  0.00    -0.134 A  
BRANCH   7  10
HETATM   10  C   UNL     1      -9.103   8.008  67.088  1.00  0.00    -0.159 C  
HETATM   11  C   UNL     1      -9.927   8.858  66.455  1.00  0.00    -0.354 C  
BRANCH  11  12
HETATM   12  C   UNL     1      -9.915  10.313  66.647  1.00  0.00    -0.270 A  
HETATM   13  C   UNL     1      -8.817  11.121  66.358  1.00  0.00    -0.178 A  
HETATM   14  N   UNL     1      -8.768  12.461  66.553  1.00  0.00    -0.119 NA 
HETATM   15  C   UNL     1      -9.858  13.030  67.104  1.00  0.00    -0.230 A  
HETATM   16  C   UNL     1     -11.021  10.947  67.216  1.00  0.00    -0.355 A  
HETATM   17  C   UNL     1     -10.996  12.323  67.458  1.00  0.00    -0.298 A  
BRANCH  15  18
HETATM   18  O   UNL     1      -9.866  14.382  67.374  1.00  0.00    -0.220 OA 
BRANCH  18  19
HETATM   19  C   UNL     1     -11.178  14.875  67.674  1.00  0.00    -0.323 C  
BRANCH  19  20
HETATM   20  C   UNL     1     -11.058  16.266  68.293  1.00  0.00    -0.346 C  
BRANCH  20  21
HETATM   21  O   UNL     1      -9.756  16.793  68.019  1.00  0.00    -0.235 OA 
BRANCH  21  22
HETATM   22  C   UNL     1      -9.794  18.197  67.775  1.00  0.00    -0.310 C  
BRANCH  22  23
HETATM   23  C   UNL     1      -8.963  18.908  68.836  1.00  0.00    -0.230 C  
BRANCH  23  24
HETATM   24  O   UNL     1      -7.874  19.585  68.207  1.00  0.00    -0.308 OA 
BRANCH  24  25
HETATM   25  C   UNL     1      -8.207  19.981  66.876  1.00  0.00    -0.324 C  
HETATM   26  C   UNL     1      -6.946  20.020  66.031  1.00  0.00    -0.267 C  
HETATM   27  F   UNL     1      -7.265  20.399  64.765  1.00  0.00    -0.298 F  
ENDBRANCH  24  25
ENDBRANCH  23  24
ENDBRANCH  22  23
ENDBRANCH  21  22
ENDBRANCH  20  21
ENDBRANCH  19  20
ENDBRANCH  18  19
ENDBRANCH  15  18
ENDBRANCH  11  12
ENDBRANCH   7  10
ENDBRANCH   1   4
TORSDOF 11
ENDMDL
MODEL      152
REMARK 921   NORMALIZED FREE ENERGY PREDICTED BY IDOCK:   -3.67 KCAL/MOL
REMARK 922        TOTAL FREE ENERGY PREDICTED BY IDOCK:   -6.90 KCAL/MOL
REMARK 923 INTER-LIGAND FREE ENERGY PREDICTED BY IDOCK:   -6.06 KCAL/MOL
REMARK 924 INTRA-LIGAND FREE ENERGY PREDICTED BY IDOCK:   -0.84 KCAL/MOL
REMARK 927      BINDING AFFINITY PREDICTED BY RF-SCORE:    0.00 PKD
ROOT
HETATM    1  N   UNL     1     -11.519  16.110  64.069  1.00  0.00    -1.425 NA 
HETATM    2  H   UNL     1     -11.934  16.268  63.150  1.00  0.00     0.000 HD 
HETATM    3  C   UNL     1     -11.108  17.231  64.900  1.00  0.00     0.414 C  
ENDROOT
BRANCH   1   4
HETATM    4  C   UNL     1     -11.336  14.812  64.553  1.00  0.00    -0.303 A  
HETATM    5  C   UNL     1     -12.054  13.701  64.105  1.00  0.00    -0.484 A  
HETATM    6  C   UNL     1     -11.831  12.434  64.655  1.00  0.00    -0.445 A  
HETATM    7  C   UNL     1     -10.855  12.240  65.638  1.00  0.00    -0.321 A  
HETATM    8  C   UNL     1     -10.092  13.339  66.044  1.00  0.00    -0.301 A  
HETATM    9  C   UNL     1     -10.317  14.603  65.488  1.00  0.00    -0.383 A  
BRANCH   7  10
HETATM   10  C   UNL     1     -10.732  10.916  66.263  1.00  0.00    -0.241 C  
HETATM   11  C   UNL     1      -9.671  10.105  66.120  1.00  0.00    -0.275 C  
BRANCH  11  12
HETATM   12  C   UNL     1      -9.536   8.803  66.783  1.00  0.00    -0.249 A  
HETATM   13  C   UNL     1      -8.690   7.791  66.332  1.00  0.00    -0.150 A  
HETATM   14  N   UNL     1      -8.567   6.570  66.906  1.00  0.00    -0.113 NA 
HETATM   15  C   UNL     1      -9.357   6.322  67.969  1.00  0.00    -0.114 A  
HETATM   16  C   UNL     1     -10.333   8.499  67.887  1.00  0.00    -0.281 A  
HETATM   17  C   UNL     1     -10.255   7.240  68.488  1.00  0.00    -0.197 A  
BRANCH  15  18
HETATM   18  O   UNL     1      -9.320   5.086  68.579  1.00  0.00    -0.115 OA 
BRANCH  18  19
HETATM   19  C   UNL     1      -8.129   4.889  69.351  1.00  0.00    -0.078 C  
BRANCH  19  20
HETATM   20  C   UNL     1      -8.509   4.726  70.821  1.00  0.00    -0.101 C  
BRANCH  20  21
HETATM   21  O   UNL     1      -8.864   6.003  71.361  1.00  0.00    -0.135 OA 
BRANCH  21  22
HETATM   22  C   UNL     1      -7.723   6.715  71.833  1.00  0.00    -0.097 C  
BRANCH  22  23
HETATM   23  C   UNL     1      -8.186   7.968  72.566  1.00  0.00    -0.146 C  
BRANCH  23  24
HETATM   24  O   UNL     1      -7.931   9.113  71.752  1.00  0.00    -0.340 OA 
BRANCH  24  25
HETATM   25  C   UNL     1      -6.676   9.003  71.078  1.00  0.00    -0.087 C  
HETATM   26  C   UNL     1      -6.916   8.860  69.586  1.00  0.00    -0.054 C  
HETATM   27  F   UNL     1      -5.721   8.754  68.948  1.00  0.00    -0.037 F  
ENDBRANCH  24  25
ENDBRANCH  23  24
ENDBRANCH  22  23
ENDBRANCH  21  22
ENDBRANCH  20  21
ENDBRANCH  19  20
ENDBRANCH  18  19
ENDBRANCH  15  18
ENDBRANCH  11  12
ENDBRANCH   7  10
ENDBRANCH   1   4
TORSDOF 11
ENDMDL
MODEL      153
REMARK 921   NORMALIZED FREE ENERGY PREDICTED BY IDOCK:   -3.66 KCAL/MOL
REMARK 922        TOTAL FREE ENERGY PREDICTED BY IDOCK:   -6.87 KCAL/MOL
REMARK 923 INTER-LIGAND FREE ENERGY PREDICTED BY IDOCK:   -6.00 KCAL/MOL
REMARK 924 INTRA-LIGAND FREE ENERGY PREDICTED BY IDOCK:   -0.86 KCAL/MOL
REMARK 927      BINDING AFFINITY PREDICTED BY RF-SCORE:    0.00 PKD
ROOT
HETATM    1  N   UNL     1      -9.085   4.357  67.085  1.00  0.00    -0.124 NA 
HETATM    2  H   UNL     1      -8.599   3.721  67.717  1.00  0.00     0.000 HD 
HETATM    3  C   UNL     1      -9.838   3.845  65.951  1.00  0.00    -0.128 C  
ENDROOT
BRANCH   1   4
HETATM    4  C   UNL     1      -9.040   5.739  67.294  1.00  0.00    -0.110 A  
HETATM    5  C   UNL     1     -10.092   6.609  66.998  1.00  0.00    -0.247 A  
HETATM    6  C   UNL     1      -9.965   7.986  67.213  1.00  0.00    -0.282 A  
HETATM    7  C   UNL     1      -8.796   8.521  67.765  1.00  0.00    -0.137 A  
HETATM    8  C   UNL     1      -7.766   7.645  68.120  1.00  0.00    -0.119 A  
HETATM    9  C   UNL     1      -7.900   6.269  67.906  1.00  0.00    -0.103 A  
BRANCH   7  10
HETATM   10  C   UNL     1      -8.667   9.981  67.870  1.00  0.00    -0.125 C  
HETATM   11  C   UNL     1      -7.534  10.662  67.630  1.00  0.00    -0.091 C  
BRANCH  11  12
HETATM   12  C   UNL     1      -7.423  12.123  67.694  1.00  0.00    -0.129 A  
HETATM   13  C   UNL     1      -6.236  12.818  67.464  1.00  0.00    -0.159 A  
HETATM   14  N   UNL     1      -6.098  14.163  67.544  1.00  0.00    -0.346 NA 
HETATM   15  C   UNL     1      -7.191  14.860  67.912  1.00  0.00    -0.153 A  
HETATM   16  C   UNL     1      -8.527  12.888  68.071  1.00  0.00    -0.178 A  
HETATM   17  C   UNL     1      -8.415  14.275  68.192  1.00  0.00    -0.167 A  
BRANCH  15  18
HETATM   18  O   UNL     1      -7.116  16.229  68.059  1.00  0.00    -0.126 OA 
BRANCH  18  19
HETATM   19  C   UNL     1      -7.142  16.919  66.802  1.00  0.00    -0.238 C  
BRANCH  19  20
HETATM   20  C   UNL     1      -8.542  17.484  66.572  1.00  0.00    -0.263 C  
BRANCH  20  21
HETATM   21  O   UNL     1      -9.225  16.673  65.611  1.00  0.00    -0.491 OA 
BRANCH  21  22
HETATM   22  C   UNL     1     -10.630  16.908  65.622  1.00  0.00    -0.221 C  
BRANCH  22  23
HETATM   23  C   UNL     1     -11.280  16.092  64.511  1.00  0.00    -0.297 C  
BRANCH  23  24
HETATM   24  O   UNL     1     -11.506  14.760  64.974  1.00  0.00    -0.361 OA 
BRANCH  24  25
HETATM   25  C   UNL     1     -12.339  14.030  64.073  1.00  0.00    -0.298 C  
HETATM   26  C   UNL     1     -11.886  12.582  64.027  1.00  0.00    -0.431 C  
HETATM   27  F   UNL     1     -12.679  11.890  63.168  1.00  0.00    -0.680 F  
ENDBRANCH  24  25
ENDBRANCH  23  24
ENDBRANCH  22  23
ENDBRANCH  21  22
ENDBRANCH  20  21
ENDBRANCH  19  20
ENDBRANCH  18  19
ENDBRANCH  15  18
ENDBRANCH  11  12
ENDBRANCH   7  10
ENDBRANCH   1   4
TORSDOF 11
ENDMDL
MODEL      154
REMARK 921   NORMALIZED FREE ENERGY PREDICTED BY IDOCK:   -3.66 KCAL/MOL
REMARK 922        TOTAL FREE ENERGY PREDICTED BY IDOCK:   -6.87 KCAL/MOL
REMARK 923 INTER-LIGAND FREE ENERGY PREDICTED BY IDOCK:   -6.22 KCAL/MOL
REMARK 924 INTRA-LIGAND FREE ENERGY PREDICTED BY IDOCK:   -0.65 KCAL/MOL
REMARK 927      BINDING AFFINITY PREDICTED BY RF-SCORE:    0.00 PKD
ROOT
HETATM    1  N   UNL     1      -9.608  18.626  66.924  1.00  0.00    -0.298 NA 
HETATM    2  H   UNL     1      -8.799  19.138  67.275  1.00  0.00     0.000 HD 
HETATM    3  C   UNL     1     -10.506  19.233  65.954  1.00  0.00    -0.451 C  
ENDROOT
BRANCH   1   4
HETATM    4  C   UNL     1      -9.876  17.328  67.367  1.00  0.00    -0.272 A  
HETATM    5  C   UNL     1     -10.680  17.027  68.469  1.00  0.00    -0.352 A  
HETATM    6  C   UNL     1     -10.885  15.702  68.867  1.00  0.00    -0.252 A  
HETATM    7  C   UNL     1     -10.322  14.641  68.149  1.00  0.00    -0.230 A  
HETATM    8  C   UNL     1      -9.568  14.937  67.009  1.00  0.00    -0.245 A  
HETATM    9  C   UNL     1      -9.370  16.264  66.614  1.00  0.00    -0.272 A  
BRANCH   7  10
HETATM   10  C   UNL     1     -10.473  13.275  68.667  1.00  0.00    -0.242 C  
HETATM   11  C   UNL     1     -11.583  12.806  69.261  1.00  0.00    -0.372 C  
BRANCH  11  12
HETATM   12  C   UNL     1     -11.742  11.427  69.736  1.00  0.00    -0.418 A  
HETATM   13  C   UNL     1     -12.765  11.018  70.589  1.00  0.00    -0.288 A  
HETATM   14  N   UNL     1     -12.920   9.760  71.067  1.00  0.00    -0.320 NA 
HETATM   15  C   UNL     1     -11.982   8.860  70.709  1.00  0.00    -0.148 A  
HETATM   16  C   UNL     1     -10.796  10.461  69.393  1.00  0.00    -0.287 A  
HETATM   17  C   UNL     1     -10.906   9.160  69.890  1.00  0.00    -0.242 A  
BRANCH  15  18
HETATM   18  O   UNL     1     -12.047   7.571  71.192  1.00  0.00    -0.306 OA 
BRANCH  18  19
HETATM   19  C   UNL     1     -11.973   7.514  72.622  1.00  0.00    -0.110 C  
BRANCH  19  20
HETATM   20  C   UNL     1     -10.540   7.814  73.059  1.00  0.00    -0.379 C  
BRANCH  20  21
HETATM   21  O   UNL     1      -9.761   6.618  72.971  1.00  0.00    -0.155 OA 
BRANCH  21  22
HETATM   22  C   UNL     1     -10.248   5.602  73.845  1.00  0.00    -0.245 C  
BRANCH  22  23
HETATM   23  C   UNL     1      -9.231   4.469  73.906  1.00  0.00    -0.110 C  
BRANCH  23  24
HETATM   24  O   UNL     1      -9.390   3.629  72.763  1.00  0.00    -0.104 OA 
BRANCH  24  25
HETATM   25  C   UNL     1      -8.505   2.508  72.813  1.00  0.00    -0.070 C  
HETATM   26  C   UNL     1      -7.312   2.768  71.913  1.00  0.00    -0.040 C  
HETATM   27  F   UNL     1      -6.472   1.700  71.960  1.00  0.00    -0.013 F  
ENDBRANCH  24  25
ENDBRANCH  23  24
ENDBRANCH  22  23
ENDBRANCH  21  22
ENDBRANCH  20  21
ENDBRANCH  19  20
ENDBRANCH  18  19
ENDBRANCH  15  18
ENDBRANCH  11  12
ENDBRANCH   7  10
ENDBRANCH   1   4
TORSDOF 11
ENDMDL
MODEL      155
REMARK 921   NORMALIZED FREE ENERGY PREDICTED BY IDOCK:   -3.65 KCAL/MOL
REMARK 922        TOTAL FREE ENERGY PREDICTED BY IDOCK:   -6.86 KCAL/MOL
REMARK 923 INTER-LIGAND FREE ENERGY PREDICTED BY IDOCK:   -5.86 KCAL/MOL
REMARK 924 INTRA-LIGAND FREE ENERGY PREDICTED BY IDOCK:   -0.99 KCAL/MOL
REMARK 927      BINDING AFFINITY PREDICTED BY RF-SCORE:    0.00 PKD
ROOT
HETATM    1  N   UNL     1     -10.490   2.809  73.674  1.00  0.00    -0.132 NA 
HETATM    2  H   UNL     1     -11.006   3.010  74.530  1.00  0.00     0.000 HD 
HETATM    3  C   UNL     1      -9.813   1.533  73.498  1.00  0.00    -0.072 C  
ENDROOT
BRANCH   1   4
HETATM    4  C   UNL     1     -10.420   3.753  72.646  1.00  0.00    -0.116 A  
HETATM    5  C   UNL     1      -9.618   3.616  71.511  1.00  0.00    -0.234 A  
HETATM    6  C   UNL     1      -9.583   4.616  70.532  1.00  0.00    -0.268 A  
HETATM    7  C   UNL     1     -10.379   5.760  70.647  1.00  0.00    -0.310 A  
HETATM    8  C   UNL     1     -11.229   5.871  71.751  1.00  0.00    -0.311 A  
HETATM    9  C   UNL     1     -11.263   4.866  72.724  1.00  0.00    -0.260 A  
BRANCH   7  10
HETATM   10  C   UNL     1     -10.227   6.832  69.653  1.00  0.00    -0.207 C  
HETATM   11  C   UNL     1      -9.833   8.083  69.941  1.00  0.00    -0.186 C  
BRANCH  11  12
HETATM   12  C   UNL     1      -9.641   9.137  68.937  1.00  0.00    -0.152 A  
HETATM   13  C   UNL     1      -8.672  10.133  69.040  1.00  0.00    -0.161 A  
HETATM   14  N   UNL     1      -8.491  11.134  68.145  1.00  0.00    -0.132 NA 
HETATM   15  C   UNL     1      -9.346  11.173  67.104  1.00  0.00    -0.165 A  
HETATM   16  C   UNL     1     -10.502   9.218  67.843  1.00  0.00    -0.290 A  
HETATM   17  C   UNL     1     -10.365  10.253  66.914  1.00  0.00    -0.298 A  
BRANCH  15  18
HETATM   18  O   UNL     1      -9.253  12.187  66.175  1.00  0.00    -0.220 OA 
BRANCH  18  19
HETATM   19  C   UNL     1      -8.670  13.378  66.719  1.00  0.00    -0.078 C  
BRANCH  19  20
HETATM   20  C   UNL     1      -9.615  14.553  66.475  1.00  0.00    -0.293 C  
BRANCH  20  21
HETATM   21  O   UNL     1     -10.943  14.173  66.848  1.00  0.00    -0.293 OA 
BRANCH  21  22
HETATM   22  C   UNL     1     -11.524  15.102  67.759  1.00  0.00    -0.318 C  
BRANCH  22  23
HETATM   23  C   UNL     1     -11.638  14.448  69.131  1.00  0.00    -0.307 C  
BRANCH  23  24
HETATM   24  O   UNL     1     -11.061  13.143  69.082  1.00  0.00    -0.245 OA 
BRANCH  24  25
HETATM   25  C   UNL     1     -12.032  12.134  69.365  1.00  0.00    -0.270 C  
HETATM   26  C   UNL     1     -12.106  11.914  70.865  1.00  0.00    -0.134 C  
HETATM   27  F   UNL     1     -13.028  10.952  71.132  1.00  0.00    -0.415 F  
ENDBRANCH  24  25
ENDBRANCH  23  24
ENDBRANCH  22  23
ENDBRANCH  21  22
ENDBRANCH  20  21
ENDBRANCH  19  20
ENDBRANCH  18  19
ENDBRANCH  15  18
ENDBRANCH  11  12
ENDBRANCH   7  10
ENDBRANCH   1   4
TORSDOF 11
ENDMDL
MODEL      156
REMARK 921   NORMALIZED FREE ENERGY PREDICTED BY IDOCK:   -3.65 KCAL/MOL
REMARK 922        TOTAL FREE ENERGY PREDICTED BY IDOCK:   -6.85 KCAL/MOL
REMARK 923 INTER-LIGAND FREE ENERGY PREDICTED BY IDOCK:   -6.30 KCAL/MOL
REMARK 924 INTRA-LIGAND FREE ENERGY PREDICTED BY IDOCK:   -0.56 KCAL/MOL
REMARK 927      BINDING AFFINITY PREDICTED BY RF-SCORE:    0.00 PKD
ROOT
HETATM    1  N   UNL     1      -6.986   4.259  66.733  1.00  0.00    -0.058 NA 
HETATM    2  H   UNL     1      -7.188   3.486  66.100  1.00  0.00     0.000 HD 
HETATM    3  C   UNL     1      -6.175   4.052  67.922  1.00  0.00    -0.036 C  
ENDROOT
BRANCH   1   4
HETATM    4  C   UNL     1      -7.485   5.539  66.474  1.00  0.00    -0.087 A  
HETATM    5  C   UNL     1      -6.911   6.434  65.568  1.00  0.00    -0.048 A  
HETATM    6  C   UNL     1      -7.453   7.709  65.378  1.00  0.00    -0.078 A  
HETATM    7  C   UNL     1      -8.607   8.107  66.062  1.00  0.00    -0.165 A  
HETATM    8  C   UNL     1      -9.219   7.192  66.923  1.00  0.00    -0.174 A  
HETATM    9  C   UNL     1      -8.674   5.916  67.106  1.00  0.00    -0.108 A  
BRANCH   7  10
HETATM   10  C   UNL     1      -9.076   9.492  65.914  1.00  0.00    -0.230 C  
HETATM   11  C   UNL     1      -9.762   9.952  64.855  1.00  0.00    -0.332 C  
BRANCH  11  12
HETATM   12  C   UNL     1     -10.266  11.325  64.734  1.00  0.00    -0.347 A  
HETATM   13  C   UNL     1      -9.940  12.348  65.622  1.00  0.00    -0.244 A  
HETATM   14  N   UNL     1     -10.412  13.616  65.552  1.00  0.00    -0.296 NA 
HETATM   15  C   UNL     1     -11.292  13.877  64.566  1.00  0.00    -0.372 A  
HETATM   16  C   UNL     1     -11.180  11.643  63.729  1.00  0.00    -0.498 A  
HETATM   17  C   UNL     1     -11.712  12.932  63.643  1.00  0.00    -0.572 A  
BRANCH  15  18
HETATM   18  O   UNL     1     -11.851  15.132  64.458  1.00  0.00    -0.416 OA 
BRANCH  18  19
HETATM   19  C   UNL     1     -10.868  16.175  64.479  1.00  0.00     0.026 C  
BRANCH  19  20
HETATM   20  C   UNL     1     -10.782  16.750  65.892  1.00  0.00    -0.163 C  
BRANCH  20  21
HETATM   21  O   UNL     1      -9.514  17.390  66.063  1.00  0.00    -0.473 OA 
BRANCH  21  22
HETATM   22  C   UNL     1      -9.354  17.904  67.383  1.00  0.00    -0.257 C  
BRANCH  22  23
HETATM   23  C   UNL     1      -8.856  16.789  68.294  1.00  0.00    -0.228 C  
BRANCH  23  24
HETATM   24  O   UNL     1      -9.702  16.704  69.442  1.00  0.00    -0.199 OA 
BRANCH  24  25
HETATM   25  C   UNL     1     -10.214  15.382  69.615  1.00  0.00    -0.277 C  
HETATM   26  C   UNL     1     -11.696  15.453  69.934  1.00  0.00    -0.336 C  
HETATM   27  F   UNL     1     -12.180  14.194  70.100  1.00  0.00    -0.325 F  
ENDBRANCH  24  25
ENDBRANCH  23  24
ENDBRANCH  22  23
ENDBRANCH  21  22
ENDBRANCH  20  21
ENDBRANCH  19  20
ENDBRANCH  18  19
ENDBRANCH  15  18
ENDBRANCH  11  12
ENDBRANCH   7  10
ENDBRANCH   1   4
TORSDOF 11
ENDMDL
MODEL      157
REMARK 921   NORMALIZED FREE ENERGY PREDICTED BY IDOCK:   -3.64 KCAL/MOL
REMARK 922        TOTAL FREE ENERGY PREDICTED BY IDOCK:   -6.85 KCAL/MOL
REMARK 923 INTER-LIGAND FREE ENERGY PREDICTED BY IDOCK:   -5.97 KCAL/MOL
REMARK 924 INTRA-LIGAND FREE ENERGY PREDICTED BY IDOCK:   -0.87 KCAL/MOL
REMARK 927      BINDING AFFINITY PREDICTED BY RF-SCORE:    0.00 PKD
ROOT
HETATM    1  N   UNL     1     -10.518  18.638  67.257  1.00  0.00    -0.405 NA 
HETATM    2  H   UNL     1     -11.146  19.290  67.727  1.00  0.00     0.000 HD 
HETATM    3  C   UNL     1      -9.471  19.125  66.373  1.00  0.00    -0.354 C  
ENDROOT
BRANCH   1   4
HETATM    4  C   UNL     1     -10.648  17.260  67.450  1.00  0.00    -0.303 A  
HETATM    5  C   UNL     1     -11.108  16.675  68.632  1.00  0.00    -0.294 A  
HETATM    6  C   UNL     1     -11.189  15.285  68.759  1.00  0.00    -0.293 A  
HETATM    7  C   UNL     1     -10.850  14.445  67.693  1.00  0.00    -0.276 A  
HETATM    8  C   UNL     1     -10.449  15.029  66.488  1.00  0.00    -0.285 A  
HETATM    9  C   UNL     1     -10.373  16.421  66.365  1.00  0.00    -0.319 A  
BRANCH   7  10
HETATM   10  C   UNL     1     -10.845  12.991  67.909  1.00  0.00    -0.260 C  
HETATM   11  C   UNL     1     -10.142  12.117  67.171  1.00  0.00    -0.220 C  
BRANCH  11  12
HETATM   12  C   UNL     1     -10.108  10.671  67.420  1.00  0.00    -0.231 A  
HETATM   13  C   UNL     1     -10.189   9.712  66.413  1.00  0.00    -0.217 A  
HETATM   14  N   UNL     1     -10.189   8.372  66.615  1.00  0.00    -0.294 NA 
HETATM   15  C   UNL     1     -10.146   7.957  67.896  1.00  0.00    -0.191 A  
HETATM   16  C   UNL     1     -10.064  10.193  68.730  1.00  0.00    -0.198 A  
HETATM   17  C   UNL     1     -10.092   8.818  68.980  1.00  0.00    -0.206 A  
BRANCH  15  18
HETATM   18  O   UNL     1     -10.188   6.609  68.184  1.00  0.00    -0.150 OA 
BRANCH  18  19
HETATM   19  C   UNL     1     -11.190   6.286  69.156  1.00  0.00    -0.371 C  
BRANCH  19  20
HETATM   20  C   UNL     1     -10.628   5.250  70.127  1.00  0.00    -0.227 C  
BRANCH  20  21
HETATM   21  O   UNL     1      -9.566   5.840  70.883  1.00  0.00    -0.162 OA 
BRANCH  21  22
HETATM   22  C   UNL     1      -9.944   6.070  72.237  1.00  0.00    -0.167 C  
BRANCH  22  23
HETATM   23  C   UNL     1      -8.794   5.664  73.151  1.00  0.00    -0.122 C  
BRANCH  23  24
HETATM   24  O   UNL     1      -8.503   6.736  74.048  1.00  0.00    -0.125 OA 
BRANCH  24  25
HETATM   25  C   UNL     1      -7.945   7.856  73.357  1.00  0.00    -0.169 C  
HETATM   26  C   UNL     1      -6.439   7.694  73.267  1.00  0.00    -0.068 C  
HETATM   27  F   UNL     1      -5.911   8.761  72.611  1.00  0.00    -0.064 F  
ENDBRANCH  24  25
ENDBRANCH  23  24
ENDBRANCH  22  23
ENDBRANCH  21  22
ENDBRANCH  20  21
ENDBRANCH  19  20
ENDBRANCH  18  19
ENDBRANCH  15  18
ENDBRANCH  11  12
ENDBRANCH   7  10
ENDBRANCH   1   4
TORSDOF 11
ENDMDL
MODEL      158
REMARK 921   NORMALIZED FREE ENERGY PREDICTED BY IDOCK:   -3.58 KCAL/MOL
REMARK 922        TOTAL FREE ENERGY PREDICTED BY IDOCK:   -6.75 KCAL/MOL
REMARK 923 INTER-LIGAND FREE ENERGY PREDICTED BY IDOCK:   -5.99 KCAL/MOL
REMARK 924 INTRA-LIGAND FREE ENERGY PREDICTED BY IDOCK:   -0.76 KCAL/MOL
REMARK 927      BINDING AFFINITY PREDICTED BY RF-SCORE:    0.00 PKD
ROOT
HETATM    1  N   UNL     1      -7.645   2.903  67.116  1.00  0.00    -0.069 NA 
HETATM    2  H   UNL     1      -7.166   2.410  67.870  1.00  0.00     0.000 HD 
HETATM    3  C   UNL     1      -7.698   2.338  65.777  1.00  0.00    -0.072 C  
ENDROOT
BRANCH   1   4
HETATM    4  C   UNL     1      -8.262   4.135  67.350  1.00  0.00    -0.099 A  
HETATM    5  C   UNL     1      -7.882   5.330  66.734  1.00  0.00    -0.100 A  
HETATM    6  C   UNL     1      -8.533   6.531  67.036  1.00  0.00    -0.113 A  
HETATM    7  C   UNL     1      -9.605   6.560  67.934  1.00  0.00    -0.119 A  
HETATM    8  C   UNL     1     -10.028   5.355  68.504  1.00  0.00    -0.223 A  
HETATM    9  C   UNL     1      -9.375   4.157  68.196  1.00  0.00    -0.212 A  
BRANCH   7  10
HETATM   10  C   UNL     1     -10.186   7.858  68.304  1.00  0.00    -0.240 C  
HETATM   11  C   UNL     1      -9.686   9.047  67.928  1.00  0.00    -0.185 C  
BRANCH  11  12
HETATM   12  C   UNL     1     -10.296  10.339  68.264  1.00  0.00    -0.209 A  
HETATM   13  C   UNL     1      -9.725  11.569  67.945  1.00  0.00    -0.183 A  
HETATM   14  N   UNL     1     -10.250  12.775  68.267  1.00  0.00    -0.240 NA 
HETATM   15  C   UNL     1     -11.391  12.763  68.984  1.00  0.00    -0.294 A  
HETATM   16  C   UNL     1     -11.477  10.377  69.006  1.00  0.00    -0.258 A  
HETATM   17  C   UNL     1     -12.033  11.602  69.383  1.00  0.00    -0.381 A  
BRANCH  15  18
HETATM   18  O   UNL     1     -11.961  13.951  69.388  1.00  0.00    -0.315 OA 
BRANCH  18  19
HETATM   19  C   UNL     1     -11.275  15.096  68.868  1.00  0.00    -0.283 C  
BRANCH  19  20
HETATM   20  C   UNL     1     -11.285  16.204  69.919  1.00  0.00    -0.349 C  
BRANCH  20  21
HETATM   21  O   UNL     1     -10.626  17.360  69.391  1.00  0.00    -0.269 OA 
BRANCH  21  22
HETATM   22  C   UNL     1     -10.610  17.357  67.966  1.00  0.00    -0.389 C  
BRANCH  22  23
HETATM   23  C   UNL     1      -9.488  18.266  67.479  1.00  0.00    -0.266 C  
BRANCH  23  24
HETATM   24  O   UNL     1      -8.739  18.734  68.601  1.00  0.00    -0.337 OA 
BRANCH  24  25
HETATM   25  C   UNL     1      -7.359  18.384  68.488  1.00  0.00    -0.287 C  
HETATM   26  C   UNL     1      -6.520  19.381  69.265  1.00  0.00    -0.312 C  
HETATM   27  F   UNL     1      -5.207  19.047  69.155  1.00  0.00    -0.185 F  
ENDBRANCH  24  25
ENDBRANCH  23  24
ENDBRANCH  22  23
ENDBRANCH  21  22
ENDBRANCH  20  21
ENDBRANCH  19  20
ENDBRANCH  18  19
ENDBRANCH  15  18
ENDBRANCH  11  12
ENDBRANCH   7  10
ENDBRANCH   1   4
TORSDOF 11
ENDMDL
MODEL      159
REMARK 921   NORMALIZED FREE ENERGY PREDICTED BY IDOCK:   -3.55 KCAL/MOL
REMARK 922        TOTAL FREE ENERGY PREDICTED BY IDOCK:   -6.70 KCAL/MOL
REMARK 923 INTER-LIGAND FREE ENERGY PREDICTED BY IDOCK:   -6.19 KCAL/MOL
REMARK 924 INTRA-LIGAND FREE ENERGY PREDICTED BY IDOCK:   -0.51 KCAL/MOL
REMARK 927      BINDING AFFINITY PREDICTED BY RF-SCORE:    0.00 PKD
ROOT
HETATM    1  N   UNL     1      -5.685  20.403  64.722  1.00  0.00    -0.194 NA 
HETATM    2  H   UNL     1      -4.709  20.526  64.993  1.00  0.00     0.000 HD 
HETATM    3  C   UNL     1      -6.244  21.147  63.604  1.00  0.00    -0.303 C  
ENDROOT
BRANCH   1   4
HETATM    4  C   UNL     1      -6.510  19.515  65.418  1.00  0.00    -0.266 A  
HETATM    5  C   UNL     1      -6.198  18.173  65.648  1.00  0.00    -0.279 A  
HETATM    6  C   UNL     1      -7.085  17.338  66.334  1.00  0.00    -0.312 A  
HETATM    7  C   UNL     1      -8.291  17.834  66.842  1.00  0.00    -0.257 A  
HETATM    8  C   UNL     1      -8.577  19.191  66.668  1.00  0.00    -0.329 A  
HETATM    9  C   UNL     1      -7.684  20.023  65.984  1.00  0.00    -0.318 A  
BRANCH   7  10
HETATM   10  C   UNL     1      -9.239  16.897  67.459  1.00  0.00    -0.223 C  
HETATM   11  C   UNL     1      -9.062  15.567  67.519  1.00  0.00    -0.198 C  
BRANCH  11  12
HETATM   12  C   UNL     1      -9.993  14.642  68.175  1.00  0.00    -0.224 A  
HETATM   13  C   UNL     1     -11.105  15.054  68.907  1.00  0.00    -0.266 A  
HETATM   14  N   UNL     1     -11.964  14.225  69.547  1.00  0.00    -0.318 NA 
HETATM   15  C   UNL     1     -11.682  12.909  69.492  1.00  0.00    -0.323 A  
HETATM   16  C   UNL     1      -9.743  13.269  68.147  1.00  0.00    -0.227 A  
HETATM   17  C   UNL     1     -10.590  12.385  68.820  1.00  0.00    -0.213 A  
BRANCH  15  18
HETATM   18  O   UNL     1     -12.485  12.006  70.157  1.00  0.00    -0.166 OA 
BRANCH  18  19
HETATM   19  C   UNL     1     -12.202  10.648  69.795  1.00  0.00    -0.247 C  
BRANCH  19  20
HETATM   20  C   UNL     1     -12.194   9.788  71.057  1.00  0.00    -0.347 C  
BRANCH  20  21
HETATM   21  O   UNL     1     -10.842   9.563  71.466  1.00  0.00    -0.355 OA 
BRANCH  21  22
HETATM   22  C   UNL     1     -10.432   8.219  71.228  1.00  0.00    -0.211 C  
BRANCH  22  23
HETATM   23  C   UNL     1     -10.626   7.893  69.752  1.00  0.00    -0.242 C  
BRANCH  23  24
HETATM   24  O   UNL     1      -9.526   8.415  69.005  1.00  0.00    -0.150 OA 
BRANCH  24  25
HETATM   25  C   UNL     1      -8.436   7.492  68.972  1.00  0.00    -0.133 C  
HETATM   26  C   UNL     1      -7.130   8.247  69.136  1.00  0.00    -0.064 C  
HETATM   27  F   UNL     1      -6.095   7.368  69.102  1.00  0.00    -0.027 F  
ENDBRANCH  24  25
ENDBRANCH  23  24
ENDBRANCH  22  23
ENDBRANCH  21  22
ENDBRANCH  20  21
ENDBRANCH  19  20
ENDBRANCH  18  19
ENDBRANCH  15  18
ENDBRANCH  11  12
ENDBRANCH   7  10
ENDBRANCH   1   4
TORSDOF 11
ENDMDL
MODEL      160
REMARK 921   NORMALIZED FREE ENERGY PREDICTED BY IDOCK:   -3.53 KCAL/MOL
REMARK 922        TOTAL FREE ENERGY PREDICTED BY IDOCK:   -6.67 KCAL/MOL
REMARK 923 INTER-LIGAND FREE ENERGY PREDICTED BY IDOCK:   -5.65 KCAL/MOL
REMARK 924 INTRA-LIGAND FREE ENERGY PREDICTED BY IDOCK:   -1.02 KCAL/MOL
REMARK 927      BINDING AFFINITY PREDICTED BY RF-SCORE:    0.00 PKD
ROOT
HETATM    1  N   UNL     1      -6.173   5.424  65.265  1.00  0.00    -0.033 NA 
HETATM    2  H   UNL     1      -5.172   5.320  65.097  1.00  0.00     0.000 HD 
HETATM    3  C   UNL     1      -7.072   4.290  65.115  1.00  0.00    -0.063 C  
ENDROOT
BRANCH   1   4
HETATM    4  C   UNL     1      -6.707   6.659  65.644  1.00  0.00    -0.051 A  
HETATM    5  C   UNL     1      -6.130   7.502  66.597  1.00  0.00    -0.044 A  
HETATM    6  C   UNL     1      -6.735   8.715  66.941  1.00  0.00    -0.065 A  
HETATM    7  C   UNL     1      -7.913   9.134  66.313  1.00  0.00    -0.103 A  
HETATM    8  C   UNL     1      -8.458   8.321  65.314  1.00  0.00    -0.179 A  
HETATM    9  C   UNL     1      -7.846   7.111  64.971  1.00  0.00    -0.125 A  
BRANCH   7  10
HETATM   10  C   UNL     1      -8.570  10.360  66.784  1.00  0.00    -0.125 C  
HETATM   11  C   UNL     1      -8.001  11.576  66.781  1.00  0.00    -0.152 C  
BRANCH  11  12
HETATM   12  C   UNL     1      -8.680  12.804  67.212  1.00  0.00    -0.200 A  
HETATM   13  C   UNL     1      -8.177  13.662  68.189  1.00  0.00    -0.158 A  
HETATM   14  N   UNL     1      -8.795  14.785  68.627  1.00  0.00    -0.176 NA 
HETATM   15  C   UNL     1     -10.002  15.055  68.093  1.00  0.00    -0.220 A  
HETATM   16  C   UNL     1      -9.932  13.125  66.688  1.00  0.00    -0.270 A  
HETATM   17  C   UNL     1     -10.613  14.260  67.137  1.00  0.00    -0.279 A  
BRANCH  15  18
HETATM   18  O   UNL     1     -10.713  16.156  68.521  1.00  0.00    -0.268 OA 
BRANCH  18  19
HETATM   19  C   UNL     1     -11.891  15.799  69.255  1.00  0.00    -0.346 C  
BRANCH  19  20
HETATM   20  C   UNL     1     -11.551  15.731  70.742  1.00  0.00    -0.398 C  
BRANCH  20  21
HETATM   21  O   UNL     1     -11.983  14.472  71.267  1.00  0.00    -0.338 OA 
BRANCH  21  22
HETATM   22  C   UNL     1     -12.520  13.630  70.250  1.00  0.00    -0.265 C  
BRANCH  22  23
HETATM   23  C   UNL     1     -12.274  12.174  70.628  1.00  0.00    -0.300 C  
BRANCH  23  24
HETATM   24  O   UNL     1     -13.152  11.808  71.692  1.00  0.00    -0.441 OA 
BRANCH  24  25
HETATM   25  C   UNL     1     -13.063  10.412  71.983  1.00  0.00    -0.416 C  
HETATM   26  C   UNL     1     -11.707   9.891  71.545  1.00  0.00    -0.337 C  
HETATM   27  F   UNL     1     -11.625   8.563  71.821  1.00  0.00    -0.294 F  
ENDBRANCH  24  25
ENDBRANCH  23  24
ENDBRANCH  22  23
ENDBRANCH  21  22
ENDBRANCH  20  21
ENDBRANCH  19  20
ENDBRANCH  18  19
ENDBRANCH  15  18
ENDBRANCH  11  12
ENDBRANCH   7  10
ENDBRANCH   1   4
TORSDOF 11
ENDMDL
MODEL      161
REMARK 921   NORMALIZED FREE ENERGY PREDICTED BY IDOCK:   -3.51 KCAL/MOL
REMARK 922        TOTAL FREE ENERGY PREDICTED BY IDOCK:   -6.63 KCAL/MOL
REMARK 923 INTER-LIGAND FREE ENERGY PREDICTED BY IDOCK:   -6.05 KCAL/MOL
REMARK 924 INTRA-LIGAND FREE ENERGY PREDICTED BY IDOCK:   -0.58 KCAL/MOL
REMARK 927      BINDING AFFINITY PREDICTED BY RF-SCORE:    0.00 PKD
ROOT
HETATM    1  N   UNL     1     -10.146   4.090  66.798  1.00  0.00    -0.319 NA 
HETATM    2  H   UNL     1     -11.012   3.742  67.208  1.00  0.00     0.000 HD 
HETATM    3  C   UNL     1      -9.101   3.169  66.379  1.00  0.00    -0.154 C  
ENDROOT
BRANCH   1   4
HETATM    4  C   UNL     1      -9.940   5.462  66.627  1.00  0.00    -0.195 A  
HETATM    5  C   UNL     1      -8.862   6.010  65.928  1.00  0.00    -0.155 A  
HETATM    6  C   UNL     1      -8.709   7.397  65.817  1.00  0.00    -0.132 A  
HETATM    7  C   UNL     1      -9.653   8.269  66.371  1.00  0.00    -0.300 A  
HETATM    8  C   UNL     1     -10.765   7.722  67.017  1.00  0.00    -0.316 A  
HETATM    9  C   UNL     1     -10.915   6.335  67.121  1.00  0.00    -0.453 A  
BRANCH   7  10
HETATM   10  C   UNL     1      -9.394   9.715  66.325  1.00  0.00    -0.238 C  
HETATM   11  C   UNL     1      -9.725  10.576  67.301  1.00  0.00    -0.197 C  
BRANCH  11  12
HETATM   12  C   UNL     1      -9.424  12.012  67.269  1.00  0.00    -0.181 A  
HETATM   13  C   UNL     1      -8.130  12.529  67.275  1.00  0.00    -0.179 A  
HETATM   14  N   UNL     1      -7.823  13.848  67.275  1.00  0.00    -0.155 NA 
HETATM   15  C   UNL     1      -8.859  14.708  67.310  1.00  0.00    -0.207 A  
HETATM   16  C   UNL     1     -10.465  12.940  67.305  1.00  0.00    -0.236 A  
HETATM   17  C   UNL     1     -10.186  14.309  67.335  1.00  0.00    -0.247 A  
BRANCH  15  18
HETATM   18  O   UNL     1      -8.626  16.066  67.357  1.00  0.00    -0.169 OA 
BRANCH  18  19
HETATM   19  C   UNL     1      -9.796  16.836  67.054  1.00  0.00    -0.262 C  
BRANCH  19  20
HETATM   20  C   UNL     1     -10.175  17.669  68.277  1.00  0.00    -0.374 C  
BRANCH  20  21
HETATM   21  O   UNL     1      -9.178  18.673  68.491  1.00  0.00    -0.328 OA 
BRANCH  21  22
HETATM   22  C   UNL     1      -9.146  19.623  67.430  1.00  0.00    -0.315 C  
BRANCH  22  23
HETATM   23  C   UNL     1      -7.935  20.532  67.612  1.00  0.00    -0.215 C  
BRANCH  23  24
HETATM   24  O   UNL     1      -6.743  19.748  67.546  1.00  0.00    -0.210 OA 
BRANCH  24  25
HETATM   25  C   UNL     1      -6.767  18.858  66.429  1.00  0.00    -0.205 C  
HETATM   26  C   UNL     1      -5.448  18.946  65.685  1.00  0.00    -0.162 C  
HETATM   27  F   UNL     1      -5.474  18.100  64.622  1.00  0.00    -0.149 F  
ENDBRANCH  24  25
ENDBRANCH  23  24
ENDBRANCH  22  23
ENDBRANCH  21  22
ENDBRANCH  20  21
ENDBRANCH  19  20
ENDBRANCH  18  19
ENDBRANCH  15  18
ENDBRANCH  11  12
ENDBRANCH   7  10
ENDBRANCH   1   4
TORSDOF 11
ENDMDL
MODEL      162
REMARK 921   NORMALIZED FREE ENERGY PREDICTED BY IDOCK:   -3.51 KCAL/MOL
REMARK 922        TOTAL FREE ENERGY PREDICTED BY IDOCK:   -6.63 KCAL/MOL
REMARK 923 INTER-LIGAND FREE ENERGY PREDICTED BY IDOCK:   -5.76 KCAL/MOL
REMARK 924 INTRA-LIGAND FREE ENERGY PREDICTED BY IDOCK:   -0.87 KCAL/MOL
REMARK 927      BINDING AFFINITY PREDICTED BY RF-SCORE:    0.00 PKD
ROOT
HETATM    1  N   UNL     1     -11.290  16.777  64.530  1.00  0.00    -1.039 NA 
HETATM    2  H   UNL     1     -11.905  17.005  63.749  1.00  0.00     0.000 HD 
HETATM    3  C   UNL     1     -10.691  17.831  65.334  1.00  0.00     0.086 C  
ENDROOT
BRANCH   1   4
HETATM    4  C   UNL     1     -11.005  15.446  64.846  1.00  0.00    -0.437 A  
HETATM    5  C   UNL     1     -10.032  15.053  65.769  1.00  0.00    -0.376 A  
HETATM    6  C   UNL     1      -9.787  13.698  66.018  1.00  0.00    -0.290 A  
HETATM    7  C   UNL     1     -10.535  12.704  65.378  1.00  0.00    -0.306 A  
HETATM    8  C   UNL     1     -11.551  13.097  64.501  1.00  0.00    -0.406 A  
HETATM    9  C   UNL     1     -11.794  14.453  64.259  1.00  0.00    -0.385 A  
BRANCH   7  10
HETATM   10  C   UNL     1     -10.169  11.296  65.587  1.00  0.00    -0.304 C  
HETATM   11  C   UNL     1      -9.167  10.882  66.379  1.00  0.00    -0.193 C  
BRANCH  11  12
HETATM   12  C   UNL     1      -8.835   9.473  66.618  1.00  0.00    -0.150 A  
HETATM   13  C   UNL     1      -8.821   8.503  65.617  1.00  0.00    -0.173 A  
HETATM   14  N   UNL     1      -8.547   7.191  65.813  1.00  0.00    -0.149 NA 
HETATM   15  C   UNL     1      -8.311   6.808  67.083  1.00  0.00    -0.121 A  
HETATM   16  C   UNL     1      -8.584   9.029  67.916  1.00  0.00    -0.125 A  
HETATM   17  C   UNL     1      -8.326   7.678  68.161  1.00  0.00    -0.124 A  
BRANCH  15  18
HETATM   18  O   UNL     1      -8.069   5.481  67.367  1.00  0.00    -0.101 OA 
BRANCH  18  19
HETATM   19  C   UNL     1      -9.022   4.604  66.753  1.00  0.00    -0.112 C  
BRANCH  19  20
HETATM   20  C   UNL     1      -9.320   3.447  67.705  1.00  0.00    -0.199 C  
BRANCH  20  21
HETATM   21  O   UNL     1      -9.917   3.961  68.900  1.00  0.00    -0.020 OA 
BRANCH  21  22
HETATM   22  C   UNL     1      -9.318   3.411  70.070  1.00  0.00    -0.171 C  
BRANCH  22  23
HETATM   23  C   UNL     1      -9.344   4.454  71.180  1.00  0.00    -0.148 C  
BRANCH  23  24
HETATM   24  O   UNL     1      -8.826   5.688  70.681  1.00  0.00    -0.135 OA 
BRANCH  24  25
HETATM   25  C   UNL     1      -8.048   6.364  71.670  1.00  0.00    -0.109 C  
HETATM   26  C   UNL     1      -8.515   7.804  71.781  1.00  0.00    -0.112 C  
HETATM   27  F   UNL     1      -7.772   8.446  72.721  1.00  0.00    -0.154 F  
ENDBRANCH  24  25
ENDBRANCH  23  24
ENDBRANCH  22  23
ENDBRANCH  21  22
ENDBRANCH  20  21
ENDBRANCH  19  20
ENDBRANCH  18  19
ENDBRANCH  15  18
ENDBRANCH  11  12
ENDBRANCH   7  10
ENDBRANCH   1   4
TORSDOF 11
ENDMDL
MODEL      163
REMARK 921   NORMALIZED FREE ENERGY PREDICTED BY IDOCK:   -3.50 KCAL/MOL
REMARK 922        TOTAL FREE ENERGY PREDICTED BY IDOCK:   -6.61 KCAL/MOL
REMARK 923 INTER-LIGAND FREE ENERGY PREDICTED BY IDOCK:   -6.18 KCAL/MOL
REMARK 924 INTRA-LIGAND FREE ENERGY PREDICTED BY IDOCK:   -0.43 KCAL/MOL
REMARK 927      BINDING AFFINITY PREDICTED BY RF-SCORE:    0.00 PKD
ROOT
HETATM    1  N   UNL     1     -11.337  14.253  63.956  1.00  0.00    -0.566 NA 
HETATM    2  H   UNL     1     -11.750  14.277  63.024  1.00  0.00     0.000 HD 
HETATM    3  C   UNL     1     -11.268  15.458  64.769  1.00  0.00    -0.395 C  
ENDROOT
BRANCH   1   4
HETATM    4  C   UNL     1     -10.826  13.061  64.478  1.00  0.00    -0.372 A  
HETATM    5  C   UNL     1     -10.745  11.865  63.761  1.00  0.00    -0.476 A  
HETATM    6  C   UNL     1     -10.242  10.704  64.358  1.00  0.00    -0.400 A  
HETATM    7  C   UNL     1      -9.771  10.721  65.676  1.00  0.00    -0.287 A  
HETATM    8  C   UNL     1      -9.793  11.932  66.374  1.00  0.00    -0.234 A  
HETATM    9  C   UNL     1     -10.294  13.090  65.771  1.00  0.00    -0.296 A  
BRANCH   7  10
HETATM   10  C   UNL     1      -9.355   9.455  66.296  1.00  0.00    -0.253 C  
HETATM   11  C   UNL     1      -9.987   8.283  66.125  1.00  0.00    -0.061 C  
BRANCH  11  12
HETATM   12  C   UNL     1      -9.539   7.014  66.712  1.00  0.00    -0.221 A  
HETATM   13  C   UNL     1      -8.219   6.754  67.076  1.00  0.00    -0.113 A  
HETATM   14  N   UNL     1      -7.773   5.584  67.592  1.00  0.00    -0.092 NA 
HETATM   15  C   UNL     1      -8.681   4.597  67.720  1.00  0.00    -0.104 A  
HETATM   16  C   UNL     1     -10.444   5.962  66.863  1.00  0.00    -0.349 A  
HETATM   17  C   UNL     1     -10.014   4.731  67.365  1.00  0.00    -0.204 A  
BRANCH  15  18
HETATM   18  O   UNL     1      -8.293   3.363  68.196  1.00  0.00    -0.080 OA 
BRANCH  18  19
HETATM   19  C   UNL     1      -9.233   2.813  69.128  1.00  0.00    -0.148 C  
BRANCH  19  20
HETATM   20  C   UNL     1      -9.389   3.775  70.304  1.00  0.00    -0.168 C  
BRANCH  20  21
HETATM   21  O   UNL     1      -8.262   3.642  71.175  1.00  0.00    -0.065 OA 
BRANCH  21  22
HETATM   22  C   UNL     1      -7.819   4.904  71.666  1.00  0.00    -0.106 C  
BRANCH  22  23
HETATM   23  C   UNL     1      -8.994   5.876  71.668  1.00  0.00    -0.139 C  
BRANCH  23  24
HETATM   24  O   UNL     1      -8.987   6.628  70.454  1.00  0.00    -0.150 OA 
BRANCH  24  25
HETATM   25  C   UNL     1     -10.222   7.320  70.264  1.00  0.00    -0.199 C  
HETATM   26  C   UNL     1     -11.344   6.543  70.929  1.00  0.00    -0.337 C  
HETATM   27  F   UNL     1     -12.518   7.202  70.745  1.00  0.00    -0.367 F  
ENDBRANCH  24  25
ENDBRANCH  23  24
ENDBRANCH  22  23
ENDBRANCH  21  22
ENDBRANCH  20  21
ENDBRANCH  19  20
ENDBRANCH  18  19
ENDBRANCH  15  18
ENDBRANCH  11  12
ENDBRANCH   7  10
ENDBRANCH   1   4
TORSDOF 11
ENDMDL
MODEL      164
REMARK 921   NORMALIZED FREE ENERGY PREDICTED BY IDOCK:   -3.50 KCAL/MOL
REMARK 922        TOTAL FREE ENERGY PREDICTED BY IDOCK:   -6.61 KCAL/MOL
REMARK 923 INTER-LIGAND FREE ENERGY PREDICTED BY IDOCK:   -5.77 KCAL/MOL
REMARK 924 INTRA-LIGAND FREE ENERGY PREDICTED BY IDOCK:   -0.84 KCAL/MOL
REMARK 927      BINDING AFFINITY PREDICTED BY RF-SCORE:    0.00 PKD
ROOT
HETATM    1  N   UNL     1     -13.394  14.205  72.309  1.00  0.00    -0.418 NA 
HETATM    2  H   UNL     1     -13.044  14.386  73.250  1.00  0.00     0.000 HD 
HETATM    3  C   UNL     1     -14.404  15.067  71.716  1.00  0.00    -0.580 C  
ENDROOT
BRANCH   1   4
HETATM    4  C   UNL     1     -12.912  13.125  71.565  1.00  0.00    -0.321 A  
HETATM    5  C   UNL     1     -13.154  11.786  71.883  1.00  0.00    -0.482 A  
HETATM    6  C   UNL     1     -12.618  10.756  71.102  1.00  0.00    -0.532 A  
HETATM    7  C   UNL     1     -11.858  11.040  69.962  1.00  0.00    -0.435 A  
HETATM    8  C   UNL     1     -11.667  12.379  69.607  1.00  0.00    -0.377 A  
HETATM    9  C   UNL     1     -12.208  13.405  70.390  1.00  0.00    -0.415 A  
BRANCH   7  10
HETATM   10  C   UNL     1     -11.225   9.930  69.238  1.00  0.00    -0.174 C  
HETATM   11  C   UNL     1      -9.980   9.963  68.736  1.00  0.00    -0.183 C  
BRANCH  11  12
HETATM   12  C   UNL     1      -9.338   8.834  68.052  1.00  0.00    -0.153 A  
HETATM   13  C   UNL     1      -9.998   8.000  67.153  1.00  0.00    -0.235 A  
HETATM   14  N   UNL     1      -9.440   6.934  66.530  1.00  0.00    -0.169 NA 
HETATM   15  C   UNL     1      -8.160   6.655  66.846  1.00  0.00    -0.113 A  
HETATM   16  C   UNL     1      -8.014   8.505  68.348  1.00  0.00    -0.118 A  
HETATM   17  C   UNL     1      -7.413   7.396  67.747  1.00  0.00    -0.101 A  
BRANCH  15  18
HETATM   18  O   UNL     1      -7.537   5.559  66.287  1.00  0.00    -0.088 OA 
BRANCH  18  19
HETATM   19  C   UNL     1      -6.469   5.059  67.101  1.00  0.00    -0.049 C  
BRANCH  19  20
HETATM   20  C   UNL     1      -6.685   3.567  67.345  1.00  0.00    -0.042 C  
BRANCH  20  21
HETATM   21  O   UNL     1      -8.016   3.355  67.826  1.00  0.00    -0.078 OA 
BRANCH  21  22
HETATM   22  C   UNL     1      -8.171   3.802  69.170  1.00  0.00    -0.060 C  
BRANCH  22  23
HETATM   23  C   UNL     1      -9.656   3.874  69.502  1.00  0.00    -0.178 C  
BRANCH  23  24
HETATM   24  O   UNL     1      -9.817   4.275  70.863  1.00  0.00    -0.188 OA 
BRANCH  24  25
HETATM   25  C   UNL     1      -8.782   3.738  71.689  1.00  0.00    -0.098 C  
HETATM   26  C   UNL     1      -8.170   4.852  72.518  1.00  0.00    -0.115 C  
HETATM   27  F   UNL     1      -7.184   4.339  73.301  1.00  0.00    -0.064 F  
ENDBRANCH  24  25
ENDBRANCH  23  24
ENDBRANCH  22  23
ENDBRANCH  21  22
ENDBRANCH  20  21
ENDBRANCH  19  20
ENDBRANCH  18  19
ENDBRANCH  15  18
ENDBRANCH  11  12
ENDBRANCH   7  10
ENDBRANCH   1   4
TORSDOF 11
ENDMDL
MODEL      165
REMARK 921   NORMALIZED FREE ENERGY PREDICTED BY IDOCK:   -3.48 KCAL/MOL
REMARK 922        TOTAL FREE ENERGY PREDICTED BY IDOCK:   -6.58 KCAL/MOL
REMARK 923 INTER-LIGAND FREE ENERGY PREDICTED BY IDOCK:   -5.60 KCAL/MOL
REMARK 924 INTRA-LIGAND FREE ENERGY PREDICTED BY IDOCK:   -0.98 KCAL/MOL
REMARK 927      BINDING AFFINITY PREDICTED BY RF-SCORE:    0.00 PKD
ROOT
HETATM    1  N   UNL     1     -12.970  13.845  72.149  1.00  0.00    -0.353 NA 
HETATM    2  H   UNL     1     -12.380  13.844  72.981  1.00  0.00     0.000 HD 
HETATM    3  C   UNL     1     -14.287  14.462  72.175  1.00  0.00    -0.519 C  
ENDROOT
BRANCH   1   4
HETATM    4  C   UNL     1     -12.528  13.253  70.963  1.00  0.00    -0.336 A  
HETATM    5  C   UNL     1     -12.339  11.879  70.797  1.00  0.00    -0.416 A  
HETATM    6  C   UNL     1     -11.872  11.361  69.585  1.00  0.00    -0.431 A  
HETATM    7  C   UNL     1     -11.619  12.201  68.495  1.00  0.00    -0.366 A  
HETATM    8  C   UNL     1     -11.867  13.569  68.639  1.00  0.00    -0.404 A  
HETATM    9  C   UNL     1     -12.338  14.081  69.852  1.00  0.00    -0.367 A  
BRANCH   7  10
HETATM   10  C   UNL     1     -11.025  11.626  67.280  1.00  0.00    -0.318 C  
HETATM   11  C   UNL     1      -9.708  11.450  67.089  1.00  0.00    -0.200 C  
BRANCH  11  12
HETATM   12  C   UNL     1      -9.125  10.834  65.891  1.00  0.00    -0.208 A  
HETATM   13  C   UNL     1      -9.872  10.453  64.778  1.00  0.00    -0.340 A  
HETATM   14  N   UNL     1      -9.366   9.857  63.672  1.00  0.00    -0.252 NA 
HETATM   15  C   UNL     1      -8.046   9.587  63.684  1.00  0.00    -0.151 A  
HETATM   16  C   UNL     1      -7.763  10.535  65.857  1.00  0.00    -0.148 A  
HETATM   17  C   UNL     1      -7.210   9.894  64.745  1.00  0.00    -0.136 A  
BRANCH  15  18
HETATM   18  O   UNL     1      -7.466   8.942  62.612  1.00  0.00    -0.100 OA 
BRANCH  18  19
HETATM   19  C   UNL     1      -6.915   7.668  62.970  1.00  0.00    -0.072 C  
BRANCH  19  20
HETATM   20  C   UNL     1      -7.921   6.573  62.621  1.00  0.00    -0.098 C  
BRANCH  20  21
HETATM   21  O   UNL     1      -7.924   5.587  63.657  1.00  0.00    -0.097 OA 
BRANCH  21  22
HETATM   22  C   UNL     1      -8.284   6.145  64.918  1.00  0.00    -0.125 C  
BRANCH  22  23
HETATM   23  C   UNL     1      -7.600   5.352  66.026  1.00  0.00    -0.087 C  
BRANCH  23  24
HETATM   24  O   UNL     1      -6.207   5.667  66.041  1.00  0.00    -0.032 OA 
BRANCH  24  25
HETATM   25  C   UNL     1      -5.407   4.484  66.092  1.00  0.00    -0.009 C  
HETATM   26  C   UNL     1      -6.296   3.285  66.368  1.00  0.00    -0.028 C  
HETATM   27  F   UNL     1      -5.533   2.162  66.418  1.00  0.00    -0.011 F  
ENDBRANCH  24  25
ENDBRANCH  23  24
ENDBRANCH  22  23
ENDBRANCH  21  22
ENDBRANCH  20  21
ENDBRANCH  19  20
ENDBRANCH  18  19
ENDBRANCH  15  18
ENDBRANCH  11  12
ENDBRANCH   7  10
ENDBRANCH   1   4
TORSDOF 11
ENDMDL
MODEL      166
REMARK 921   NORMALIZED FREE ENERGY PREDICTED BY IDOCK:   -3.46 KCAL/MOL
REMARK 922        TOTAL FREE ENERGY PREDICTED BY IDOCK:   -6.55 KCAL/MOL
REMARK 923 INTER-LIGAND FREE ENERGY PREDICTED BY IDOCK:   -5.65 KCAL/MOL
REMARK 924 INTRA-LIGAND FREE ENERGY PREDICTED BY IDOCK:   -0.90 KCAL/MOL
REMARK 927      BINDING AFFINITY PREDICTED BY RF-SCORE:    0.00 PKD
ROOT
HETATM    1  N   UNL     1     -11.883  14.077  65.428  1.00  0.00    -0.344 NA 
HETATM    2  H   UNL     1     -12.526  13.992  64.641  1.00  0.00     0.000 HD 
HETATM    3  C   UNL     1     -11.111  15.294  65.628  1.00  0.00    -0.308 C  
ENDROOT
BRANCH   1   4
HETATM    4  C   UNL     1     -11.725  13.025  66.335  1.00  0.00    -0.390 A  
HETATM    5  C   UNL     1     -12.106  13.086  67.677  1.00  0.00    -0.262 A  
HETATM    6  C   UNL     1     -11.896  11.999  68.532  1.00  0.00    -0.369 A  
HETATM    7  C   UNL     1     -11.334  10.809  68.056  1.00  0.00    -0.378 A  
HETATM    8  C   UNL     1     -11.010  10.724  66.699  1.00  0.00    -0.173 A  
HETATM    9  C   UNL     1     -11.226  11.813  65.848  1.00  0.00    -0.345 A  
BRANCH   7  10
HETATM   10  C   UNL     1     -11.031   9.736  69.012  1.00  0.00    -0.193 C  
HETATM   11  C   UNL     1     -11.853   9.344  70.000  1.00  0.00     0.107 C  
BRANCH  11  12
HETATM   12  C   UNL     1     -11.563   8.242  70.924  1.00  0.00    -0.282 A  
HETATM   13  C   UNL     1     -11.271   8.423  72.274  1.00  0.00    -0.376 A  
HETATM   14  N   UNL     1     -10.971   7.428  73.143  1.00  0.00    -0.374 NA 
HETATM   15  C   UNL     1     -10.919   6.181  72.635  1.00  0.00    -0.256 A  
HETATM   16  C   UNL     1     -11.497   6.933  70.444  1.00  0.00    -0.387 A  
HETATM   17  C   UNL     1     -11.163   5.884  71.304  1.00  0.00    -0.280 A  
BRANCH  15  18
HETATM   18  O   UNL     1     -10.576   5.121  73.448  1.00  0.00    -0.207 OA 
BRANCH  18  19
HETATM   19  C   UNL     1      -9.305   5.304  74.083  1.00  0.00    -0.126 C  
BRANCH  19  20
HETATM   20  C   UNL     1      -8.300   5.812  73.051  1.00  0.00    -0.118 C  
BRANCH  20  21
HETATM   21  O   UNL     1      -7.799   7.085  73.468  1.00  0.00    -0.092 OA 
BRANCH  21  22
HETATM   22  C   UNL     1      -7.407   7.890  72.359  1.00  0.00    -0.091 C  
BRANCH  22  23
HETATM   23  C   UNL     1      -7.748   7.157  71.068  1.00  0.00    -0.090 C  
BRANCH  23  24
HETATM   24  O   UNL     1      -7.197   7.871  69.960  1.00  0.00    -0.060 OA 
BRANCH  24  25
HETATM   25  C   UNL     1      -7.187   9.279  70.202  1.00  0.00    -0.083 C  
HETATM   26  C   UNL     1      -7.284  10.018  68.880  1.00  0.00    -0.077 C  
HETATM   27  F   UNL     1      -7.272  11.357  69.113  1.00  0.00    -0.097 F  
ENDBRANCH  24  25
ENDBRANCH  23  24
ENDBRANCH  22  23
ENDBRANCH  21  22
ENDBRANCH  20  21
ENDBRANCH  19  20
ENDBRANCH  18  19
ENDBRANCH  15  18
ENDBRANCH  11  12
ENDBRANCH   7  10
ENDBRANCH   1   4
TORSDOF 11
ENDMDL
MODEL      167
REMARK 921   NORMALIZED FREE ENERGY PREDICTED BY IDOCK:   -3.42 KCAL/MOL
REMARK 922        TOTAL FREE ENERGY PREDICTED BY IDOCK:   -6.47 KCAL/MOL
REMARK 923 INTER-LIGAND FREE ENERGY PREDICTED BY IDOCK:   -5.69 KCAL/MOL
REMARK 924 INTRA-LIGAND FREE ENERGY PREDICTED BY IDOCK:   -0.78 KCAL/MOL
REMARK 927      BINDING AFFINITY PREDICTED BY RF-SCORE:    0.00 PKD
ROOT
HETATM    1  N   UNL     1      -5.623   3.638  67.274  1.00  0.00    -0.021 NA 
HETATM    2  H   UNL     1      -4.697   3.535  67.689  1.00  0.00     0.000 HD 
HETATM    3  C   UNL     1      -6.170   2.600  66.415  1.00  0.00    -0.024 C  
ENDROOT
BRANCH   1   4
HETATM    4  C   UNL     1      -6.390   4.780  67.520  1.00  0.00    -0.040 A  
HETATM    5  C   UNL     1      -7.108   5.466  66.537  1.00  0.00    -0.069 A  
HETATM    6  C   UNL     1      -7.837   6.618  66.855  1.00  0.00    -0.108 A  
HETATM    7  C   UNL     1      -7.896   7.089  68.171  1.00  0.00    -0.118 A  
HETATM    8  C   UNL     1      -7.229   6.369  69.166  1.00  0.00    -0.090 A  
HETATM    9  C   UNL     1      -6.505   5.216  68.843  1.00  0.00    -0.036 A  
BRANCH   7  10
HETATM   10  C   UNL     1      -8.581   8.362  68.438  1.00  0.00    -0.139 C  
HETATM   11  C   UNL     1      -9.537   8.888  67.654  1.00  0.00    -0.181 C  
BRANCH  11  12
HETATM   12  C   UNL     1     -10.248  10.137  67.950  1.00  0.00    -0.217 A  
HETATM   13  C   UNL     1     -10.607  10.535  69.237  1.00  0.00    -0.236 A  
HETATM   14  N   UNL     1     -11.289  11.666  69.536  1.00  0.00    -0.266 NA 
HETATM   15  C   UNL     1     -11.672  12.432  68.496  1.00  0.00    -0.326 A  
HETATM   16  C   UNL     1     -10.666  10.963  66.906  1.00  0.00    -0.318 A  
HETATM   17  C   UNL     1     -11.396  12.123  67.174  1.00  0.00    -0.393 A  
BRANCH  15  18
HETATM   18  O   UNL     1     -12.408  13.577  68.719  1.00  0.00    -0.235 OA 
BRANCH  18  19
HETATM   19  C   UNL     1     -11.802  14.439  69.691  1.00  0.00    -0.321 C  
BRANCH  19  20
HETATM   20  C   UNL     1     -11.748  15.859  69.132  1.00  0.00    -0.363 C  
BRANCH  20  21
HETATM   21  O   UNL     1     -10.527  16.481  69.544  1.00  0.00    -0.298 OA 
BRANCH  21  22
HETATM   22  C   UNL     1     -10.230  17.635  68.762  1.00  0.00    -0.373 C  
BRANCH  22  23
HETATM   23  C   UNL     1      -8.983  17.365  67.929  1.00  0.00    -0.251 C  
BRANCH  23  24
HETATM   24  O   UNL     1      -9.159  16.154  67.195  1.00  0.00    -0.196 OA 
BRANCH  24  25
HETATM   25  C   UNL     1      -9.705  16.405  65.899  1.00  0.00    -0.294 C  
HETATM   26  C   UNL     1     -10.907  15.505  65.676  1.00  0.00    -0.346 C  
HETATM   27  F   UNL     1     -11.424  15.745  64.442  1.00  0.00    -0.426 F  
ENDBRANCH  24  25
ENDBRANCH  23  24
ENDBRANCH  22  23
ENDBRANCH  21  22
ENDBRANCH  20  21
ENDBRANCH  19  20
ENDBRANCH  18  19
ENDBRANCH  15  18
ENDBRANCH  11  12
ENDBRANCH   7  10
ENDBRANCH   1   4
TORSDOF 11
ENDMDL
MODEL      168
REMARK 921   NORMALIZED FREE ENERGY PREDICTED BY IDOCK:   -3.39 KCAL/MOL
REMARK 922        TOTAL FREE ENERGY PREDICTED BY IDOCK:   -6.43 KCAL/MOL
REMARK 923 INTER-LIGAND FREE ENERGY PREDICTED BY IDOCK:   -5.57 KCAL/MOL
REMARK 924 INTRA-LIGAND FREE ENERGY PREDICTED BY IDOCK:   -0.87 KCAL/MOL
REMARK 927      BINDING AFFINITY PREDICTED BY RF-SCORE:    0.00 PKD
ROOT
HETATM    1  N   UNL     1      -9.580   5.768  65.673  1.00  0.00    -0.368 NA 
HETATM    2  H   UNL     1      -9.771   5.717  64.672  1.00  0.00     0.000 HD 
HETATM    3  C   UNL     1      -9.731   4.593  66.517  1.00  0.00    -0.201 C  
ENDROOT
BRANCH   1   4
HETATM    4  C   UNL     1      -9.168   6.968  66.259  1.00  0.00    -0.126 A  
HETATM    5  C   UNL     1      -9.373   7.294  67.602  1.00  0.00    -0.139 A  
HETATM    6  C   UNL     1      -8.952   8.526  68.113  1.00  0.00    -0.142 A  
HETATM    7  C   UNL     1      -8.280   9.448  67.302  1.00  0.00    -0.117 A  
HETATM    8  C   UNL     1      -8.019   9.098  65.974  1.00  0.00    -0.103 A  
HETATM    9  C   UNL     1      -8.440   7.863  65.469  1.00  0.00    -0.153 A  
BRANCH   7  10
HETATM   10  C   UNL     1      -7.956  10.771  67.852  1.00  0.00    -0.110 C  
HETATM   11  C   UNL     1      -7.292  11.729  67.184  1.00  0.00    -0.146 C  
BRANCH  11  12
HETATM   12  C   UNL     1      -7.010  13.064  67.724  1.00  0.00    -0.143 A  
HETATM   13  C   UNL     1      -5.920  13.351  68.544  1.00  0.00    -0.088 A  
HETATM   14  N   UNL     1      -5.651  14.565  69.079  1.00  0.00    -0.084 NA 
HETATM   15  C   UNL     1      -6.537  15.547  68.820  1.00  0.00    -0.108 A  
HETATM   16  C   UNL     1      -7.899  14.112  67.483  1.00  0.00    -0.207 A  
HETATM   17  C   UNL     1      -7.670  15.372  68.043  1.00  0.00    -0.132 A  
BRANCH  15  18
HETATM   18  O   UNL     1      -6.355  16.800  69.367  1.00  0.00    -0.199 OA 
BRANCH  18  19
HETATM   19  C   UNL     1      -7.237  17.779  68.804  1.00  0.00    -0.271 C  
BRANCH  19  20
HETATM   20  C   UNL     1      -6.407  18.912  68.205  1.00  0.00    -0.218 C  
BRANCH  20  21
HETATM   21  O   UNL     1      -7.047  19.388  67.017  1.00  0.00    -0.206 OA 
BRANCH  21  22
HETATM   22  C   UNL     1      -7.973  20.434  67.296  1.00  0.00    -0.335 C  
BRANCH  22  23
HETATM   23  C   UNL     1      -9.348  20.034  66.776  1.00  0.00    -0.392 C  
BRANCH  23  24
HETATM   24  O   UNL     1      -9.226  18.859  65.974  1.00  0.00    -0.468 OA 
BRANCH  24  25
HETATM   25  C   UNL     1     -10.237  17.902  66.296  1.00  0.00    -0.363 C  
HETATM   26  C   UNL     1     -10.428  17.857  67.801  1.00  0.00    -0.400 C  
HETATM   27  F   UNL     1     -11.388  16.945  68.104  1.00  0.00    -0.349 F  
ENDBRANCH  24  25
ENDBRANCH  23  24
ENDBRANCH  22  23
ENDBRANCH  21  22
ENDBRANCH  20  21
ENDBRANCH  19  20
ENDBRANCH  18  19
ENDBRANCH  15  18
ENDBRANCH  11  12
ENDBRANCH   7  10
ENDBRANCH   1   4
TORSDOF 11
ENDMDL
MODEL      169
REMARK 921   NORMALIZED FREE ENERGY PREDICTED BY IDOCK:   -3.39 KCAL/MOL
REMARK 922        TOTAL FREE ENERGY PREDICTED BY IDOCK:   -6.42 KCAL/MOL
REMARK 923 INTER-LIGAND FREE ENERGY PREDICTED BY IDOCK:   -5.42 KCAL/MOL
REMARK 924 INTRA-LIGAND FREE ENERGY PREDICTED BY IDOCK:   -1.00 KCAL/MOL
REMARK 927      BINDING AFFINITY PREDICTED BY RF-SCORE:    0.00 PKD
ROOT
HETATM    1  N   UNL     1      -9.708   4.614  66.214  1.00  0.00    -0.181 NA 
HETATM    2  H   UNL     1      -9.183   3.876  66.683  1.00  0.00     0.000 HD 
HETATM    3  C   UNL     1     -10.574   4.306  65.087  1.00  0.00    -0.144 C  
ENDROOT
BRANCH   1   4
HETATM    4  C   UNL     1      -9.608   5.941  66.642  1.00  0.00    -0.153 A  
HETATM    5  C   UNL     1     -10.706   6.766  66.893  1.00  0.00    -0.394 A  
HETATM    6  C   UNL     1     -10.528   8.094  67.298  1.00  0.00    -0.379 A  
HETATM    7  C   UNL     1      -9.246   8.616  67.499  1.00  0.00    -0.151 A  
HETATM    8  C   UNL     1      -8.147   7.773  67.309  1.00  0.00    -0.119 A  
HETATM    9  C   UNL     1      -8.331   6.446  66.908  1.00  0.00    -0.110 A  
BRANCH   7  10
HETATM   10  C   UNL     1      -9.104  10.044  67.817  1.00  0.00    -0.137 C  
HETATM   11  C   UNL     1      -7.979  10.755  67.632  1.00  0.00    -0.110 C  
BRANCH  11  12
HETATM   12  C   UNL     1      -7.858  12.190  67.910  1.00  0.00    -0.147 A  
HETATM   13  C   UNL     1      -8.552  13.174  67.207  1.00  0.00    -0.210 A  
HETATM   14  N   UNL     1      -8.438  14.506  67.422  1.00  0.00    -0.193 NA 
HETATM   15  C   UNL     1      -7.555  14.891  68.364  1.00  0.00    -0.113 A  
HETATM   16  C   UNL     1      -6.956  12.637  68.876  1.00  0.00    -0.086 A  
HETATM   17  C   UNL     1      -6.790  14.005  69.106  1.00  0.00    -0.112 A  
BRANCH  15  18
HETATM   18  O   UNL     1      -7.351  16.233  68.609  1.00  0.00    -0.160 OA 
BRANCH  18  19
HETATM   19  C   UNL     1      -6.584  16.869  67.578  1.00  0.00    -0.144 C  
BRANCH  19  20
HETATM   20  C   UNL     1      -7.446  17.933  66.901  1.00  0.00    -0.200 C  
BRANCH  20  21
HETATM   21  O   UNL     1      -7.615  19.040  67.792  1.00  0.00    -0.239 OA 
BRANCH  21  22
HETATM   22  C   UNL     1      -8.959  19.151  68.250  1.00  0.00    -0.336 C  
BRANCH  22  23
HETATM   23  C   UNL     1      -9.895  18.583  67.190  1.00  0.00    -0.319 C  
BRANCH  23  24
HETATM   24  O   UNL     1     -10.858  17.735  67.817  1.00  0.00    -0.371 OA 
BRANCH  24  25
HETATM   25  C   UNL     1     -10.422  17.321  69.113  1.00  0.00    -0.263 C  
HETATM   26  C   UNL     1     -11.064  15.990  69.459  1.00  0.00    -0.333 C  
HETATM   27  F   UNL     1     -10.649  15.599  70.693  1.00  0.00    -0.318 F  
ENDBRANCH  24  25
ENDBRANCH  23  24
ENDBRANCH  22  23
ENDBRANCH  21  22
ENDBRANCH  20  21
ENDBRANCH  19  20
ENDBRANCH  18  19
ENDBRANCH  15  18
ENDBRANCH  11  12
ENDBRANCH   7  10
ENDBRANCH   1   4
TORSDOF 11
ENDMDL
MODEL      170
REMARK 921   NORMALIZED FREE ENERGY PREDICTED BY IDOCK:   -3.37 KCAL/MOL
REMARK 922        TOTAL FREE ENERGY PREDICTED BY IDOCK:   -6.40 KCAL/MOL
REMARK 923 INTER-LIGAND FREE ENERGY PREDICTED BY IDOCK:   -5.77 KCAL/MOL
REMARK 924 INTRA-LIGAND FREE ENERGY PREDICTED BY IDOCK:   -0.63 KCAL/MOL
REMARK 927      BINDING AFFINITY PREDICTED BY RF-SCORE:    0.00 PKD
ROOT
HETATM    1  N   UNL     1      -5.799   3.205  67.312  1.00  0.00    -0.022 NA 
HETATM    2  H   UNL     1      -5.030   3.259  67.980  1.00  0.00     0.000 HD 
HETATM    3  C   UNL     1      -6.149   1.940  66.685  1.00  0.00    -0.023 C  
ENDROOT
BRANCH   1   4
HETATM    4  C   UNL     1      -6.536   4.345  66.982  1.00  0.00    -0.046 A  
HETATM    5  C   UNL     1      -6.628   4.871  65.691  1.00  0.00    -0.041 A  
HETATM    6  C   UNL     1      -7.368   6.031  65.441  1.00  0.00    -0.076 A  
HETATM    7  C   UNL     1      -8.068   6.672  66.469  1.00  0.00    -0.111 A  
HETATM    8  C   UNL     1      -8.028   6.113  67.749  1.00  0.00    -0.106 A  
HETATM    9  C   UNL     1      -7.289   4.950  67.993  1.00  0.00    -0.070 A  
BRANCH   7  10
HETATM   10  C   UNL     1      -8.740   7.947  66.181  1.00  0.00    -0.181 C  
HETATM   11  C   UNL     1      -8.677   8.589  65.004  1.00  0.00    -0.124 C  
BRANCH  11  12
HETATM   12  C   UNL     1      -9.387   9.840  64.709  1.00  0.00    -0.327 A  
HETATM   13  C   UNL     1     -10.027  10.610  65.678  1.00  0.00    -0.268 A  
HETATM   14  N   UNL     1     -10.714  11.752  65.431  1.00  0.00    -0.275 NA 
HETATM   15  C   UNL     1     -10.806  12.133  64.142  1.00  0.00    -0.360 A  
HETATM   16  C   UNL     1      -9.509  10.274  63.389  1.00  0.00    -0.340 A  
HETATM   17  C   UNL     1     -10.235  11.431  63.093  1.00  0.00    -0.380 A  
BRANCH  15  18
HETATM   18  O   UNL     1     -11.526  13.259  63.808  1.00  0.00    -0.390 OA 
BRANCH  18  19
HETATM   19  C   UNL     1     -12.056  13.934  64.956  1.00  0.00    -0.406 C  
BRANCH  19  20
HETATM   20  C   UNL     1     -11.188  15.152  65.263  1.00  0.00    -0.358 C  
BRANCH  20  21
HETATM   21  O   UNL     1     -10.935  15.209  66.670  1.00  0.00    -0.317 OA 
BRANCH  21  22
HETATM   22  C   UNL     1     -10.499  16.502  67.079  1.00  0.00    -0.289 C  
BRANCH  22  23
HETATM   23  C   UNL     1      -9.678  16.370  68.357  1.00  0.00    -0.229 C  
BRANCH  23  24
HETATM   24  O   UNL     1      -8.347  16.826  68.112  1.00  0.00    -0.189 OA 
BRANCH  24  25
HETATM   25  C   UNL     1      -8.119  18.107  68.701  1.00  0.00    -0.288 C  
HETATM   26  C   UNL     1      -7.524  19.041  67.663  1.00  0.00    -0.229 C  
HETATM   27  F   UNL     1      -7.306  20.258  68.227  1.00  0.00    -0.328 F  
ENDBRANCH  24  25
ENDBRANCH  23  24
ENDBRANCH  22  23
ENDBRANCH  21  22
ENDBRANCH  20  21
ENDBRANCH  19  20
ENDBRANCH  18  19
ENDBRANCH  15  18
ENDBRANCH  11  12
ENDBRANCH   7  10
ENDBRANCH   1   4
TORSDOF 11
ENDMDL
MODEL      171
REMARK 921   NORMALIZED FREE ENERGY PREDICTED BY IDOCK:   -3.32 KCAL/MOL
REMARK 922        TOTAL FREE ENERGY PREDICTED BY IDOCK:   -6.32 KCAL/MOL
REMARK 923 INTER-LIGAND FREE ENERGY PREDICTED BY IDOCK:   -5.43 KCAL/MOL
REMARK 924 INTRA-LIGAND FREE ENERGY PREDICTED BY IDOCK:   -0.89 KCAL/MOL
REMARK 927      BINDING AFFINITY PREDICTED BY RF-SCORE:    0.00 PKD
ROOT
HETATM    1  N   UNL     1      -8.958   4.175  73.063  1.00  0.00    -0.108 NA 
HETATM    2  H   UNL     1      -8.805   3.200  72.808  1.00  0.00     0.000 HD 
HETATM    3  C   UNL     1      -9.256   4.544  74.438  1.00  0.00    -0.109 C  
ENDROOT
BRANCH   1   4
HETATM    4  C   UNL     1      -8.886   5.184  72.098  1.00  0.00    -0.129 A  
HETATM    5  C   UNL     1      -7.756   5.975  71.877  1.00  0.00    -0.098 A  
HETATM    6  C   UNL     1      -7.765   6.982  70.906  1.00  0.00    -0.095 A  
HETATM    7  C   UNL     1      -8.892   7.198  70.106  1.00  0.00    -0.145 A  
HETATM    8  C   UNL     1     -10.002   6.367  70.283  1.00  0.00    -0.199 A  
HETATM    9  C   UNL     1      -9.986   5.358  71.253  1.00  0.00    -0.253 A  
BRANCH   7  10
HETATM   10  C   UNL     1      -8.895   8.337  69.178  1.00  0.00    -0.143 C  
HETATM   11  C   UNL     1      -9.676   8.426  68.089  1.00  0.00    -0.175 C  
BRANCH  11  12
HETATM   12  C   UNL     1      -9.706   9.587  67.191  1.00  0.00    -0.221 A  
HETATM   13  C   UNL     1      -9.495  10.897  67.615  1.00  0.00    -0.159 A  
HETATM   14  N   UNL     1      -9.545  11.989  66.815  1.00  0.00    -0.203 NA 
HETATM   15  C   UNL     1      -9.861  11.775  65.523  1.00  0.00    -0.234 A  
HETATM   16  C   UNL     1     -10.029   9.414  65.844  1.00  0.00    -0.327 A  
HETATM   17  C   UNL     1     -10.119  10.520  64.995  1.00  0.00    -0.390 A  
BRANCH  15  18
HETATM   18  O   UNL     1      -9.975  12.841  64.657  1.00  0.00    -0.232 OA 
BRANCH  18  19
HETATM   19  C   UNL     1      -9.944  14.104  65.333  1.00  0.00    -0.291 C  
BRANCH  19  20
HETATM   20  C   UNL     1     -11.255  14.843  65.070  1.00  0.00    -0.404 C  
BRANCH  20  21
HETATM   21  O   UNL     1     -12.299  14.237  65.838  1.00  0.00    -0.430 OA 
BRANCH  21  22
HETATM   22  C   UNL     1     -12.045  14.322  67.238  1.00  0.00    -0.355 C  
BRANCH  22  23
HETATM   23  C   UNL     1     -11.694  15.762  67.593  1.00  0.00     0.084 C  
BRANCH  23  24
HETATM   24  O   UNL     1     -11.087  15.795  68.885  1.00  0.00    -0.258 OA 
BRANCH  24  25
HETATM   25  C   UNL     1     -10.215  14.680  69.079  1.00  0.00    -0.220 C  
HETATM   26  C   UNL     1      -8.777  15.125  68.883  1.00  0.00    -0.205 C  
HETATM   27  F   UNL     1      -7.949  14.063  69.065  1.00  0.00    -0.130 F  
ENDBRANCH  24  25
ENDBRANCH  23  24
ENDBRANCH  22  23
ENDBRANCH  21  22
ENDBRANCH  20  21
ENDBRANCH  19  20
ENDBRANCH  18  19
ENDBRANCH  15  18
ENDBRANCH  11  12
ENDBRANCH   7  10
ENDBRANCH   1   4
TORSDOF 11
ENDMDL
MODEL      172
REMARK 921   NORMALIZED FREE ENERGY PREDICTED BY IDOCK:   -3.30 KCAL/MOL
REMARK 922        TOTAL FREE ENERGY PREDICTED BY IDOCK:   -6.28 KCAL/MOL
REMARK 923 INTER-LIGAND FREE ENERGY PREDICTED BY IDOCK:   -4.96 KCAL/MOL
REMARK 924 INTRA-LIGAND FREE ENERGY PREDICTED BY IDOCK:   -1.33 KCAL/MOL
REMARK 927      BINDING AFFINITY PREDICTED BY RF-SCORE:    0.00 PKD
ROOT
HETATM    1  N   UNL     1     -11.032  15.529  65.632  1.00  0.00    -0.325 NA 
HETATM    2  H   UNL     1     -11.695  15.559  64.858  1.00  0.00     0.000 HD 
HETATM    3  C   UNL     1     -10.239  16.699  65.975  1.00  0.00    -0.351 C  
ENDROOT
BRANCH   1   4
HETATM    4  C   UNL     1     -10.869  14.362  66.384  1.00  0.00    -0.314 A  
HETATM    5  C   UNL     1      -9.638  13.738  66.603  1.00  0.00    -0.295 A  
HETATM    6  C   UNL     1      -9.555  12.558  67.349  1.00  0.00    -0.192 A  
HETATM    7  C   UNL     1     -10.697  11.993  67.928  1.00  0.00    -0.243 A  
HETATM    8  C   UNL     1     -11.920  12.649  67.762  1.00  0.00    -0.303 A  
HETATM    9  C   UNL     1     -11.996  13.831  67.018  1.00  0.00    -0.452 A  
BRANCH   7  10
HETATM   10  C   UNL     1     -10.579  10.696  68.608  1.00  0.00    -0.229 C  
HETATM   11  C   UNL     1     -10.535   9.510  67.979  1.00  0.00    -0.279 C  
BRANCH  11  12
HETATM   12  C   UNL     1     -10.373   8.222  68.663  1.00  0.00    -0.225 A  
HETATM   13  C   UNL     1     -10.766   7.991  69.980  1.00  0.00    -0.244 A  
HETATM   14  N   UNL     1     -10.602   6.823  70.645  1.00  0.00    -0.218 NA 
HETATM   15  C   UNL     1      -9.975   5.834  69.979  1.00  0.00    -0.191 A  
HETATM   16  C   UNL     1      -9.729   7.168  68.014  1.00  0.00    -0.152 A  
HETATM   17  C   UNL     1      -9.516   5.957  68.678  1.00  0.00    -0.137 A  
BRANCH  15  18
HETATM   18  O   UNL     1      -9.732   4.630  70.605  1.00  0.00    -0.174 OA 
BRANCH  18  19
HETATM   19  C   UNL     1      -8.345   4.441  70.913  1.00  0.00    -0.087 C  
BRANCH  19  20
HETATM   20  C   UNL     1      -8.091   4.877  72.355  1.00  0.00    -0.111 C  
BRANCH  20  21
HETATM   21  O   UNL     1      -6.691   4.780  72.636  1.00  0.00    -0.048 OA 
BRANCH  21  22
HETATM   22  C   UNL     1      -6.246   5.837  73.482  1.00  0.00    -0.062 C  
BRANCH  22  23
HETATM   23  C   UNL     1      -6.932   7.132  73.063  1.00  0.00    -0.069 C  
BRANCH  23  24
HETATM   24  O   UNL     1      -5.949   8.154  72.898  1.00  0.00    -0.055 OA 
BRANCH  24  25
HETATM   25  C   UNL     1      -6.205   8.939  71.732  1.00  0.00    -0.072 C  
HETATM   26  C   UNL     1      -7.411   8.377  71.001  1.00  0.00    -0.069 C  
HETATM   27  F   UNL     1      -7.651   9.123  69.891  1.00  0.00    -0.059 F  
ENDBRANCH  24  25
ENDBRANCH  23  24
ENDBRANCH  22  23
ENDBRANCH  21  22
ENDBRANCH  20  21
ENDBRANCH  19  20
ENDBRANCH  18  19
ENDBRANCH  15  18
ENDBRANCH  11  12
ENDBRANCH   7  10
ENDBRANCH   1   4
TORSDOF 11
ENDMDL
MODEL      173
REMARK 921   NORMALIZED FREE ENERGY PREDICTED BY IDOCK:   -3.30 KCAL/MOL
REMARK 922        TOTAL FREE ENERGY PREDICTED BY IDOCK:   -6.27 KCAL/MOL
REMARK 923 INTER-LIGAND FREE ENERGY PREDICTED BY IDOCK:   -5.33 KCAL/MOL
REMARK 924 INTRA-LIGAND FREE ENERGY PREDICTED BY IDOCK:   -0.95 KCAL/MOL
REMARK 927      BINDING AFFINITY PREDICTED BY RF-SCORE:    0.00 PKD
ROOT
HETATM    1  N   UNL     1     -12.006  14.390  64.838  1.00  0.00    -0.406 NA 
HETATM    2  H   UNL     1     -12.846  14.387  64.260  1.00  0.00     0.000 HD 
HETATM    3  C   UNL     1     -11.125  15.548  64.860  1.00  0.00    -0.416 C  
ENDROOT
BRANCH   1   4
HETATM    4  C   UNL     1     -11.678  13.282  65.624  1.00  0.00    -0.356 A  
HETATM    5  C   UNL     1     -12.051  13.134  66.962  1.00  0.00    -0.366 A  
HETATM    6  C   UNL     1     -11.666  12.005  67.693  1.00  0.00    -0.365 A  
HETATM    7  C   UNL     1     -10.931  10.977  67.092  1.00  0.00    -0.344 A  
HETATM    8  C   UNL     1     -10.610  11.094  65.736  1.00  0.00    -0.289 A  
HETATM    9  C   UNL     1     -11.001  12.224  65.009  1.00  0.00    -0.344 A  
BRANCH   7  10
HETATM   10  C   UNL     1     -10.455   9.865  67.926  1.00  0.00    -0.282 C  
HETATM   11  C   UNL     1     -10.854   9.638  69.188  1.00  0.00    -0.212 C  
BRANCH  11  12
HETATM   12  C   UNL     1     -10.409   8.500  70.000  1.00  0.00    -0.213 A  
HETATM   13  C   UNL     1      -9.304   8.542  70.848  1.00  0.00    -0.174 A  
HETATM   14  N   UNL     1      -8.853   7.499  71.586  1.00  0.00    -0.116 NA 
HETATM   15  C   UNL     1      -9.512   6.333  71.447  1.00  0.00    -0.156 A  
HETATM   16  C   UNL     1     -11.060   7.271  69.889  1.00  0.00    -0.233 A  
HETATM   17  C   UNL     1     -10.606   6.165  70.613  1.00  0.00    -0.307 A  
BRANCH  15  18
HETATM   18  O   UNL     1      -9.085   5.215  72.131  1.00  0.00    -0.135 OA 
BRANCH  18  19
HETATM   19  C   UNL     1      -7.691   4.949  71.933  1.00  0.00    -0.103 C  
BRANCH  19  20
HETATM   20  C   UNL     1      -7.532   3.945  70.793  1.00  0.00    -0.041 C  
BRANCH  20  21
HETATM   21  O   UNL     1      -6.759   4.540  69.746  1.00  0.00    -0.035 OA 
BRANCH  21  22
HETATM   22  C   UNL     1      -7.578   4.973  68.664  1.00  0.00    -0.078 C  
BRANCH  22  23
HETATM   23  C   UNL     1      -8.528   3.846  68.277  1.00  0.00    -0.092 C  
BRANCH  23  24
HETATM   24  O   UNL     1      -7.771   2.721  67.831  1.00  0.00    -0.059 OA 
BRANCH  24  25
HETATM   25  C   UNL     1      -7.132   2.986  66.581  1.00  0.00    -0.054 C  
HETATM   26  C   UNL     1      -8.143   2.840  65.458  1.00  0.00    -0.087 C  
HETATM   27  F   UNL     1      -7.533   3.091  64.269  1.00  0.00    -0.064 F  
ENDBRANCH  24  25
ENDBRANCH  23  24
ENDBRANCH  22  23
ENDBRANCH  21  22
ENDBRANCH  20  21
ENDBRANCH  19  20
ENDBRANCH  18  19
ENDBRANCH  15  18
ENDBRANCH  11  12
ENDBRANCH   7  10
ENDBRANCH   1   4
TORSDOF 11
ENDMDL
MODEL      174
REMARK 921   NORMALIZED FREE ENERGY PREDICTED BY IDOCK:   -3.30 KCAL/MOL
REMARK 922        TOTAL FREE ENERGY PREDICTED BY IDOCK:   -6.27 KCAL/MOL
REMARK 923 INTER-LIGAND FREE ENERGY PREDICTED BY IDOCK:   -5.57 KCAL/MOL
REMARK 924 INTRA-LIGAND FREE ENERGY PREDICTED BY IDOCK:   -0.71 KCAL/MOL
REMARK 927      BINDING AFFINITY PREDICTED BY RF-SCORE:    0.00 PKD
ROOT
HETATM    1  N   UNL     1     -11.382  11.755  63.328  1.00  0.00    -0.732 NA 
HETATM    2  H   UNL     1     -11.486  11.071  62.579  1.00  0.00     0.000 HD 
HETATM    3  C   UNL     1     -11.627  13.167  63.083  1.00  0.00     0.124 C  
ENDROOT
BRANCH   1   4
HETATM    4  C   UNL     1     -11.001  11.352  64.611  1.00  0.00    -0.255 A  
HETATM    5  C   UNL     1     -10.024  10.388  64.870  1.00  0.00    -0.409 A  
HETATM    6  C   UNL     1      -9.711  10.019  66.183  1.00  0.00    -0.286 A  
HETATM    7  C   UNL     1     -10.340  10.634  67.271  1.00  0.00    -0.265 A  
HETATM    8  C   UNL     1     -11.273  11.644  67.015  1.00  0.00    -0.376 A  
HETATM    9  C   UNL     1     -11.579  12.011  65.700  1.00  0.00    -0.356 A  
BRANCH   7  10
HETATM   10  C   UNL     1     -10.060  10.138  68.625  1.00  0.00    -0.186 C  
HETATM   11  C   UNL     1     -10.702   9.110  69.205  1.00  0.00    -0.190 C  
BRANCH  11  12
HETATM   12  C   UNL     1     -10.386   8.592  70.541  1.00  0.00    -0.226 A  
HETATM   13  C   UNL     1      -9.088   8.359  70.992  1.00  0.00    -0.165 A  
HETATM   14  N   UNL     1      -8.769   7.854  72.208  1.00  0.00    -0.133 NA 
HETATM   15  C   UNL     1      -9.799   7.523  73.012  1.00  0.00    -0.238 A  
HETATM   16  C   UNL     1     -11.419   8.234  71.408  1.00  0.00    -0.314 A  
HETATM   17  C   UNL     1     -11.129   7.684  72.659  1.00  0.00    -0.412 A  
BRANCH  15  18
HETATM   18  O   UNL     1      -9.554   6.962  74.247  1.00  0.00    -0.241 OA 
BRANCH  18  19
HETATM   19  C   UNL     1      -8.619   5.878  74.183  1.00  0.00    -0.119 C  
BRANCH  19  20
HETATM   20  C   UNL     1      -9.294   4.675  73.529  1.00  0.00    -0.121 C  
BRANCH  20  21
HETATM   21  O   UNL     1      -9.309   3.583  74.454  1.00  0.00    -0.091 OA 
BRANCH  21  22
HETATM   22  C   UNL     1     -10.223   2.564  74.057  1.00  0.00    -0.122 C  
BRANCH  22  23
HETATM   23  C   UNL     1     -10.189   2.429  72.539  1.00  0.00    -0.159 C  
BRANCH  23  24
HETATM   24  O   UNL     1      -9.079   1.614  72.162  1.00  0.00    -0.067 OA 
BRANCH  24  25
HETATM   25  C   UNL     1      -8.271   2.258  71.175  1.00  0.00    -0.050 C  
HETATM   26  C   UNL     1      -9.116   2.560  69.951  1.00  0.00    -0.111 C  
HETATM   27  F   UNL     1      -8.346   3.170  69.013  1.00  0.00    -0.066 F  
ENDBRANCH  24  25
ENDBRANCH  23  24
ENDBRANCH  22  23
ENDBRANCH  21  22
ENDBRANCH  20  21
ENDBRANCH  19  20
ENDBRANCH  18  19
ENDBRANCH  15  18
ENDBRANCH  11  12
ENDBRANCH   7  10
ENDBRANCH   1   4
TORSDOF 11
ENDMDL
MODEL      175
REMARK 921   NORMALIZED FREE ENERGY PREDICTED BY IDOCK:   -3.28 KCAL/MOL
REMARK 922        TOTAL FREE ENERGY PREDICTED BY IDOCK:   -6.25 KCAL/MOL
REMARK 923 INTER-LIGAND FREE ENERGY PREDICTED BY IDOCK:   -5.21 KCAL/MOL
REMARK 924 INTRA-LIGAND FREE ENERGY PREDICTED BY IDOCK:   -1.04 KCAL/MOL
REMARK 927      BINDING AFFINITY PREDICTED BY RF-SCORE:    0.00 PKD
ROOT
HETATM    1  N   UNL     1      -6.131   6.978  72.167  1.00  0.00    -0.041 NA 
HETATM    2  H   UNL     1      -5.614   6.967  73.046  1.00  0.00     0.000 HD 
HETATM    3  C   UNL     1      -6.720   5.758  71.638  1.00  0.00    -0.055 C  
ENDROOT
BRANCH   1   4
HETATM    4  C   UNL     1      -6.286   8.166  71.447  1.00  0.00    -0.037 A  
HETATM    5  C   UNL     1      -5.292   9.140  71.321  1.00  0.00    -0.043 A  
HETATM    6  C   UNL     1      -5.529  10.317  70.602  1.00  0.00    -0.076 A  
HETATM    7  C   UNL     1      -6.753  10.531  69.958  1.00  0.00    -0.151 A  
HETATM    8  C   UNL     1      -7.726   9.530  70.031  1.00  0.00    -0.146 A  
HETATM    9  C   UNL     1      -7.483   8.354  70.748  1.00  0.00    -0.065 A  
BRANCH   7  10
HETATM   10  C   UNL     1      -6.995  11.826  69.309  1.00  0.00    -0.065 C  
HETATM   11  C   UNL     1      -6.382  12.972  69.649  1.00  0.00    -0.089 C  
BRANCH  11  12
HETATM   12  C   UNL     1      -6.596  14.254  68.967  1.00  0.00    -0.105 A  
HETATM   13  C   UNL     1      -6.937  14.364  67.620  1.00  0.00    -0.184 A  
HETATM   14  N   UNL     1      -7.113  15.532  66.958  1.00  0.00    -0.222 NA 
HETATM   15  C   UNL     1      -6.899  16.661  67.661  1.00  0.00    -0.141 A  
HETATM   16  C   UNL     1      -6.386  15.450  69.654  1.00  0.00    -0.160 A  
HETATM   17  C   UNL     1      -6.529  16.674  68.996  1.00  0.00    -0.190 A  
BRANCH  15  18
HETATM   18  O   UNL     1      -7.014  17.889  67.044  1.00  0.00    -0.173 OA 
BRANCH  18  19
HETATM   19  C   UNL     1      -8.280  18.060  66.394  1.00  0.00    -0.255 C  
BRANCH  19  20
HETATM   20  C   UNL     1      -9.364  18.245  67.454  1.00  0.00    -0.261 C  
BRANCH  20  21
HETATM   21  O   UNL     1     -10.373  17.247  67.274  1.00  0.00    -0.319 OA 
BRANCH  21  22
HETATM   22  C   UNL     1     -10.364  16.716  65.951  1.00  0.00    -0.340 C  
BRANCH  22  23
HETATM   23  C   UNL     1     -10.688  15.228  66.010  1.00  0.00    -0.320 C  
BRANCH  23  24
HETATM   24  O   UNL     1     -10.145  14.581  64.859  1.00  0.00    -0.378 OA 
BRANCH  24  25
HETATM   25  C   UNL     1     -10.877  13.399  64.533  1.00  0.00    -0.406 C  
HETATM   26  C   UNL     1     -12.282  13.503  65.098  1.00  0.00    -0.428 C  
HETATM   27  F   UNL     1     -12.976  12.377  64.788  1.00  0.00    -0.563 F  
ENDBRANCH  24  25
ENDBRANCH  23  24
ENDBRANCH  22  23
ENDBRANCH  21  22
ENDBRANCH  20  21
ENDBRANCH  19  20
ENDBRANCH  18  19
ENDBRANCH  15  18
ENDBRANCH  11  12
ENDBRANCH   7  10
ENDBRANCH   1   4
TORSDOF 11
ENDMDL
MODEL      176
REMARK 921   NORMALIZED FREE ENERGY PREDICTED BY IDOCK:   -3.27 KCAL/MOL
REMARK 922        TOTAL FREE ENERGY PREDICTED BY IDOCK:   -6.23 KCAL/MOL
REMARK 923 INTER-LIGAND FREE ENERGY PREDICTED BY IDOCK:   -5.24 KCAL/MOL
REMARK 924 INTRA-LIGAND FREE ENERGY PREDICTED BY IDOCK:   -0.99 KCAL/MOL
REMARK 927      BINDING AFFINITY PREDICTED BY RF-SCORE:    0.00 PKD
ROOT
HETATM    1  N   UNL     1      -7.068   3.124  73.207  1.00  0.00    -0.040 NA 
HETATM    2  H   UNL     1      -7.520   2.215  73.105  1.00  0.00     0.000 HD 
HETATM    3  C   UNL     1      -6.200   3.397  74.341  1.00  0.00    -0.021 C  
ENDROOT
BRANCH   1   4
HETATM    4  C   UNL     1      -7.272   4.130  72.259  1.00  0.00    -0.061 A  
HETATM    5  C   UNL     1      -6.572   4.223  71.054  1.00  0.00    -0.030 A  
HETATM    6  C   UNL     1      -6.815   5.273  70.162  1.00  0.00    -0.048 A  
HETATM    7  C   UNL     1      -7.793   6.235  70.437  1.00  0.00    -0.107 A  
HETATM    8  C   UNL     1      -8.539   6.109  71.613  1.00  0.00    -0.134 A  
HETATM    9  C   UNL     1      -8.294   5.054  72.498  1.00  0.00    -0.117 A  
BRANCH   7  10
HETATM   10  C   UNL     1      -7.937   7.380  69.526  1.00  0.00    -0.127 C  
HETATM   11  C   UNL     1      -9.113   7.852  69.081  1.00  0.00    -0.145 C  
BRANCH  11  12
HETATM   12  C   UNL     1      -9.251   9.023  68.207  1.00  0.00    -0.139 A  
HETATM   13  C   UNL     1      -8.772  10.290  68.532  1.00  0.00    -0.130 A  
HETATM   14  N   UNL     1      -8.911  11.394  67.759  1.00  0.00    -0.143 NA 
HETATM   15  C   UNL     1      -9.600  11.242  66.612  1.00  0.00    -0.195 A  
HETATM   16  C   UNL     1      -9.958   8.915  67.008  1.00  0.00    -0.300 A  
HETATM   17  C   UNL     1     -10.146  10.038  66.199  1.00  0.00    -0.317 A  
BRANCH  15  18
HETATM   18  O   UNL     1      -9.822  12.330  65.794  1.00  0.00    -0.249 OA 
BRANCH  18  19
HETATM   19  C   UNL     1     -10.474  13.408  66.477  1.00  0.00    -0.283 C  
BRANCH  19  20
HETATM   20  C   UNL     1     -11.969  13.108  66.569  1.00  0.00    -0.398 C  
BRANCH  20  21
HETATM   21  O   UNL     1     -12.245  12.466  67.817  1.00  0.00    -0.395 OA 
BRANCH  21  22
HETATM   22  C   UNL     1     -11.874  13.281  68.926  1.00  0.00    -0.327 C  
BRANCH  22  23
HETATM   23  C   UNL     1     -12.156  12.523  70.217  1.00  0.00    -0.294 C  
BRANCH  23  24
HETATM   24  O   UNL     1     -11.247  11.427  70.329  1.00  0.00    -0.147 OA 
BRANCH  24  25
HETATM   25  C   UNL     1     -11.931  10.215  70.653  1.00  0.00    -0.332 C  
HETATM   26  C   UNL     1     -13.164  10.537  71.477  1.00  0.00    -0.371 C  
HETATM   27  F   UNL     1     -13.812   9.383  71.786  1.00  0.00    -0.389 F  
ENDBRANCH  24  25
ENDBRANCH  23  24
ENDBRANCH  22  23
ENDBRANCH  21  22
ENDBRANCH  20  21
ENDBRANCH  19  20
ENDBRANCH  18  19
ENDBRANCH  15  18
ENDBRANCH  11  12
ENDBRANCH   7  10
ENDBRANCH   1   4
TORSDOF 11
ENDMDL
MODEL      177
REMARK 921   NORMALIZED FREE ENERGY PREDICTED BY IDOCK:   -3.26 KCAL/MOL
REMARK 922        TOTAL FREE ENERGY PREDICTED BY IDOCK:   -6.21 KCAL/MOL
REMARK 923 INTER-LIGAND FREE ENERGY PREDICTED BY IDOCK:   -5.55 KCAL/MOL
REMARK 924 INTRA-LIGAND FREE ENERGY PREDICTED BY IDOCK:   -0.66 KCAL/MOL
REMARK 927      BINDING AFFINITY PREDICTED BY RF-SCORE:    0.00 PKD
ROOT
HETATM    1  N   UNL     1     -10.434  14.086  64.544  1.00  0.00    -0.584 NA 
HETATM    2  H   UNL     1     -10.483  14.005  63.529  1.00  0.00     0.000 HD 
HETATM    3  C   UNL     1     -10.618  15.374  65.195  1.00  0.00    -0.434 C  
ENDROOT
BRANCH   1   4
HETATM    4  C   UNL     1     -10.188  12.962  65.337  1.00  0.00    -0.287 A  
HETATM    5  C   UNL     1     -10.513  11.655  64.965  1.00  0.00    -0.336 A  
HETATM    6  C   UNL     1     -10.256  10.580  65.823  1.00  0.00    -0.310 A  
HETATM    7  C   UNL     1      -9.632  10.782  67.059  1.00  0.00    -0.195 A  
HETATM    8  C   UNL     1      -9.250  12.080  67.407  1.00  0.00    -0.180 A  
HETATM    9  C   UNL     1      -9.505  13.151  66.543  1.00  0.00    -0.246 A  
BRANCH   7  10
HETATM   10  C   UNL     1      -9.483   9.640  67.972  1.00  0.00    -0.146 C  
HETATM   11  C   UNL     1     -10.502   9.041  68.611  1.00  0.00    -0.229 C  
BRANCH  11  12
HETATM   12  C   UNL     1     -10.351   7.873  69.487  1.00  0.00    -0.217 A  
HETATM   13  C   UNL     1      -9.295   6.968  69.391  1.00  0.00    -0.146 A  
HETATM   14  N   UNL     1      -9.146   5.867  70.166  1.00  0.00    -0.144 NA 
HETATM   15  C   UNL     1     -10.121   5.626  71.064  1.00  0.00    -0.207 A  
HETATM   16  C   UNL     1     -11.335   7.582  70.431  1.00  0.00    -0.253 A  
HETATM   17  C   UNL     1     -11.230   6.440  71.228  1.00  0.00    -0.346 A  
BRANCH  15  18
HETATM   18  O   UNL     1     -10.062   4.500  71.857  1.00  0.00    -0.183 OA 
BRANCH  18  19
HETATM   19  C   UNL     1     -10.716   4.682  73.119  1.00  0.00    -0.239 C  
BRANCH  19  20
HETATM   20  C   UNL     1      -9.754   4.296  74.241  1.00  0.00    -0.122 C  
BRANCH  20  21
HETATM   21  O   UNL     1      -9.051   3.106  73.869  1.00  0.00    -0.082 OA 
BRANCH  21  22
HETATM   22  C   UNL     1      -7.783   3.399  73.290  1.00  0.00    -0.065 C  
BRANCH  22  23
HETATM   23  C   UNL     1      -7.129   4.533  74.069  1.00  0.00    -0.072 C  
BRANCH  23  24
HETATM   24  O   UNL     1      -7.002   5.676  73.223  1.00  0.00    -0.081 OA 
BRANCH  24  25
HETATM   25  C   UNL     1      -7.128   6.890  73.965  1.00  0.00    -0.092 C  
HETATM   26  C   UNL     1      -8.404   7.602  73.555  1.00  0.00    -0.173 C  
HETATM   27  F   UNL     1      -8.521   8.757  74.260  1.00  0.00    -0.183 F  
ENDBRANCH  24  25
ENDBRANCH  23  24
ENDBRANCH  22  23
ENDBRANCH  21  22
ENDBRANCH  20  21
ENDBRANCH  19  20
ENDBRANCH  18  19
ENDBRANCH  15  18
ENDBRANCH  11  12
ENDBRANCH   7  10
ENDBRANCH   1   4
TORSDOF 11
ENDMDL
MODEL      178
REMARK 921   NORMALIZED FREE ENERGY PREDICTED BY IDOCK:   -3.20 KCAL/MOL
REMARK 922        TOTAL FREE ENERGY PREDICTED BY IDOCK:   -6.12 KCAL/MOL
REMARK 923 INTER-LIGAND FREE ENERGY PREDICTED BY IDOCK:   -5.23 KCAL/MOL
REMARK 924 INTRA-LIGAND FREE ENERGY PREDICTED BY IDOCK:   -0.90 KCAL/MOL
REMARK 927      BINDING AFFINITY PREDICTED BY RF-SCORE:    0.00 PKD
ROOT
HETATM    1  N   UNL     1      -7.324   3.225  67.539  1.00  0.00    -0.058 NA 
HETATM    2  H   UNL     1      -6.609   2.707  68.051  1.00  0.00     0.000 HD 
HETATM    3  C   UNL     1      -8.188   2.550  66.584  1.00  0.00    -0.086 C  
ENDROOT
BRANCH   1   4
HETATM    4  C   UNL     1      -7.490   4.598  67.743  1.00  0.00    -0.077 A  
HETATM    5  C   UNL     1      -8.563   5.162  68.436  1.00  0.00    -0.098 A  
HETATM    6  C   UNL     1      -8.675   6.549  68.580  1.00  0.00    -0.123 A  
HETATM    7  C   UNL     1      -7.694   7.405  68.067  1.00  0.00    -0.116 A  
HETATM    8  C   UNL     1      -6.587   6.840  67.427  1.00  0.00    -0.054 A  
HETATM    9  C   UNL     1      -6.480   5.452  67.289  1.00  0.00    -0.051 A  
BRANCH   7  10
HETATM   10  C   UNL     1      -7.909   8.856  68.146  1.00  0.00    -0.101 C  
HETATM   11  C   UNL     1      -7.643   9.718  67.151  1.00  0.00    -0.092 C  
BRANCH  11  12
HETATM   12  C   UNL     1      -7.901  11.161  67.220  1.00  0.00    -0.137 A  
HETATM   13  C   UNL     1      -9.145  11.736  66.967  1.00  0.00    -0.187 A  
HETATM   14  N   UNL     1      -9.406  13.064  66.995  1.00  0.00    -0.229 NA 
HETATM   15  C   UNL     1      -8.362  13.877  67.252  1.00  0.00    -0.185 A  
HETATM   16  C   UNL     1      -6.852  12.042  67.482  1.00  0.00    -0.128 A  
HETATM   17  C   UNL     1      -7.076  13.421  67.491  1.00  0.00    -0.154 A  
BRANCH  15  18
HETATM   18  O   UNL     1      -8.539  15.244  67.254  1.00  0.00    -0.165 OA 
BRANCH  18  19
HETATM   19  C   UNL     1      -9.736  15.644  66.574  1.00  0.00    -0.266 C  
BRANCH  19  20
HETATM   20  C   UNL     1     -10.303  16.889  67.253  1.00  0.00    -0.309 C  
BRANCH  20  21
HETATM   21  O   UNL     1     -10.425  16.645  68.658  1.00  0.00    -0.281 OA 
BRANCH  21  22
HETATM   22  C   UNL     1     -11.642  15.975  68.976  1.00  0.00    -0.349 C  
BRANCH  22  23
HETATM   23  C   UNL     1     -11.323  14.717  69.776  1.00  0.00    -0.283 C  
BRANCH  23  24
HETATM   24  O   UNL     1     -10.980  15.083  71.113  1.00  0.00    -0.227 OA 
BRANCH  24  25
HETATM   25  C   UNL     1     -12.135  15.125  71.953  1.00  0.00    -0.378 C  
HETATM   26  C   UNL     1     -12.000  16.270  72.940  1.00  0.00    -0.516 C  
HETATM   27  F   UNL     1     -13.098  16.306  73.739  1.00  0.00    -0.577 F  
ENDBRANCH  24  25
ENDBRANCH  23  24
ENDBRANCH  22  23
ENDBRANCH  21  22
ENDBRANCH  20  21
ENDBRANCH  19  20
ENDBRANCH  18  19
ENDBRANCH  15  18
ENDBRANCH  11  12
ENDBRANCH   7  10
ENDBRANCH   1   4
TORSDOF 11
ENDMDL
MODEL      179
REMARK 921   NORMALIZED FREE ENERGY PREDICTED BY IDOCK:   -3.20 KCAL/MOL
REMARK 922        TOTAL FREE ENERGY PREDICTED BY IDOCK:   -6.12 KCAL/MOL
REMARK 923 INTER-LIGAND FREE ENERGY PREDICTED BY IDOCK:   -5.44 KCAL/MOL
REMARK 924 INTRA-LIGAND FREE ENERGY PREDICTED BY IDOCK:   -0.68 KCAL/MOL
REMARK 927      BINDING AFFINITY PREDICTED BY RF-SCORE:    0.00 PKD
ROOT
HETATM    1  N   UNL     1      -6.091   3.213  64.565  1.00  0.00    -0.022 NA 
HETATM    2  H   UNL     1      -5.167   3.023  64.951  1.00  0.00     0.000 HD 
HETATM    3  C   UNL     1      -6.902   2.136  64.019  1.00  0.00    -0.035 C  
ENDROOT
BRANCH   1   4
HETATM    4  C   UNL     1      -6.604   4.513  64.550  1.00  0.00    -0.043 A  
HETATM    5  C   UNL     1      -7.910   4.843  64.921  1.00  0.00    -0.089 A  
HETATM    6  C   UNL     1      -8.360   6.166  64.859  1.00  0.00    -0.092 A  
HETATM    7  C   UNL     1      -7.502   7.198  64.462  1.00  0.00    -0.099 A  
HETATM    8  C   UNL     1      -6.177   6.879  64.150  1.00  0.00    -0.036 A  
HETATM    9  C   UNL     1      -5.732   5.554  64.218  1.00  0.00    -0.017 A  
BRANCH   7  10
HETATM   10  C   UNL     1      -8.049   8.553  64.306  1.00  0.00    -0.155 C  
HETATM   11  C   UNL     1      -8.924   9.121  65.152  1.00  0.00    -0.238 C  
BRANCH  11  12
HETATM   12  C   UNL     1      -9.431  10.491  65.015  1.00  0.00    -0.296 A  
HETATM   13  C   UNL     1     -10.027  10.981  63.854  1.00  0.00    -0.341 A  
HETATM   14  N   UNL     1     -10.478  12.247  63.689  1.00  0.00    -0.441 NA 
HETATM   15  C   UNL     1     -10.292  13.092  64.722  1.00  0.00    -0.350 A  
HETATM   16  C   UNL     1      -9.261  11.402  66.058  1.00  0.00    -0.229 A  
HETATM   17  C   UNL     1      -9.686  12.725  65.913  1.00  0.00    -0.203 A  
BRANCH  15  18
HETATM   18  O   UNL     1     -10.683  14.409  64.613  1.00  0.00    -0.405 OA 
BRANCH  18  19
HETATM   19  C   UNL     1     -11.096  14.966  65.867  1.00  0.00    -0.338 C  
BRANCH  19  20
HETATM   20  C   UNL     1     -10.857  16.475  65.846  1.00  0.00    -0.095 C  
BRANCH  20  21
HETATM   21  O   UNL     1      -9.747  16.788  66.692  1.00  0.00    -0.245 OA 
BRANCH  21  22
HETATM   22  C   UNL     1      -9.223  18.085  66.421  1.00  0.00    -0.242 C  
BRANCH  22  23
HETATM   23  C   UNL     1      -9.352  18.945  67.674  1.00  0.00    -0.296 C  
BRANCH  23  24
HETATM   24  O   UNL     1      -8.782  18.250  68.783  1.00  0.00    -0.300 OA 
BRANCH  24  25
HETATM   25  C   UNL     1      -7.355  18.308  68.757  1.00  0.00    -0.284 C  
HETATM   26  C   UNL     1      -6.905  19.747  68.929  1.00  0.00    -0.338 C  
HETATM   27  F   UNL     1      -5.547  19.800  68.901  1.00  0.00    -0.215 F  
ENDBRANCH  24  25
ENDBRANCH  23  24
ENDBRANCH  22  23
ENDBRANCH  21  22
ENDBRANCH  20  21
ENDBRANCH  19  20
ENDBRANCH  18  19
ENDBRANCH  15  18
ENDBRANCH  11  12
ENDBRANCH   7  10
ENDBRANCH   1   4
TORSDOF 11
ENDMDL
MODEL      180
REMARK 921   NORMALIZED FREE ENERGY PREDICTED BY IDOCK:   -3.20 KCAL/MOL
REMARK 922        TOTAL FREE ENERGY PREDICTED BY IDOCK:   -6.12 KCAL/MOL
REMARK 923 INTER-LIGAND FREE ENERGY PREDICTED BY IDOCK:   -5.19 KCAL/MOL
REMARK 924 INTRA-LIGAND FREE ENERGY PREDICTED BY IDOCK:   -0.92 KCAL/MOL
REMARK 927      BINDING AFFINITY PREDICTED BY RF-SCORE:    0.00 PKD
ROOT
HETATM    1  N   UNL     1     -10.004   3.897  71.696  1.00  0.00    -0.179 NA 
HETATM    2  H   UNL     1     -10.501   3.777  72.579  1.00  0.00     0.000 HD 
HETATM    3  C   UNL     1      -9.455   2.749  70.992  1.00  0.00    -0.156 C  
ENDROOT
BRANCH   1   4
HETATM    4  C   UNL     1      -9.839   5.168  71.140  1.00  0.00    -0.186 A  
HETATM    5  C   UNL     1     -10.453   5.591  69.959  1.00  0.00    -0.373 A  
HETATM    6  C   UNL     1     -10.221   6.874  69.450  1.00  0.00    -0.194 A  
HETATM    7  C   UNL     1      -9.400   7.779  70.131  1.00  0.00    -0.153 A  
HETATM    8  C   UNL     1      -8.834   7.379  71.346  1.00  0.00    -0.129 A  
HETATM    9  C   UNL     1      -9.073   6.097  71.851  1.00  0.00    -0.140 A  
BRANCH   7  10
HETATM   10  C   UNL     1      -9.098   9.073  69.504  1.00  0.00    -0.151 C  
HETATM   11  C   UNL     1      -8.071   9.864  69.853  1.00  0.00    -0.200 C  
BRANCH  11  12
HETATM   12  C   UNL     1      -7.749  11.135  69.193  1.00  0.00    -0.076 A  
HETATM   13  C   UNL     1      -8.504  11.678  68.155  1.00  0.00    -0.156 A  
HETATM   14  N   UNL     1      -8.215  12.832  67.508  1.00  0.00    -0.168 NA 
HETATM   15  C   UNL     1      -7.088  13.468  67.885  1.00  0.00    -0.140 A  
HETATM   16  C   UNL     1      -6.592  11.829  69.549  1.00  0.00    -0.102 A  
HETATM   17  C   UNL     1      -6.246  13.008  68.884  1.00  0.00    -0.088 A  
BRANCH  15  18
HETATM   18  O   UNL     1      -6.704  14.626  67.242  1.00  0.00    -0.280 OA 
BRANCH  18  19
HETATM   19  C   UNL     1      -6.713  15.766  68.111  1.00  0.00    -0.122 C  
BRANCH  19  20
HETATM   20  C   UNL     1      -7.807  16.730  67.658  1.00  0.00    -0.175 C  
BRANCH  20  21
HETATM   21  O   UNL     1      -8.686  16.994  68.756  1.00  0.00    -0.263 OA 
BRANCH  21  22
HETATM   22  C   UNL     1      -9.990  16.465  68.531  1.00  0.00    -0.239 C  
BRANCH  22  23
HETATM   23  C   UNL     1     -10.423  15.670  69.756  1.00  0.00    -0.308 C  
BRANCH  23  24
HETATM   24  O   UNL     1     -11.795  15.945  70.037  1.00  0.00    -0.342 OA 
BRANCH  24  25
HETATM   25  C   UNL     1     -12.527  14.743  70.283  1.00  0.00    -0.340 C  
HETATM   26  C   UNL     1     -11.647  13.545  69.978  1.00  0.00    -0.164 C  
HETATM   27  F   UNL     1     -12.346  12.403  70.210  1.00  0.00    -0.367 F  
ENDBRANCH  24  25
ENDBRANCH  23  24
ENDBRANCH  22  23
ENDBRANCH  21  22
ENDBRANCH  20  21
ENDBRANCH  19  20
ENDBRANCH  18  19
ENDBRANCH  15  18
ENDBRANCH  11  12
ENDBRANCH   7  10
ENDBRANCH   1   4
TORSDOF 11
ENDMDL
MODEL      181
REMARK 921   NORMALIZED FREE ENERGY PREDICTED BY IDOCK:   -3.16 KCAL/MOL
REMARK 922        TOTAL FREE ENERGY PREDICTED BY IDOCK:   -6.06 KCAL/MOL
REMARK 923 INTER-LIGAND FREE ENERGY PREDICTED BY IDOCK:   -5.18 KCAL/MOL
REMARK 924 INTRA-LIGAND FREE ENERGY PREDICTED BY IDOCK:   -0.88 KCAL/MOL
REMARK 927      BINDING AFFINITY PREDICTED BY RF-SCORE:    0.00 PKD
ROOT
HETATM    1  N   UNL     1      -9.394  19.191  66.348  1.00  0.00    -0.342 NA 
HETATM    2  H   UNL     1      -8.674  19.819  66.703  1.00  0.00     0.000 HD 
HETATM    3  C   UNL     1     -10.543  19.712  65.624  1.00  0.00    -0.364 C  
ENDROOT
BRANCH   1   4
HETATM    4  C   UNL     1      -9.297  17.811  66.549  1.00  0.00    -0.279 A  
HETATM    5  C   UNL     1      -8.395  17.210  67.430  1.00  0.00    -0.203 A  
HETATM    6  C   UNL     1      -8.339  15.819  67.561  1.00  0.00    -0.183 A  
HETATM    7  C   UNL     1      -9.212  14.995  66.842  1.00  0.00    -0.265 A  
HETATM    8  C   UNL     1     -10.157  15.596  66.006  1.00  0.00    -0.355 A  
HETATM    9  C   UNL     1     -10.210  16.989  65.882  1.00  0.00    -0.311 A  
BRANCH   7  10
HETATM   10  C   UNL     1      -9.043  13.537  66.928  1.00  0.00    -0.246 C  
HETATM   11  C   UNL     1      -9.416  12.791  67.981  1.00  0.00    -0.213 C  
BRANCH  11  12
HETATM   12  C   UNL     1      -9.285  11.331  68.042  1.00  0.00    -0.160 A  
HETATM   13  C   UNL     1      -9.542  10.580  69.187  1.00  0.00    -0.199 A  
HETATM   14  N   UNL     1      -9.401   9.236  69.281  1.00  0.00    -0.155 NA 
HETATM   15  C   UNL     1      -8.942   8.600  68.185  1.00  0.00    -0.141 A  
HETATM   16  C   UNL     1      -8.813  10.629  66.932  1.00  0.00    -0.143 A  
HETATM   17  C   UNL     1      -8.628   9.246  67.000  1.00  0.00    -0.128 A  
BRANCH  15  18
HETATM   18  O   UNL     1      -8.731   7.238  68.217  1.00  0.00    -0.126 OA 
BRANCH  18  19
HETATM   19  C   UNL     1      -9.486   6.589  69.248  1.00  0.00    -0.140 C  
BRANCH  19  20
HETATM   20  C   UNL     1      -8.605   5.544  69.928  1.00  0.00    -0.120 C  
BRANCH  20  21
HETATM   21  O   UNL     1      -7.674   6.203  70.793  1.00  0.00    -0.097 OA 
BRANCH  21  22
HETATM   22  C   UNL     1      -7.157   5.320  71.785  1.00  0.00    -0.075 C  
BRANCH  22  23
HETATM   23  C   UNL     1      -8.279   4.415  72.280  1.00  0.00    -0.108 C  
BRANCH  23  24
HETATM   24  O   UNL     1      -8.399   4.544  73.697  1.00  0.00    -0.100 OA 
BRANCH  24  25
HETATM   25  C   UNL     1      -9.753   4.788  74.084  1.00  0.00    -0.137 C  
HETATM   26  C   UNL     1     -10.644   4.747  72.856  1.00  0.00    -0.218 C  
HETATM   27  F   UNL     1     -11.930   4.981  73.227  1.00  0.00    -0.376 F  
ENDBRANCH  24  25
ENDBRANCH  23  24
ENDBRANCH  22  23
ENDBRANCH  21  22
ENDBRANCH  20  21
ENDBRANCH  19  20
ENDBRANCH  18  19
ENDBRANCH  15  18
ENDBRANCH  11  12
ENDBRANCH   7  10
ENDBRANCH   1   4
TORSDOF 11
ENDMDL
MODEL      182
REMARK 921   NORMALIZED FREE ENERGY PREDICTED BY IDOCK:   -3.13 KCAL/MOL
REMARK 922        TOTAL FREE ENERGY PREDICTED BY IDOCK:   -6.00 KCAL/MOL
REMARK 923 INTER-LIGAND FREE ENERGY PREDICTED BY IDOCK:   -5.31 KCAL/MOL
REMARK 924 INTRA-LIGAND FREE ENERGY PREDICTED BY IDOCK:   -0.69 KCAL/MOL
REMARK 927      BINDING AFFINITY PREDICTED BY RF-SCORE:    0.00 PKD
ROOT
HETATM    1  N   UNL     1     -11.316  17.532  64.911  1.00  0.00    -0.423 NA 
HETATM    2  H   UNL     1     -11.983  17.879  64.222  1.00  0.00     0.000 HD 
HETATM    3  C   UNL     1     -10.613  18.451  65.791  1.00  0.00    -0.210 C  
ENDROOT
BRANCH   1   4
HETATM    4  C   UNL     1     -11.060  16.163  65.026  1.00  0.00    -0.294 A  
HETATM    5  C   UNL     1     -10.201  15.605  65.977  1.00  0.00    -0.354 A  
HETATM    6  C   UNL     1      -9.976  14.225  66.017  1.00  0.00    -0.337 A  
HETATM    7  C   UNL     1     -10.635  13.364  65.133  1.00  0.00    -0.353 A  
HETATM    8  C   UNL     1     -11.542  13.913  64.222  1.00  0.00    -0.377 A  
HETATM    9  C   UNL     1     -11.766  15.294  64.188  1.00  0.00    -0.115 A  
BRANCH   7  10
HETATM   10  C   UNL     1     -10.284  11.937  65.139  1.00  0.00    -0.314 C  
HETATM   11  C   UNL     1      -9.635  11.320  66.139  1.00  0.00    -0.241 C  
BRANCH  11  12
HETATM   12  C   UNL     1      -9.327   9.885  66.159  1.00  0.00    -0.232 A  
HETATM   13  C   UNL     1      -8.555   9.247  65.190  1.00  0.00    -0.172 A  
HETATM   14  N   UNL     1      -8.279   7.921  65.166  1.00  0.00    -0.143 NA 
HETATM   15  C   UNL     1      -8.834   7.174  66.140  1.00  0.00    -0.150 A  
HETATM   16  C   UNL     1      -9.879   9.070  67.148  1.00  0.00    -0.262 A  
HETATM   17  C   UNL     1      -9.641   7.693  67.140  1.00  0.00    -0.211 A  
BRANCH  15  18
HETATM   18  O   UNL     1      -8.636   5.810  66.158  1.00  0.00    -0.125 OA 
BRANCH  18  19
HETATM   19  C   UNL     1      -8.703   5.228  64.849  1.00  0.00    -0.122 C  
BRANCH  19  20
HETATM   20  C   UNL     1      -8.613   3.708  64.974  1.00  0.00    -0.109 C  
BRANCH  20  21
HETATM   21  O   UNL     1      -9.423   3.277  66.072  1.00  0.00    -0.153 OA 
BRANCH  21  22
HETATM   22  C   UNL     1      -8.702   2.431  66.963  1.00  0.00    -0.124 C  
BRANCH  22  23
HETATM   23  C   UNL     1      -8.477   3.169  68.277  1.00  0.00    -0.081 C  
BRANCH  23  24
HETATM   24  O   UNL     1      -9.073   2.429  69.342  1.00  0.00    -0.097 OA 
BRANCH  24  25
HETATM   25  C   UNL     1      -9.705   3.294  70.288  1.00  0.00    -0.043 C  
HETATM   26  C   UNL     1      -9.162   3.007  71.676  1.00  0.00    -0.115 C  
HETATM   27  F   UNL     1      -9.767   3.829  72.573  1.00  0.00    -0.158 F  
ENDBRANCH  24  25
ENDBRANCH  23  24
ENDBRANCH  22  23
ENDBRANCH  21  22
ENDBRANCH  20  21
ENDBRANCH  19  20
ENDBRANCH  18  19
ENDBRANCH  15  18
ENDBRANCH  11  12
ENDBRANCH   7  10
ENDBRANCH   1   4
TORSDOF 11
ENDMDL
MODEL      183
REMARK 921   NORMALIZED FREE ENERGY PREDICTED BY IDOCK:   -3.12 KCAL/MOL
REMARK 922        TOTAL FREE ENERGY PREDICTED BY IDOCK:   -5.98 KCAL/MOL
REMARK 923 INTER-LIGAND FREE ENERGY PREDICTED BY IDOCK:   -5.09 KCAL/MOL
REMARK 924 INTRA-LIGAND FREE ENERGY PREDICTED BY IDOCK:   -0.89 KCAL/MOL
REMARK 927      BINDING AFFINITY PREDICTED BY RF-SCORE:    0.00 PKD
ROOT
HETATM    1  N   UNL     1     -11.715   5.815  72.950  1.00  0.00    -0.528 NA 
HETATM    2  H   UNL     1     -12.438   5.634  73.645  1.00  0.00     0.000 HD 
HETATM    3  C   UNL     1     -10.703   4.813  72.653  1.00  0.00    -0.199 C  
ENDROOT
BRANCH   1   4
HETATM    4  C   UNL     1     -11.676   7.032  72.264  1.00  0.00    -0.255 A  
HETATM    5  C   UNL     1     -12.226   7.233  70.995  1.00  0.00    -0.350 A  
HETATM    6  C   UNL     1     -12.129   8.476  70.360  1.00  0.00     0.263 A  
HETATM    7  C   UNL     1     -11.513   9.560  70.995  1.00  0.00    -0.420 A  
HETATM    8  C   UNL     1     -11.017   9.378  72.290  1.00  0.00     0.517 A  
HETATM    9  C   UNL     1     -11.121   8.134  72.921  1.00  0.00    -0.310 A  
BRANCH   7  10
HETATM   10  C   UNL     1     -11.336  10.812  70.247  1.00  0.00    -0.374 C  
HETATM   11  C   UNL     1     -11.855  11.995  70.615  1.00  0.00    -0.100 C  
BRANCH  11  12
HETATM   12  C   UNL     1     -11.638  13.251  69.887  1.00  0.00    -0.260 A  
HETATM   13  C   UNL     1     -11.394  13.316  68.516  1.00  0.00    -0.284 A  
HETATM   14  N   UNL     1     -11.162  14.457  67.824  1.00  0.00    -0.287 NA 
HETATM   15  C   UNL     1     -11.129  15.599  68.538  1.00  0.00    -0.322 A  
HETATM   16  C   UNL     1     -11.595  14.459  70.584  1.00  0.00    -0.243 A  
HETATM   17  C   UNL     1     -11.329  15.653  69.908  1.00  0.00    -0.340 A  
BRANCH  15  18
HETATM   18  O   UNL     1     -10.854  16.795  67.910  1.00  0.00    -0.348 OA 
BRANCH  18  19
HETATM   19  C   UNL     1      -9.515  17.246  68.149  1.00  0.00    -0.278 C  
BRANCH  19  20
HETATM   20  C   UNL     1      -8.667  16.971  66.909  1.00  0.00    -0.227 C  
BRANCH  20  21
HETATM   21  O   UNL     1      -7.396  16.451  67.313  1.00  0.00    -0.142 OA 
BRANCH  21  22
HETATM   22  C   UNL     1      -7.532  15.405  68.271  1.00  0.00    -0.111 C  
BRANCH  22  23
HETATM   23  C   UNL     1      -6.205  14.664  68.390  1.00  0.00    -0.102 C  
BRANCH  23  24
HETATM   24  O   UNL     1      -6.458  13.276  68.609  1.00  0.00    -0.075 OA 
BRANCH  24  25
HETATM   25  C   UNL     1      -6.830  12.617  67.398  1.00  0.00    -0.140 C  
HETATM   26  C   UNL     1      -5.624  11.897  66.824  1.00  0.00    -0.059 C  
HETATM   27  F   UNL     1      -5.980  11.272  65.671  1.00  0.00    -0.111 F  
ENDBRANCH  24  25
ENDBRANCH  23  24
ENDBRANCH  22  23
ENDBRANCH  21  22
ENDBRANCH  20  21
ENDBRANCH  19  20
ENDBRANCH  18  19
ENDBRANCH  15  18
ENDBRANCH  11  12
ENDBRANCH   7  10
ENDBRANCH   1   4
TORSDOF 11
ENDMDL
MODEL      184
REMARK 921   NORMALIZED FREE ENERGY PREDICTED BY IDOCK:   -3.11 KCAL/MOL
REMARK 922        TOTAL FREE ENERGY PREDICTED BY IDOCK:   -5.96 KCAL/MOL
REMARK 923 INTER-LIGAND FREE ENERGY PREDICTED BY IDOCK:   -4.95 KCAL/MOL
REMARK 924 INTRA-LIGAND FREE ENERGY PREDICTED BY IDOCK:   -1.01 KCAL/MOL
REMARK 927      BINDING AFFINITY PREDICTED BY RF-SCORE:    0.00 PKD
ROOT
HETATM    1  N   UNL     1      -8.701  18.650  67.566  1.00  0.00    -0.268 NA 
HETATM    2  H   UNL     1      -8.203  19.277  68.198  1.00  0.00     0.000 HD 
HETATM    3  C   UNL     1      -9.496  19.182  66.470  1.00  0.00    -0.356 C  
ENDROOT
BRANCH   1   4
HETATM    4  C   UNL     1      -8.633  17.265  67.737  1.00  0.00    -0.225 A  
HETATM    5  C   UNL     1      -8.206  16.642  68.912  1.00  0.00    -0.231 A  
HETATM    6  C   UNL     1      -8.143  15.247  69.002  1.00  0.00    -0.202 A  
HETATM    7  C   UNL     1      -8.542  14.440  67.931  1.00  0.00    -0.165 A  
HETATM    8  C   UNL     1      -9.029  15.061  66.776  1.00  0.00    -0.293 A  
HETATM    9  C   UNL     1      -9.093  16.456  66.694  1.00  0.00    -0.278 A  
BRANCH   7  10
HETATM   10  C   UNL     1      -8.355  12.986  68.030  1.00  0.00    -0.169 C  
HETATM   11  C   UNL     1      -8.056  12.187  66.993  1.00  0.00    -0.154 C  
BRANCH  11  12
HETATM   12  C   UNL     1      -7.826  10.742  67.107  1.00  0.00    -0.124 A  
HETATM   13  C   UNL     1      -8.500   9.790  66.344  1.00  0.00    -0.124 A  
HETATM   14  N   UNL     1      -8.330   8.451  66.448  1.00  0.00    -0.112 NA 
HETATM   15  C   UNL     1      -7.468   8.025  67.393  1.00  0.00    -0.093 A  
HETATM   16  C   UNL     1      -6.944  10.253  68.071  1.00  0.00    -0.082 A  
HETATM   17  C   UNL     1      -6.764   8.877  68.228  1.00  0.00    -0.065 A  
BRANCH  15  18
HETATM   18  O   UNL     1      -7.276   6.674  67.589  1.00  0.00    -0.085 OA 
BRANCH  18  19
HETATM   19  C   UNL     1      -6.698   6.029  66.447  1.00  0.00    -0.060 C  
BRANCH  19  20
HETATM   20  C   UNL     1      -7.363   4.669  66.252  1.00  0.00    -0.081 C  
BRANCH  20  21
HETATM   21  O   UNL     1      -8.496   4.570  67.121  1.00  0.00    -0.105 OA 
BRANCH  21  22
HETATM   22  C   UNL     1      -9.723   4.594  66.396  1.00  0.00    -0.202 C  
BRANCH  22  23
HETATM   23  C   UNL     1     -10.660   5.611  67.038  1.00  0.00    -0.285 C  
BRANCH  23  24
HETATM   24  O   UNL     1     -10.185   5.930  68.346  1.00  0.00    -0.159 OA 
BRANCH  24  25
HETATM   25  C   UNL     1     -11.261   6.281  69.218  1.00  0.00    -0.389 C  
HETATM   26  C   UNL     1     -10.907   5.886  70.640  1.00  0.00    -0.292 C  
HETATM   27  F   UNL     1     -11.932   6.218  71.468  1.00  0.00    -0.356 F  
ENDBRANCH  24  25
ENDBRANCH  23  24
ENDBRANCH  22  23
ENDBRANCH  21  22
ENDBRANCH  20  21
ENDBRANCH  19  20
ENDBRANCH  18  19
ENDBRANCH  15  18
ENDBRANCH  11  12
ENDBRANCH   7  10
ENDBRANCH   1   4
TORSDOF 11
ENDMDL
MODEL      185
REMARK 921   NORMALIZED FREE ENERGY PREDICTED BY IDOCK:   -3.06 KCAL/MOL
REMARK 922        TOTAL FREE ENERGY PREDICTED BY IDOCK:   -5.88 KCAL/MOL
REMARK 923 INTER-LIGAND FREE ENERGY PREDICTED BY IDOCK:   -5.19 KCAL/MOL
REMARK 924 INTRA-LIGAND FREE ENERGY PREDICTED BY IDOCK:   -0.69 KCAL/MOL
REMARK 927      BINDING AFFINITY PREDICTED BY RF-SCORE:    0.00 PKD
ROOT
HETATM    1  N   UNL     1     -10.472   3.247  72.535  1.00  0.00    -0.111 NA 
HETATM    2  H   UNL     1     -10.801   2.452  71.988  1.00  0.00     0.000 HD 
HETATM    3  C   UNL     1     -10.516   3.217  73.988  1.00  0.00    -0.182 C  
ENDROOT
BRANCH   1   4
HETATM    4  C   UNL     1      -9.971   4.388  71.901  1.00  0.00    -0.189 A  
HETATM    5  C   UNL     1      -8.656   4.516  71.448  1.00  0.00    -0.127 A  
HETATM    6  C   UNL     1      -8.218   5.699  70.842  1.00  0.00    -0.120 A  
HETATM    7  C   UNL     1      -9.097   6.769  70.639  1.00  0.00    -0.155 A  
HETATM    8  C   UNL     1     -10.429   6.619  71.036  1.00  0.00    -0.246 A  
HETATM    9  C   UNL     1     -10.861   5.433  71.638  1.00  0.00    -0.232 A  
BRANCH   7  10
HETATM   10  C   UNL     1      -8.567   8.029  70.100  1.00  0.00    -0.130 C  
HETATM   11  C   UNL     1      -9.223   8.821  69.238  1.00  0.00    -0.149 C  
BRANCH  11  12
HETATM   12  C   UNL     1      -8.706  10.100  68.738  1.00  0.00    -0.138 A  
HETATM   13  C   UNL     1      -7.391  10.525  68.919  1.00  0.00    -0.098 A  
HETATM   14  N   UNL     1      -6.894  11.712  68.495  1.00  0.00    -0.068 NA 
HETATM   15  C   UNL     1      -7.762  12.546  67.889  1.00  0.00    -0.138 A  
HETATM   16  C   UNL     1      -9.567  10.998  68.105  1.00  0.00    -0.175 A  
HETATM   17  C   UNL     1      -9.098  12.243  67.679  1.00  0.00    -0.184 A  
BRANCH  15  18
HETATM   18  O   UNL     1      -7.341  13.790  67.469  1.00  0.00    -0.165 OA 
BRANCH  18  19
HETATM   19  C   UNL     1      -6.700  14.534  68.513  1.00  0.00    -0.096 C  
BRANCH  19  20
HETATM   20  C   UNL     1      -7.767  15.130  69.428  1.00  0.00    -0.213 C  
BRANCH  20  21
HETATM   21  O   UNL     1      -8.108  16.440  68.963  1.00  0.00    -0.225 OA 
BRANCH  21  22
HETATM   22  C   UNL     1      -6.980  17.310  68.954  1.00  0.00    -0.233 C  
BRANCH  22  23
HETATM   23  C   UNL     1      -7.446  18.727  68.644  1.00  0.00    -0.313 C  
BRANCH  23  24
HETATM   24  O   UNL     1      -8.871  18.744  68.543  1.00  0.00    -0.330 OA 
BRANCH  24  25
HETATM   25  C   UNL     1      -9.300  19.375  67.335  1.00  0.00    -0.315 C  
HETATM   26  C   UNL     1     -10.808  19.262  67.216  1.00  0.00    -0.449 C  
HETATM   27  F   UNL     1     -11.214  19.862  66.065  1.00  0.00    -0.409 F  
ENDBRANCH  24  25
ENDBRANCH  23  24
ENDBRANCH  22  23
ENDBRANCH  21  22
ENDBRANCH  20  21
ENDBRANCH  19  20
ENDBRANCH  18  19
ENDBRANCH  15  18
ENDBRANCH  11  12
ENDBRANCH   7  10
ENDBRANCH   1   4
TORSDOF 11
ENDMDL
MODEL      186
REMARK 921   NORMALIZED FREE ENERGY PREDICTED BY IDOCK:   -3.04 KCAL/MOL
REMARK 922        TOTAL FREE ENERGY PREDICTED BY IDOCK:   -5.86 KCAL/MOL
REMARK 923 INTER-LIGAND FREE ENERGY PREDICTED BY IDOCK:   -4.79 KCAL/MOL
REMARK 924 INTRA-LIGAND FREE ENERGY PREDICTED BY IDOCK:   -1.07 KCAL/MOL
REMARK 927      BINDING AFFINITY PREDICTED BY RF-SCORE:    0.00 PKD
ROOT
HETATM    1  N   UNL     1      -6.105   4.367  65.580  1.00  0.00    -0.026 NA 
HETATM    2  H   UNL     1      -5.237   4.188  66.085  1.00  0.00     0.000 HD 
HETATM    3  C   UNL     1      -6.626   3.393  64.634  1.00  0.00    -0.036 C  
ENDROOT
BRANCH   1   4
HETATM    4  C   UNL     1      -6.816   5.553  65.785  1.00  0.00    -0.057 A  
HETATM    5  C   UNL     1      -8.209   5.646  65.747  1.00  0.00    -0.122 A  
HETATM    6  C   UNL     1      -8.851   6.874  65.939  1.00  0.00    -0.125 A  
HETATM    7  C   UNL     1      -8.116   8.033  66.212  1.00  0.00    -0.112 A  
HETATM    8  C   UNL     1      -6.725   7.930  66.313  1.00  0.00    -0.054 A  
HETATM    9  C   UNL     1      -6.089   6.698  66.124  1.00  0.00    -0.033 A  
BRANCH   7  10
HETATM   10  C   UNL     1      -8.824   9.318  66.297  1.00  0.00    -0.172 C  
HETATM   11  C   UNL     1      -9.886   9.549  67.086  1.00  0.00    -0.239 C  
BRANCH  11  12
HETATM   12  C   UNL     1     -10.561  10.847  67.199  1.00  0.00    -0.302 A  
HETATM   13  C   UNL     1     -11.101  11.533  66.113  1.00  0.00    -0.244 A  
HETATM   14  N   UNL     1     -11.703  12.745  66.183  1.00  0.00    -0.382 NA 
HETATM   15  C   UNL     1     -11.737  13.331  67.395  1.00  0.00    -0.373 A  
HETATM   16  C   UNL     1     -10.621  11.493  68.434  1.00  0.00    -0.227 A  
HETATM   17  C   UNL     1     -11.207  12.757  68.540  1.00  0.00    -0.314 A  
BRANCH  15  18
HETATM   18  O   UNL     1     -12.293  14.584  67.538  1.00  0.00    -0.240 OA 
BRANCH  18  19
HETATM   19  C   UNL     1     -11.896  15.226  68.756  1.00  0.00    -0.307 C  
BRANCH  19  20
HETATM   20  C   UNL     1     -11.156  16.519  68.421  1.00  0.00    -0.333 C  
BRANCH  20  21
HETATM   21  O   UNL     1      -9.768  16.362  68.734  1.00  0.00    -0.230 OA 
BRANCH  21  22
HETATM   22  C   UNL     1      -9.016  15.925  67.605  1.00  0.00    -0.190 C  
BRANCH  22  23
HETATM   23  C   UNL     1      -8.085  14.798  68.033  1.00  0.00    -0.139 C  
BRANCH  23  24
HETATM   24  O   UNL     1      -6.819  15.346  68.403  1.00  0.00    -0.108 OA 
BRANCH  24  25
HETATM   25  C   UNL     1      -6.472  14.994  69.744  1.00  0.00    -0.163 C  
HETATM   26  C   UNL     1      -6.323  13.487  69.847  1.00  0.00    -0.071 C  
HETATM   27  F   UNL     1      -5.994  13.155  71.123  1.00  0.00    -0.190 F  
ENDBRANCH  24  25
ENDBRANCH  23  24
ENDBRANCH  22  23
ENDBRANCH  21  22
ENDBRANCH  20  21
ENDBRANCH  19  20
ENDBRANCH  18  19
ENDBRANCH  15  18
ENDBRANCH  11  12
ENDBRANCH   7  10
ENDBRANCH   1   4
TORSDOF 11
ENDMDL
MODEL      187
REMARK 921   NORMALIZED FREE ENERGY PREDICTED BY IDOCK:   -3.01 KCAL/MOL
REMARK 922        TOTAL FREE ENERGY PREDICTED BY IDOCK:   -5.81 KCAL/MOL
REMARK 923 INTER-LIGAND FREE ENERGY PREDICTED BY IDOCK:   -5.07 KCAL/MOL
REMARK 924 INTRA-LIGAND FREE ENERGY PREDICTED BY IDOCK:   -0.74 KCAL/MOL
REMARK 927      BINDING AFFINITY PREDICTED BY RF-SCORE:    0.00 PKD
ROOT
HETATM    1  N   UNL     1      -5.748   7.460  72.730  1.00  0.00    -0.040 NA 
HETATM    2  H   UNL     1      -5.169   7.747  73.519  1.00  0.00     0.000 HD 
HETATM    3  C   UNL     1      -6.070   6.057  72.518  1.00  0.00    -0.041 C  
ENDROOT
BRANCH   1   4
HETATM    4  C   UNL     1      -6.249   8.407  71.832  1.00  0.00    -0.061 A  
HETATM    5  C   UNL     1      -5.481   9.424  71.260  1.00  0.00    -0.060 A  
HETATM    6  C   UNL     1      -6.058  10.351  70.385  1.00  0.00    -0.118 A  
HETATM    7  C   UNL     1      -7.408  10.260  70.031  1.00  0.00    -0.157 A  
HETATM    8  C   UNL     1      -8.163   9.207  70.554  1.00  0.00    -0.203 A  
HETATM    9  C   UNL     1      -7.580   8.280  71.426  1.00  0.00    -0.095 A  
BRANCH   7  10
HETATM   10  C   UNL     1      -7.995  11.319  69.198  1.00  0.00    -0.002 C  
HETATM   11  C   UNL     1      -7.342  12.425  68.805  1.00  0.00    -0.076 C  
BRANCH  11  12
HETATM   12  C   UNL     1      -7.921  13.457  67.936  1.00  0.00    -0.155 A  
HETATM   13  C   UNL     1      -9.203  13.380  67.395  1.00  0.00    -0.213 A  
HETATM   14  N   UNL     1      -9.751  14.302  66.567  1.00  0.00    -0.281 NA 
HETATM   15  C   UNL     1      -8.969  15.344  66.224  1.00  0.00    -0.306 A  
HETATM   16  C   UNL     1      -7.149  14.554  67.552  1.00  0.00    -0.199 A  
HETATM   17  C   UNL     1      -7.671  15.510  66.677  1.00  0.00     0.011 A  
BRANCH  15  18
HETATM   18  O   UNL     1      -9.442  16.300  65.350  1.00  0.00    -0.405 OA 
BRANCH  18  19
HETATM   19  C   UNL     1     -10.333  17.229  65.981  1.00  0.00    -0.305 C  
BRANCH  19  20
HETATM   20  C   UNL     1      -9.569  18.001  67.054  1.00  0.00    -0.287 C  
BRANCH  20  21
HETATM   21  O   UNL     1     -10.306  17.957  68.280  1.00  0.00    -0.362 OA 
BRANCH  21  22
HETATM   22  C   UNL     1     -11.408  17.056  68.204  1.00  0.00     0.119 C  
BRANCH  22  23
HETATM   23  C   UNL     1     -11.448  16.212  69.473  1.00  0.00    -0.292 C  
BRANCH  23  24
HETATM   24  O   UNL     1     -11.975  14.922  69.165  1.00  0.00    -0.304 OA 
BRANCH  24  25
HETATM   25  C   UNL     1     -12.626  14.341  70.296  1.00  0.00    -0.319 C  
HETATM   26  C   UNL     1     -13.212  15.443  71.161  1.00  0.00    -0.513 C  
HETATM   27  F   UNL     1     -13.829  14.889  72.237  1.00  0.00    -0.403 F  
ENDBRANCH  24  25
ENDBRANCH  23  24
ENDBRANCH  22  23
ENDBRANCH  21  22
ENDBRANCH  20  21
ENDBRANCH  19  20
ENDBRANCH  18  19
ENDBRANCH  15  18
ENDBRANCH  11  12
ENDBRANCH   7  10
ENDBRANCH   1   4
TORSDOF 11
ENDMDL
MODEL      188
REMARK 921   NORMALIZED FREE ENERGY PREDICTED BY IDOCK:   -3.01 KCAL/MOL
REMARK 922        TOTAL FREE ENERGY PREDICTED BY IDOCK:   -5.80 KCAL/MOL
REMARK 923 INTER-LIGAND FREE ENERGY PREDICTED BY IDOCK:   -4.39 KCAL/MOL
REMARK 924 INTRA-LIGAND FREE ENERGY PREDICTED BY IDOCK:   -1.42 KCAL/MOL
REMARK 927      BINDING AFFINITY PREDICTED BY RF-SCORE:    0.00 PKD
ROOT
HETATM    1  N   UNL     1     -12.258  15.124  64.108  1.00  0.00    -0.849 NA 
HETATM    2  H   UNL     1     -13.151  15.080  63.618  1.00  0.00     0.000 HD 
HETATM    3  C   UNL     1     -11.556  16.389  64.258  1.00  0.00     0.171 C  
ENDROOT
BRANCH   1   4
HETATM    4  C   UNL     1     -11.685  13.970  64.648  1.00  0.00    -0.405 A  
HETATM    5  C   UNL     1     -10.316  13.689  64.621  1.00  0.00    -0.407 A  
HETATM    6  C   UNL     1      -9.817  12.500  65.163  1.00  0.00    -0.133 A  
HETATM    7  C   UNL     1     -10.671  11.579  65.780  1.00  0.00    -0.325 A  
HETATM    8  C   UNL     1     -12.032  11.886  65.864  1.00  0.00     0.034 A  
HETATM    9  C   UNL     1     -12.525  13.079  65.323  1.00  0.00    -0.555 A  
BRANCH   7  10
HETATM   10  C   UNL     1     -10.118  10.296  66.236  1.00  0.00    -0.300 C  
HETATM   11  C   UNL     1      -9.577   9.372  65.425  1.00  0.00    -0.296 C  
BRANCH  11  12
HETATM   12  C   UNL     1      -8.987   8.112  65.892  1.00  0.00    -0.195 A  
HETATM   13  C   UNL     1      -9.628   7.237  66.769  1.00  0.00    -0.185 A  
HETATM   14  N   UNL     1      -9.096   6.083  67.239  1.00  0.00    -0.112 NA 
HETATM   15  C   UNL     1      -7.839   5.796  66.848  1.00  0.00    -0.101 A  
HETATM   16  C   UNL     1      -7.688   7.772  65.516  1.00  0.00    -0.100 A  
HETATM   17  C   UNL     1      -7.095   6.604  66.003  1.00  0.00    -0.062 A  
BRANCH  15  18
HETATM   18  O   UNL     1      -7.214   4.662  67.321  1.00  0.00    -0.070 OA 
BRANCH  18  19
HETATM   19  C   UNL     1      -6.098   4.961  68.168  1.00  0.00    -0.031 C  
BRANCH  19  20
HETATM   20  C   UNL     1      -6.538   4.856  69.627  1.00  0.00    -0.039 C  
BRANCH  20  21
HETATM   21  O   UNL     1      -5.473   5.302  70.473  1.00  0.00    -0.004 OA 
BRANCH  21  22
HETATM   22  C   UNL     1      -5.956   6.061  71.578  1.00  0.00    -0.035 C  
BRANCH  22  23
HETATM   23  C   UNL     1      -7.107   6.944  71.110  1.00  0.00    -0.075 C  
BRANCH  23  24
HETATM   24  O   UNL     1      -6.918   8.269  71.608  1.00  0.00    -0.065 OA 
BRANCH  24  25
HETATM   25  C   UNL     1      -7.117   9.244  70.583  1.00  0.00    -0.111 C  
HETATM   26  C   UNL     1      -7.257   8.545  69.243  1.00  0.00    -0.063 C  
HETATM   27  F   UNL     1      -7.444   9.474  68.269  1.00  0.00    -0.076 F  
ENDBRANCH  24  25
ENDBRANCH  23  24
ENDBRANCH  22  23
ENDBRANCH  21  22
ENDBRANCH  20  21
ENDBRANCH  19  20
ENDBRANCH  18  19
ENDBRANCH  15  18
ENDBRANCH  11  12
ENDBRANCH   7  10
ENDBRANCH   1   4
TORSDOF 11
ENDMDL
MODEL      189
REMARK 921   NORMALIZED FREE ENERGY PREDICTED BY IDOCK:   -2.98 KCAL/MOL
REMARK 922        TOTAL FREE ENERGY PREDICTED BY IDOCK:   -5.76 KCAL/MOL
REMARK 923 INTER-LIGAND FREE ENERGY PREDICTED BY IDOCK:   -5.63 KCAL/MOL
REMARK 924 INTRA-LIGAND FREE ENERGY PREDICTED BY IDOCK:   -0.12 KCAL/MOL
REMARK 927      BINDING AFFINITY PREDICTED BY RF-SCORE:    0.00 PKD
ROOT
HETATM    1  N   UNL     1     -10.544  18.959  66.235  1.00  0.00    -0.424 NA 
HETATM    2  H   UNL     1     -11.430  19.449  66.110  1.00  0.00     0.000 HD 
HETATM    3  C   UNL     1      -9.281  19.671  66.124  1.00  0.00    -0.340 C  
ENDROOT
BRANCH   1   4
HETATM    4  C   UNL     1     -10.522  17.590  66.515  1.00  0.00    -0.270 A  
HETATM    5  C   UNL     1     -10.707  16.592  65.555  1.00  0.00    -0.234 A  
HETATM    6  C   UNL     1     -10.694  15.240  65.915  1.00  0.00    -0.340 A  
HETATM    7  C   UNL     1     -10.457  14.852  67.238  1.00  0.00    -0.263 A  
HETATM    8  C   UNL     1     -10.210  15.846  68.189  1.00  0.00    -0.232 A  
HETATM    9  C   UNL     1     -10.221  17.196  67.822  1.00  0.00    -0.324 A  
BRANCH   7  10
HETATM   10  C   UNL     1     -10.563  13.429  67.589  1.00  0.00    -0.249 C  
HETATM   11  C   UNL     1     -10.067  12.425  66.846  1.00  0.00    -0.230 C  
BRANCH  11  12
HETATM   12  C   UNL     1     -10.137  11.009  67.224  1.00  0.00    -0.222 A  
HETATM   13  C   UNL     1     -10.132  10.562  68.544  1.00  0.00    -0.173 A  
HETATM   14  N   UNL     1     -10.166   9.261  68.922  1.00  0.00    -0.196 NA 
HETATM   15  C   UNL     1     -10.166   8.346  67.933  1.00  0.00    -0.217 A  
HETATM   16  C   UNL     1     -10.139  10.025  66.235  1.00  0.00    -0.310 A  
HETATM   17  C   UNL     1     -10.144   8.673  66.587  1.00  0.00    -0.364 A  
BRANCH  15  18
HETATM   18  O   UNL     1     -10.155   7.002  68.239  1.00  0.00    -0.155 OA 
BRANCH  18  19
HETATM   19  C   UNL     1     -11.067   6.247  67.431  1.00  0.00    -0.287 C  
BRANCH  19  20
HETATM   20  C   UNL     1     -10.270   5.325  66.510  1.00  0.00    -0.253 C  
BRANCH  20  21
HETATM   21  O   UNL     1      -8.943   5.176  67.026  1.00  0.00    -0.113 OA 
BRANCH  21  22
HETATM   22  C   UNL     1      -8.377   3.916  66.676  1.00  0.00    -0.104 C  
BRANCH  22  23
HETATM   23  C   UNL     1      -6.858   4.036  66.673  1.00  0.00    -0.058 C  
BRANCH  23  24
HETATM   24  O   UNL     1      -6.374   3.873  65.340  1.00  0.00    -0.030 OA 
BRANCH  24  25
HETATM   25  C   UNL     1      -6.906   4.871  64.467  1.00  0.00    -0.049 C  
HETATM   26  C   UNL     1      -8.033   4.272  63.646  1.00  0.00    -0.089 C  
HETATM   27  F   UNL     1      -8.537   5.222  62.814  1.00  0.00    -0.106 F  
ENDBRANCH  24  25
ENDBRANCH  23  24
ENDBRANCH  22  23
ENDBRANCH  21  22
ENDBRANCH  20  21
ENDBRANCH  19  20
ENDBRANCH  18  19
ENDBRANCH  15  18
ENDBRANCH  11  12
ENDBRANCH   7  10
ENDBRANCH   1   4
TORSDOF 11
ENDMDL
MODEL      190
REMARK 921   NORMALIZED FREE ENERGY PREDICTED BY IDOCK:   -2.97 KCAL/MOL
REMARK 922        TOTAL FREE ENERGY PREDICTED BY IDOCK:   -5.74 KCAL/MOL
REMARK 923 INTER-LIGAND FREE ENERGY PREDICTED BY IDOCK:   -4.88 KCAL/MOL
REMARK 924 INTRA-LIGAND FREE ENERGY PREDICTED BY IDOCK:   -0.86 KCAL/MOL
REMARK 927      BINDING AFFINITY PREDICTED BY RF-SCORE:    0.00 PKD
ROOT
HETATM    1  N   UNL     1     -11.919  14.887  63.837  1.00  0.00    -0.892 NA 
HETATM    2  H   UNL     1     -12.619  14.648  63.136  1.00  0.00     0.000 HD 
HETATM    3  C   UNL     1     -11.586  16.277  64.109  1.00  0.00     0.200 C  
ENDROOT
BRANCH   1   4
HETATM    4  C   UNL     1     -11.261  13.886  64.556  1.00  0.00    -0.365 A  
HETATM    5  C   UNL     1     -11.003  13.948  65.928  1.00  0.00    -0.284 A  
HETATM    6  C   UNL     1     -10.317  12.915  66.576  1.00  0.00    -0.272 A  
HETATM    7  C   UNL     1      -9.907  11.776  65.875  1.00  0.00    -0.265 A  
HETATM    8  C   UNL     1     -10.219  11.683  64.516  1.00  0.00    -0.337 A  
HETATM    9  C   UNL     1     -10.908  12.717  63.874  1.00  0.00    -0.447 A  
BRANCH   7  10
HETATM   10  C   UNL     1      -9.095  10.769  66.573  1.00  0.00    -0.181 C  
HETATM   11  C   UNL     1      -8.704  10.864  67.854  1.00  0.00    -0.131 C  
BRANCH  11  12
HETATM   12  C   UNL     1      -7.931   9.833  68.557  1.00  0.00    -0.089 A  
HETATM   13  C   UNL     1      -6.849   9.160  67.992  1.00  0.00    -0.069 A  
HETATM   14  N   UNL     1      -6.136   8.186  68.606  1.00  0.00    -0.043 NA 
HETATM   15  C   UNL     1      -6.543   7.828  69.840  1.00  0.00    -0.037 A  
HETATM   16  C   UNL     1      -8.315   9.429  69.836  1.00  0.00    -0.174 A  
HETATM   17  C   UNL     1      -7.621   8.407  70.489  1.00  0.00    -0.074 A  
BRANCH  15  18
HETATM   18  O   UNL     1      -5.895   6.812  70.510  1.00  0.00    -0.023 OA 
BRANCH  18  19
HETATM   19  C   UNL     1      -6.768   5.723  70.835  1.00  0.00    -0.052 C  
BRANCH  19  20
HETATM   20  C   UNL     1      -7.264   5.080  69.542  1.00  0.00    -0.056 C  
BRANCH  20  21
HETATM   21  O   UNL     1      -8.032   3.915  69.860  1.00  0.00    -0.051 OA 
BRANCH  21  22
HETATM   22  C   UNL     1      -8.111   3.015  68.758  1.00  0.00    -0.056 C  
BRANCH  22  23
HETATM   23  C   UNL     1      -8.407   3.807  67.489  1.00  0.00    -0.094 C  
BRANCH  23  24
HETATM   24  O   UNL     1      -9.793   3.684  67.168  1.00  0.00    -0.140 OA 
BRANCH  24  25
HETATM   25  C   UNL     1     -10.291   4.871  66.550  1.00  0.00    -0.270 C  
HETATM   26  C   UNL     1     -10.584   5.910  67.616  1.00  0.00    -0.262 C  
HETATM   27  F   UNL     1     -11.061   7.038  67.026  1.00  0.00    -0.413 F  
ENDBRANCH  24  25
ENDBRANCH  23  24
ENDBRANCH  22  23
ENDBRANCH  21  22
ENDBRANCH  20  21
ENDBRANCH  19  20
ENDBRANCH  18  19
ENDBRANCH  15  18
ENDBRANCH  11  12
ENDBRANCH   7  10
ENDBRANCH   1   4
TORSDOF 11
ENDMDL
MODEL      191
REMARK 921   NORMALIZED FREE ENERGY PREDICTED BY IDOCK:   -2.93 KCAL/MOL
REMARK 922        TOTAL FREE ENERGY PREDICTED BY IDOCK:   -5.67 KCAL/MOL
REMARK 923 INTER-LIGAND FREE ENERGY PREDICTED BY IDOCK:   -5.28 KCAL/MOL
REMARK 924 INTRA-LIGAND FREE ENERGY PREDICTED BY IDOCK:   -0.39 KCAL/MOL
REMARK 927      BINDING AFFINITY PREDICTED BY RF-SCORE:    0.00 PKD
ROOT
HETATM    1  N   UNL     1     -11.731  13.332  64.225  1.00  0.00    -0.386 NA 
HETATM    2  H   UNL     1     -12.068  13.012  63.317  1.00  0.00     0.000 HD 
HETATM    3  C   UNL     1     -11.592  14.752  64.505  1.00  0.00    -0.361 C  
ENDROOT
BRANCH   1   4
HETATM    4  C   UNL     1     -11.396  12.414  65.224  1.00  0.00    -0.332 A  
HETATM    5  C   UNL     1     -10.538  11.328  65.033  1.00  0.00    -0.353 A  
HETATM    6  C   UNL     1     -10.267  10.437  66.077  1.00  0.00    -0.295 A  
HETATM    7  C   UNL     1     -10.817  10.632  67.348  1.00  0.00    -0.353 A  
HETATM    8  C   UNL     1     -11.626  11.752  67.558  1.00  0.00    -0.361 A  
HETATM    9  C   UNL     1     -11.891  12.642  66.512  1.00  0.00    -0.463 A  
BRANCH   7  10
HETATM   10  C   UNL     1     -10.593   9.611  68.381  1.00  0.00    -0.264 C  
HETATM   11  C   UNL     1     -11.429   9.370  69.404  1.00  0.00     0.182 C  
BRANCH  11  12
HETATM   12  C   UNL     1     -11.221   8.320  70.407  1.00  0.00    -0.222 A  
HETATM   13  C   UNL     1     -12.226   7.459  70.844  1.00  0.00    -0.231 A  
HETATM   14  N   UNL     1     -12.071   6.500  71.788  1.00  0.00    -0.347 NA 
HETATM   15  C   UNL     1     -10.856   6.414  72.363  1.00  0.00    -0.236 A  
HETATM   16  C   UNL     1      -9.980   8.192  71.032  1.00  0.00    -0.220 A  
HETATM   17  C   UNL     1      -9.789   7.234  72.031  1.00  0.00    -0.183 A  
BRANCH  15  18
HETATM   18  O   UNL     1     -10.633   5.492  73.364  1.00  0.00    -0.220 OA 
BRANCH  18  19
HETATM   19  C   UNL     1      -9.402   4.779  73.191  1.00  0.00    -0.121 C  
BRANCH  19  20
HETATM   20  C   UNL     1      -8.594   4.857  74.484  1.00  0.00    -0.109 C  
BRANCH  20  21
HETATM   21  O   UNL     1      -7.369   5.553  74.233  1.00  0.00    -0.088 OA 
BRANCH  21  22
HETATM   22  C   UNL     1      -7.510   6.959  74.420  1.00  0.00    -0.105 C  
BRANCH  22  23
HETATM   23  C   UNL     1      -6.865   7.684  73.245  1.00  0.00    -0.072 C  
BRANCH  23  24
HETATM   24  O   UNL     1      -6.708   6.774  72.157  1.00  0.00    -0.057 OA 
BRANCH  24  25
HETATM   25  C   UNL     1      -6.413   7.463  70.941  1.00  0.00    -0.039 C  
HETATM   26  C   UNL     1      -6.049   6.455  69.866  1.00  0.00    -0.030 C  
HETATM   27  F   UNL     1      -5.767   7.113  68.710  1.00  0.00    -0.016 F  
ENDBRANCH  24  25
ENDBRANCH  23  24
ENDBRANCH  22  23
ENDBRANCH  21  22
ENDBRANCH  20  21
ENDBRANCH  19  20
ENDBRANCH  18  19
ENDBRANCH  15  18
ENDBRANCH  11  12
ENDBRANCH   7  10
ENDBRANCH   1   4
TORSDOF 11
ENDMDL
MODEL      192
REMARK 921   NORMALIZED FREE ENERGY PREDICTED BY IDOCK:   -2.88 KCAL/MOL
REMARK 922        TOTAL FREE ENERGY PREDICTED BY IDOCK:   -5.59 KCAL/MOL
REMARK 923 INTER-LIGAND FREE ENERGY PREDICTED BY IDOCK:   -4.74 KCAL/MOL
REMARK 924 INTRA-LIGAND FREE ENERGY PREDICTED BY IDOCK:   -0.85 KCAL/MOL
REMARK 927      BINDING AFFINITY PREDICTED BY RF-SCORE:    0.00 PKD
ROOT
HETATM    1  N   UNL     1     -12.193  16.012  71.293  1.00  0.00    -0.560 NA 
HETATM    2  H   UNL     1     -11.741  16.858  71.638  1.00  0.00     0.000 HD 
HETATM    3  C   UNL     1     -13.492  15.604  71.805  1.00  0.00    -0.436 C  
ENDROOT
BRANCH   1   4
HETATM    4  C   UNL     1     -11.577  15.221  70.320  1.00  0.00    -0.301 A  
HETATM    5  C   UNL     1     -12.074  13.992  69.880  1.00  0.00    -0.406 A  
HETATM    6  C   UNL     1     -11.388  13.245  68.916  1.00  0.00    -0.333 A  
HETATM    7  C   UNL     1     -10.208  13.727  68.340  1.00  0.00    -0.248 A  
HETATM    8  C   UNL     1      -9.742  14.984  68.733  1.00  0.00    -0.227 A  
HETATM    9  C   UNL     1     -10.434  15.729  69.695  1.00  0.00    -0.289 A  
BRANCH   7  10
HETATM   10  C   UNL     1      -9.465  12.860  67.415  1.00  0.00    -0.198 C  
HETATM   11  C   UNL     1      -9.373  11.525  67.535  1.00  0.00    -0.166 C  
BRANCH  11  12
HETATM   12  C   UNL     1      -8.666  10.661  66.582  1.00  0.00    -0.144 A  
HETATM   13  C   UNL     1      -9.255   9.571  65.944  1.00  0.00    -0.206 A  
HETATM   14  N   UNL     1      -8.620   8.739  65.084  1.00  0.00    -0.184 NA 
HETATM   15  C   UNL     1      -7.312   8.978  64.872  1.00  0.00    -0.100 A  
HETATM   16  C   UNL     1      -7.309  10.868  66.331  1.00  0.00    -0.141 A  
HETATM   17  C   UNL     1      -6.614  10.014  65.472  1.00  0.00    -0.100 A  
BRANCH  15  18
HETATM   18  O   UNL     1      -6.587   8.147  64.044  1.00  0.00    -0.065 OA 
BRANCH  18  19
HETATM   19  C   UNL     1      -6.835   6.760  64.302  1.00  0.00    -0.050 C  
BRANCH  19  20
HETATM   20  C   UNL     1      -5.628   6.162  65.022  1.00  0.00    -0.017 C  
BRANCH  20  21
HETATM   21  O   UNL     1      -5.729   6.443  66.422  1.00  0.00    -0.013 OA 
BRANCH  21  22
HETATM   22  C   UNL     1      -6.274   5.342  67.145  1.00  0.00    -0.031 C  
BRANCH  22  23
HETATM   23  C   UNL     1      -7.495   5.816  67.925  1.00  0.00    -0.078 C  
BRANCH  23  24
HETATM   24  O   UNL     1      -8.601   4.962  67.635  1.00  0.00    -0.104 OA 
BRANCH  24  25
HETATM   25  C   UNL     1      -9.368   4.687  68.809  1.00  0.00    -0.140 C  
HETATM   26  C   UNL     1      -8.441   4.235  69.923  1.00  0.00    -0.061 C  
HETATM   27  F   UNL     1      -9.173   3.972  71.037  1.00  0.00    -0.145 F  
ENDBRANCH  24  25
ENDBRANCH  23  24
ENDBRANCH  22  23
ENDBRANCH  21  22
ENDBRANCH  20  21
ENDBRANCH  19  20
ENDBRANCH  18  19
ENDBRANCH  15  18
ENDBRANCH  11  12
ENDBRANCH   7  10
ENDBRANCH   1   4
TORSDOF 11
ENDMDL
MODEL      193
REMARK 921   NORMALIZED FREE ENERGY PREDICTED BY IDOCK:   -2.87 KCAL/MOL
REMARK 922        TOTAL FREE ENERGY PREDICTED BY IDOCK:   -5.58 KCAL/MOL
REMARK 923 INTER-LIGAND FREE ENERGY PREDICTED BY IDOCK:   -4.87 KCAL/MOL
REMARK 924 INTRA-LIGAND FREE ENERGY PREDICTED BY IDOCK:   -0.71 KCAL/MOL
REMARK 927      BINDING AFFINITY PREDICTED BY RF-SCORE:    0.00 PKD
ROOT
HETATM    1  N   UNL     1     -10.236  19.090  67.345  1.00  0.00    -0.368 NA 
HETATM    2  H   UNL     1     -10.113  19.714  68.143  1.00  0.00     0.000 HD 
HETATM    3  C   UNL     1     -10.590  19.620  66.038  1.00  0.00    -0.483 C  
ENDROOT
BRANCH   1   4
HETATM    4  C   UNL     1     -10.069  17.710  67.488  1.00  0.00    -0.337 A  
HETATM    5  C   UNL     1     -10.624  16.761  66.627  1.00  0.00    -0.198 A  
HETATM    6  C   UNL     1     -10.431  15.393  66.847  1.00  0.00    -0.295 A  
HETATM    7  C   UNL     1      -9.645  14.942  67.912  1.00  0.00    -0.205 A  
HETATM    8  C   UNL     1      -9.037  15.891  68.739  1.00  0.00    -0.219 A  
HETATM    9  C   UNL     1      -9.230  17.258  68.512  1.00  0.00    -0.273 A  
BRANCH   7  10
HETATM   10  C   UNL     1      -9.561  13.497  68.169  1.00  0.00    -0.215 C  
HETATM   11  C   UNL     1      -8.972  12.613  67.347  1.00  0.00    -0.190 C  
BRANCH  11  12
HETATM   12  C   UNL     1      -8.853  11.178  67.630  1.00  0.00    -0.136 A  
HETATM   13  C   UNL     1      -8.584  10.218  66.656  1.00  0.00    -0.127 A  
HETATM   14  N   UNL     1      -8.498   8.886  66.884  1.00  0.00    -0.111 NA 
HETATM   15  C   UNL     1      -8.730   8.474  68.146  1.00  0.00    -0.142 A  
HETATM   16  C   UNL     1      -9.086  10.704  68.922  1.00  0.00    -0.181 A  
HETATM   17  C   UNL     1      -9.035   9.334  69.189  1.00  0.00    -0.144 A  
BRANCH  15  18
HETATM   18  O   UNL     1      -8.704   7.129  68.446  1.00  0.00    -0.126 OA 
BRANCH  18  19
HETATM   19  C   UNL     1      -7.525   6.750  69.168  1.00  0.00    -0.095 C  
BRANCH  19  20
HETATM   20  C   UNL     1      -7.866   5.595  70.108  1.00  0.00    -0.091 C  
BRANCH  20  21
HETATM   21  O   UNL     1      -7.131   4.433  69.712  1.00  0.00    -0.047 OA 
BRANCH  21  22
HETATM   22  C   UNL     1      -7.394   4.075  68.358  1.00  0.00    -0.059 C  
BRANCH  22  23
HETATM   23  C   UNL     1      -8.663   3.233  68.303  1.00  0.00    -0.104 C  
BRANCH  23  24
HETATM   24  O   UNL     1      -9.459   3.650  67.194  1.00  0.00    -0.191 OA 
BRANCH  24  25
HETATM   25  C   UNL     1     -10.352   4.704  67.562  1.00  0.00     0.069 C  
HETATM   26  C   UNL     1     -10.686   5.533  66.335  1.00  0.00    -0.194 C  
HETATM   27  F   UNL     1     -11.533   6.535  66.687  1.00  0.00    -0.406 F  
ENDBRANCH  24  25
ENDBRANCH  23  24
ENDBRANCH  22  23
ENDBRANCH  21  22
ENDBRANCH  20  21
ENDBRANCH  19  20
ENDBRANCH  18  19
ENDBRANCH  15  18
ENDBRANCH  11  12
ENDBRANCH   7  10
ENDBRANCH   1   4
TORSDOF 11
ENDMDL
MODEL      194
REMARK 921   NORMALIZED FREE ENERGY PREDICTED BY IDOCK:   -2.86 KCAL/MOL
REMARK 922        TOTAL FREE ENERGY PREDICTED BY IDOCK:   -5.56 KCAL/MOL
REMARK 923 INTER-LIGAND FREE ENERGY PREDICTED BY IDOCK:   -4.77 KCAL/MOL
REMARK 924 INTRA-LIGAND FREE ENERGY PREDICTED BY IDOCK:   -0.79 KCAL/MOL
REMARK 927      BINDING AFFINITY PREDICTED BY RF-SCORE:    0.00 PKD
ROOT
HETATM    1  N   UNL     1     -10.549  19.371  67.605  1.00  0.00    -0.458 NA 
HETATM    2  H   UNL     1     -11.015  19.935  66.894  1.00  0.00     0.000 HD 
HETATM    3  C   UNL     1     -10.308  19.907  68.936  1.00  0.00    -0.185 C  
ENDROOT
BRANCH   1   4
HETATM    4  C   UNL     1     -10.130  18.069  67.319  1.00  0.00    -0.342 A  
HETATM    5  C   UNL     1      -9.029  17.761  66.516  1.00  0.00    -0.280 A  
HETATM    6  C   UNL     1      -8.683  16.430  66.255  1.00  0.00    -0.369 A  
HETATM    7  C   UNL     1      -9.407  15.376  66.822  1.00  0.00    -0.267 A  
HETATM    8  C   UNL     1     -10.471  15.683  67.675  1.00  0.00    -0.283 A  
HETATM    9  C   UNL     1     -10.810  17.015  67.936  1.00  0.00    -0.302 A  
BRANCH   7  10
HETATM   10  C   UNL     1      -9.076  13.998  66.432  1.00  0.00    -0.120 C  
HETATM   11  C   UNL     1      -8.513  13.093  67.248  1.00  0.00    -0.199 C  
BRANCH  11  12
HETATM   12  C   UNL     1      -8.226  11.706  66.865  1.00  0.00    -0.169 A  
HETATM   13  C   UNL     1      -6.937  11.187  66.750  1.00  0.00    -0.137 A  
HETATM   14  N   UNL     1      -6.642   9.921  66.371  1.00  0.00    -0.071 NA 
HETATM   15  C   UNL     1      -7.684   9.131  66.048  1.00  0.00    -0.095 A  
HETATM   16  C   UNL     1      -9.272  10.849  66.521  1.00  0.00    -0.189 A  
HETATM   17  C   UNL     1      -9.005   9.545  66.097  1.00  0.00    -0.191 A  
BRANCH  15  18
HETATM   18  O   UNL     1      -7.460   7.843  65.610  1.00  0.00    -0.077 OA 
BRANCH  18  19
HETATM   19  C   UNL     1      -7.790   7.668  64.226  1.00  0.00    -0.135 C  
BRANCH  19  20
HETATM   20  C   UNL     1      -7.986   6.180  63.944  1.00  0.00    -0.103 C  
BRANCH  20  21
HETATM   21  O   UNL     1      -6.738   5.500  64.113  1.00  0.00    -0.040 OA 
BRANCH  21  22
HETATM   22  C   UNL     1      -6.873   4.340  64.930  1.00  0.00    -0.049 C  
BRANCH  22  23
HETATM   23  C   UNL     1      -8.334   4.183  65.334  1.00  0.00    -0.109 C  
BRANCH  23  24
HETATM   24  O   UNL     1      -8.465   3.057  66.202  1.00  0.00    -0.099 OA 
BRANCH  24  25
HETATM   25  C   UNL     1      -9.454   3.287  67.207  1.00  0.00    -0.148 C  
HETATM   26  C   UNL     1      -8.846   4.098  68.337  1.00  0.00    -0.105 C  
HETATM   27  F   UNL     1      -9.787   4.314  69.292  1.00  0.00    -0.243 F  
ENDBRANCH  24  25
ENDBRANCH  23  24
ENDBRANCH  22  23
ENDBRANCH  21  22
ENDBRANCH  20  21
ENDBRANCH  19  20
ENDBRANCH  18  19
ENDBRANCH  15  18
ENDBRANCH  11  12
ENDBRANCH   7  10
ENDBRANCH   1   4
TORSDOF 11
ENDMDL
MODEL      195
REMARK 921   NORMALIZED FREE ENERGY PREDICTED BY IDOCK:   -2.84 KCAL/MOL
REMARK 922        TOTAL FREE ENERGY PREDICTED BY IDOCK:   -5.52 KCAL/MOL
REMARK 923 INTER-LIGAND FREE ENERGY PREDICTED BY IDOCK:   -5.28 KCAL/MOL
REMARK 924 INTRA-LIGAND FREE ENERGY PREDICTED BY IDOCK:   -0.25 KCAL/MOL
REMARK 927      BINDING AFFINITY PREDICTED BY RF-SCORE:    0.00 PKD
ROOT
HETATM    1  N   UNL     1     -12.668  15.685  69.994  1.00  0.00    -0.565 NA 
HETATM    2  H   UNL     1     -12.626  16.653  69.677  1.00  0.00     0.000 HD 
HETATM    3  C   UNL     1     -13.433  15.324  71.178  1.00  0.00    -0.489 C  
ENDROOT
BRANCH   1   4
HETATM    4  C   UNL     1     -11.990  14.679  69.300  1.00  0.00    -0.302 A  
HETATM    5  C   UNL     1     -11.050  14.918  68.296  1.00  0.00    -0.290 A  
HETATM    6  C   UNL     1     -10.428  13.858  67.628  1.00  0.00    -0.245 A  
HETATM    7  C   UNL     1     -10.704  12.531  67.974  1.00  0.00    -0.242 A  
HETATM    8  C   UNL     1     -11.598  12.289  69.021  1.00  0.00    -0.368 A  
HETATM    9  C   UNL     1     -12.214  13.354  69.688  1.00  0.00    -0.279 A  
BRANCH   7  10
HETATM   10  C   UNL     1     -10.111  11.451  67.173  1.00  0.00    -0.226 C  
HETATM   11  C   UNL     1      -9.004  11.581  66.424  1.00  0.00    -0.200 C  
BRANCH  11  12
HETATM   12  C   UNL     1      -8.393  10.487  65.661  1.00  0.00    -0.167 A  
HETATM   13  C   UNL     1      -7.188   9.880  66.011  1.00  0.00    -0.106 A  
HETATM   14  N   UNL     1      -6.587   8.889  65.311  1.00  0.00    -0.067 NA 
HETATM   15  C   UNL     1      -7.195   8.500  64.173  1.00  0.00    -0.092 A  
HETATM   16  C   UNL     1      -8.986  10.051  64.476  1.00  0.00    -0.261 A  
HETATM   17  C   UNL     1      -8.380   9.051  63.712  1.00  0.00    -0.178 A  
BRANCH  15  18
HETATM   18  O   UNL     1      -6.621   7.528  63.383  1.00  0.00    -0.053 OA 
BRANCH  18  19
HETATM   19  C   UNL     1      -7.213   6.238  63.581  1.00  0.00    -0.054 C  
BRANCH  19  20
HETATM   20  C   UNL     1      -8.191   6.313  64.752  1.00  0.00    -0.100 C  
BRANCH  20  21
HETATM   21  O   UNL     1      -7.683   5.536  65.841  1.00  0.00    -0.089 OA 
BRANCH  21  22
HETATM   22  C   UNL     1      -8.629   5.425  66.900  1.00  0.00    -0.109 C  
BRANCH  22  23
HETATM   23  C   UNL     1      -8.591   6.699  67.736  1.00  0.00    -0.121 C  
BRANCH  23  24
HETATM   24  O   UNL     1      -8.325   6.362  69.098  1.00  0.00    -0.119 OA 
BRANCH  24  25
HETATM   25  C   UNL     1      -8.890   7.322  69.992  1.00  0.00    -0.141 C  
HETATM   26  C   UNL     1     -10.208   7.822  69.428  1.00  0.00    -0.208 C  
HETATM   27  F   UNL     1     -10.743   8.737  70.279  1.00  0.00    -0.207 F  
ENDBRANCH  24  25
ENDBRANCH  23  24
ENDBRANCH  22  23
ENDBRANCH  21  22
ENDBRANCH  20  21
ENDBRANCH  19  20
ENDBRANCH  18  19
ENDBRANCH  15  18
ENDBRANCH  11  12
ENDBRANCH   7  10
ENDBRANCH   1   4
TORSDOF 11
ENDMDL
MODEL      196
REMARK 921   NORMALIZED FREE ENERGY PREDICTED BY IDOCK:   -2.83 KCAL/MOL
REMARK 922        TOTAL FREE ENERGY PREDICTED BY IDOCK:   -5.51 KCAL/MOL
REMARK 923 INTER-LIGAND FREE ENERGY PREDICTED BY IDOCK:   -4.90 KCAL/MOL
REMARK 924 INTRA-LIGAND FREE ENERGY PREDICTED BY IDOCK:   -0.62 KCAL/MOL
REMARK 927      BINDING AFFINITY PREDICTED BY RF-SCORE:    0.00 PKD
ROOT
HETATM    1  N   UNL     1     -10.716  18.226  66.801  1.00  0.00    -0.296 NA 
HETATM    2  H   UNL     1     -11.202  18.599  65.985  1.00  0.00     0.000 HD 
HETATM    3  C   UNL     1     -10.367  19.092  67.916  1.00  0.00    -0.414 C  
ENDROOT
BRANCH   1   4
HETATM    4  C   UNL     1     -10.374  16.873  66.869  1.00  0.00    -0.304 A  
HETATM    5  C   UNL     1      -9.237  16.323  66.273  1.00  0.00    -0.363 A  
HETATM    6  C   UNL     1      -8.971  14.952  66.365  1.00  0.00    -0.254 A  
HETATM    7  C   UNL     1      -9.817  14.104  67.087  1.00  0.00    -0.253 A  
HETATM    8  C   UNL     1     -10.922  14.662  67.736  1.00  0.00    -0.291 A  
HETATM    9  C   UNL     1     -11.181  16.034  67.644  1.00  0.00    -0.183 A  
BRANCH   7  10
HETATM   10  C   UNL     1      -9.559  12.657  67.063  1.00  0.00    -0.219 C  
HETATM   11  C   UNL     1      -9.765  11.833  68.103  1.00  0.00    -0.192 C  
BRANCH  11  12
HETATM   12  C   UNL     1      -9.547  10.382  68.058  1.00  0.00    -0.156 A  
HETATM   13  C   UNL     1     -10.517   9.444  68.408  1.00  0.00    -0.218 A  
HETATM   14  N   UNL     1     -10.335   8.102  68.404  1.00  0.00    -0.208 NA 
HETATM   15  C   UNL     1      -9.106   7.662  68.071  1.00  0.00    -0.135 A  
HETATM   16  C   UNL     1      -8.290   9.879  67.721  1.00  0.00    -0.114 A  
HETATM   17  C   UNL     1      -8.057   8.501  67.734  1.00  0.00    -0.115 A  
BRANCH  15  18
HETATM   18  O   UNL     1      -8.831   6.311  68.088  1.00  0.00    -0.115 OA 
BRANCH  18  19
HETATM   19  C   UNL     1      -7.498   6.027  68.532  1.00  0.00    -0.087 C  
BRANCH  19  20
HETATM   20  C   UNL     1      -7.008   4.750  67.851  1.00  0.00    -0.061 C  
BRANCH  20  21
HETATM   21  O   UNL     1      -7.988   4.316  66.903  1.00  0.00    -0.096 OA 
BRANCH  21  22
HETATM   22  C   UNL     1      -7.690   4.771  65.586  1.00  0.00    -0.090 C  
BRANCH  22  23
HETATM   23  C   UNL     1      -8.928   4.606  64.711  1.00  0.00    -0.153 C  
BRANCH  23  24
HETATM   24  O   UNL     1      -8.566   3.932  63.505  1.00  0.00    -0.091 OA 
BRANCH  24  25
HETATM   25  C   UNL     1      -9.721   3.568  62.747  1.00  0.00    -0.107 C  
HETATM   26  C   UNL     1     -10.599   2.647  63.575  1.00  0.00    -0.199 C  
HETATM   27  F   UNL     1     -11.695   2.301  62.850  1.00  0.00    -0.186 F  
ENDBRANCH  24  25
ENDBRANCH  23  24
ENDBRANCH  22  23
ENDBRANCH  21  22
ENDBRANCH  20  21
ENDBRANCH  19  20
ENDBRANCH  18  19
ENDBRANCH  15  18
ENDBRANCH  11  12
ENDBRANCH   7  10
ENDBRANCH   1   4
TORSDOF 11
ENDMDL
MODEL      197
REMARK 921   NORMALIZED FREE ENERGY PREDICTED BY IDOCK:   -2.80 KCAL/MOL
REMARK 922        TOTAL FREE ENERGY PREDICTED BY IDOCK:   -5.45 KCAL/MOL
REMARK 923 INTER-LIGAND FREE ENERGY PREDICTED BY IDOCK:   -4.57 KCAL/MOL
REMARK 924 INTRA-LIGAND FREE ENERGY PREDICTED BY IDOCK:   -0.89 KCAL/MOL
REMARK 927      BINDING AFFINITY PREDICTED BY RF-SCORE:    0.00 PKD
ROOT
HETATM    1  N   UNL     1     -10.344  18.942  68.594  1.00  0.00    -0.456 NA 
HETATM    2  H   UNL     1     -11.323  19.219  68.523  1.00  0.00     0.000 HD 
HETATM    3  C   UNL     1      -9.313  19.927  68.880  1.00  0.00    -0.093 C  
ENDROOT
BRANCH   1   4
HETATM    4  C   UNL     1      -9.968  17.607  68.419  1.00  0.00    -0.356 A  
HETATM    5  C   UNL     1     -10.871  16.545  68.331  1.00  0.00    -0.348 A  
HETATM    6  C   UNL     1     -10.419  15.230  68.178  1.00  0.00    -0.246 A  
HETATM    7  C   UNL     1      -9.052  14.949  68.070  1.00  0.00    -0.180 A  
HETATM    8  C   UNL     1      -8.150  16.017  68.096  1.00  0.00    -0.147 A  
HETATM    9  C   UNL     1      -8.609  17.330  68.245  1.00  0.00    -0.247 A  
BRANCH   7  10
HETATM   10  C   UNL     1      -8.619  13.546  68.022  1.00  0.00    -0.177 C  
HETATM   11  C   UNL     1      -9.403  12.522  67.647  1.00  0.00    -0.189 C  
BRANCH  11  12
HETATM   12  C   UNL     1      -8.950  11.129  67.558  1.00  0.00    -0.139 A  
HETATM   13  C   UNL     1      -7.878  10.714  66.771  1.00  0.00    -0.126 A  
HETATM   14  N   UNL     1      -7.456   9.433  66.647  1.00  0.00    -0.093 NA 
HETATM   15  C   UNL     1      -8.164   8.499  67.313  1.00  0.00    -0.108 A  
HETATM   16  C   UNL     1      -9.651  10.127  68.230  1.00  0.00    -0.150 A  
HETATM   17  C   UNL     1      -9.264   8.790  68.103  1.00  0.00    -0.145 A  
BRANCH  15  18
HETATM   18  O   UNL     1      -7.823   7.168  67.201  1.00  0.00    -0.106 OA 
BRANCH  18  19
HETATM   19  C   UNL     1      -7.912   6.470  68.450  1.00  0.00    -0.110 C  
BRANCH  19  20
HETATM   20  C   UNL     1      -6.573   6.575  69.176  1.00  0.00    -0.044 C  
BRANCH  20  21
HETATM   21  O   UNL     1      -6.807   6.677  70.584  1.00  0.00    -0.059 OA 
BRANCH  21  22
HETATM   22  C   UNL     1      -7.119   5.413  71.162  1.00  0.00    -0.065 C  
BRANCH  22  23
HETATM   23  C   UNL     1      -7.973   5.632  72.406  1.00  0.00    -0.103 C  
BRANCH  23  24
HETATM   24  O   UNL     1      -8.631   6.895  72.309  1.00  0.00    -0.119 OA 
BRANCH  24  25
HETATM   25  C   UNL     1     -10.018   6.738  72.005  1.00  0.00    -0.171 C  
HETATM   26  C   UNL     1     -10.608   5.651  72.884  1.00  0.00    -0.232 C  
HETATM   27  F   UNL     1     -11.926   5.501  72.591  1.00  0.00    -0.355 F  
ENDBRANCH  24  25
ENDBRANCH  23  24
ENDBRANCH  22  23
ENDBRANCH  21  22
ENDBRANCH  20  21
ENDBRANCH  19  20
ENDBRANCH  18  19
ENDBRANCH  15  18
ENDBRANCH  11  12
ENDBRANCH   7  10
ENDBRANCH   1   4
TORSDOF 11
ENDMDL
MODEL      198
REMARK 921   NORMALIZED FREE ENERGY PREDICTED BY IDOCK:   -2.76 KCAL/MOL
REMARK 922        TOTAL FREE ENERGY PREDICTED BY IDOCK:   -5.40 KCAL/MOL
REMARK 923 INTER-LIGAND FREE ENERGY PREDICTED BY IDOCK:   -4.38 KCAL/MOL
REMARK 924 INTRA-LIGAND FREE ENERGY PREDICTED BY IDOCK:   -1.02 KCAL/MOL
REMARK 927      BINDING AFFINITY PREDICTED BY RF-SCORE:    0.00 PKD
ROOT
HETATM    1  N   UNL     1      -6.720   4.063  68.267  1.00  0.00    -0.046 NA 
HETATM    2  H   UNL     1      -6.349   3.582  69.087  1.00  0.00     0.000 HD 
HETATM    3  C   UNL     1      -6.918   3.350  67.015  1.00  0.00    -0.054 C  
ENDROOT
BRANCH   1   4
HETATM    4  C   UNL     1      -7.047   5.420  68.327  1.00  0.00    -0.066 A  
HETATM    5  C   UNL     1      -8.338   5.904  68.554  1.00  0.00    -0.109 A  
HETATM    6  C   UNL     1      -8.594   7.280  68.577  1.00  0.00    -0.124 A  
HETATM    7  C   UNL     1      -7.558   8.205  68.412  1.00  0.00    -0.105 A  
HETATM    8  C   UNL     1      -6.256   7.724  68.246  1.00  0.00    -0.045 A  
HETATM    9  C   UNL     1      -6.006   6.348  68.228  1.00  0.00    -0.017 A  
BRANCH   7  10
HETATM   10  C   UNL     1      -7.891   9.635  68.333  1.00  0.00    -0.085 C  
HETATM   11  C   UNL     1      -7.248  10.522  67.557  1.00  0.00    -0.090 C  
BRANCH  11  12
HETATM   12  C   UNL     1      -7.614  11.939  67.450  1.00  0.00    -0.151 A  
HETATM   13  C   UNL     1      -8.812  12.388  66.897  1.00  0.00    -0.205 A  
HETATM   14  N   UNL     1      -9.163  13.688  66.759  1.00  0.00    -0.252 NA 
HETATM   15  C   UNL     1      -8.258  14.602  67.157  1.00  0.00    -0.201 A  
HETATM   16  C   UNL     1      -6.708  12.922  67.850  1.00  0.00    -0.123 A  
HETATM   17  C   UNL     1      -7.024  14.275  67.696  1.00  0.00    -0.202 A  
BRANCH  15  18
HETATM   18  O   UNL     1      -8.525  15.947  67.007  1.00  0.00    -0.181 OA 
BRANCH  18  19
HETATM   19  C   UNL     1      -9.913  16.254  67.187  1.00  0.00    -0.257 C  
BRANCH  19  20
HETATM   20  C   UNL     1     -10.156  16.632  68.647  1.00  0.00    -0.270 C  
BRANCH  20  21
HETATM   21  O   UNL     1     -10.371  15.441  69.411  1.00  0.00    -0.227 OA 
BRANCH  21  22
HETATM   22  C   UNL     1     -11.752  15.092  69.470  1.00  0.00    -0.327 C  
BRANCH  22  23
HETATM   23  C   UNL     1     -11.981  13.828  68.650  1.00  0.00    -0.366 C  
BRANCH  23  24
HETATM   24  O   UNL     1     -12.357  12.762  69.522  1.00  0.00    -0.138 OA 
BRANCH  24  25
HETATM   25  C   UNL     1     -12.110  11.489  68.923  1.00  0.00    -0.206 C  
HETATM   26  C   UNL     1     -11.448  10.574  69.938  1.00  0.00    -0.310 C  
HETATM   27  F   UNL     1     -11.211   9.365  69.366  1.00  0.00    -0.225 F  
ENDBRANCH  24  25
ENDBRANCH  23  24
ENDBRANCH  22  23
ENDBRANCH  21  22
ENDBRANCH  20  21
ENDBRANCH  19  20
ENDBRANCH  18  19
ENDBRANCH  15  18
ENDBRANCH  11  12
ENDBRANCH   7  10
ENDBRANCH   1   4
TORSDOF 11
ENDMDL
MODEL      199
REMARK 921   NORMALIZED FREE ENERGY PREDICTED BY IDOCK:   -2.76 KCAL/MOL
REMARK 922        TOTAL FREE ENERGY PREDICTED BY IDOCK:   -5.39 KCAL/MOL
REMARK 923 INTER-LIGAND FREE ENERGY PREDICTED BY IDOCK:   -4.35 KCAL/MOL
REMARK 924 INTRA-LIGAND FREE ENERGY PREDICTED BY IDOCK:   -1.05 KCAL/MOL
REMARK 927      BINDING AFFINITY PREDICTED BY RF-SCORE:    0.00 PKD
ROOT
HETATM    1  N   UNL     1      -9.220   2.083  68.927  1.00  0.00    -0.140 NA 
HETATM    2  H   UNL     1      -9.613   1.507  69.671  1.00  0.00     0.000 HD 
HETATM    3  C   UNL     1      -8.831   1.491  67.657  1.00  0.00    -0.113 C  
ENDROOT
BRANCH   1   4
HETATM    4  C   UNL     1      -9.044   3.458  69.109  1.00  0.00    -0.142 A  
HETATM    5  C   UNL     1      -9.564   4.177  70.188  1.00  0.00    -0.272 A  
HETATM    6  C   UNL     1      -9.365   5.558  70.291  1.00  0.00    -0.194 A  
HETATM    7  C   UNL     1      -8.608   6.247  69.338  1.00  0.00    -0.125 A  
HETATM    8  C   UNL     1      -8.035   5.520  68.291  1.00  0.00    -0.096 A  
HETATM    9  C   UNL     1      -8.234   4.138  68.195  1.00  0.00    -0.094 A  
BRANCH   7  10
HETATM   10  C   UNL     1      -8.519   7.711  69.427  1.00  0.00    -0.132 C  
HETATM   11  C   UNL     1      -7.490   8.439  68.964  1.00  0.00    -0.093 C  
BRANCH  11  12
HETATM   12  C   UNL     1      -7.428   9.904  69.017  1.00  0.00    -0.083 A  
HETATM   13  C   UNL     1      -8.275  10.739  68.292  1.00  0.00    -0.124 A  
HETATM   14  N   UNL     1      -8.222  12.093  68.298  1.00  0.00    -0.164 NA 
HETATM   15  C   UNL     1      -7.246  12.654  69.038  1.00  0.00     0.009 A  
HETATM   16  C   UNL     1      -6.433  10.530  69.769  1.00  0.00    -0.102 A  
HETATM   17  C   UNL     1      -6.329  11.924  69.777  1.00  0.00    -0.118 A  
BRANCH  15  18
HETATM   18  O   UNL     1      -7.100  14.024  69.059  1.00  0.00    -0.109 OA 
BRANCH  18  19
HETATM   19  C   UNL     1      -6.449  14.526  67.885  1.00  0.00    -0.162 C  
BRANCH  19  20
HETATM   20  C   UNL     1      -7.406  15.457  67.143  1.00  0.00    -0.168 C  
BRANCH  20  21
HETATM   21  O   UNL     1      -8.171  16.202  68.096  1.00  0.00    -0.153 OA 
BRANCH  21  22
HETATM   22  C   UNL     1      -9.448  16.567  67.580  1.00  0.00    -0.225 C  
BRANCH  22  23
HETATM   23  C   UNL     1     -10.529  16.083  68.540  1.00  0.00    -0.258 C  
BRANCH  23  24
HETATM   24  O   UNL     1     -10.519  14.656  68.581  1.00  0.00    -0.230 OA 
BRANCH  24  25
HETATM   25  C   UNL     1     -11.019  14.097  67.365  1.00  0.00    -0.299 C  
HETATM   26  C   UNL     1     -11.644  12.743  67.652  1.00  0.00    -0.358 C  
HETATM   27  F   UNL     1     -12.117  12.213  66.494  1.00  0.00    -0.406 F  
ENDBRANCH  24  25
ENDBRANCH  23  24
ENDBRANCH  22  23
ENDBRANCH  21  22
ENDBRANCH  20  21
ENDBRANCH  19  20
ENDBRANCH  18  19
ENDBRANCH  15  18
ENDBRANCH  11  12
ENDBRANCH   7  10
ENDBRANCH   1   4
TORSDOF 11
ENDMDL
MODEL      200
REMARK 921   NORMALIZED FREE ENERGY PREDICTED BY IDOCK:   -2.74 KCAL/MOL
REMARK 922        TOTAL FREE ENERGY PREDICTED BY IDOCK:   -5.37 KCAL/MOL
REMARK 923 INTER-LIGAND FREE ENERGY PREDICTED BY IDOCK:   -4.42 KCAL/MOL
REMARK 924 INTRA-LIGAND FREE ENERGY PREDICTED BY IDOCK:   -0.94 KCAL/MOL
REMARK 927      BINDING AFFINITY PREDICTED BY RF-SCORE:    0.00 PKD
ROOT
HETATM    1  N   UNL     1      -6.843   4.553  68.475  1.00  0.00    -0.050 NA 
HETATM    2  H   UNL     1      -6.278   3.938  69.061  1.00  0.00     0.000 HD 
HETATM    3  C   UNL     1      -7.560   4.027  67.324  1.00  0.00    -0.073 C  
ENDROOT
BRANCH   1   4
HETATM    4  C   UNL     1      -6.943   5.916  68.763  1.00  0.00    -0.072 A  
HETATM    5  C   UNL     1      -8.138   6.562  69.089  1.00  0.00    -0.112 A  
HETATM    6  C   UNL     1      -8.165   7.937  69.343  1.00  0.00    -0.130 A  
HETATM    7  C   UNL     1      -6.988   8.694  69.316  1.00  0.00    -0.058 A  
HETATM    8  C   UNL     1      -5.782   8.040  69.052  1.00  0.00    -0.034 A  
HETATM    9  C   UNL     1      -5.762   6.663  68.802  1.00  0.00    -0.017 A  
BRANCH   7  10
HETATM   10  C   UNL     1      -7.080  10.152  69.481  1.00  0.00    -0.101 C  
HETATM   11  C   UNL     1      -6.167  11.026  69.026  1.00  0.00    -0.045 C  
BRANCH  11  12
HETATM   12  C   UNL     1      -6.286  12.482  69.155  1.00  0.00    -0.095 A  
HETATM   13  C   UNL     1      -6.704  13.317  68.120  1.00  0.00    -0.114 A  
HETATM   14  N   UNL     1      -6.796  14.666  68.201  1.00  0.00    -0.110 NA 
HETATM   15  C   UNL     1      -6.414  15.227  69.366  1.00  0.00    -0.141 A  
HETATM   16  C   UNL     1      -5.902  13.108  70.341  1.00  0.00    -0.156 A  
HETATM   17  C   UNL     1      -5.956  14.500  70.453  1.00  0.00    -0.165 A  
BRANCH  15  18
HETATM   18  O   UNL     1      -6.437  16.598  69.509  1.00  0.00    -0.214 OA 
BRANCH  18  19
HETATM   19  C   UNL     1      -6.793  17.272  68.295  1.00  0.00    -0.184 C  
BRANCH  19  20
HETATM   20  C   UNL     1      -7.824  18.354  68.609  1.00  0.00    -0.299 C  
BRANCH  20  21
HETATM   21  O   UNL     1      -9.056  17.734  68.990  1.00  0.00    -0.173 OA 
BRANCH  21  22
HETATM   22  C   UNL     1      -9.957  17.624  67.891  1.00  0.00    -0.323 C  
BRANCH  22  23
HETATM   23  C   UNL     1     -10.499  16.201  67.832  1.00  0.00    -0.290 C  
BRANCH  23  24
HETATM   24  O   UNL     1     -11.735  16.137  68.544  1.00  0.00    -0.348 OA 
BRANCH  24  25
HETATM   25  C   UNL     1     -11.677  15.181  69.604  1.00  0.00    -0.327 C  
HETATM   26  C   UNL     1     -11.843  15.892  70.934  1.00  0.00    -0.417 C  
HETATM   27  F   UNL     1     -11.785  14.981  71.941  1.00  0.00    -0.376 F  
ENDBRANCH  24  25
ENDBRANCH  23  24
ENDBRANCH  22  23
ENDBRANCH  21  22
ENDBRANCH  20  21
ENDBRANCH  19  20
ENDBRANCH  18  19
ENDBRANCH  15  18
ENDBRANCH  11  12
ENDBRANCH   7  10
ENDBRANCH   1   4
TORSDOF 11
ENDMDL
MODEL      201
REMARK 921   NORMALIZED FREE ENERGY PREDICTED BY IDOCK:   -2.74 KCAL/MOL
REMARK 922        TOTAL FREE ENERGY PREDICTED BY IDOCK:   -5.36 KCAL/MOL
REMARK 923 INTER-LIGAND FREE ENERGY PREDICTED BY IDOCK:   -4.41 KCAL/MOL
REMARK 924 INTRA-LIGAND FREE ENERGY PREDICTED BY IDOCK:   -0.95 KCAL/MOL
REMARK 927      BINDING AFFINITY PREDICTED BY RF-SCORE:    0.00 PKD
ROOT
HETATM    1  N   UNL     1     -10.804  15.004  65.907  1.00  0.00    -0.328 NA 
HETATM    2  H   UNL     1     -11.098  14.996  64.931  1.00  0.00     0.000 HD 
HETATM    3  C   UNL     1     -10.494  16.257  66.578  1.00  0.00    -0.290 C  
ENDROOT
BRANCH   1   4
HETATM    4  C   UNL     1     -10.692  13.811  66.627  1.00  0.00    -0.277 A  
HETATM    5  C   UNL     1      -9.613  12.930  66.517  1.00  0.00    -0.259 A  
HETATM    6  C   UNL     1      -9.580  11.741  67.254  1.00  0.00    -0.182 A  
HETATM    7  C   UNL     1     -10.609  11.423  68.148  1.00  0.00    -0.220 A  
HETATM    8  C   UNL     1     -11.659  12.332  68.305  1.00  0.00    -0.385 A  
HETATM    9  C   UNL     1     -11.684  13.521  67.569  1.00  0.00    -0.403 A  
BRANCH   7  10
HETATM   10  C   UNL     1     -10.587  10.114  68.816  1.00  0.00    -0.236 C  
HETATM   11  C   UNL     1     -10.147   8.979  68.249  1.00  0.00    -0.223 C  
BRANCH  11  12
HETATM   12  C   UNL     1     -10.086   7.685  68.937  1.00  0.00    -0.202 A  
HETATM   13  C   UNL     1     -10.455   7.500  70.268  1.00  0.00    -0.222 A  
HETATM   14  N   UNL     1     -10.383   6.324  70.937  1.00  0.00    -0.199 NA 
HETATM   15  C   UNL     1      -9.877   5.276  70.259  1.00  0.00    -0.215 A  
HETATM   16  C   UNL     1      -9.569   6.570  68.276  1.00  0.00    -0.131 A  
HETATM   17  C   UNL     1      -9.452   5.348  68.942  1.00  0.00    -0.174 A  
BRANCH  15  18
HETATM   18  O   UNL     1      -9.730   4.057  70.886  1.00  0.00    -0.174 OA 
BRANCH  18  19
HETATM   19  C   UNL     1      -8.642   3.292  70.352  1.00  0.00    -0.063 C  
BRANCH  19  20
HETATM   20  C   UNL     1      -7.807   2.741  71.506  1.00  0.00    -0.051 C  
BRANCH  20  21
HETATM   21  O   UNL     1      -6.621   2.135  70.982  1.00  0.00    -0.023 OA 
BRANCH  21  22
HETATM   22  C   UNL     1      -5.449   2.852  71.359  1.00  0.00    -0.008 C  
BRANCH  22  23
HETATM   23  C   UNL     1      -5.196   3.960  70.344  1.00  0.00    -0.004 C  
BRANCH  23  24
HETATM   24  O   UNL     1      -5.166   3.400  69.031  1.00  0.00    -0.010 OA 
BRANCH  24  25
HETATM   25  C   UNL     1      -5.979   4.150  68.127  1.00  0.00    -0.027 C  
HETATM   26  C   UNL     1      -6.562   3.217  67.081  1.00  0.00    -0.038 C  
HETATM   27  F   UNL     1      -7.334   3.933  66.221  1.00  0.00    -0.070 F  
ENDBRANCH  24  25
ENDBRANCH  23  24
ENDBRANCH  22  23
ENDBRANCH  21  22
ENDBRANCH  20  21
ENDBRANCH  19  20
ENDBRANCH  18  19
ENDBRANCH  15  18
ENDBRANCH  11  12
ENDBRANCH   7  10
ENDBRANCH   1   4
TORSDOF 11
ENDMDL
MODEL      202
REMARK 921   NORMALIZED FREE ENERGY PREDICTED BY IDOCK:   -2.65 KCAL/MOL
REMARK 922        TOTAL FREE ENERGY PREDICTED BY IDOCK:   -5.22 KCAL/MOL
REMARK 923 INTER-LIGAND FREE ENERGY PREDICTED BY IDOCK:   -4.57 KCAL/MOL
REMARK 924 INTRA-LIGAND FREE ENERGY PREDICTED BY IDOCK:   -0.65 KCAL/MOL
REMARK 927      BINDING AFFINITY PREDICTED BY RF-SCORE:    0.00 PKD
ROOT
HETATM    1  N   UNL     1     -13.757  14.035  72.592  1.00  0.00    -0.683 NA 
HETATM    2  H   UNL     1     -14.690  13.678  72.795  1.00  0.00     0.000 HD 
HETATM    3  C   UNL     1     -13.205  15.144  73.355  1.00  0.00    -0.365 C  
ENDROOT
BRANCH   1   4
HETATM    4  C   UNL     1     -12.983  13.468  71.575  1.00  0.00    -0.355 A  
HETATM    5  C   UNL     1     -12.628  12.118  71.523  1.00  0.00    -0.267 A  
HETATM    6  C   UNL     1     -11.831  11.626  70.484  1.00  0.00    -0.328 A  
HETATM    7  C   UNL     1     -11.400  12.466  69.450  1.00  0.00    -0.286 A  
HETATM    8  C   UNL     1     -11.806  13.804  69.468  1.00  0.00    -0.394 A  
HETATM    9  C   UNL     1     -12.607  14.289  70.508  1.00  0.00    -0.418 A  
BRANCH   7  10
HETATM   10  C   UNL     1     -10.475  11.931  68.442  1.00  0.00    -0.231 C  
HETATM   11  C   UNL     1      -9.270  11.408  68.719  1.00  0.00    -0.108 C  
BRANCH  11  12
HETATM   12  C   UNL     1      -8.370  10.835  67.711  1.00  0.00    -0.113 A  
HETATM   13  C   UNL     1      -7.945   9.508  67.720  1.00  0.00    -0.099 A  
HETATM   14  N   UNL     1      -7.093   8.961  66.821  1.00  0.00    -0.080 NA 
HETATM   15  C   UNL     1      -6.600   9.787  65.878  1.00  0.00    -0.083 A  
HETATM   16  C   UNL     1      -7.833  11.652  66.715  1.00  0.00    -0.130 A  
HETATM   17  C   UNL     1      -6.929  11.130  65.788  1.00  0.00     0.191 A  
BRANCH  15  18
HETATM   18  O   UNL     1      -5.692   9.313  64.954  1.00  0.00    -0.060 OA 
BRANCH  18  19
HETATM   19  C   UNL     1      -6.283   9.091  63.667  1.00  0.00    -0.088 C  
BRANCH  19  20
HETATM   20  C   UNL     1      -5.773   7.765  63.108  1.00  0.00    -0.055 C  
BRANCH  20  21
HETATM   21  O   UNL     1      -6.852   6.825  63.067  1.00  0.00    -0.044 OA 
BRANCH  21  22
HETATM   22  C   UNL     1      -6.502   5.649  62.342  1.00  0.00    -0.025 C  
BRANCH  22  23
HETATM   23  C   UNL     1      -7.376   4.494  62.817  1.00  0.00    -0.044 C  
BRANCH  23  24
HETATM   24  O   UNL     1      -8.512   5.014  63.507  1.00  0.00    -0.127 OA 
BRANCH  24  25
HETATM   25  C   UNL     1      -8.493   4.653  64.889  1.00  0.00    -0.135 C  
HETATM   26  C   UNL     1      -8.379   5.906  65.737  1.00  0.00    -0.140 C  
HETATM   27  F   UNL     1      -8.358   5.560  67.051  1.00  0.00    -0.107 F  
ENDBRANCH  24  25
ENDBRANCH  23  24
ENDBRANCH  22  23
ENDBRANCH  21  22
ENDBRANCH  20  21
ENDBRANCH  19  20
ENDBRANCH  18  19
ENDBRANCH  15  18
ENDBRANCH  11  12
ENDBRANCH   7  10
ENDBRANCH   1   4
TORSDOF 11
ENDMDL
MODEL      203
REMARK 921   NORMALIZED FREE ENERGY PREDICTED BY IDOCK:   -2.59 KCAL/MOL
REMARK 922        TOTAL FREE ENERGY PREDICTED BY IDOCK:   -5.12 KCAL/MOL
REMARK 923 INTER-LIGAND FREE ENERGY PREDICTED BY IDOCK:   -4.57 KCAL/MOL
REMARK 924 INTRA-LIGAND FREE ENERGY PREDICTED BY IDOCK:   -0.55 KCAL/MOL
REMARK 927      BINDING AFFINITY PREDICTED BY RF-SCORE:    0.00 PKD
ROOT
HETATM    1  N   UNL     1     -10.809  17.907  67.189  1.00  0.00    -0.221 NA 
HETATM    2  H   UNL     1     -11.466  18.246  66.487  1.00  0.00     0.000 HD 
HETATM    3  C   UNL     1     -10.203  18.823  68.142  1.00  0.00    -0.381 C  
ENDROOT
BRANCH   1   4
HETATM    4  C   UNL     1     -10.474  16.552  67.254  1.00  0.00    -0.304 A  
HETATM    5  C   UNL     1      -9.502  15.947  66.453  1.00  0.00    -0.324 A  
HETATM    6  C   UNL     1      -9.237  14.577  66.559  1.00  0.00    -0.282 A  
HETATM    7  C   UNL     1      -9.909  13.786  67.496  1.00  0.00    -0.230 A  
HETATM    8  C   UNL     1     -10.837  14.401  68.342  1.00  0.00    -0.256 A  
HETATM    9  C   UNL     1     -11.096  15.772  68.234  1.00  0.00    -0.342 A  
BRANCH   7  10
HETATM   10  C   UNL     1      -9.677  12.335  67.496  1.00  0.00    -0.190 C  
HETATM   11  C   UNL     1      -9.324  11.623  68.578  1.00  0.00    -0.169 C  
BRANCH  11  12
HETATM   12  C   UNL     1      -9.137  10.167  68.580  1.00  0.00    -0.134 A  
HETATM   13  C   UNL     1     -10.043   9.273  69.149  1.00  0.00    -0.199 A  
HETATM   14  N   UNL     1      -9.883   7.929  69.191  1.00  0.00    -0.171 NA 
HETATM   15  C   UNL     1      -8.738   7.442  68.673  1.00  0.00    -0.128 A  
HETATM   16  C   UNL     1      -7.967   9.616  68.056  1.00  0.00    -0.097 A  
HETATM   17  C   UNL     1      -7.754   8.237  68.107  1.00  0.00    -0.106 A  
BRANCH  15  18
HETATM   18  O   UNL     1      -8.483   6.088  68.720  1.00  0.00    -0.112 OA 
BRANCH  18  19
HETATM   19  C   UNL     1      -7.170   5.792  69.213  1.00  0.00    -0.066 C  
BRANCH  19  20
HETATM   20  C   UNL     1      -6.824   4.344  68.874  1.00  0.00    -0.047 C  
BRANCH  20  21
HETATM   21  O   UNL     1      -7.407   3.479  69.853  1.00  0.00    -0.041 OA 
BRANCH  21  22
HETATM   22  C   UNL     1      -8.689   3.007  69.447  1.00  0.00    -0.077 C  
BRANCH  22  23
HETATM   23  C   UNL     1      -9.614   2.975  70.658  1.00  0.00    -0.131 C  
BRANCH  23  24
HETATM   24  O   UNL     1      -9.676   1.643  71.170  1.00  0.00    -0.130 OA 
BRANCH  24  25
HETATM   25  C   UNL     1     -10.547   1.560  72.299  1.00  0.00    -0.114 C  
HETATM   26  C   UNL     1     -10.112   2.567  73.348  1.00  0.00    -0.107 C  
HETATM   27  F   UNL     1     -10.941   2.484  74.422  1.00  0.00    -0.212 F  
ENDBRANCH  24  25
ENDBRANCH  23  24
ENDBRANCH  22  23
ENDBRANCH  21  22
ENDBRANCH  20  21
ENDBRANCH  19  20
ENDBRANCH  18  19
ENDBRANCH  15  18
ENDBRANCH  11  12
ENDBRANCH   7  10
ENDBRANCH   1   4
TORSDOF 11
ENDMDL
MODEL      204
REMARK 921   NORMALIZED FREE ENERGY PREDICTED BY IDOCK:   -2.58 KCAL/MOL
REMARK 922        TOTAL FREE ENERGY PREDICTED BY IDOCK:   -5.10 KCAL/MOL
REMARK 923 INTER-LIGAND FREE ENERGY PREDICTED BY IDOCK:   -4.14 KCAL/MOL
REMARK 924 INTRA-LIGAND FREE ENERGY PREDICTED BY IDOCK:   -0.96 KCAL/MOL
REMARK 927      BINDING AFFINITY PREDICTED BY RF-SCORE:    0.00 PKD
ROOT
HETATM    1  N   UNL     1      -8.028  18.391  68.023  1.00  0.00    -0.268 NA 
HETATM    2  H   UNL     1      -7.307  18.894  68.539  1.00  0.00     0.000 HD 
HETATM    3  C   UNL     1      -8.940  19.101  67.140  1.00  0.00    -0.288 C  
ENDROOT
BRANCH   1   4
HETATM    4  C   UNL     1      -8.159  17.005  68.151  1.00  0.00    -0.212 A  
HETATM    5  C   UNL     1      -7.548  16.251  69.155  1.00  0.00    -0.227 A  
HETATM    6  C   UNL     1      -7.707  14.862  69.205  1.00  0.00    -0.166 A  
HETATM    7  C   UNL     1      -8.513  14.197  68.275  1.00  0.00    -0.169 A  
HETATM    8  C   UNL     1      -9.176  14.957  67.307  1.00  0.00    -0.212 A  
HETATM    9  C   UNL     1      -9.016  16.347  67.264  1.00  0.00    -0.208 A  
BRANCH   7  10
HETATM   10  C   UNL     1      -8.562  12.729  68.300  1.00  0.00    -0.166 C  
HETATM   11  C   UNL     1      -8.354  11.944  67.230  1.00  0.00    -0.169 C  
BRANCH  11  12
HETATM   12  C   UNL     1      -8.360  10.477  67.272  1.00  0.00    -0.122 A  
HETATM   13  C   UNL     1      -9.126   9.684  66.420  1.00  0.00    -0.156 A  
HETATM   14  N   UNL     1      -9.174   8.331  66.455  1.00  0.00    -0.183 NA 
HETATM   15  C   UNL     1      -8.450   7.727  67.417  1.00  0.00    -0.119 A  
HETATM   16  C   UNL     1      -7.627   9.808  68.252  1.00  0.00    -0.081 A  
HETATM   17  C   UNL     1      -7.674   8.414  68.337  1.00  0.00    -0.105 A  
BRANCH  15  18
HETATM   18  O   UNL     1      -8.483   6.355  67.544  1.00  0.00    -0.116 OA 
BRANCH  18  19
HETATM   19  C   UNL     1      -9.639   5.773  66.928  1.00  0.00    -0.141 C  
BRANCH  19  20
HETATM   20  C   UNL     1     -10.441   5.017  67.985  1.00  0.00     0.044 C  
BRANCH  20  21
HETATM   21  O   UNL     1     -10.058   5.477  69.285  1.00  0.00    -0.182 OA 
BRANCH  21  22
HETATM   22  C   UNL     1     -11.189   5.810  70.084  1.00  0.00    -0.149 C  
BRANCH  22  23
HETATM   23  C   UNL     1     -10.827   6.973  71.000  1.00  0.00    -0.238 C  
BRANCH  23  24
HETATM   24  O   UNL     1      -9.406   7.077  71.091  1.00  0.00    -0.158 OA 
BRANCH  24  25
HETATM   25  C   UNL     1      -8.999   7.519  72.387  1.00  0.00    -0.135 C  
HETATM   26  C   UNL     1      -8.056   6.497  72.996  1.00  0.00    -0.107 C  
HETATM   27  F   UNL     1      -7.672   6.918  74.229  1.00  0.00    -0.104 F  
ENDBRANCH  24  25
ENDBRANCH  23  24
ENDBRANCH  22  23
ENDBRANCH  21  22
ENDBRANCH  20  21
ENDBRANCH  19  20
ENDBRANCH  18  19
ENDBRANCH  15  18
ENDBRANCH  11  12
ENDBRANCH   7  10
ENDBRANCH   1   4
TORSDOF 11
ENDMDL
MODEL      205
REMARK 921   NORMALIZED FREE ENERGY PREDICTED BY IDOCK:   -2.54 KCAL/MOL
REMARK 922        TOTAL FREE ENERGY PREDICTED BY IDOCK:   -5.04 KCAL/MOL
REMARK 923 INTER-LIGAND FREE ENERGY PREDICTED BY IDOCK:   -3.97 KCAL/MOL
REMARK 924 INTRA-LIGAND FREE ENERGY PREDICTED BY IDOCK:   -1.07 KCAL/MOL
REMARK 927      BINDING AFFINITY PREDICTED BY RF-SCORE:    0.00 PKD
ROOT
HETATM    1  N   UNL     1      -9.149  16.465  68.978  1.00  0.00    -0.264 NA 
HETATM    2  H   UNL     1      -8.357  17.075  69.177  1.00  0.00     0.000 HD 
HETATM    3  C   UNL     1     -10.503  16.870  69.323  1.00  0.00    -0.319 C  
ENDROOT
BRANCH   1   4
HETATM    4  C   UNL     1      -8.955  15.222  68.369  1.00  0.00    -0.184 A  
HETATM    5  C   UNL     1      -9.992  14.376  67.970  1.00  0.00    -0.225 A  
HETATM    6  C   UNL     1      -9.720  13.134  67.385  1.00  0.00    -0.220 A  
HETATM    7  C   UNL     1      -8.402  12.725  67.150  1.00  0.00    -0.164 A  
HETATM    8  C   UNL     1      -7.364  13.597  67.492  1.00  0.00    -0.178 A  
HETATM    9  C   UNL     1      -7.643  14.839  68.073  1.00  0.00    -0.130 A  
BRANCH   7  10
HETATM   10  C   UNL     1      -8.162  11.370  66.637  1.00  0.00    -0.163 C  
HETATM   11  C   UNL     1      -8.917  10.766  65.704  1.00  0.00    -0.205 C  
BRANCH  11  12
HETATM   12  C   UNL     1      -8.645   9.429  65.164  1.00  0.00    -0.188 A  
HETATM   13  C   UNL     1      -8.644   8.270  65.937  1.00  0.00    -0.150 A  
HETATM   14  N   UNL     1      -8.368   7.028  65.471  1.00  0.00    -0.138 NA 
HETATM   15  C   UNL     1      -8.035   6.933  64.170  1.00  0.00    -0.078 A  
HETATM   16  C   UNL     1      -8.294   9.281  63.821  1.00  0.00    -0.180 A  
HETATM   17  C   UNL     1      -7.975   8.020  63.312  1.00  0.00    -0.143 A  
BRANCH  15  18
HETATM   18  O   UNL     1      -7.697   5.708  63.633  1.00  0.00    -0.080 OA 
BRANCH  18  19
HETATM   19  C   UNL     1      -8.212   4.612  64.400  1.00  0.00    -0.112 C  
BRANCH  19  20
HETATM   20  C   UNL     1      -7.051   3.724  64.842  1.00  0.00    -0.065 C  
BRANCH  20  21
HETATM   21  O   UNL     1      -7.217   3.384  66.222  1.00  0.00    -0.065 OA 
BRANCH  21  22
HETATM   22  C   UNL     1      -6.567   4.318  67.080  1.00  0.00    -0.046 C  
BRANCH  22  23
HETATM   23  C   UNL     1      -7.498   4.662  68.237  1.00  0.00    -0.066 C  
BRANCH  23  24
HETATM   24  O   UNL     1      -8.431   3.597  68.425  1.00  0.00    -0.084 OA 
BRANCH  24  25
HETATM   25  C   UNL     1      -9.720   4.092  68.791  1.00  0.00    -0.073 C  
HETATM   26  C   UNL     1      -9.703   5.609  68.767  1.00  0.00    -0.137 C  
HETATM   27  F   UNL     1     -10.929   6.078  69.117  1.00  0.00    -0.312 F  
ENDBRANCH  24  25
ENDBRANCH  23  24
ENDBRANCH  22  23
ENDBRANCH  21  22
ENDBRANCH  20  21
ENDBRANCH  19  20
ENDBRANCH  18  19
ENDBRANCH  15  18
ENDBRANCH  11  12
ENDBRANCH   7  10
ENDBRANCH   1   4
TORSDOF 11
ENDMDL
MODEL      206
REMARK 921   NORMALIZED FREE ENERGY PREDICTED BY IDOCK:   -2.46 KCAL/MOL
REMARK 922        TOTAL FREE ENERGY PREDICTED BY IDOCK:   -4.91 KCAL/MOL
REMARK 923 INTER-LIGAND FREE ENERGY PREDICTED BY IDOCK:   -4.28 KCAL/MOL
REMARK 924 INTRA-LIGAND FREE ENERGY PREDICTED BY IDOCK:   -0.63 KCAL/MOL
REMARK 927      BINDING AFFINITY PREDICTED BY RF-SCORE:    0.00 PKD
ROOT
HETATM    1  N   UNL     1     -10.140  19.597  67.912  1.00  0.00    -0.396 NA 
HETATM    2  H   UNL     1     -10.297  20.183  67.092  1.00  0.00     0.000 HD 
HETATM    3  C   UNL     1     -10.239  20.154  69.252  1.00  0.00     0.006 C  
ENDROOT
BRANCH   1   4
HETATM    4  C   UNL     1      -9.826  18.242  67.769  1.00  0.00    -0.318 A  
HETATM    5  C   UNL     1      -8.526  17.751  67.630  1.00  0.00    -0.229 A  
HETATM    6  C   UNL     1      -8.290  16.382  67.468  1.00  0.00    -0.176 A  
HETATM    7  C   UNL     1      -9.347  15.465  67.480  1.00  0.00    -0.204 A  
HETATM    8  C   UNL     1     -10.643  15.948  67.682  1.00  0.00    -0.307 A  
HETATM    9  C   UNL     1     -10.872  17.318  67.847  1.00  0.00    -0.283 A  
BRANCH   7  10
HETATM   10  C   UNL     1      -9.063  14.052  67.197  1.00  0.00    -0.239 C  
HETATM   11  C   UNL     1      -8.738  13.141  68.129  1.00  0.00    -0.193 C  
BRANCH  11  12
HETATM   12  C   UNL     1      -8.499  11.721  67.844  1.00  0.00    -0.154 A  
HETATM   13  C   UNL     1      -7.415  11.254  67.103  1.00  0.00    -0.130 A  
HETATM   14  N   UNL     1      -7.185   9.954  66.800  1.00  0.00    -0.090 NA 
HETATM   15  C   UNL     1      -8.105   9.066  67.224  1.00  0.00    -0.103 A  
HETATM   16  C   UNL     1      -9.424  10.764  68.263  1.00  0.00    -0.164 A  
HETATM   17  C   UNL     1      -9.236   9.417  67.944  1.00  0.00    -0.139 A  
BRANCH  15  18
HETATM   18  O   UNL     1      -7.963   7.729  66.917  1.00  0.00    -0.108 OA 
BRANCH  18  19
HETATM   19  C   UNL     1      -8.961   7.268  65.997  1.00  0.00    -0.116 C  
BRANCH  19  20
HETATM   20  C   UNL     1      -8.902   5.744  65.919  1.00  0.00    -0.150 C  
BRANCH  20  21
HETATM   21  O   UNL     1     -10.206   5.209  66.161  1.00  0.00    -0.211 OA 
BRANCH  21  22
HETATM   22  C   UNL     1     -10.526   4.159  65.252  1.00  0.00    -0.136 C  
BRANCH  22  23
HETATM   23  C   UNL     1      -9.345   3.199  65.167  1.00  0.00    -0.143 C  
BRANCH  23  24
HETATM   24  O   UNL     1      -9.591   2.238  64.139  1.00  0.00    -0.134 OA 
BRANCH  24  25
HETATM   25  C   UNL     1      -8.416   1.991  63.366  1.00  0.00    -0.080 C  
HETATM   26  C   UNL     1      -7.701   3.303  63.101  1.00  0.00    -0.067 C  
HETATM   27  F   UNL     1      -6.585   3.065  62.363  1.00  0.00    -0.016 F  
ENDBRANCH  24  25
ENDBRANCH  23  24
ENDBRANCH  22  23
ENDBRANCH  21  22
ENDBRANCH  20  21
ENDBRANCH  19  20
ENDBRANCH  18  19
ENDBRANCH  15  18
ENDBRANCH  11  12
ENDBRANCH   7  10
ENDBRANCH   1   4
TORSDOF 11
ENDMDL
MODEL      207
REMARK 921   NORMALIZED FREE ENERGY PREDICTED BY IDOCK:   -2.40 KCAL/MOL
REMARK 922        TOTAL FREE ENERGY PREDICTED BY IDOCK:   -4.80 KCAL/MOL
REMARK 923 INTER-LIGAND FREE ENERGY PREDICTED BY IDOCK:   -3.84 KCAL/MOL
REMARK 924 INTRA-LIGAND FREE ENERGY PREDICTED BY IDOCK:   -0.97 KCAL/MOL
REMARK 927      BINDING AFFINITY PREDICTED BY RF-SCORE:    0.00 PKD
ROOT
HETATM    1  N   UNL     1     -10.770  18.761  67.721  1.00  0.00    -0.386 NA 
HETATM    2  H   UNL     1     -11.664  19.001  67.294  1.00  0.00     0.000 HD 
HETATM    3  C   UNL     1      -9.942  19.786  68.337  1.00  0.00    -0.439 C  
ENDROOT
BRANCH   1   4
HETATM    4  C   UNL     1     -10.316  17.439  67.724  1.00  0.00    -0.358 A  
HETATM    5  C   UNL     1     -10.004  16.716  66.570  1.00  0.00    -0.296 A  
HETATM    6  C   UNL     1      -9.575  15.386  66.651  1.00  0.00    -0.276 A  
HETATM    7  C   UNL     1      -9.412  14.759  67.891  1.00  0.00    -0.201 A  
HETATM    8  C   UNL     1      -9.664  15.500  69.049  1.00  0.00    -0.237 A  
HETATM    9  C   UNL     1     -10.088  16.830  68.962  1.00  0.00    -0.283 A  
BRANCH   7  10
HETATM   10  C   UNL     1      -9.067  13.331  67.923  1.00  0.00    -0.203 C  
HETATM   11  C   UNL     1      -7.986  12.825  68.537  1.00  0.00    -0.095 C  
BRANCH  11  12
HETATM   12  C   UNL     1      -7.671  11.393  68.603  1.00  0.00    -0.137 A  
HETATM   13  C   UNL     1      -7.801  10.626  69.760  1.00  0.00     0.045 A  
HETATM   14  N   UNL     1      -7.491   9.311  69.857  1.00  0.00    -0.075 NA 
HETATM   15  C   UNL     1      -6.986   8.728  68.752  1.00  0.00    -0.063 A  
HETATM   16  C   UNL     1      -7.145  10.746  67.485  1.00  0.00    -0.089 A  
HETATM   17  C   UNL     1      -6.786   9.397  67.555  1.00  0.00    -0.076 A  
BRANCH  15  18
HETATM   18  O   UNL     1      -6.605   7.404  68.787  1.00  0.00    -0.045 OA 
BRANCH  18  19
HETATM   19  C   UNL     1      -5.271   7.202  68.302  1.00  0.00    -0.020 C  
BRANCH  19  20
HETATM   20  C   UNL     1      -5.125   5.758  67.827  1.00  0.00    -0.004 C  
BRANCH  20  21
HETATM   21  O   UNL     1      -5.640   4.878  68.831  1.00  0.00    -0.011 OA 
BRANCH  21  22
HETATM   22  C   UNL     1      -6.546   3.924  68.285  1.00  0.00    -0.045 C  
BRANCH  22  23
HETATM   23  C   UNL     1      -7.049   4.429  66.938  1.00  0.00    -0.068 C  
BRANCH  23  24
HETATM   24  O   UNL     1      -8.358   4.977  67.098  1.00  0.00    -0.107 OA 
BRANCH  24  25
HETATM   25  C   UNL     1      -8.831   5.557  65.881  1.00  0.00    -0.150 C  
HETATM   26  C   UNL     1      -7.886   6.662  65.446  1.00  0.00    -0.111 C  
HETATM   27  F   UNL     1      -8.340   7.212  64.290  1.00  0.00    -0.106 F  
ENDBRANCH  24  25
ENDBRANCH  23  24
ENDBRANCH  22  23
ENDBRANCH  21  22
ENDBRANCH  20  21
ENDBRANCH  19  20
ENDBRANCH  18  19
ENDBRANCH  15  18
ENDBRANCH  11  12
ENDBRANCH   7  10
ENDBRANCH   1   4
TORSDOF 11
ENDMDL
MODEL      208
REMARK 921   NORMALIZED FREE ENERGY PREDICTED BY IDOCK:   -2.38 KCAL/MOL
REMARK 922        TOTAL FREE ENERGY PREDICTED BY IDOCK:   -4.77 KCAL/MOL
REMARK 923 INTER-LIGAND FREE ENERGY PREDICTED BY IDOCK:   -3.92 KCAL/MOL
REMARK 924 INTRA-LIGAND FREE ENERGY PREDICTED BY IDOCK:   -0.85 KCAL/MOL
REMARK 927      BINDING AFFINITY PREDICTED BY RF-SCORE:    0.00 PKD
ROOT
HETATM    1  N   UNL     1     -13.888  15.601  72.088  1.00  0.00    -0.490 NA 
HETATM    2  H   UNL     1     -14.652  16.023  71.560  1.00  0.00     0.000 HD 
HETATM    3  C   UNL     1     -13.553  16.082  73.419  1.00  0.00    -0.293 C  
ENDROOT
BRANCH   1   4
HETATM    4  C   UNL     1     -13.145  14.549  71.547  1.00  0.00    -0.343 A  
HETATM    5  C   UNL     1     -12.297  14.676  70.444  1.00  0.00    -0.399 A  
HETATM    6  C   UNL     1     -11.601  13.571  69.943  1.00  0.00    -0.271 A  
HETATM    7  C   UNL     1     -11.706  12.319  70.557  1.00  0.00     0.009 A  
HETATM    8  C   UNL     1     -12.504  12.202  71.699  1.00  0.00    -0.056 A  
HETATM    9  C   UNL     1     -13.195  13.312  72.197  1.00  0.00    -0.562 A  
BRANCH   7  10
HETATM   10  C   UNL     1     -11.044  11.165  69.932  1.00  0.00    -0.234 C  
HETATM   11  C   UNL     1      -9.968  11.248  69.133  1.00  0.00    -0.058 C  
BRANCH  11  12
HETATM   12  C   UNL     1      -9.286  10.088  68.548  1.00  0.00    -0.141 A  
HETATM   13  C   UNL     1      -9.148   8.864  69.200  1.00  0.00    -0.141 A  
HETATM   14  N   UNL     1      -8.499   7.786  68.696  1.00  0.00    -0.128 NA 
HETATM   15  C   UNL     1      -7.918   7.942  67.491  1.00  0.00    -0.123 A  
HETATM   16  C   UNL     1      -8.668  10.201  67.302  1.00  0.00    -0.130 A  
HETATM   17  C   UNL     1      -7.965   9.121  66.764  1.00  0.00    -0.104 A  
BRANCH  15  18
HETATM   18  O   UNL     1      -7.202   6.904  66.933  1.00  0.00    -0.073 OA 
BRANCH  18  19
HETATM   19  C   UNL     1      -7.611   6.613  65.591  1.00  0.00    -0.086 C  
BRANCH  19  20
HETATM   20  C   UNL     1      -9.019   6.022  65.617  1.00  0.00    -0.064 C  
BRANCH  20  21
HETATM   21  O   UNL     1      -8.938   4.603  65.451  1.00  0.00    -0.135 OA 
BRANCH  21  22
HETATM   22  C   UNL     1      -9.691   3.909  66.442  1.00  0.00    -0.162 C  
BRANCH  22  23
HETATM   23  C   UNL     1     -10.167   4.905  67.493  1.00  0.00    -0.096 C  
BRANCH  23  24
HETATM   24  O   UNL     1     -10.619   4.195  68.646  1.00  0.00     0.712 OA 
BRANCH  24  25
HETATM   25  C   UNL     1      -9.583   4.075  69.622  1.00  0.00    -0.200 C  
HETATM   26  C   UNL     1      -9.920   4.937  70.825  1.00  0.00    -0.222 C  
HETATM   27  F   UNL     1      -8.933   4.823  71.751  1.00  0.00    -0.127 F  
ENDBRANCH  24  25
ENDBRANCH  23  24
ENDBRANCH  22  23
ENDBRANCH  21  22
ENDBRANCH  20  21
ENDBRANCH  19  20
ENDBRANCH  18  19
ENDBRANCH  15  18
ENDBRANCH  11  12
ENDBRANCH   7  10
ENDBRANCH   1   4
TORSDOF 11
ENDMDL
MODEL      209
REMARK 921   NORMALIZED FREE ENERGY PREDICTED BY IDOCK:   -2.31 KCAL/MOL
REMARK 922        TOTAL FREE ENERGY PREDICTED BY IDOCK:   -4.65 KCAL/MOL
REMARK 923 INTER-LIGAND FREE ENERGY PREDICTED BY IDOCK:   -3.87 KCAL/MOL
REMARK 924 INTRA-LIGAND FREE ENERGY PREDICTED BY IDOCK:   -0.79 KCAL/MOL
REMARK 927      BINDING AFFINITY PREDICTED BY RF-SCORE:    0.00 PKD
ROOT
HETATM    1  N   UNL     1      -9.232   2.064  68.903  1.00  0.00    -0.140 NA 
HETATM    2  H   UNL     1      -9.570   1.477  69.665  1.00  0.00     0.000 HD 
HETATM    3  C   UNL     1      -8.764   1.468  67.661  1.00  0.00    -0.101 C  
ENDROOT
BRANCH   1   4
HETATM    4  C   UNL     1      -9.208   3.455  69.031  1.00  0.00    -0.160 A  
HETATM    5  C   UNL     1      -9.727   4.148  70.128  1.00  0.00    -0.278 A  
HETATM    6  C   UNL     1      -9.688   5.546  70.176  1.00  0.00    -0.242 A  
HETATM    7  C   UNL     1      -9.094   6.283  69.146  1.00  0.00    -0.130 A  
HETATM    8  C   UNL     1      -8.518   5.589  68.078  1.00  0.00    -0.098 A  
HETATM    9  C   UNL     1      -8.557   4.191  68.037  1.00  0.00    -0.108 A  
BRANCH   7  10
HETATM   10  C   UNL     1      -9.174   7.750  69.187  1.00  0.00    -0.144 C  
HETATM   11  C   UNL     1      -8.331   8.574  68.544  1.00  0.00    -0.123 C  
BRANCH  11  12
HETATM   12  C   UNL     1      -8.444  10.037  68.553  1.00  0.00    -0.115 A  
HETATM   13  C   UNL     1      -9.534  10.731  68.030  1.00  0.00    -0.160 A  
HETATM   14  N   UNL     1      -9.652  12.080  67.999  1.00  0.00    -0.193 NA 
HETATM   15  C   UNL     1      -8.610  12.787  68.479  1.00  0.00    -0.048 A  
HETATM   16  C   UNL     1      -7.391  10.812  69.040  1.00  0.00    -0.109 A  
HETATM   17  C   UNL     1      -7.464  12.207  68.998  1.00  0.00     0.039 A  
BRANCH  15  18
HETATM   18  O   UNL     1      -8.638  14.165  68.441  1.00  0.00    -0.168 OA 
BRANCH  18  19
HETATM   19  C   UNL     1      -8.383  14.683  67.129  1.00  0.00    -0.211 C  
BRANCH  19  20
HETATM   20  C   UNL     1      -9.647  15.361  66.606  1.00  0.00    -0.256 C  
BRANCH  20  21
HETATM   21  O   UNL     1      -9.545  16.773  66.815  1.00  0.00    -0.231 OA 
BRANCH  21  22
HETATM   22  C   UNL     1     -10.824  17.378  66.987  1.00  0.00    -0.049 C  
BRANCH  22  23
HETATM   23  C   UNL     1     -10.853  18.110  68.323  1.00  0.00    -0.020 C  
BRANCH  23  24
HETATM   24  O   UNL     1     -10.709  17.165  69.383  1.00  0.00    -0.288 OA 
BRANCH  24  25
HETATM   25  C   UNL     1     -11.885  16.368  69.534  1.00  0.00     0.172 C  
HETATM   26  C   UNL     1     -12.043  15.972  70.990  1.00  0.00    -0.331 C  
HETATM   27  F   UNL     1     -13.162  15.213  71.130  1.00  0.00    -0.375 F  
ENDBRANCH  24  25
ENDBRANCH  23  24
ENDBRANCH  22  23
ENDBRANCH  21  22
ENDBRANCH  20  21
ENDBRANCH  19  20
ENDBRANCH  18  19
ENDBRANCH  15  18
ENDBRANCH  11  12
ENDBRANCH   7  10
ENDBRANCH   1   4
TORSDOF 11
ENDMDL
MODEL      210
REMARK 921   NORMALIZED FREE ENERGY PREDICTED BY IDOCK:   -2.25 KCAL/MOL
REMARK 922        TOTAL FREE ENERGY PREDICTED BY IDOCK:   -4.55 KCAL/MOL
REMARK 923 INTER-LIGAND FREE ENERGY PREDICTED BY IDOCK:   -4.01 KCAL/MOL
REMARK 924 INTRA-LIGAND FREE ENERGY PREDICTED BY IDOCK:   -0.54 KCAL/MOL
REMARK 927      BINDING AFFINITY PREDICTED BY RF-SCORE:    0.00 PKD
ROOT
HETATM    1  N   UNL     1     -10.777  18.214  66.810  1.00  0.00    -0.272 NA 
HETATM    2  H   UNL     1     -11.213  18.468  65.924  1.00  0.00     0.000 HD 
HETATM    3  C   UNL     1     -10.663  19.187  67.886  1.00  0.00    -0.300 C  
ENDROOT
BRANCH   1   4
HETATM    4  C   UNL     1     -10.277  16.925  67.015  1.00  0.00    -0.297 A  
HETATM    5  C   UNL     1     -10.475  15.861  66.132  1.00  0.00    -0.336 A  
HETATM    6  C   UNL     1      -9.962  14.590  66.416  1.00  0.00    -0.304 A  
HETATM    7  C   UNL     1      -9.206  14.362  67.570  1.00  0.00    -0.200 A  
HETATM    8  C   UNL     1      -8.954  15.441  68.423  1.00  0.00    -0.189 A  
HETATM    9  C   UNL     1      -9.466  16.710  68.133  1.00  0.00    -0.228 A  
BRANCH   7  10
HETATM   10  C   UNL     1      -8.782  12.990  67.881  1.00  0.00    -0.189 C  
HETATM   11  C   UNL     1      -7.606  12.668  68.443  1.00  0.00    -0.132 C  
BRANCH  11  12
HETATM   12  C   UNL     1      -7.208  11.299  68.791  1.00  0.00    -0.104 A  
HETATM   13  C   UNL     1      -6.788  10.917  70.064  1.00  0.00    -0.088 A  
HETATM   14  N   UNL     1      -6.388   9.669  70.407  1.00  0.00    -0.070 NA 
HETATM   15  C   UNL     1      -6.365   8.752  69.420  1.00  0.00    -0.041 A  
HETATM   16  C   UNL     1      -7.167  10.315  67.803  1.00  0.00    -0.086 A  
HETATM   17  C   UNL     1      -6.732   9.024  68.112  1.00  0.00    -0.065 A  
BRANCH  15  18
HETATM   18  O   UNL     1      -5.926   7.471  69.682  1.00  0.00    -0.023 OA 
BRANCH  18  19
HETATM   19  C   UNL     1      -5.186   6.910  68.590  1.00  0.00    -0.016 C  
BRANCH  19  20
HETATM   20  C   UNL     1      -5.351   5.392  68.604  1.00  0.00    -0.007 C  
BRANCH  20  21
HETATM   21  O   UNL     1      -6.243   5.025  69.661  1.00  0.00    -0.024 OA 
BRANCH  21  22
HETATM   22  C   UNL     1      -7.589   4.920  69.206  1.00  0.00    -0.060 C  
BRANCH  22  23
HETATM   23  C   UNL     1      -8.519   5.504  70.263  1.00  0.00    -0.121 C  
BRANCH  23  24
HETATM   24  O   UNL     1      -9.551   4.562  70.556  1.00  0.00    -0.168 OA 
BRANCH  24  25
HETATM   25  C   UNL     1     -10.544   5.128  71.413  1.00  0.00    -0.137 C  
HETATM   26  C   UNL     1     -10.421   4.520  72.799  1.00  0.00    -0.198 C  
HETATM   27  F   UNL     1     -11.368   5.058  73.611  1.00  0.00    -0.356 F  
ENDBRANCH  24  25
ENDBRANCH  23  24
ENDBRANCH  22  23
ENDBRANCH  21  22
ENDBRANCH  20  21
ENDBRANCH  19  20
ENDBRANCH  18  19
ENDBRANCH  15  18
ENDBRANCH  11  12
ENDBRANCH   7  10
ENDBRANCH   1   4
TORSDOF 11
ENDMDL
MODEL      211
REMARK 921   NORMALIZED FREE ENERGY PREDICTED BY IDOCK:   -2.12 KCAL/MOL
REMARK 922        TOTAL FREE ENERGY PREDICTED BY IDOCK:   -4.34 KCAL/MOL
REMARK 923 INTER-LIGAND FREE ENERGY PREDICTED BY IDOCK:   -3.37 KCAL/MOL
REMARK 924 INTRA-LIGAND FREE ENERGY PREDICTED BY IDOCK:   -0.97 KCAL/MOL
REMARK 927      BINDING AFFINITY PREDICTED BY RF-SCORE:    0.00 PKD
ROOT
HETATM    1  N   UNL     1      -5.413  14.622  72.846  1.00  0.00    -0.055 NA 
HETATM    2  H   UNL     1      -5.488  15.639  72.867  1.00  0.00     0.000 HD 
HETATM    3  C   UNL     1      -5.125  13.875  74.060  1.00  0.00    -0.238 C  
ENDROOT
BRANCH   1   4
HETATM    4  C   UNL     1      -5.586  13.920  71.650  1.00  0.00    -0.226 A  
HETATM    5  C   UNL     1      -5.258  12.573  71.479  1.00  0.00    -0.066 A  
HETATM    6  C   UNL     1      -5.438  11.943  70.243  1.00  0.00    -0.131 A  
HETATM    7  C   UNL     1      -5.986  12.634  69.158  1.00  0.00    -0.086 A  
HETATM    8  C   UNL     1      -6.372  13.965  69.343  1.00  0.00    -0.110 A  
HETATM    9  C   UNL     1      -6.193  14.589  70.582  1.00  0.00    -0.141 A  
BRANCH   7  10
HETATM   10  C   UNL     1      -6.053  11.964  67.851  1.00  0.00    -0.057 C  
HETATM   11  C   UNL     1      -7.133  11.317  67.385  1.00  0.00    -0.109 C  
BRANCH  11  12
HETATM   12  C   UNL     1      -7.208  10.688  66.061  1.00  0.00    -0.131 A  
HETATM   13  C   UNL     1      -8.370  10.121  65.541  1.00  0.00    -0.158 A  
HETATM   14  N   UNL     1      -8.461   9.509  64.336  1.00  0.00    -0.168 NA 
HETATM   15  C   UNL     1      -7.324   9.418  63.619  1.00  0.00    -0.107 A  
HETATM   16  C   UNL     1      -6.056  10.571  65.282  1.00  0.00    -0.110 A  
HETATM   17  C   UNL     1      -6.105   9.920  64.047  1.00  0.00    -0.123 A  
BRANCH  15  18
HETATM   18  O   UNL     1      -7.328   8.770  62.402  1.00  0.00    -0.100 OA 
BRANCH  18  19
HETATM   19  C   UNL     1      -8.034   7.524  62.445  1.00  0.00    -0.138 C  
BRANCH  19  20
HETATM   20  C   UNL     1      -7.085   6.429  62.927  1.00  0.00    -0.049 C  
BRANCH  20  21
HETATM   21  O   UNL     1      -7.766   5.597  63.871  1.00  0.00    -0.081 OA 
BRANCH  21  22
HETATM   22  C   UNL     1      -7.319   5.832  65.204  1.00  0.00    -0.075 C  
BRANCH  22  23
HETATM   23  C   UNL     1      -8.347   5.271  66.180  1.00  0.00    -0.115 C  
BRANCH  23  24
HETATM   24  O   UNL     1      -7.941   5.570  67.515  1.00  0.00    -0.100 OA 
BRANCH  24  25
HETATM   25  C   UNL     1      -9.039   6.037  68.301  1.00  0.00    -0.111 C  
HETATM   26  C   UNL     1     -10.341   5.565  67.679  1.00  0.00    -0.200 C  
HETATM   27  F   UNL     1     -11.384   6.013  68.426  1.00  0.00    -0.382 F  
ENDBRANCH  24  25
ENDBRANCH  23  24
ENDBRANCH  22  23
ENDBRANCH  21  22
ENDBRANCH  20  21
ENDBRANCH  19  20
ENDBRANCH  18  19
ENDBRANCH  15  18
ENDBRANCH  11  12
ENDBRANCH   7  10
ENDBRANCH   1   4
TORSDOF 11
ENDMDL
MODEL      212
REMARK 921   NORMALIZED FREE ENERGY PREDICTED BY IDOCK:   -2.05 KCAL/MOL
REMARK 922        TOTAL FREE ENERGY PREDICTED BY IDOCK:   -4.22 KCAL/MOL
REMARK 923 INTER-LIGAND FREE ENERGY PREDICTED BY IDOCK:   -4.19 KCAL/MOL
REMARK 924 INTRA-LIGAND FREE ENERGY PREDICTED BY IDOCK:   -0.04 KCAL/MOL
REMARK 927      BINDING AFFINITY PREDICTED BY RF-SCORE:    0.00 PKD
ROOT
HETATM    1  N   UNL     1     -10.687  10.916  63.499  1.00  0.00    -0.547 NA 
HETATM    2  H   UNL     1     -10.889  10.236  62.766  1.00  0.00     0.000 HD 
HETATM    3  C   UNL     1     -10.824  12.342  63.246  1.00  0.00    -0.303 C  
ENDROOT
BRANCH   1   4
HETATM    4  C   UNL     1     -10.273  10.495  64.766  1.00  0.00    -0.303 A  
HETATM    5  C   UNL     1      -9.105   9.767  65.005  1.00  0.00    -0.280 A  
HETATM    6  C   UNL     1      -8.767   9.360  66.300  1.00  0.00    -0.157 A  
HETATM    7  C   UNL     1      -9.568   9.706  67.394  1.00  0.00    -0.183 A  
HETATM    8  C   UNL     1     -10.704  10.488  67.164  1.00  0.00    -0.323 A  
HETATM    9  C   UNL     1     -11.036  10.895  65.868  1.00  0.00    -0.054 A  
BRANCH   7  10
HETATM   10  C   UNL     1      -9.233   9.164  68.718  1.00  0.00    -0.136 C  
HETATM   11  C   UNL     1      -9.587   7.943  69.150  1.00  0.00    -0.153 C  
BRANCH  11  12
HETATM   12  C   UNL     1      -9.210   7.391  70.457  1.00  0.00    -0.157 A  
HETATM   13  C   UNL     1      -7.962   7.583  71.045  1.00  0.00    -0.095 A  
HETATM   14  N   UNL     1      -7.577   7.063  72.235  1.00  0.00    -0.090 NA 
HETATM   15  C   UNL     1      -8.469   6.272  72.863  1.00  0.00    -0.118 A  
HETATM   16  C   UNL     1     -10.101   6.566  71.145  1.00  0.00    -0.206 A  
HETATM   17  C   UNL     1      -9.729   5.988  72.361  1.00  0.00    -0.172 A  
BRANCH  15  18
HETATM   18  O   UNL     1      -8.134   5.671  74.058  1.00  0.00    -0.109 OA 
BRANCH  18  19
HETATM   19  C   UNL     1      -6.914   4.923  73.973  1.00  0.00    -0.076 C  
BRANCH  19  20
HETATM   20  C   UNL     1      -7.082   3.810  72.940  1.00  0.00    -0.050 C  
BRANCH  20  21
HETATM   21  O   UNL     1      -6.400   2.638  73.396  1.00  0.00    -0.012 OA 
BRANCH  21  22
HETATM   22  C   UNL     1      -7.208   1.471  73.267  1.00  0.00    -0.027 C  
BRANCH  22  23
HETATM   23  C   UNL     1      -8.356   1.764  72.308  1.00  0.00    -0.053 C  
BRANCH  23  24
HETATM   24  O   UNL     1      -9.407   2.422  73.017  1.00  0.00    -0.082 OA 
BRANCH  24  25
HETATM   25  C   UNL     1     -10.589   1.621  73.056  1.00  0.00    -0.134 C  
HETATM   26  C   UNL     1     -11.753   2.464  73.545  1.00  0.00    -0.053 C  
HETATM   27  F   UNL     1     -12.876   1.699  73.584  1.00  0.00    -0.315 F  
ENDBRANCH  24  25
ENDBRANCH  23  24
ENDBRANCH  22  23
ENDBRANCH  21  22
ENDBRANCH  20  21
ENDBRANCH  19  20
ENDBRANCH  18  19
ENDBRANCH  15  18
ENDBRANCH  11  12
ENDBRANCH   7  10
ENDBRANCH   1   4
TORSDOF 11
ENDMDL
MODEL      213
REMARK 921   NORMALIZED FREE ENERGY PREDICTED BY IDOCK:   -1.74 KCAL/MOL
REMARK 922        TOTAL FREE ENERGY PREDICTED BY IDOCK:   -3.71 KCAL/MOL
REMARK 923 INTER-LIGAND FREE ENERGY PREDICTED BY IDOCK:   -3.04 KCAL/MOL
REMARK 924 INTRA-LIGAND FREE ENERGY PREDICTED BY IDOCK:   -0.67 KCAL/MOL
REMARK 927      BINDING AFFINITY PREDICTED BY RF-SCORE:    0.00 PKD
ROOT
HETATM    1  N   UNL     1     -10.332  20.303  67.985  1.00  0.00    -0.316 NA 
HETATM    2  H   UNL     1     -10.561  20.814  67.133  1.00  0.00     0.000 HD 
HETATM    3  C   UNL     1     -10.506  20.921  69.290  1.00  0.00     0.872 C  
ENDROOT
BRANCH   1   4
HETATM    4  C   UNL     1      -9.844  18.995  67.922  1.00  0.00    -0.337 A  
HETATM    5  C   UNL     1      -8.487  18.667  67.887  1.00  0.00    -0.297 A  
HETATM    6  C   UNL     1      -8.073  17.333  67.801  1.00  0.00    -0.201 A  
HETATM    7  C   UNL     1      -9.007  16.292  67.785  1.00  0.00    -0.193 A  
HETATM    8  C   UNL     1     -10.364  16.614  67.883  1.00  0.00    -0.310 A  
HETATM    9  C   UNL     1     -10.771  17.950  67.973  1.00  0.00    -0.307 A  
BRANCH   7  10
HETATM   10  C   UNL     1      -8.532  14.916  67.583  1.00  0.00    -0.176 C  
HETATM   11  C   UNL     1      -8.057  14.125  68.559  1.00  0.00    -0.143 C  
BRANCH  11  12
HETATM   12  C   UNL     1      -7.626  12.737  68.357  1.00  0.00    -0.133 A  
HETATM   13  C   UNL     1      -6.480  12.380  67.649  1.00  0.00    -0.130 A  
HETATM   14  N   UNL     1      -6.073  11.108  67.422  1.00  0.00    -0.056 NA 
HETATM   15  C   UNL     1      -6.871  10.129  67.891  1.00  0.00    -0.075 A  
HETATM   16  C   UNL     1      -8.419  11.689  68.824  1.00  0.00    -0.027 A  
HETATM   17  C   UNL     1      -8.047  10.364  68.583  1.00  0.00    -0.118 A  
BRANCH  15  18
HETATM   18  O   UNL     1      -6.547   8.809  67.660  1.00  0.00    -0.060 OA 
BRANCH  18  19
HETATM   19  C   UNL     1      -7.116   8.307  66.444  1.00  0.00    -0.071 C  
BRANCH  19  20
HETATM   20  C   UNL     1      -7.822   6.984  66.733  1.00  0.00    -0.107 C  
BRANCH  20  21
HETATM   21  O   UNL     1      -8.214   6.949  68.108  1.00  0.00    -0.117 OA 
BRANCH  21  22
HETATM   22  C   UNL     1      -9.099   5.866  68.380  1.00  0.00    -0.115 C  
BRANCH  22  23
HETATM   23  C   UNL     1      -8.406   4.556  68.023  1.00  0.00    -0.094 C  
BRANCH  23  24
HETATM   24  O   UNL     1      -9.228   3.462  68.430  1.00  0.00    -0.142 OA 
BRANCH  24  25
HETATM   25  C   UNL     1      -9.161   2.384  67.494  1.00  0.00    -0.174 C  
HETATM   26  C   UNL     1      -9.267   2.934  66.083  1.00  0.00    -0.094 C  
HETATM   27  F   UNL     1      -9.205   1.907  65.195  1.00  0.00    -0.123 F  
ENDBRANCH  24  25
ENDBRANCH  23  24
ENDBRANCH  22  23
ENDBRANCH  21  22
ENDBRANCH  20  21
ENDBRANCH  19  20
ENDBRANCH  18  19
ENDBRANCH  15  18
ENDBRANCH  11  12
ENDBRANCH   7  10
ENDBRANCH   1   4
TORSDOF 11
ENDMDL
MODEL      214
REMARK 921   NORMALIZED FREE ENERGY PREDICTED BY IDOCK:   -1.68 KCAL/MOL
REMARK 922        TOTAL FREE ENERGY PREDICTED BY IDOCK:   -3.61 KCAL/MOL
REMARK 923 INTER-LIGAND FREE ENERGY PREDICTED BY IDOCK:   -3.29 KCAL/MOL
REMARK 924 INTRA-LIGAND FREE ENERGY PREDICTED BY IDOCK:   -0.32 KCAL/MOL
REMARK 927      BINDING AFFINITY PREDICTED BY RF-SCORE:    0.00 PKD
ROOT
HETATM    1  N   UNL     1     -10.094  10.086  63.185  1.00  0.00    -0.364 NA 
HETATM    2  H   UNL     1     -10.388   9.217  62.741  1.00  0.00     0.000 HD 
HETATM    3  C   UNL     1     -10.233  11.357  62.492  1.00  0.00     0.461 C  
ENDROOT
BRANCH   1   4
HETATM    4  C   UNL     1      -9.549  10.079  64.473  1.00  0.00    -0.279 A  
HETATM    5  C   UNL     1      -8.317   9.507  64.798  1.00  0.00    -0.155 A  
HETATM    6  C   UNL     1      -7.847   9.519  66.115  1.00  0.00    -0.100 A  
HETATM    7  C   UNL     1      -8.580  10.138  67.134  1.00  0.00    -0.125 A  
HETATM    8  C   UNL     1      -9.783  10.765  66.799  1.00  0.00    -0.221 A  
HETATM    9  C   UNL     1     -10.247  10.754  65.480  1.00  0.00    -0.330 A  
BRANCH   7  10
HETATM   10  C   UNL     1      -8.101  10.029  68.519  1.00  0.00    -0.103 C  
HETATM   11  C   UNL     1      -8.409   9.022  69.352  1.00  0.00    -0.119 C  
BRANCH  11  12
HETATM   12  C   UNL     1      -7.891   8.897  70.719  1.00  0.00    -0.135 A  
HETATM   13  C   UNL     1      -6.642   9.369  71.118  1.00  0.00    -0.057 A  
HETATM   14  N   UNL     1      -6.127   9.242  72.364  1.00  0.00    -0.285 NA 
HETATM   15  C   UNL     1      -6.877   8.572  73.260  1.00  0.00    -0.032 A  
HETATM   16  C   UNL     1      -8.632   8.211  71.682  1.00  0.00    -0.181 A  
HETATM   17  C   UNL     1      -8.120   8.035  72.970  1.00  0.00    -0.222 A  
BRANCH  15  18
HETATM   18  O   UNL     1      -6.400   8.364  74.537  1.00  0.00    -0.117 OA 
BRANCH  18  19
HETATM   19  C   UNL     1      -5.262   7.493  74.563  1.00  0.00    -0.065 C  
BRANCH  19  20
HETATM   20  C   UNL     1      -5.362   6.506  73.402  1.00  0.00    -0.037 C  
BRANCH  20  21
HETATM   21  O   UNL     1      -5.463   5.177  73.921  1.00  0.00    -0.017 OA 
BRANCH  21  22
HETATM   22  C   UNL     1      -6.817   4.801  74.157  1.00  0.00    -0.071 C  
BRANCH  22  23
HETATM   23  C   UNL     1      -7.369   4.121  72.910  1.00  0.00    -0.073 C  
BRANCH  23  24
HETATM   24  O   UNL     1      -8.729   3.748  73.139  1.00  0.00    -0.089 OA 
BRANCH  24  25
HETATM   25  C   UNL     1      -9.373   3.359  71.925  1.00  0.00    -0.127 C  
HETATM   26  C   UNL     1      -9.766   4.598  71.141  1.00  0.00    -0.181 C  
HETATM   27  F   UNL     1     -10.380   4.224  69.988  1.00  0.00    -0.265 F  
ENDBRANCH  24  25
ENDBRANCH  23  24
ENDBRANCH  22  23
ENDBRANCH  21  22
ENDBRANCH  20  21
ENDBRANCH  19  20
ENDBRANCH  18  19
ENDBRANCH  15  18
ENDBRANCH  11  12
ENDBRANCH   7  10
ENDBRANCH   1   4
TORSDOF 11
ENDMDL
MODEL      215
REMARK 921   NORMALIZED FREE ENERGY PREDICTED BY IDOCK:   -1.34 KCAL/MOL
REMARK 922        TOTAL FREE ENERGY PREDICTED BY IDOCK:   -3.07 KCAL/MOL
REMARK 923 INTER-LIGAND FREE ENERGY PREDICTED BY IDOCK:   -2.47 KCAL/MOL
REMARK 924 INTRA-LIGAND FREE ENERGY PREDICTED BY IDOCK:   -0.60 KCAL/MOL
REMARK 927      BINDING AFFINITY PREDICTED BY RF-SCORE:    0.00 PKD
ROOT
HETATM    1  N   UNL     1      -5.456  14.588  73.084  1.00  0.00    -0.153 NA 
HETATM    2  H   UNL     1      -5.600  15.598  73.065  1.00  0.00     0.000 HD 
HETATM    3  C   UNL     1      -5.131  13.909  74.328  1.00  0.00    -0.101 C  
ENDROOT
BRANCH   1   4
HETATM    4  C   UNL     1      -5.566  13.831  71.914  1.00  0.00    -0.151 A  
HETATM    5  C   UNL     1      -5.156  12.501  71.801  1.00  0.00    -0.043 A  
HETATM    6  C   UNL     1      -5.277  11.813  70.589  1.00  0.00    -0.131 A  
HETATM    7  C   UNL     1      -5.847  12.428  69.469  1.00  0.00    -0.101 A  
HETATM    8  C   UNL     1      -6.316  13.739  69.597  1.00  0.00    -0.116 A  
HETATM    9  C   UNL     1      -6.195  14.420  70.813  1.00  0.00    -0.116 A  
BRANCH   7  10
HETATM   10  C   UNL     1      -5.853  11.706  68.190  1.00  0.00    -0.046 C  
HETATM   11  C   UNL     1      -6.938  11.542  67.415  1.00  0.00    -0.111 C  
BRANCH  11  12
HETATM   12  C   UNL     1      -6.927  10.858  66.117  1.00  0.00    -0.099 A  
HETATM   13  C   UNL     1      -8.073  10.614  65.363  1.00  0.00    -0.106 A  
HETATM   14  N   UNL     1      -8.096   9.960  64.177  1.00  0.00    -0.144 NA 
HETATM   15  C   UNL     1      -6.918   9.484  63.729  1.00  0.00    -0.105 A  
HETATM   16  C   UNL     1      -5.731  10.347  65.612  1.00  0.00    -0.105 A  
HETATM   17  C   UNL     1      -5.720   9.641  64.406  1.00  0.00    -0.081 A  
BRANCH  15  18
HETATM   18  O   UNL     1      -6.869   8.768  62.551  1.00  0.00    -0.095 OA 
BRANCH  18  19
HETATM   19  C   UNL     1      -8.040   7.968  62.345  1.00  0.00    -0.163 C  
BRANCH  19  20
HETATM   20  C   UNL     1      -7.688   6.500  62.582  1.00  0.00    -0.096 C  
BRANCH  20  21
HETATM   21  O   UNL     1      -6.836   6.399  63.727  1.00  0.00    -0.039 OA 
BRANCH  21  22
HETATM   22  C   UNL     1      -6.497   5.045  64.016  1.00  0.00    -0.033 C  
BRANCH  22  23
HETATM   23  C   UNL     1      -7.694   4.155  63.707  1.00  0.00    -0.082 C  
BRANCH  23  24
HETATM   24  O   UNL     1      -7.507   2.881  64.323  1.00  0.00    -0.067 OA 
BRANCH  24  25
HETATM   25  C   UNL     1      -7.791   2.933  65.723  1.00  0.00    -0.081 C  
HETATM   26  C   UNL     1      -7.163   1.734  66.410  1.00  0.00    -0.052 C  
HETATM   27  F   UNL     1      -7.436   1.784  67.740  1.00  0.00    -0.051 F  
ENDBRANCH  24  25
ENDBRANCH  23  24
ENDBRANCH  22  23
ENDBRANCH  21  22
ENDBRANCH  20  21
ENDBRANCH  19  20
ENDBRANCH  18  19
ENDBRANCH  15  18
ENDBRANCH  11  12
ENDBRANCH   7  10
ENDBRANCH   1   4
TORSDOF 11
ENDMDL
MODEL      216
REMARK 921   NORMALIZED FREE ENERGY PREDICTED BY IDOCK:   -1.08 KCAL/MOL
REMARK 922        TOTAL FREE ENERGY PREDICTED BY IDOCK:   -2.64 KCAL/MOL
REMARK 923 INTER-LIGAND FREE ENERGY PREDICTED BY IDOCK:   -2.37 KCAL/MOL
REMARK 924 INTRA-LIGAND FREE ENERGY PREDICTED BY IDOCK:   -0.27 KCAL/MOL
REMARK 927      BINDING AFFINITY PREDICTED BY RF-SCORE:    0.00 PKD
ROOT
HETATM    1  N   UNL     1     -10.198  10.067  63.034  1.00  0.00    -0.148 NA 
HETATM    2  H   UNL     1     -10.489   9.252  62.495  1.00  0.00     0.000 HD 
HETATM    3  C   UNL     1     -10.271  11.401  62.459  1.00  0.00     0.461 C  
ENDROOT
BRANCH   1   4
HETATM    4  C   UNL     1      -9.721   9.923  64.340  1.00  0.00    -0.107 A  
HETATM    5  C   UNL     1      -8.593   9.175  64.683  1.00  0.00    -0.206 A  
HETATM    6  C   UNL     1      -8.189   9.058  66.017  1.00  0.00    -0.113 A  
HETATM    7  C   UNL     1      -8.882   9.719  67.038  1.00  0.00    -0.145 A  
HETATM    8  C   UNL     1      -9.974  10.518  66.690  1.00  0.00    -0.260 A  
HETATM    9  C   UNL     1     -10.371  10.634  65.353  1.00  0.00    -0.303 A  
BRANCH   7  10
HETATM   10  C   UNL     1      -8.488   9.478  68.433  1.00  0.00    -0.119 C  
HETATM   11  C   UNL     1      -9.050   8.557  69.232  1.00  0.00    -0.153 C  
BRANCH  11  12
HETATM   12  C   UNL     1      -8.622   8.292  70.610  1.00  0.00    -0.139 A  
HETATM   13  C   UNL     1      -7.323   8.506  71.070  1.00  0.00    -0.074 A  
HETATM   14  N   UNL     1      -6.893   8.243  72.327  1.00  0.00    -0.083 NA 
HETATM   15  C   UNL     1      -7.792   7.700  73.171  1.00  0.00    -0.111 A  
HETATM   16  C   UNL     1      -9.517   7.729  71.520  1.00  0.00    -0.174 A  
HETATM   17  C   UNL     1      -9.102   7.417  72.817  1.00  0.00    -0.184 A  
BRANCH  15  18
HETATM   18  O   UNL     1      -7.416   7.363  74.454  1.00  0.00    -0.114 OA 
BRANCH  18  19
HETATM   19  C   UNL     1      -6.626   6.168  74.499  1.00  0.00    -0.079 C  
BRANCH  19  20
HETATM   20  C   UNL     1      -5.792   6.073  73.224  1.00  0.00    -0.045 C  
BRANCH  20  21
HETATM   21  O   UNL     1      -5.901   4.750  72.688  1.00  0.00    -0.015 OA 
BRANCH  21  22
HETATM   22  C   UNL     1      -6.899   4.670  71.674  1.00  0.00    -0.039 C  
BRANCH  22  23
HETATM   23  C   UNL     1      -6.800   3.314  70.985  1.00  0.00    -0.032 C  
BRANCH  23  24
HETATM   24  O   UNL     1      -7.085   3.469  69.594  1.00  0.00    -0.041 OA 
BRANCH  24  25
HETATM   25  C   UNL     1      -7.108   4.847  69.218  1.00  0.00    -0.055 C  
HETATM   26  C   UNL     1      -6.588   4.992  67.800  1.00  0.00    -0.050 C  
HETATM   27  F   UNL     1      -6.609   6.303  67.445  1.00  0.00    -0.043 F  
ENDBRANCH  24  25
ENDBRANCH  23  24
ENDBRANCH  22  23
ENDBRANCH  21  22
ENDBRANCH  20  21
ENDBRANCH  19  20
ENDBRANCH  18  19
ENDBRANCH  15  18
ENDBRANCH  11  12
ENDBRANCH   7  10
ENDBRANCH   1   4
TORSDOF 11
ENDMDL
MODEL      217
REMARK 921   NORMALIZED FREE ENERGY PREDICTED BY IDOCK:   -0.62 KCAL/MOL
REMARK 922        TOTAL FREE ENERGY PREDICTED BY IDOCK:   -1.88 KCAL/MOL
REMARK 923 INTER-LIGAND FREE ENERGY PREDICTED BY IDOCK:   -1.58 KCAL/MOL
REMARK 924 INTRA-LIGAND FREE ENERGY PREDICTED BY IDOCK:   -0.31 KCAL/MOL
REMARK 927      BINDING AFFINITY PREDICTED BY RF-SCORE:    0.00 PKD
ROOT
HETATM    1  N   UNL     1     -12.506  15.967  70.502  1.00  0.00    -0.470 NA 
HETATM    2  H   UNL     1     -12.832  16.797  70.006  1.00  0.00     0.000 HD 
HETATM    3  C   UNL     1     -12.650  15.861  71.945  1.00  0.00    -0.443 C  
ENDROOT
BRANCH   1   4
HETATM    4  C   UNL     1     -11.911  14.911  69.806  1.00  0.00    -0.315 A  
HETATM    5  C   UNL     1     -11.947  14.770  68.417  1.00  0.00    -0.270 A  
HETATM    6  C   UNL     1     -11.346  13.672  67.792  1.00  0.00    -0.336 A  
HETATM    7  C   UNL     1     -10.662  12.707  68.539  1.00  0.00    -0.271 A  
HETATM    8  C   UNL     1     -10.571  12.878  69.923  1.00  0.00     1.018 A  
HETATM    9  C   UNL     1     -11.170  13.981  70.542  1.00  0.00     0.216 A  
BRANCH   7  10
HETATM   10  C   UNL     1     -10.143  11.515  67.853  1.00  0.00    -0.202 C  
HETATM   11  C   UNL     1     -10.019  11.401  66.520  1.00  0.00    -0.243 C  
BRANCH  11  12
HETATM   12  C   UNL     1      -9.459  10.225  65.844  1.00  0.00    -0.241 A  
HETATM   13  C   UNL     1      -8.541  10.300  64.798  1.00  0.00    -0.184 A  
HETATM   14  N   UNL     1      -8.029   9.234  64.137  1.00  0.00    -0.128 NA 
HETATM   15  C   UNL     1      -8.485   8.022  64.507  1.00  0.00     0.042 A  
HETATM   16  C   UNL     1      -9.901   8.948  66.192  1.00  0.00    -0.326 A  
HETATM   17  C   UNL     1      -9.418   7.827  65.513  1.00  0.00     0.454 A  
BRANCH  15  18
HETATM   18  O   UNL     1      -8.045   6.892  63.850  1.00  0.00    -0.095 OA 
BRANCH  18  19
HETATM   19  C   UNL     1      -6.969   6.241  64.538  1.00  0.00    -0.048 C  
BRANCH  19  20
HETATM   20  C   UNL     1      -6.347   7.219  65.532  1.00  0.00    -0.038 C  
BRANCH  20  21
HETATM   21  O   UNL     1      -5.956   6.508  66.710  1.00  0.00    -0.023 OA 
BRANCH  21  22
HETATM   22  C   UNL     1      -5.144   7.307  67.566  1.00  0.00    -0.020 C  
BRANCH  22  23
HETATM   23  C   UNL     1      -6.040   8.238  68.375  1.00  0.00    -0.046 C  
BRANCH  23  24
HETATM   24  O   UNL     1      -5.953   9.559  67.840  1.00  0.00    -0.050 OA 
BRANCH  24  25
HETATM   25  C   UNL     1      -6.534  10.518  68.725  1.00  0.00    -0.051 C  
HETATM   26  C   UNL     1      -6.548   9.959  70.136  1.00  0.00    -0.102 C  
HETATM   27  F   UNL     1      -7.103  10.872  70.976  1.00  0.00     0.592 F  
ENDBRANCH  24  25
ENDBRANCH  23  24
ENDBRANCH  22  23
ENDBRANCH  21  22
ENDBRANCH  20  21
ENDBRANCH  19  20
ENDBRANCH  18  19
ENDBRANCH  15  18
ENDBRANCH  11  12
ENDBRANCH   7  10
ENDBRANCH   1   4
TORSDOF 11
ENDMDL
MODEL      218
REMARK 921   NORMALIZED FREE ENERGY PREDICTED BY IDOCK:   -0.62 KCAL/MOL
REMARK 922        TOTAL FREE ENERGY PREDICTED BY IDOCK:   -1.88 KCAL/MOL
REMARK 923 INTER-LIGAND FREE ENERGY PREDICTED BY IDOCK:   -2.72 KCAL/MOL
REMARK 924 INTRA-LIGAND FREE ENERGY PREDICTED BY IDOCK:    0.85 KCAL/MOL
REMARK 927      BINDING AFFINITY PREDICTED BY RF-SCORE:    0.00 PKD
ROOT
HETATM    1  N   UNL     1      -8.415   7.202  63.140  1.00  0.00    -0.349 NA 
HETATM    2  H   UNL     1      -8.670   7.520  62.206  1.00  0.00     0.000 HD 
HETATM    3  C   UNL     1      -8.523   5.796  63.500  1.00  0.00     0.059 C  
ENDROOT
BRANCH   1   4
HETATM    4  C   UNL     1      -7.954   8.107  64.100  1.00  0.00    -0.142 A  
HETATM    5  C   UNL     1      -7.525   7.741  65.378  1.00  0.00    -0.081 A  
HETATM    6  C   UNL     1      -7.097   8.708  66.295  1.00  0.00    -0.078 A  
HETATM    7  C   UNL     1      -7.052  10.061  65.942  1.00  0.00    -0.114 A  
HETATM    8  C   UNL     1      -7.422  10.422  64.643  1.00  0.00    -0.037 A  
HETATM    9  C   UNL     1      -7.845   9.451  63.730  1.00  0.00    -0.132 A  
BRANCH   7  10
HETATM   10  C   UNL     1      -6.702  11.050  66.971  1.00  0.00    -0.108 C  
HETATM   11  C   UNL     1      -6.210  12.273  66.712  1.00  0.00     0.244 C  
BRANCH  11  12
HETATM   12  C   UNL     1      -5.905  13.272  67.743  1.00  0.00    -0.132 A  
HETATM   13  C   UNL     1      -5.422  12.951  69.010  1.00  0.00    -0.069 A  
HETATM   14  N   UNL     1      -5.159  13.849  69.990  1.00  0.00    -0.089 NA 
HETATM   15  C   UNL     1      -5.427  15.140  69.711  1.00  0.00    -0.105 A  
HETATM   16  C   UNL     1      -6.167  14.621  67.501  1.00  0.00    -0.005 A  
HETATM   17  C   UNL     1      -5.936  15.573  68.497  1.00  0.00    -0.097 A  
BRANCH  15  18
HETATM   18  O   UNL     1      -5.228  16.107  70.674  1.00  0.00    -0.171 OA 
BRANCH  18  19
HETATM   19  C   UNL     1      -6.271  17.090  70.689  1.00  0.00     0.794 C  
BRANCH  19  20
HETATM   20  C   UNL     1      -5.753  18.376  70.050  1.00  0.00    -0.241 C  
BRANCH  20  21
HETATM   21  O   UNL     1      -5.347  18.104  68.705  1.00  0.00    -0.167 OA 
BRANCH  21  22
HETATM   22  C   UNL     1      -6.033  18.930  67.768  1.00  0.00    -0.200 C  
BRANCH  22  23
HETATM   23  C   UNL     1      -7.432  18.370  67.541  1.00  0.00    -0.219 C  
BRANCH  23  24
HETATM   24  O   UNL     1      -8.373  19.129  68.301  1.00  0.00    -0.308 OA 
BRANCH  24  25
HETATM   25  C   UNL     1      -9.713  18.863  67.886  1.00  0.00    -0.327 C  
HETATM   26  C   UNL     1      -9.745  18.666  66.381  1.00  0.00    -0.345 C  
HETATM   27  F   UNL     1     -11.022  18.414  65.988  1.00  0.00    -0.307 F  
ENDBRANCH  24  25
ENDBRANCH  23  24
ENDBRANCH  22  23
ENDBRANCH  21  22
ENDBRANCH  20  21
ENDBRANCH  19  20
ENDBRANCH  18  19
ENDBRANCH  15  18
ENDBRANCH  11  12
ENDBRANCH   7  10
ENDBRANCH   1   4
TORSDOF 11
ENDMDL
MODEL      219
REMARK 921   NORMALIZED FREE ENERGY PREDICTED BY IDOCK:   -0.16 KCAL/MOL
REMARK 922        TOTAL FREE ENERGY PREDICTED BY IDOCK:   -1.12 KCAL/MOL
REMARK 923 INTER-LIGAND FREE ENERGY PREDICTED BY IDOCK:   -3.13 KCAL/MOL
REMARK 924 INTRA-LIGAND FREE ENERGY PREDICTED BY IDOCK:    2.00 KCAL/MOL
REMARK 927      BINDING AFFINITY PREDICTED BY RF-SCORE:    0.00 PKD
ROOT
HETATM    1  N   UNL     1      -6.179   9.098  72.221  1.00  0.00    -0.266 NA 
HETATM    2  H   UNL     1      -5.787   9.070  73.162  1.00  0.00     0.000 HD 
HETATM    3  C   UNL     1      -6.768   7.908  71.627  1.00  0.00    -0.052 C  
ENDROOT
BRANCH   1   4
HETATM    4  C   UNL     1      -6.162  10.281  71.477  1.00  0.00     0.470 A  
HETATM    5  C   UNL     1      -5.249  11.319  71.680  1.00  0.00     0.078 A  
HETATM    6  C   UNL     1      -5.307  12.486  70.910  1.00  0.00    -0.166 A  
HETATM    7  C   UNL     1      -6.257  12.627  69.892  1.00  0.00    -0.088 A  
HETATM    8  C   UNL     1      -7.131  11.564  69.646  1.00  0.00     0.080 A  
HETATM    9  C   UNL     1      -7.065  10.399  70.417  1.00  0.00     0.049 A  
BRANCH   7  10
HETATM   10  C   UNL     1      -6.351  13.911  69.184  1.00  0.00    -0.107 C  
HETATM   11  C   UNL     1      -5.868  15.074  69.653  1.00  0.00    -0.110 C  
BRANCH  11  12
HETATM   12  C   UNL     1      -5.927  16.344  68.921  1.00  0.00    -0.134 A  
HETATM   13  C   UNL     1      -5.748  16.450  67.543  1.00  0.00    -0.151 A  
HETATM   14  N   UNL     1      -5.769  17.611  66.845  1.00  0.00    -0.138 NA 
HETATM   15  C   UNL     1      -5.937  18.741  67.561  1.00  0.00    -0.179 A  
HETATM   16  C   UNL     1      -6.100  17.540  69.619  1.00  0.00    -0.249 A  
HETATM   17  C   UNL     1      -6.097  18.760  68.937  1.00  0.00    -0.239 A  
BRANCH  15  18
HETATM   18  O   UNL     1      -5.924  19.965  66.927  1.00  0.00    -0.173 OA 
BRANCH  18  19
HETATM   19  C   UNL     1      -6.408  19.891  65.580  1.00  0.00    -0.236 C  
BRANCH  19  20
HETATM   20  C   UNL     1      -7.715  20.675  65.476  1.00  0.00     0.362 C  
BRANCH  20  21
HETATM   21  O   UNL     1      -8.792  19.858  65.947  1.00  0.00    -0.335 OA 
BRANCH  21  22
HETATM   22  C   UNL     1      -8.320  18.720  66.663  1.00  0.00    -0.288 C  
BRANCH  22  23
HETATM   23  C   UNL     1      -9.130  17.499  66.245  1.00  0.00    -0.193 C  
BRANCH  23  24
HETATM   24  O   UNL     1      -9.852  17.003  67.373  1.00  0.00    -0.251 OA 
BRANCH  24  25
HETATM   25  C   UNL     1     -10.672  15.888  67.017  1.00  0.00    -0.292 C  
HETATM   26  C   UNL     1      -9.818  14.635  66.951  1.00  0.00    -0.249 C  
HETATM   27  F   UNL     1     -10.599  13.576  66.610  1.00  0.00    -0.271 F  
ENDBRANCH  24  25
ENDBRANCH  23  24
ENDBRANCH  22  23
ENDBRANCH  21  22
ENDBRANCH  20  21
ENDBRANCH  19  20
ENDBRANCH  18  19
ENDBRANCH  15  18
ENDBRANCH  11  12
ENDBRANCH   7  10
ENDBRANCH   1   4
TORSDOF 11
ENDMDL
MODEL      220
REMARK 921   NORMALIZED FREE ENERGY PREDICTED BY IDOCK:   -0.14 KCAL/MOL
REMARK 922        TOTAL FREE ENERGY PREDICTED BY IDOCK:   -1.09 KCAL/MOL
REMARK 923 INTER-LIGAND FREE ENERGY PREDICTED BY IDOCK:   -1.91 KCAL/MOL
REMARK 924 INTRA-LIGAND FREE ENERGY PREDICTED BY IDOCK:    0.83 KCAL/MOL
REMARK 927      BINDING AFFINITY PREDICTED BY RF-SCORE:    0.00 PKD
ROOT
HETATM    1  N   UNL     1      -8.486   7.335  63.182  1.00  0.00    -0.356 NA 
HETATM    2  H   UNL     1      -9.302   7.506  62.595  1.00  0.00     0.000 HD 
HETATM    3  C   UNL     1      -7.763   6.075  63.098  1.00  0.00    -0.095 C  
ENDROOT
BRANCH   1   4
HETATM    4  C   UNL     1      -8.039   8.307  64.082  1.00  0.00    -0.136 A  
HETATM    5  C   UNL     1      -6.766   8.315  64.656  1.00  0.00    -0.068 A  
HETATM    6  C   UNL     1      -6.398   9.310  65.568  1.00  0.00    -0.064 A  
HETATM    7  C   UNL     1      -7.281  10.343  65.899  1.00  0.00    -0.135 A  
HETATM    8  C   UNL     1      -8.533  10.372  65.278  1.00  0.00    -0.173 A  
HETATM    9  C   UNL     1      -8.895   9.377  64.364  1.00  0.00    -0.225 A  
BRANCH   7  10
HETATM   10  C   UNL     1      -6.892  11.302  66.943  1.00  0.00    -0.134 C  
HETATM   11  C   UNL     1      -6.290  12.479  66.706  1.00  0.00     0.524 C  
BRANCH  11  12
HETATM   12  C   UNL     1      -5.944  13.451  67.750  1.00  0.00    -0.141 A  
HETATM   13  C   UNL     1      -5.482  13.093  69.015  1.00  0.00    -0.069 A  
HETATM   14  N   UNL     1      -5.183  13.967  70.006  1.00  0.00    -0.090 NA 
HETATM   15  C   UNL     1      -5.392  15.271  69.743  1.00  0.00    -0.100 A  
HETATM   16  C   UNL     1      -6.145  14.813  67.524  1.00  0.00     0.017 A  
HETATM   17  C   UNL     1      -5.875  15.741  68.533  1.00  0.00    -0.100 A  
BRANCH  15  18
HETATM   18  O   UNL     1      -5.154  16.216  70.718  1.00  0.00    -0.177 OA 
BRANCH  18  19
HETATM   19  C   UNL     1      -6.281  17.073  70.941  1.00  0.00     1.230 C  
BRANCH  19  20
HETATM   20  C   UNL     1      -6.016  18.427  70.286  1.00  0.00    -0.082 C  
BRANCH  20  21
HETATM   21  O   UNL     1      -5.817  18.240  68.882  1.00  0.00    -0.196 OA 
BRANCH  21  22
HETATM   22  C   UNL     1      -6.626  19.123  68.110  1.00  0.00    -0.230 C  
BRANCH  22  23
HETATM   23  C   UNL     1      -5.788  19.702  66.976  1.00  0.00    -0.173 C  
BRANCH  23  24
HETATM   24  O   UNL     1      -6.183  19.101  65.742  1.00  0.00    -0.189 OA 
BRANCH  24  25
HETATM   25  C   UNL     1      -6.229  20.062  64.686  1.00  0.00    -0.275 C  
HETATM   26  C   UNL     1      -5.774  19.412  63.393  1.00  0.00    -0.220 C  
HETATM   27  F   UNL     1      -5.816  20.328  62.390  1.00  0.00    -0.257 F  
ENDBRANCH  24  25
ENDBRANCH  23  24
ENDBRANCH  22  23
ENDBRANCH  21  22
ENDBRANCH  20  21
ENDBRANCH  19  20
ENDBRANCH  18  19
ENDBRANCH  15  18
ENDBRANCH  11  12
ENDBRANCH   7  10
ENDBRANCH   1   4
TORSDOF 11
ENDMDL
MODEL      221
REMARK 921   NORMALIZED FREE ENERGY PREDICTED BY IDOCK:    2.37 KCAL/MOL
REMARK 922        TOTAL FREE ENERGY PREDICTED BY IDOCK:    3.03 KCAL/MOL
REMARK 923 INTER-LIGAND FREE ENERGY PREDICTED BY IDOCK:    2.70 KCAL/MOL
REMARK 924 INTRA-LIGAND FREE ENERGY PREDICTED BY IDOCK:    0.33 KCAL/MOL
REMARK 927      BINDING AFFINITY PREDICTED BY RF-SCORE:    0.00 PKD
ROOT
HETATM    1  N   UNL     1     -10.164  20.700  70.658  1.00  0.00     0.395 NA 
HETATM    2  H   UNL     1     -10.908  21.347  70.395  1.00  0.00     0.000 HD 
HETATM    3  C   UNL     1      -9.327  20.964  71.818  1.00  0.00     2.751 C  
ENDROOT
BRANCH   1   4
HETATM    4  C   UNL     1      -9.930  19.543  69.910  1.00  0.00     0.381 A  
HETATM    5  C   UNL     1     -10.918  18.614  69.577  1.00  0.00     1.879 A  
HETATM    6  C   UNL     1     -10.603  17.465  68.843  1.00  0.00    -0.243 A  
HETATM    7  C   UNL     1      -9.299  17.236  68.392  1.00  0.00    -0.275 A  
HETATM    8  C   UNL     1      -8.321  18.196  68.671  1.00  0.00    -0.289 A  
HETATM    9  C   UNL     1      -8.642  19.345  69.402  1.00  0.00     0.111 A  
BRANCH   7  10
HETATM   10  C   UNL     1      -8.993  15.965  67.721  1.00  0.00    -0.176 C  
HETATM   11  C   UNL     1      -9.836  14.922  67.650  1.00  0.00    -0.217 C  
BRANCH  11  12
HETATM   12  C   UNL     1      -9.541  13.672  66.941  1.00  0.00    -0.262 A  
HETATM   13  C   UNL     1      -9.684  13.513  65.564  1.00  0.00    -0.047 A  
HETATM   14  N   UNL     1      -9.447  12.364  64.887  1.00  0.00     0.132 NA 
HETATM   15  C   UNL     1      -9.084  11.296  65.623  1.00  0.00    -0.189 A  
HETATM   16  C   UNL     1      -9.162  12.538  67.661  1.00  0.00    -0.190 A  
HETATM   17  C   UNL     1      -8.938  11.328  67.001  1.00  0.00    -0.154 A  
BRANCH  15  18
HETATM   18  O   UNL     1      -8.869  10.079  65.011  1.00  0.00    -0.160 OA 
BRANCH  18  19
HETATM   19  C   UNL     1      -8.100   9.183  65.823  1.00  0.00    -0.112 C  
BRANCH  19  20
HETATM   20  C   UNL     1      -6.682   9.732  65.965  1.00  0.00    -0.087 C  
BRANCH  20  21
HETATM   21  O   UNL     1      -5.874   8.776  66.659  1.00  0.00    -0.050 OA 
BRANCH  21  22
HETATM   22  C   UNL     1      -5.675   7.593  65.891  1.00  0.00    -0.037 C  
BRANCH  22  23
HETATM   23  C   UNL     1      -6.040   6.381  66.740  1.00  0.00    -0.029 C  
BRANCH  23  24
HETATM   24  O   UNL     1      -6.827   6.804  67.853  1.00  0.00    -0.071 OA 
BRANCH  24  25
HETATM   25  C   UNL     1      -8.224   6.679  67.581  1.00  0.00    -0.122 C  
HETATM   26  C   UNL     1      -8.532   5.250  67.172  1.00  0.00    -0.106 C  
HETATM   27  F   UNL     1      -9.861   5.134  66.912  1.00  0.00    -0.132 F  
ENDBRANCH  24  25
ENDBRANCH  23  24
ENDBRANCH  22  23
ENDBRANCH  21  22
ENDBRANCH  20  21
ENDBRANCH  19  20
ENDBRANCH  18  19
ENDBRANCH  15  18
ENDBRANCH  11  12
ENDBRANCH   7  10
ENDBRANCH   1   4
TORSDOF 11
ENDMDL
MODEL      222
REMARK 921   NORMALIZED FREE ENERGY PREDICTED BY IDOCK:    2.68 KCAL/MOL
REMARK 922        TOTAL FREE ENERGY PREDICTED BY IDOCK:    3.55 KCAL/MOL
REMARK 923 INTER-LIGAND FREE ENERGY PREDICTED BY IDOCK:   -0.95 KCAL/MOL
REMARK 924 INTRA-LIGAND FREE ENERGY PREDICTED BY IDOCK:    4.50 KCAL/MOL
REMARK 927      BINDING AFFINITY PREDICTED BY RF-SCORE:    0.00 PKD
ROOT
HETATM    1  N   UNL     1      -6.734  13.296  66.532  1.00  0.00     0.615 NA 
HETATM    2  H   UNL     1      -6.120  12.977  65.783  1.00  0.00     0.000 HD 
HETATM    3  C   UNL     1      -7.066  14.705  66.668  1.00  0.00     1.541 C  
ENDROOT
BRANCH   1   4
HETATM    4  C   UNL     1      -7.273  12.387  67.446  1.00  0.00    -0.148 A  
HETATM    5  C   UNL     1      -6.728  12.130  68.707  1.00  0.00    -0.088 A  
HETATM    6  C   UNL     1      -7.311  11.188  69.561  1.00  0.00    -0.023 A  
HETATM    7  C   UNL     1      -8.476  10.507  69.191  1.00  0.00    -0.152 A  
HETATM    8  C   UNL     1      -9.058  10.808  67.956  1.00  0.00    -0.150 A  
HETATM    9  C   UNL     1      -8.473  11.754  67.108  1.00  0.00    -0.170 A  
BRANCH   7  10
HETATM   10  C   UNL     1      -8.989   9.449  70.072  1.00  0.00    -0.234 C  
HETATM   11  C   UNL     1      -9.848   8.491  69.687  1.00  0.00    -0.183 C  
BRANCH  11  12
HETATM   12  C   UNL     1     -10.321   7.411  70.560  1.00  0.00    -0.220 A  
HETATM   13  C   UNL     1     -10.570   6.113  70.118  1.00  0.00    -0.259 A  
HETATM   14  N   UNL     1     -11.035   5.105  70.894  1.00  0.00     0.027 NA 
HETATM   15  C   UNL     1     -11.307   5.410  72.178  1.00  0.00    -0.080 A  
HETATM   16  C   UNL     1     -10.617   7.679  71.897  1.00  0.00    -0.257 A  
HETATM   17  C   UNL     1     -11.126   6.671  72.721  1.00  0.00    -0.283 A  
BRANCH  15  18
HETATM   18  O   UNL     1     -11.825   4.447  73.018  1.00  0.00    -0.056 OA 
BRANCH  18  19
HETATM   19  C   UNL     1     -10.962   3.311  73.151  1.00  0.00    -0.103 C  
BRANCH  19  20
HETATM   20  C   UNL     1     -10.305   3.342  74.529  1.00  0.00    -0.185 C  
BRANCH  20  21
HETATM   21  O   UNL     1      -8.891   3.497  74.373  1.00  0.00    -0.086 OA 
BRANCH  21  22
HETATM   22  C   UNL     1      -8.543   3.883  73.046  1.00  0.00    -0.095 C  
BRANCH  22  23
HETATM   23  C   UNL     1      -7.034   3.759  72.871  1.00  0.00    -0.048 C  
BRANCH  23  24
HETATM   24  O   UNL     1      -6.453   5.063  72.854  1.00  0.00    -0.050 OA 
BRANCH  24  25
HETATM   25  C   UNL     1      -6.965   5.848  71.776  1.00  0.00    -0.073 C  
HETATM   26  C   UNL     1      -7.810   6.979  72.332  1.00  0.00    -0.094 C  
HETATM   27  F   UNL     1      -8.298   7.723  71.304  1.00  0.00    -0.097 F  
ENDBRANCH  24  25
ENDBRANCH  23  24
ENDBRANCH  22  23
ENDBRANCH  21  22
ENDBRANCH  20  21
ENDBRANCH  19  20
ENDBRANCH  18  19
ENDBRANCH  15  18
ENDBRANCH  11  12
ENDBRANCH   7  10
ENDBRANCH   1   4
TORSDOF 11
ENDMDL
MODEL      223
REMARK 921   NORMALIZED FREE ENERGY PREDICTED BY IDOCK:    2.95 KCAL/MOL
REMARK 922        TOTAL FREE ENERGY PREDICTED BY IDOCK:    3.99 KCAL/MOL
REMARK 923 INTER-LIGAND FREE ENERGY PREDICTED BY IDOCK:    3.08 KCAL/MOL
REMARK 924 INTRA-LIGAND FREE ENERGY PREDICTED BY IDOCK:    0.91 KCAL/MOL
REMARK 927      BINDING AFFINITY PREDICTED BY RF-SCORE:    0.00 PKD
ROOT
HETATM    1  N   UNL     1      -5.706  14.856  72.628  1.00  0.00     0.321 NA 
HETATM    2  H   UNL     1      -5.576  15.814  72.952  1.00  0.00     0.000 HD 
HETATM    3  C   UNL     1      -5.129  13.740  73.360  1.00  0.00    -0.223 C  
ENDROOT
BRANCH   1   4
HETATM    4  C   UNL     1      -6.444  14.591  71.471  1.00  0.00     0.673 A  
HETATM    5  C   UNL     1      -6.117  13.597  70.545  1.00  0.00    -0.101 A  
HETATM    6  C   UNL     1      -6.891  13.405  69.396  1.00  0.00     0.005 A  
HETATM    7  C   UNL     1      -8.034  14.178  69.163  1.00  0.00     0.096 A  
HETATM    8  C   UNL     1      -8.399  15.131  70.119  1.00  0.00     0.569 A  
HETATM    9  C   UNL     1      -7.623  15.316  71.268  1.00  0.00     2.733 A  
BRANCH   7  10
HETATM   10  C   UNL     1      -8.753  14.016  67.891  1.00  0.00    -0.184 C  
HETATM   11  C   UNL     1     -10.074  13.801  67.788  1.00  0.00    -0.245 C  
BRANCH  11  12
HETATM   12  C   UNL     1     -10.792  13.685  66.513  1.00  0.00    -0.283 A  
HETATM   13  C   UNL     1     -12.036  13.071  66.381  1.00  0.00    -0.358 A  
HETATM   14  N   UNL     1     -12.707  12.923  65.214  1.00  0.00    -0.688 NA 
HETATM   15  C   UNL     1     -12.093  13.376  64.104  1.00  0.00    -0.433 A  
HETATM   16  C   UNL     1     -10.195  14.139  65.337  1.00  0.00    -0.380 A  
HETATM   17  C   UNL     1     -10.844  13.978  64.110  1.00  0.00     0.064 A  
BRANCH  15  18
HETATM   18  O   UNL     1     -12.694  13.222  62.873  1.00  0.00    -0.473 OA 
BRANCH  18  19
HETATM   19  C   UNL     1     -13.120  11.874  62.635  1.00  0.00     1.528 C  
BRANCH  19  20
HETATM   20  C   UNL     1     -11.891  10.980  62.488  1.00  0.00     2.087 C  
BRANCH  20  21
HETATM   21  O   UNL     1     -10.728  11.708  62.896  1.00  0.00    -0.162 OA 
BRANCH  21  22
HETATM   22  C   UNL     1      -9.528  11.005  62.587  1.00  0.00    -0.289 C  
BRANCH  22  23
HETATM   23  C   UNL     1      -9.059  10.251  63.825  1.00  0.00    -0.256 C  
BRANCH  23  24
HETATM   24  O   UNL     1      -9.978  10.480  64.894  1.00  0.00    -0.289 OA 
BRANCH  24  25
HETATM   25  C   UNL     1      -9.635   9.713  66.049  1.00  0.00    -0.242 C  
HETATM   26  C   UNL     1     -10.766   9.789  67.059  1.00  0.00    -0.166 C  
HETATM   27  F   UNL     1     -10.437   9.061  68.158  1.00  0.00    -0.224 F  
ENDBRANCH  24  25
ENDBRANCH  23  24
ENDBRANCH  22  23
ENDBRANCH  21  22
ENDBRANCH  20  21
ENDBRANCH  19  20
ENDBRANCH  18  19
ENDBRANCH  15  18
ENDBRANCH  11  12
ENDBRANCH   7  10
ENDBRANCH   1   4
TORSDOF 11
ENDMDL
MODEL      224
REMARK 921   NORMALIZED FREE ENERGY PREDICTED BY IDOCK:    4.68 KCAL/MOL
REMARK 922        TOTAL FREE ENERGY PREDICTED BY IDOCK:    6.83 KCAL/MOL
REMARK 923 INTER-LIGAND FREE ENERGY PREDICTED BY IDOCK:    7.76 KCAL/MOL
REMARK 924 INTRA-LIGAND FREE ENERGY PREDICTED BY IDOCK:   -0.93 KCAL/MOL
REMARK 927      BINDING AFFINITY PREDICTED BY RF-SCORE:    0.00 PKD
ROOT
HETATM    1  N   UNL     1     -13.848  15.192  73.155  1.00  0.00    -0.566 NA 
HETATM    2  H   UNL     1     -14.778  15.049  73.548  1.00  0.00     0.000 HD 
HETATM    3  C   UNL     1     -13.271  16.525  73.083  1.00  0.00     0.237 C  
ENDROOT
BRANCH   1   4
HETATM    4  C   UNL     1     -13.103  14.111  72.676  1.00  0.00    -0.472 A  
HETATM    5  C   UNL     1     -12.040  14.230  71.778  1.00  0.00    -0.224 A  
HETATM    6  C   UNL     1     -11.354  13.098  71.325  1.00  0.00     2.292 A  
HETATM    7  C   UNL     1     -11.690  11.822  71.789  1.00  0.00     2.244 A  
HETATM    8  C   UNL     1     -12.713  11.706  72.735  1.00  0.00     2.597 A  
HETATM    9  C   UNL     1     -13.393  12.842  73.187  1.00  0.00     2.013 A  
BRANCH   7  10
HETATM   10  C   UNL     1     -11.017  10.654  71.202  1.00  0.00     0.860 C  
HETATM   11  C   UNL     1     -11.533   9.893  70.223  1.00  0.00    -0.349 C  
BRANCH  11  12
HETATM   12  C   UNL     1     -10.836   8.756  69.611  1.00  0.00    -0.175 A  
HETATM   13  C   UNL     1     -11.403   7.938  68.635  1.00  0.00     0.738 A  
HETATM   14  N   UNL     1     -10.795   6.865  68.075  1.00  0.00    -0.217 NA 
HETATM   15  C   UNL     1      -9.567   6.559  68.536  1.00  0.00    -0.123 A  
HETATM   16  C   UNL     1      -9.563   8.401  70.057  1.00  0.00    -0.168 A  
HETATM   17  C   UNL     1      -8.916   7.283  69.523  1.00  0.00    -0.144 A  
BRANCH  15  18
HETATM   18  O   UNL     1      -8.903   5.455  68.046  1.00  0.00    -0.106 OA 
BRANCH  18  19
HETATM   19  C   UNL     1      -7.730   5.805  67.299  1.00  0.00    -0.101 C  
BRANCH  19  20
HETATM   20  C   UNL     1      -7.985   5.538  65.817  1.00  0.00    -0.108 C  
BRANCH  20  21
HETATM   21  O   UNL     1      -6.983   6.200  65.040  1.00  0.00    -0.052 OA 
BRANCH  21  22
HETATM   22  C   UNL     1      -7.474   7.404  64.457  1.00  0.00    -0.095 C  
BRANCH  22  23
HETATM   23  C   UNL     1      -6.483   8.530  64.731  1.00  0.00    -0.065 C  
BRANCH  23  24
HETATM   24  O   UNL     1      -5.658   8.173  65.840  1.00  0.00    -0.035 OA 
BRANCH  24  25
HETATM   25  C   UNL     1      -5.978   8.949  66.997  1.00  0.00    -0.057 C  
HETATM   26  C   UNL     1      -6.929  10.066  66.608  1.00  0.00    -0.087 C  
HETATM   27  F   UNL     1      -7.230  10.804  67.709  1.00  0.00    -0.082 F  
ENDBRANCH  24  25
ENDBRANCH  23  24
ENDBRANCH  22  23
ENDBRANCH  21  22
ENDBRANCH  20  21
ENDBRANCH  19  20
ENDBRANCH  18  19
ENDBRANCH  15  18
ENDBRANCH  11  12
ENDBRANCH   7  10
ENDBRANCH   1   4
TORSDOF 11
ENDMDL
MODEL      225
REMARK 921   NORMALIZED FREE ENERGY PREDICTED BY IDOCK:    5.27 KCAL/MOL
REMARK 922        TOTAL FREE ENERGY PREDICTED BY IDOCK:    7.80 KCAL/MOL
REMARK 923 INTER-LIGAND FREE ENERGY PREDICTED BY IDOCK:    5.81 KCAL/MOL
REMARK 924 INTRA-LIGAND FREE ENERGY PREDICTED BY IDOCK:    1.99 KCAL/MOL
REMARK 927      BINDING AFFINITY PREDICTED BY RF-SCORE:    0.00 PKD
ROOT
HETATM    1  N   UNL     1     -11.895   4.177  73.192  1.00  0.00     0.069 NA 
HETATM    2  H   UNL     1     -12.244   3.262  72.909  1.00  0.00     0.000 HD 
HETATM    3  C   UNL     1     -12.196   4.710  74.512  1.00  0.00     5.573 C  
ENDROOT
BRANCH   1   4
HETATM    4  C   UNL     1     -11.118   4.944  72.319  1.00  0.00     0.020 A  
HETATM    5  C   UNL     1      -9.740   4.786  72.155  1.00  0.00    -0.218 A  
HETATM    6  C   UNL     1      -9.024   5.607  71.278  1.00  0.00    -0.149 A  
HETATM    7  C   UNL     1      -9.675   6.581  70.513  1.00  0.00    -0.186 A  
HETATM    8  C   UNL     1     -11.063   6.699  70.630  1.00  0.00    -0.349 A  
HETATM    9  C   UNL     1     -11.774   5.873  71.506  1.00  0.00    -0.058 A  
BRANCH   7  10
HETATM   10  C   UNL     1      -8.868   7.492  69.689  1.00  0.00    -0.141 C  
HETATM   11  C   UNL     1      -9.230   7.939  68.475  1.00  0.00    -0.138 C  
BRANCH  11  12
HETATM   12  C   UNL     1      -8.440   8.883  67.677  1.00  0.00    -0.121 A  
HETATM   13  C   UNL     1      -7.587   9.837  68.230  1.00  0.00    -0.081 A  
HETATM   14  N   UNL     1      -6.869  10.739  67.520  1.00  0.00    -0.077 NA 
HETATM   15  C   UNL     1      -7.035  10.723  66.183  1.00  0.00    -0.124 A  
HETATM   16  C   UNL     1      -8.579   8.905  66.289  1.00  0.00    -0.145 A  
HETATM   17  C   UNL     1      -7.876   9.840  65.525  1.00  0.00    -0.120 A  
BRANCH  15  18
HETATM   18  O   UNL     1      -6.372  11.641  65.396  1.00  0.00     0.676 OA 
BRANCH  18  19
HETATM   19  C   UNL     1      -5.437  12.430  66.143  1.00  0.00     1.827 C  
BRANCH  19  20
HETATM   20  C   UNL     1      -5.987  12.660  67.548  1.00  0.00    -0.151 C  
BRANCH  20  21
HETATM   21  O   UNL     1      -7.008  13.661  67.497  1.00  0.00    -0.165 OA 
BRANCH  21  22
HETATM   22  C   UNL     1      -6.559  14.842  66.839  1.00  0.00     1.028 C  
BRANCH  22  23
HETATM   23  C   UNL     1      -7.335  16.038  67.379  1.00  0.00    -0.184 C  
BRANCH  23  24
HETATM   24  O   UNL     1      -7.820  15.734  68.687  1.00  0.00    -0.139 OA 
BRANCH  24  25
HETATM   25  C   UNL     1      -9.248  15.676  68.712  1.00  0.00    -0.211 C  
HETATM   26  C   UNL     1      -9.813  17.065  68.479  1.00  0.00    -0.290 C  
HETATM   27  F   UNL     1     -11.171  17.007  68.505  1.00  0.00    -0.332 F  
ENDBRANCH  24  25
ENDBRANCH  23  24
ENDBRANCH  22  23
ENDBRANCH  21  22
ENDBRANCH  20  21
ENDBRANCH  19  20
ENDBRANCH  18  19
ENDBRANCH  15  18
ENDBRANCH  11  12
ENDBRANCH   7  10
ENDBRANCH   1   4
TORSDOF 11
ENDMDL
MODEL      226
REMARK 921   NORMALIZED FREE ENERGY PREDICTED BY IDOCK:    6.16 KCAL/MOL
REMARK 922        TOTAL FREE ENERGY PREDICTED BY IDOCK:    9.27 KCAL/MOL
REMARK 923 INTER-LIGAND FREE ENERGY PREDICTED BY IDOCK:    9.16 KCAL/MOL
REMARK 924 INTRA-LIGAND FREE ENERGY PREDICTED BY IDOCK:    0.11 KCAL/MOL
REMARK 927      BINDING AFFINITY PREDICTED BY RF-SCORE:    0.00 PKD
ROOT
HETATM    1  N   UNL     1     -10.247  20.807  70.898  1.00  0.00     1.020 NA 
HETATM    2  H   UNL     1     -10.860  21.472  70.427  1.00  0.00     0.000 HD 
HETATM    3  C   UNL     1      -9.607  21.152  72.157  1.00  0.00     3.540 C  
ENDROOT
BRANCH   1   4
HETATM    4  C   UNL     1     -10.006  19.546  70.345  1.00  0.00     1.055 A  
HETATM    5  C   UNL     1     -10.984  18.764  69.726  1.00  0.00     2.270 A  
HETATM    6  C   UNL     1     -10.673  17.499  69.215  1.00  0.00     0.136 A  
HETATM    7  C   UNL     1      -9.367  17.002  69.276  1.00  0.00     0.018 A  
HETATM    8  C   UNL     1      -8.374  17.809  69.839  1.00  0.00     1.686 A  
HETATM    9  C   UNL     1      -8.690  19.074  70.345  1.00  0.00     2.272 A  
BRANCH   7  10
HETATM   10  C   UNL     1      -9.110  15.626  68.827  1.00  0.00    -0.208 C  
HETATM   11  C   UNL     1     -10.056  14.787  68.374  1.00  0.00    -0.225 C  
BRANCH  11  12
HETATM   12  C   UNL     1      -9.786  13.430  67.885  1.00  0.00    -0.226 A  
HETATM   13  C   UNL     1      -9.218  13.155  66.642  1.00  0.00    -0.215 A  
HETATM   14  N   UNL     1      -8.984  11.914  66.154  1.00  0.00    -0.164 NA 
HETATM   15  C   UNL     1      -9.372  10.880  66.926  1.00  0.00    -0.168 A  
HETATM   16  C   UNL     1     -10.170  12.328  68.649  1.00  0.00    -0.177 A  
HETATM   17  C   UNL     1      -9.972  11.032  68.166  1.00  0.00    -0.190 A  
BRANCH  15  18
HETATM   18  O   UNL     1      -9.208   9.587  66.477  1.00  0.00    -0.148 OA 
BRANCH  18  19
HETATM   19  C   UNL     1      -9.389   8.617  67.517  1.00  0.00    -0.137 C  
BRANCH  19  20
HETATM   20  C   UNL     1      -8.265   8.768  68.540  1.00  0.00    -0.117 C  
BRANCH  20  21
HETATM   21  O   UNL     1      -8.368   7.722  69.510  1.00  0.00    -0.126 OA 
BRANCH  21  22
HETATM   22  C   UNL     1      -8.130   6.440  68.934  1.00  0.00    -0.111 C  
BRANCH  22  23
HETATM   23  C   UNL     1      -7.515   5.527  69.989  1.00  0.00    -0.070 C  
BRANCH  23  24
HETATM   24  O   UNL     1      -7.724   6.093  71.283  1.00  0.00    -0.102 OA 
BRANCH  24  25
HETATM   25  C   UNL     1      -8.939   5.620  71.868  1.00  0.00    -0.139 C  
HETATM   26  C   UNL     1      -8.925   4.103  71.901  1.00  0.00    -0.119 C  
HETATM   27  F   UNL     1     -10.083   3.656  72.456  1.00  0.00    -0.196 F  
ENDBRANCH  24  25
ENDBRANCH  23  24
ENDBRANCH  22  23
ENDBRANCH  21  22
ENDBRANCH  20  21
ENDBRANCH  19  20
ENDBRANCH  18  19
ENDBRANCH  15  18
ENDBRANCH  11  12
ENDBRANCH   7  10
ENDBRANCH   1   4
TORSDOF 11
ENDMDL
MODEL      227
REMARK 921   NORMALIZED FREE ENERGY PREDICTED BY IDOCK:    6.71 KCAL/MOL
REMARK 922        TOTAL FREE ENERGY PREDICTED BY IDOCK:   10.16 KCAL/MOL
REMARK 923 INTER-LIGAND FREE ENERGY PREDICTED BY IDOCK:    2.13 KCAL/MOL
REMARK 924 INTRA-LIGAND FREE ENERGY PREDICTED BY IDOCK:    8.04 KCAL/MOL
REMARK 927      BINDING AFFINITY PREDICTED BY RF-SCORE:    0.00 PKD
ROOT
HETATM    1  N   UNL     1     -11.263   8.590  69.861  1.00  0.00    -0.442 NA 
HETATM    2  H   UNL     1     -11.725   8.089  69.102  1.00  0.00     0.000 HD 
HETATM    3  C   UNL     1     -11.267   8.055  71.213  1.00  0.00    -0.256 C  
ENDROOT
BRANCH   1   4
HETATM    4  C   UNL     1     -10.615   9.805  69.621  1.00  0.00    -0.239 A  
HETATM    5  C   UNL     1     -10.607  10.877  70.516  1.00  0.00     0.760 A  
HETATM    6  C   UNL     1      -9.954  12.073  70.197  1.00  0.00     2.662 A  
HETATM    7  C   UNL     1      -9.262  12.212  68.990  1.00  0.00     0.367 A  
HETATM    8  C   UNL     1      -9.216  11.119  68.119  1.00  0.00    -0.166 A  
HETATM    9  C   UNL     1      -9.867   9.925  68.446  1.00  0.00    -0.166 A  
BRANCH   7  10
HETATM   10  C   UNL     1      -8.686  13.521  68.649  1.00  0.00    -0.001 C  
HETATM   11  C   UNL     1      -7.370  13.765  68.534  1.00  0.00    -0.117 C  
BRANCH  11  12
HETATM   12  C   UNL     1      -6.805  15.063  68.151  1.00  0.00    -0.137 A  
HETATM   13  C   UNL     1      -6.802  16.181  68.984  1.00  0.00    -0.176 A  
HETATM   14  N   UNL     1      -6.314  17.398  68.646  1.00  0.00    -0.172 NA 
HETATM   15  C   UNL     1      -5.834  17.528  67.394  1.00  0.00    -0.138 A  
HETATM   16  C   UNL     1      -6.297  15.247  66.864  1.00  0.00     0.828 A  
HETATM   17  C   UNL     1      -5.811  16.496  66.470  1.00  0.00     0.351 A  
BRANCH  15  18
HETATM   18  O   UNL     1      -5.361  18.749  66.962  1.00  0.00    -0.136 OA 
BRANCH  18  19
HETATM   19  C   UNL     1      -6.293  19.813  67.193  1.00  0.00    -0.188 C  
BRANCH  19  20
HETATM   20  C   UNL     1      -7.714  19.261  67.098  1.00  0.00    -0.246 C  
BRANCH  20  21
HETATM   21  O   UNL     1      -7.830  18.112  67.944  1.00  0.00    -0.234 OA 
BRANCH  21  22
HETATM   22  C   UNL     1      -9.076  18.086  68.634  1.00  0.00    -0.266 C  
BRANCH  22  23
HETATM   23  C   UNL     1     -10.189  18.476  67.668  1.00  0.00    -0.387 C  
BRANCH  23  24
HETATM   24  O   UNL     1     -10.887  17.302  67.253  1.00  0.00    -0.258 OA 
BRANCH  24  25
HETATM   25  C   UNL     1     -11.369  16.560  68.375  1.00  0.00    -0.209 C  
HETATM   26  C   UNL     1     -11.296  17.424  69.621  1.00  0.00     1.348 C  
HETATM   27  F   UNL     1     -11.753  16.715  70.686  1.00  0.00    -0.253 F  
ENDBRANCH  24  25
ENDBRANCH  23  24
ENDBRANCH  22  23
ENDBRANCH  21  22
ENDBRANCH  20  21
ENDBRANCH  19  20
ENDBRANCH  18  19
ENDBRANCH  15  18
ENDBRANCH  11  12
ENDBRANCH   7  10
ENDBRANCH   1   4
TORSDOF 11
ENDMDL
MODEL      228
REMARK 921   NORMALIZED FREE ENERGY PREDICTED BY IDOCK:    7.12 KCAL/MOL
REMARK 922        TOTAL FREE ENERGY PREDICTED BY IDOCK:   10.84 KCAL/MOL
REMARK 923 INTER-LIGAND FREE ENERGY PREDICTED BY IDOCK:   11.03 KCAL/MOL
REMARK 924 INTRA-LIGAND FREE ENERGY PREDICTED BY IDOCK:   -0.18 KCAL/MOL
REMARK 927      BINDING AFFINITY PREDICTED BY RF-SCORE:    0.00 PKD
ROOT
HETATM    1  N   UNL     1     -11.533   7.071  68.332  1.00  0.00    -0.334 NA 
HETATM    2  H   UNL     1     -12.548   7.105  68.231  1.00  0.00     0.000 HD 
HETATM    3  C   UNL     1     -10.797   5.858  68.016  1.00  0.00    -0.232 C  
ENDROOT
BRANCH   1   4
HETATM    4  C   UNL     1     -10.824   8.191  68.775  1.00  0.00     0.063 A  
HETATM    5  C   UNL     1     -10.468   8.414  70.108  1.00  0.00    -0.230 A  
HETATM    6  C   UNL     1      -9.777   9.572  70.481  1.00  0.00    -0.325 A  
HETATM    7  C   UNL     1      -9.391  10.517  69.524  1.00  0.00    -0.089 A  
HETATM    8  C   UNL     1      -9.692  10.266  68.182  1.00  0.00    -0.158 A  
HETATM    9  C   UNL     1     -10.380   9.105  67.815  1.00  0.00    -0.302 A  
BRANCH   7  10
HETATM   10  C   UNL     1      -8.765  11.768  69.975  1.00  0.00     2.737 C  
HETATM   11  C   UNL     1      -8.795  12.922  69.289  1.00  0.00     0.960 C  
BRANCH  11  12
HETATM   12  C   UNL     1      -8.206  14.178  69.767  1.00  0.00     0.835 A  
HETATM   13  C   UNL     1      -6.834  14.406  69.849  1.00  0.00    -0.060 A  
HETATM   14  N   UNL     1      -6.263  15.543  70.312  1.00  0.00    -0.101 NA 
HETATM   15  C   UNL     1      -7.100  16.499  70.758  1.00  0.00     2.582 A  
HETATM   16  C   UNL     1      -9.034  15.197  70.240  1.00  0.00     0.765 A  
HETATM   17  C   UNL     1      -8.480  16.373  70.753  1.00  0.00     3.930 A  
BRANCH  15  18
HETATM   18  O   UNL     1      -6.593  17.667  71.286  1.00  0.00     2.244 OA 
BRANCH  18  19
HETATM   19  C   UNL     1      -5.220  17.880  70.932  1.00  0.00    -0.269 C  
BRANCH  19  20
HETATM   20  C   UNL     1      -5.157  18.556  69.565  1.00  0.00    -0.180 C  
BRANCH  20  21
HETATM   21  O   UNL     1      -6.472  18.602  69.001  1.00  0.00    -0.242 OA 
BRANCH  21  22
HETATM   22  C   UNL     1      -6.448  18.420  67.587  1.00  0.00    -0.199 C  
BRANCH  22  23
HETATM   23  C   UNL     1      -7.462  19.361  66.948  1.00  0.00    -0.222 C  
BRANCH  23  24
HETATM   24  O   UNL     1      -8.610  19.462  67.790  1.00  0.00    -0.296 OA 
BRANCH  24  25
HETATM   25  C   UNL     1      -9.790  19.733  67.032  1.00  0.00    -0.392 C  
HETATM   26  C   UNL     1     -10.997  19.712  67.952  1.00  0.00     0.026 C  
HETATM   27  F   UNL     1     -12.118  19.968  67.228  1.00  0.00     0.515 F  
ENDBRANCH  24  25
ENDBRANCH  23  24
ENDBRANCH  22  23
ENDBRANCH  21  22
ENDBRANCH  20  21
ENDBRANCH  19  20
ENDBRANCH  18  19
ENDBRANCH  15  18
ENDBRANCH  11  12
ENDBRANCH   7  10
ENDBRANCH   1   4
TORSDOF 11
ENDMDL
MODEL      229
REMARK 921   NORMALIZED FREE ENERGY PREDICTED BY IDOCK:   10.28 KCAL/MOL
REMARK 922        TOTAL FREE ENERGY PREDICTED BY IDOCK:   16.04 KCAL/MOL
REMARK 923 INTER-LIGAND FREE ENERGY PREDICTED BY IDOCK:   13.61 KCAL/MOL
REMARK 924 INTRA-LIGAND FREE ENERGY PREDICTED BY IDOCK:    2.43 KCAL/MOL
REMARK 927      BINDING AFFINITY PREDICTED BY RF-SCORE:    0.00 PKD
ROOT
HETATM    1  N   UNL     1      -5.927  14.777  72.874  1.00  0.00     0.463 NA 
HETATM    2  H   UNL     1      -5.832  15.731  73.223  1.00  0.00     0.000 HD 
HETATM    3  C   UNL     1      -5.126  13.700  73.433  1.00  0.00    -0.164 C  
ENDROOT
BRANCH   1   4
HETATM    4  C   UNL     1      -6.829  14.481  71.848  1.00  0.00     1.975 A  
HETATM    5  C   UNL     1      -6.520  13.691  70.738  1.00  0.00     0.378 A  
HETATM    6  C   UNL     1      -7.470  13.456  69.738  1.00  0.00     0.821 A  
HETATM    7  C   UNL     1      -8.765  13.975  69.843  1.00  0.00     1.522 A  
HETATM    8  C   UNL     1      -9.095  14.714  70.982  1.00  0.00     3.179 A  
HETATM    9  C   UNL     1      -8.142  14.942  71.981  1.00  0.00     5.397 A  
BRANCH   7  10
HETATM   10  C   UNL     1      -9.693  13.795  68.718  1.00  0.00    -0.069 C  
HETATM   11  C   UNL     1      -9.750  12.696  67.948  1.00  0.00    -0.216 C  
BRANCH  11  12
HETATM   12  C   UNL     1     -10.709  12.506  66.854  1.00  0.00    -0.268 A  
HETATM   13  C   UNL     1     -10.486  11.659  65.770  1.00  0.00    -0.263 A  
HETATM   14  N   UNL     1     -11.340  11.485  64.733  1.00  0.00    -0.196 NA 
HETATM   15  C   UNL     1     -12.466  12.225  64.750  1.00  0.00    -0.302 A  
HETATM   16  C   UNL     1     -11.889  13.250  66.829  1.00  0.00    -0.448 A  
HETATM   17  C   UNL     1     -12.780  13.120  65.761  1.00  0.00    -0.202 A  
BRANCH  15  18
HETATM   18  O   UNL     1     -13.363  12.137  63.707  1.00  0.00    -0.701 OA 
BRANCH  18  19
HETATM   19  C   UNL     1     -12.808  12.589  62.465  1.00  0.00     1.976 C  
BRANCH  19  20
HETATM   20  C   UNL     1     -12.426  14.061  62.597  1.00  0.00     2.159 C  
BRANCH  20  21
HETATM   21  O   UNL     1     -12.520  14.452  63.970  1.00  0.00    -0.748 OA 
BRANCH  21  22
HETATM   22  C   UNL     1     -12.437  15.866  64.126  1.00  0.00     0.558 C  
BRANCH  22  23
HETATM   23  C   UNL     1     -11.140  16.211  64.849  1.00  0.00    -0.325 C  
BRANCH  23  24
HETATM   24  O   UNL     1     -11.100  17.616  65.101  1.00  0.00    -0.548 OA 
BRANCH  24  25
HETATM   25  C   UNL     1     -10.383  17.909  66.301  1.00  0.00    -0.364 C  
HETATM   26  C   UNL     1      -8.988  18.392  65.950  1.00  0.00     0.239 C  
HETATM   27  F   UNL     1      -8.307  18.668  67.093  1.00  0.00    -0.249 F  
ENDBRANCH  24  25
ENDBRANCH  23  24
ENDBRANCH  22  23
ENDBRANCH  21  22
ENDBRANCH  20  21
ENDBRANCH  19  20
ENDBRANCH  18  19
ENDBRANCH  15  18
ENDBRANCH  11  12
ENDBRANCH   7  10
ENDBRANCH   1   4
TORSDOF 11
ENDMDL
MODEL      230
REMARK 921   NORMALIZED FREE ENERGY PREDICTED BY IDOCK:   33.30 KCAL/MOL
REMARK 922        TOTAL FREE ENERGY PREDICTED BY IDOCK:   53.85 KCAL/MOL
REMARK 923 INTER-LIGAND FREE ENERGY PREDICTED BY IDOCK:   41.81 KCAL/MOL
REMARK 924 INTRA-LIGAND FREE ENERGY PREDICTED BY IDOCK:   12.04 KCAL/MOL
REMARK 927      BINDING AFFINITY PREDICTED BY RF-SCORE:    0.00 PKD
ROOT
HETATM    1  N   UNL     1      -8.810  13.624  63.020  1.00  0.00     7.072 NA 
HETATM    2  H   UNL     1      -9.435  13.564  62.217  1.00  0.00     0.000 HD 
HETATM    3  C   UNL     1      -7.961  14.790  63.212  1.00  0.00    21.357 C  
ENDROOT
BRANCH   1   4
HETATM    4  C   UNL     1      -8.752  12.589  63.957  1.00  0.00     2.399 A  
HETATM    5  C   UNL     1      -9.718  11.588  64.077  1.00  0.00    -0.248 A  
HETATM    6  C   UNL     1      -9.605  10.595  65.056  1.00  0.00    -0.319 A  
HETATM    7  C   UNL     1      -8.500  10.557  65.914  1.00  0.00    -0.164 A  
HETATM    8  C   UNL     1      -7.501  11.521  65.755  1.00  0.00     0.547 A  
HETATM    9  C   UNL     1      -7.619  12.509  64.772  1.00  0.00     5.544 A  
BRANCH   7  10
HETATM   10  C   UNL     1      -8.478   9.563  66.996  1.00  0.00    -0.128 C  
HETATM   11  C   UNL     1      -9.360   9.523  68.008  1.00  0.00    -0.143 C  
BRANCH  11  12
HETATM   12  C   UNL     1      -9.358   8.501  69.062  1.00  0.00    -0.146 A  
HETATM   13  C   UNL     1      -8.845   7.217  68.890  1.00  0.00    -0.130 A  
HETATM   14  N   UNL     1      -8.856   6.245  69.834  1.00  0.00    -0.140 NA 
HETATM   15  C   UNL     1      -9.447   6.550  71.006  1.00  0.00    -0.164 A  
HETATM   16  C   UNL     1      -9.959   8.771  70.292  1.00  0.00    -0.210 A  
HETATM   17  C   UNL     1     -10.016   7.784  71.279  1.00  0.00    -0.199 A  
BRANCH  15  18
HETATM   18  O   UNL     1      -9.537   5.599  71.999  1.00  0.00    -0.150 OA 
BRANCH  18  19
HETATM   19  C   UNL     1      -8.963   4.343  71.612  1.00  0.00    -0.124 C  
BRANCH  19  20
HETATM   20  C   UNL     1      -8.936   3.413  72.822  1.00  0.00    -0.088 C  
BRANCH  20  21
HETATM   21  O   UNL     1      -8.841   4.195  74.016  1.00  0.00    -0.096 OA 
BRANCH  21  22
HETATM   22  C   UNL     1      -9.136   5.568  73.775  1.00  0.00    -0.123 C  
BRANCH  22  23
HETATM   23  C   UNL     1     -10.608   5.704  73.407  1.00  0.00    -0.258 C  
BRANCH  23  24
HETATM   24  O   UNL     1     -10.872   7.048  73.003  1.00  0.00    -0.269 OA 
BRANCH  24  25
HETATM   25  C   UNL     1     -12.102   7.525  73.551  1.00  0.00     1.915 C  
HETATM   26  C   UNL     1     -13.191   6.493  73.319  1.00  0.00     2.905 C  
HETATM   27  F   UNL     1     -14.360   6.950  73.840  1.00  0.00     3.170 F  
ENDBRANCH  24  25
ENDBRANCH  23  24
ENDBRANCH  22  23
ENDBRANCH  21  22
ENDBRANCH  20  21
ENDBRANCH  19  20
ENDBRANCH  18  19
ENDBRANCH  15  18
ENDBRANCH  11  12
ENDBRANCH   7  10
ENDBRANCH   1   4
TORSDOF 11
ENDMDL
MODEL      231
REMARK 921   NORMALIZED FREE ENERGY PREDICTED BY IDOCK:   36.25 KCAL/MOL
REMARK 922        TOTAL FREE ENERGY PREDICTED BY IDOCK:   58.69 KCAL/MOL
REMARK 923 INTER-LIGAND FREE ENERGY PREDICTED BY IDOCK:   58.64 KCAL/MOL
REMARK 924 INTRA-LIGAND FREE ENERGY PREDICTED BY IDOCK:    0.05 KCAL/MOL
REMARK 927      BINDING AFFINITY PREDICTED BY RF-SCORE:    0.00 PKD
ROOT
HETATM    1  N   UNL     1      -5.728  14.374  74.277  1.00  0.00    -0.494 NA 
HETATM    2  H   UNL     1      -5.343  15.149  74.817  1.00  0.00     0.000 HD 
HETATM    3  C   UNL     1      -5.333  13.004  74.563  1.00  0.00     0.074 C  
ENDROOT
BRANCH   1   4
HETATM    4  C   UNL     1      -6.646  14.609  73.250  1.00  0.00     2.107 A  
HETATM    5  C   UNL     1      -6.471  14.180  71.932  1.00  0.00     1.160 A  
HETATM    6  C   UNL     1      -7.424  14.473  70.950  1.00  0.00     1.673 A  
HETATM    7  C   UNL     1      -8.594  15.168  71.271  1.00  0.00     3.518 A  
HETATM    8  C   UNL     1      -8.801  15.544  72.602  1.00  0.00     9.456 A  
HETATM    9  C   UNL     1      -7.846  15.245  73.580  1.00  0.00     9.668 A  
BRANCH   7  10
HETATM   10  C   UNL     1      -9.512  15.548  70.188  1.00  0.00     0.275 C  
HETATM   11  C   UNL     1      -9.194  15.537  68.884  1.00  0.00    -0.218 C  
BRANCH  11  12
HETATM   12  C   UNL     1     -10.129  15.875  67.805  1.00  0.00    -0.244 A  
HETATM   13  C   UNL     1     -10.129  15.252  66.559  1.00  0.00    -0.270 A  
HETATM   14  N   UNL     1     -10.960  15.563  65.536  1.00  0.00    -0.339 NA 
HETATM   15  C   UNL     1     -11.819  16.580  65.746  1.00  0.00     1.575 A  
HETATM   16  C   UNL     1     -11.036  16.922  67.976  1.00  0.00    -0.190 A  
HETATM   17  C   UNL     1     -11.890  17.291  66.933  1.00  0.00     2.153 A  
BRANCH  15  18
HETATM   18  O   UNL     1     -12.666  16.984  64.736  1.00  0.00     3.356 OA 
BRANCH  18  19
HETATM   19  C   UNL     1     -12.019  17.024  63.458  1.00  0.00     5.374 C  
BRANCH  19  20
HETATM   20  C   UNL     1     -11.457  18.425  63.226  1.00  0.00    13.634 C  
BRANCH  20  21
HETATM   21  O   UNL     1     -11.188  19.039  64.490  1.00  0.00     0.501 OA 
BRANCH  21  22
HETATM   22  C   UNL     1     -11.620  20.397  64.523  1.00  0.00     3.002 C  
BRANCH  22  23
HETATM   23  C   UNL     1     -10.648  21.208  65.371  1.00  0.00     2.813 C  
BRANCH  23  24
HETATM   24  O   UNL     1     -10.846  20.892  66.749  1.00  0.00     1.043 OA 
BRANCH  24  25
HETATM   25  C   UNL     1      -9.697  20.252  67.308  1.00  0.00    -0.450 C  
HETATM   26  C   UNL     1      -8.912  19.571  66.202  1.00  0.00    -0.310 C  
HETATM   27  F   UNL     1      -7.821  18.962  66.736  1.00  0.00    -0.227 F  
ENDBRANCH  24  25
ENDBRANCH  23  24
ENDBRANCH  22  23
ENDBRANCH  21  22
ENDBRANCH  20  21
ENDBRANCH  19  20
ENDBRANCH  18  19
ENDBRANCH  15  18
ENDBRANCH  11  12
ENDBRANCH   7  10
ENDBRANCH   1   4
TORSDOF 11
ENDMDL
MODEL      232
REMARK 921   NORMALIZED FREE ENERGY PREDICTED BY IDOCK:   52.39 KCAL/MOL
REMARK 922        TOTAL FREE ENERGY PREDICTED BY IDOCK:   85.22 KCAL/MOL
REMARK 923 INTER-LIGAND FREE ENERGY PREDICTED BY IDOCK:    6.38 KCAL/MOL
REMARK 924 INTRA-LIGAND FREE ENERGY PREDICTED BY IDOCK:   78.85 KCAL/MOL
REMARK 927      BINDING AFFINITY PREDICTED BY RF-SCORE:    0.00 PKD
ROOT
HETATM    1  N   UNL     1     -11.896   4.178  73.192  1.00  0.00     0.069 NA 
HETATM    2  H   UNL     1     -12.243   3.259  72.919  1.00  0.00     0.000 HD 
HETATM    3  C   UNL     1     -12.189   4.720  74.509  1.00  0.00     5.773 C  
ENDROOT
BRANCH   1   4
HETATM    4  C   UNL     1     -11.131   4.942  72.306  1.00  0.00     0.020 A  
HETATM    5  C   UNL     1      -9.752   4.792  72.135  1.00  0.00    -0.218 A  
HETATM    6  C   UNL     1      -9.048   5.610  71.245  1.00  0.00    -0.156 A  
HETATM    7  C   UNL     1      -9.711   6.572  70.476  1.00  0.00    -0.186 A  
HETATM    8  C   UNL     1     -11.099   6.682  70.600  1.00  0.00    -0.349 A  
HETATM    9  C   UNL     1     -11.799   5.859  71.489  1.00  0.00     0.049 A  
BRANCH   7  10
HETATM   10  C   UNL     1      -8.916   7.481  69.638  1.00  0.00    -0.141 C  
HETATM   11  C   UNL     1      -9.289   7.913  68.422  1.00  0.00    -0.140 C  
BRANCH  11  12
HETATM   12  C   UNL     1      -8.511   8.855  67.609  1.00  0.00    -0.121 A  
HETATM   13  C   UNL     1      -7.309   9.424  68.026  1.00  0.00    -0.079 A  
HETATM   14  N   UNL     1      -6.585  10.318  67.311  1.00  0.00    -0.068 NA 
HETATM   15  C   UNL     1      -7.102  10.702  66.127  1.00  0.00    -0.138 A  
HETATM   16  C   UNL     1      -9.006   9.282  66.377  1.00  0.00    -0.185 A  
HETATM   17  C   UNL     1      -8.301  10.225  65.624  1.00  0.00    -0.159 A  
BRANCH  15  18
HETATM   18  O   UNL     1      -6.445  11.642  65.362  1.00  0.00     0.732 OA 
BRANCH  18  19
HETATM   19  C   UNL     1      -5.161  11.988  65.899  1.00  0.00     1.254 C  
BRANCH  19  20
HETATM   20  C   UNL     1      -5.227  11.934  67.423  1.00  0.00    -0.090 C  
BRANCH  20  21
HETATM   21  O   UNL     1      -5.572  10.607  67.834  1.00  0.00    -0.043 OA 
BRANCH  21  22
HETATM   22  C   UNL     1      -6.744  10.136  67.174  1.00  0.00    -0.074 C  
BRANCH  22  23
HETATM   23  C   UNL     1      -7.439   9.114  68.066  1.00  0.00    -0.084 C  
BRANCH  23  24
HETATM   24  O   UNL     1      -7.071   9.346  69.426  1.00  0.00    -0.051 OA 
BRANCH  24  25
HETATM   25  C   UNL     1      -8.218   9.376  70.277  1.00  0.00    -0.175 C  
HETATM   26  C   UNL     1      -9.049  10.605  69.961  1.00  0.00     0.675 C  
HETATM   27  F   UNL     1     -10.138  10.632  70.774  1.00  0.00     0.262 F  
ENDBRANCH  24  25
ENDBRANCH  23  24
ENDBRANCH  22  23
ENDBRANCH  21  22
ENDBRANCH  20  21
ENDBRANCH  19  20
ENDBRANCH  18  19
ENDBRANCH  15  18
ENDBRANCH  11  12
ENDBRANCH   7  10
ENDBRANCH   1   4
TORSDOF 11
ENDMDL
