MODEL        1
REMARK 921   NORMALIZED FREE ENERGY PREDICTED BY IDOCK:   -5.88 KCAL/MOL
REMARK 922        TOTAL FREE ENERGY PREDICTED BY IDOCK:  -10.74 KCAL/MOL
REMARK 923 INTER-LIGAND FREE ENERGY PREDICTED BY IDOCK:   -9.67 KCAL/MOL
REMARK 924 INTRA-LIGAND FREE ENERGY PREDICTED BY IDOCK:   -1.07 KCAL/MOL
REMARK 927      BINDING AFFINITY PREDICTED BY RF-SCORE:    0.00 PKD
ROOT
HETATM    1  C   UNL     1     -10.399   4.484  74.471  1.00  0.00    -0.261 C  
HETATM    2  N   UNL     1     -11.310   4.645  73.347  1.00  0.00    -0.332 NA 
HETATM    3  H   UNL     1     -11.979   3.918  73.092  1.00  0.00     0.000 HD 
ENDROOT
BRANCH   2   4
HETATM    4  C   UNL     1     -11.222   5.849  72.630  1.00  0.00    -0.291 A  
HETATM    5  C   UNL     1     -10.845   7.015  73.307  1.00  0.00    -0.345 A  
HETATM    6  C   UNL     1     -10.783   8.245  72.642  1.00  0.00    -0.384 A  
HETATM    7  C   UNL     1     -11.049   8.327  71.272  1.00  0.00    -0.296 A  
HETATM    8  C   UNL     1     -11.391   5.926  71.244  1.00  0.00    -0.238 A  
HETATM    9  C   UNL     1     -11.328   7.152  70.573  1.00  0.00    -0.333 A  
BRANCH   7  10
HETATM   10  C   UNL     1     -11.152   9.649  70.645  1.00  0.00    -0.384 C  
HETATM   11  C   UNL     1     -12.056  10.595  70.954  1.00  0.00    -0.489 C  
BRANCH  11  12
HETATM   12  C   UNL     1     -12.040  11.937  70.349  1.00  0.00    -0.421 A  
HETATM   13  C   UNL     1     -11.572  12.148  69.050  1.00  0.00    -0.374 A  
HETATM   14  C   UNL     1     -11.516  13.431  68.510  1.00  0.00    -0.345 A  
HETATM   15  C   UNL     1     -11.945  14.536  69.247  1.00  0.00    -0.319 A  
HETATM   16  C   UNL     1     -12.512  13.039  71.075  1.00  0.00    -0.385 A  
HETATM   17  C   UNL     1     -12.458  14.329  70.530  1.00  0.00    -0.428 A  
BRANCH  15  18
HETATM   18  O   UNL     1     -11.903  15.837  68.811  1.00  0.00    -0.387 OA 
BRANCH  18  19
HETATM   19  C   UNL     1     -10.592  16.404  68.773  1.00  0.00    -0.310 C  
BRANCH  19  20
HETATM   20  C   UNL     1     -10.304  17.059  67.433  1.00  0.00    -0.319 C  
BRANCH  20  21
HETATM   21  O   UNL     1     -10.878  16.222  66.425  1.00  0.00    -0.236 OA 
BRANCH  21  22
HETATM   22  C   UNL     1      -9.889  15.484  65.714  1.00  0.00    -0.357 C  
BRANCH  22  23
HETATM   23  C   UNL     1     -10.569  14.388  64.900  1.00  0.00    -0.434 C  
BRANCH  23  24
HETATM   24  O   UNL     1     -11.949  14.335  65.258  1.00  0.00    -0.362 OA 
BRANCH  24  25
HETATM   25  C   UNL     1     -12.537  13.081  64.917  1.00  0.00    -0.428 C  
HETATM   26  C   UNL     1     -12.270  12.787  63.452  1.00  0.00    -0.504 C  
HETATM   27  F   UNL     1     -12.829  11.593  63.122  1.00  0.00    -0.706 F  
ENDBRANCH  24  25
ENDBRANCH  23  24
ENDBRANCH  22  23
ENDBRANCH  21  22
ENDBRANCH  20  21
ENDBRANCH  19  20
ENDBRANCH  18  19
ENDBRANCH  15  18
ENDBRANCH  11  12
ENDBRANCH   7  10
ENDBRANCH   2   4
TORSDOF 11
ENDMDL
MODEL        2
REMARK 921   NORMALIZED FREE ENERGY PREDICTED BY IDOCK:   -5.79 KCAL/MOL
REMARK 922        TOTAL FREE ENERGY PREDICTED BY IDOCK:  -10.58 KCAL/MOL
REMARK 923 INTER-LIGAND FREE ENERGY PREDICTED BY IDOCK:   -9.56 KCAL/MOL
REMARK 924 INTRA-LIGAND FREE ENERGY PREDICTED BY IDOCK:   -1.03 KCAL/MOL
REMARK 927      BINDING AFFINITY PREDICTED BY RF-SCORE:    0.00 PKD
ROOT
HETATM    1  C   UNL     1     -11.207   5.468  72.773  1.00  0.00    -0.305 C  
HETATM    2  N   UNL     1     -12.472   6.132  72.494  1.00  0.00    -0.533 NA 
HETATM    3  H   UNL     1     -13.366   5.706  72.738  1.00  0.00     0.000 HD 
ENDROOT
BRANCH   2   4
HETATM    4  C   UNL     1     -12.400   7.389  71.872  1.00  0.00    -0.310 A  
HETATM    5  C   UNL     1     -11.393   7.623  70.929  1.00  0.00    -0.291 A  
HETATM    6  C   UNL     1     -11.258   8.872  70.314  1.00  0.00    -0.219 A  
HETATM    7  C   UNL     1     -12.161   9.903  70.592  1.00  0.00    -0.325 A  
HETATM    8  C   UNL     1     -13.353   8.394  72.070  1.00  0.00    -0.367 A  
HETATM    9  C   UNL     1     -13.226   9.644  71.456  1.00  0.00    -0.484 A  
BRANCH   7  10
HETATM   10  C   UNL     1     -11.888  11.247  70.073  1.00  0.00    -0.448 C  
HETATM   11  C   UNL     1     -12.325  12.399  70.610  1.00  0.00    -0.367 C  
BRANCH  11  12
HETATM   12  C   UNL     1     -11.931  13.718  70.089  1.00  0.00    -0.404 A  
HETATM   13  C   UNL     1     -11.889  13.980  68.718  1.00  0.00    -0.396 A  
HETATM   14  C   UNL     1     -11.466  15.218  68.239  1.00  0.00    -0.359 A  
HETATM   15  C   UNL     1     -11.092  16.235  69.119  1.00  0.00    -0.322 A  
HETATM   16  C   UNL     1     -11.597  14.751  70.976  1.00  0.00    -0.313 A  
HETATM   17  C   UNL     1     -11.174  15.998  70.493  1.00  0.00    -0.397 A  
BRANCH  15  18
HETATM   18  O   UNL     1     -10.636  17.474  68.742  1.00  0.00    -0.330 OA 
BRANCH  18  19
HETATM   19  C   UNL     1     -10.741  17.741  67.343  1.00  0.00    -0.279 C  
BRANCH  19  20
HETATM   20  C   UNL     1      -9.411  17.550  66.635  1.00  0.00    -0.262 C  
BRANCH  20  21
HETATM   21  O   UNL     1      -9.632  16.624  65.568  1.00  0.00    -0.502 OA 
BRANCH  21  22
HETATM   22  C   UNL     1     -10.935  16.754  65.006  1.00  0.00    -0.108 C  
BRANCH  22  23
HETATM   23  C   UNL     1     -11.398  15.395  64.492  1.00  0.00    -0.313 C  
BRANCH  23  24
HETATM   24  O   UNL     1     -10.386  14.427  64.766  1.00  0.00    -0.431 OA 
BRANCH  24  25
HETATM   25  C   UNL     1     -10.823  13.104  64.461  1.00  0.00    -0.383 C  
HETATM   26  C   UNL     1     -11.967  13.173  63.466  1.00  0.00    -0.513 C  
HETATM   27  F   UNL     1     -12.386  11.914  63.172  1.00  0.00    -0.593 F  
ENDBRANCH  24  25
ENDBRANCH  23  24
ENDBRANCH  22  23
ENDBRANCH  21  22
ENDBRANCH  20  21
ENDBRANCH  19  20
ENDBRANCH  18  19
ENDBRANCH  15  18
ENDBRANCH  11  12
ENDBRANCH   7  10
ENDBRANCH   2   4
TORSDOF 11
ENDMDL
MODEL        3
REMARK 921   NORMALIZED FREE ENERGY PREDICTED BY IDOCK:   -5.76 KCAL/MOL
REMARK 922        TOTAL FREE ENERGY PREDICTED BY IDOCK:  -10.54 KCAL/MOL
REMARK 923 INTER-LIGAND FREE ENERGY PREDICTED BY IDOCK:   -8.91 KCAL/MOL
REMARK 924 INTRA-LIGAND FREE ENERGY PREDICTED BY IDOCK:   -1.63 KCAL/MOL
REMARK 927      BINDING AFFINITY PREDICTED BY RF-SCORE:    0.00 PKD
ROOT
HETATM    1  C   UNL     1     -11.710   7.007  72.188  1.00  0.00    -0.283 C  
HETATM    2  N   UNL     1     -12.454   8.206  72.549  1.00  0.00    -0.574 NA 
HETATM    3  H   UNL     1     -13.076   8.227  73.357  1.00  0.00     0.000 HD 
ENDROOT
BRANCH   2   4
HETATM    4  C   UNL     1     -12.274   9.330  71.728  1.00  0.00    -0.385 A  
HETATM    5  C   UNL     1     -11.326   9.275  70.699  1.00  0.00    -0.330 A  
HETATM    6  C   UNL     1     -11.084  10.385  69.883  1.00  0.00    -0.367 A  
HETATM    7  C   UNL     1     -11.821  11.562  70.045  1.00  0.00    -0.435 A  
HETATM    8  C   UNL     1     -13.070  10.477  71.819  1.00  0.00    -0.570 A  
HETATM    9  C   UNL     1     -12.834  11.589  71.004  1.00  0.00    -0.358 A  
BRANCH   7  10
HETATM   10  C   UNL     1     -11.422  12.761  69.300  1.00  0.00    -0.349 C  
HETATM   11  C   UNL     1     -11.489  12.913  67.966  1.00  0.00    -0.361 C  
BRANCH  11  12
HETATM   12  C   UNL     1     -11.160  14.181  67.294  1.00  0.00    -0.315 A  
HETATM   13  C   UNL     1     -10.838  14.226  65.936  1.00  0.00    -0.300 A  
HETATM   14  C   UNL     1     -10.480  15.427  65.326  1.00  0.00    -0.440 A  
HETATM   15  C   UNL     1     -10.453  16.617  66.053  1.00  0.00    -0.298 A  
HETATM   16  C   UNL     1     -11.175  15.382  68.016  1.00  0.00    -0.326 A  
HETATM   17  C   UNL     1     -10.818  16.590  67.401  1.00  0.00    -0.202 A  
BRANCH  15  18
HETATM   18  O   UNL     1     -10.087  17.841  65.546  1.00  0.00    -0.548 OA 
BRANCH  18  19
HETATM   19  C   UNL     1     -10.558  18.957  66.303  1.00  0.00    -0.392 C  
BRANCH  19  20
HETATM   20  C   UNL     1      -9.446  19.955  66.579  1.00  0.00    -0.410 C  
BRANCH  20  21
HETATM   21  O   UNL     1      -8.350  19.608  65.729  1.00  0.00    -0.408 OA 
BRANCH  21  22
HETATM   22  C   UNL     1      -7.093  19.784  66.375  1.00  0.00    -0.236 C  
BRANCH  22  23
HETATM   23  C   UNL     1      -7.225  19.399  67.845  1.00  0.00    -0.256 C  
BRANCH  23  24
HETATM   24  O   UNL     1      -6.481  18.205  68.079  1.00  0.00    -0.184 OA 
BRANCH  24  25
HETATM   25  C   UNL     1      -7.333  17.070  68.224  1.00  0.00    -0.203 C  
HETATM   26  C   UNL     1      -6.983  16.043  67.163  1.00  0.00    -0.207 C  
HETATM   27  F   UNL     1      -7.793  14.960  67.297  1.00  0.00    -0.172 F  
ENDBRANCH  24  25
ENDBRANCH  23  24
ENDBRANCH  22  23
ENDBRANCH  21  22
ENDBRANCH  20  21
ENDBRANCH  19  20
ENDBRANCH  18  19
ENDBRANCH  15  18
ENDBRANCH  11  12
ENDBRANCH   7  10
ENDBRANCH   2   4
TORSDOF 11
ENDMDL
MODEL        4
REMARK 921   NORMALIZED FREE ENERGY PREDICTED BY IDOCK:   -5.76 KCAL/MOL
REMARK 922        TOTAL FREE ENERGY PREDICTED BY IDOCK:  -10.54 KCAL/MOL
REMARK 923 INTER-LIGAND FREE ENERGY PREDICTED BY IDOCK:   -9.14 KCAL/MOL
REMARK 924 INTRA-LIGAND FREE ENERGY PREDICTED BY IDOCK:   -1.39 KCAL/MOL
REMARK 927      BINDING AFFINITY PREDICTED BY RF-SCORE:    0.00 PKD
ROOT
HETATM    1  C   UNL     1     -10.619   7.169  73.597  1.00  0.00    -0.333 C  
HETATM    2  N   UNL     1     -11.867   7.714  73.082  1.00  0.00    -0.610 NA 
HETATM    3  H   UNL     1     -12.773   7.388  73.419  1.00  0.00     0.000 HD 
ENDROOT
BRANCH   2   4
HETATM    4  C   UNL     1     -11.761   8.712  72.100  1.00  0.00    -0.371 A  
HETATM    5  C   UNL     1     -10.726   8.634  71.162  1.00  0.00    -0.303 A  
HETATM    6  C   UNL     1     -10.557   9.627  70.191  1.00  0.00    -0.320 A  
HETATM    7  C   UNL     1     -11.454  10.697  70.105  1.00  0.00    -0.411 A  
HETATM    8  C   UNL     1     -12.705   9.733  71.945  1.00  0.00    -0.501 A  
HETATM    9  C   UNL     1     -12.544  10.727  70.975  1.00  0.00    -0.520 A  
BRANCH   7  10
HETATM   10  C   UNL     1     -11.148  11.810  69.199  1.00  0.00    -0.294 C  
HETATM   11  C   UNL     1     -11.273  11.789  67.861  1.00  0.00    -0.331 C  
BRANCH  11  12
HETATM   12  C   UNL     1     -11.039  12.976  67.023  1.00  0.00    -0.311 A  
HETATM   13  C   UNL     1      -9.750  13.453  66.774  1.00  0.00    -0.262 A  
HETATM   14  C   UNL     1      -9.548  14.607  66.020  1.00  0.00    -0.322 A  
HETATM   15  C   UNL     1     -10.628  15.305  65.478  1.00  0.00    -0.373 A  
HETATM   16  C   UNL     1     -12.123  13.651  66.444  1.00  0.00    -0.478 A  
HETATM   17  C   UNL     1     -11.918  14.810  65.683  1.00  0.00    -0.164 A  
BRANCH  15  18
HETATM   18  O   UNL     1     -10.530  16.464  64.748  1.00  0.00    -0.620 OA 
BRANCH  18  19
HETATM   19  C   UNL     1     -10.900  17.645  65.461  1.00  0.00     0.056 C  
BRANCH  19  20
HETATM   20  C   UNL     1      -9.747  18.184  66.289  1.00  0.00    -0.276 C  
BRANCH  20  21
HETATM   21  O   UNL     1     -10.308  19.064  67.267  1.00  0.00    -0.371 OA 
BRANCH  21  22
HETATM   22  C   UNL     1      -9.890  18.735  68.588  1.00  0.00    -0.392 C  
BRANCH  22  23
HETATM   23  C   UNL     1      -9.708  17.224  68.696  1.00  0.00    -0.301 C  
BRANCH  23  24
HETATM   24  O   UNL     1     -10.983  16.619  68.905  1.00  0.00    -0.320 OA 
BRANCH  24  25
HETATM   25  C   UNL     1     -10.883  15.433  69.691  1.00  0.00    -0.283 C  
HETATM   26  C   UNL     1     -12.141  15.280  70.526  1.00  0.00    -0.354 C  
HETATM   27  F   UNL     1     -12.050  14.151  71.277  1.00  0.00    -0.381 F  
ENDBRANCH  24  25
ENDBRANCH  23  24
ENDBRANCH  22  23
ENDBRANCH  21  22
ENDBRANCH  20  21
ENDBRANCH  19  20
ENDBRANCH  18  19
ENDBRANCH  15  18
ENDBRANCH  11  12
ENDBRANCH   7  10
ENDBRANCH   2   4
TORSDOF 11
ENDMDL
MODEL        5
REMARK 921   NORMALIZED FREE ENERGY PREDICTED BY IDOCK:   -5.71 KCAL/MOL
REMARK 922        TOTAL FREE ENERGY PREDICTED BY IDOCK:  -10.46 KCAL/MOL
REMARK 923 INTER-LIGAND FREE ENERGY PREDICTED BY IDOCK:   -9.42 KCAL/MOL
REMARK 924 INTRA-LIGAND FREE ENERGY PREDICTED BY IDOCK:   -1.04 KCAL/MOL
REMARK 927      BINDING AFFINITY PREDICTED BY RF-SCORE:    0.00 PKD
ROOT
HETATM    1  C   UNL     1     -10.428   4.252  73.666  1.00  0.00    -0.204 C  
HETATM    2  N   UNL     1     -11.591   5.122  73.579  1.00  0.00    -0.420 NA 
HETATM    3  H   UNL     1     -12.462   4.902  74.062  1.00  0.00     0.000 HD 
ENDROOT
BRANCH   2   4
HETATM    4  C   UNL     1     -11.455   6.279  72.795  1.00  0.00    -0.164 A  
HETATM    5  C   UNL     1     -10.533   7.258  73.184  1.00  0.00    -0.385 A  
HETATM    6  C   UNL     1     -10.393   8.445  72.456  1.00  0.00    -0.371 A  
HETATM    7  C   UNL     1     -11.139   8.658  71.293  1.00  0.00    -0.336 A  
HETATM    8  C   UNL     1     -12.125   6.461  71.580  1.00  0.00    -0.319 A  
HETATM    9  C   UNL     1     -11.987   7.644  70.847  1.00  0.00    -0.252 A  
BRANCH   7  10
HETATM   10  C   UNL     1     -11.103   9.980  70.657  1.00  0.00    -0.408 C  
HETATM   11  C   UNL     1     -12.115  10.864  70.629  1.00  0.00    -0.468 C  
BRANCH  11  12
HETATM   12  C   UNL     1     -11.975  12.212  70.054  1.00  0.00    -0.391 A  
HETATM   13  C   UNL     1     -12.492  13.338  70.700  1.00  0.00    -0.373 A  
HETATM   14  C   UNL     1     -12.396  14.602  70.119  1.00  0.00    -0.390 A  
HETATM   15  C   UNL     1     -11.764  14.776  68.887  1.00  0.00    -0.309 A  
HETATM   16  C   UNL     1     -11.302  12.390  68.838  1.00  0.00    -0.342 A  
HETATM   17  C   UNL     1     -11.204  13.662  68.256  1.00  0.00    -0.302 A  
BRANCH  15  18
HETATM   18  O   UNL     1     -11.646  15.973  68.225  1.00  0.00    -0.338 OA 
BRANCH  18  19
HETATM   19  C   UNL     1     -10.333  16.249  67.733  1.00  0.00    -0.287 C  
BRANCH  19  20
HETATM   20  C   UNL     1     -10.374  16.903  66.363  1.00  0.00    -0.300 C  
BRANCH  20  21
HETATM   21  O   UNL     1     -10.271  15.855  65.396  1.00  0.00    -0.371 OA 
BRANCH  21  22
HETATM   22  C   UNL     1     -11.419  15.785  64.556  1.00  0.00    -0.289 C  
BRANCH  22  23
HETATM   23  C   UNL     1     -12.099  14.433  64.747  1.00  0.00    -0.452 C  
BRANCH  23  24
HETATM   24  O   UNL     1     -12.297  13.830  63.469  1.00  0.00    -0.706 OA 
BRANCH  24  25
HETATM   25  C   UNL     1     -11.963  12.443  63.481  1.00  0.00    -0.538 C  
HETATM   26  C   UNL     1     -10.658  12.250  64.232  1.00  0.00    -0.354 C  
HETATM   27  F   UNL     1     -10.336  10.930  64.245  1.00  0.00    -0.352 F  
ENDBRANCH  24  25
ENDBRANCH  23  24
ENDBRANCH  22  23
ENDBRANCH  21  22
ENDBRANCH  20  21
ENDBRANCH  19  20
ENDBRANCH  18  19
ENDBRANCH  15  18
ENDBRANCH  11  12
ENDBRANCH   7  10
ENDBRANCH   2   4
TORSDOF 11
ENDMDL
MODEL        6
REMARK 921   NORMALIZED FREE ENERGY PREDICTED BY IDOCK:   -5.69 KCAL/MOL
REMARK 922        TOTAL FREE ENERGY PREDICTED BY IDOCK:  -10.41 KCAL/MOL
REMARK 923 INTER-LIGAND FREE ENERGY PREDICTED BY IDOCK:   -9.54 KCAL/MOL
REMARK 924 INTRA-LIGAND FREE ENERGY PREDICTED BY IDOCK:   -0.87 KCAL/MOL
REMARK 927      BINDING AFFINITY PREDICTED BY RF-SCORE:    0.00 PKD
ROOT
HETATM    1  C   UNL     1      -6.662  19.979  65.300  1.00  0.00    -0.301 C  
HETATM    2  N   UNL     1      -7.997  20.416  65.684  1.00  0.00    -0.499 NA 
HETATM    3  H   UNL     1      -8.397  21.285  65.332  1.00  0.00     0.000 HD 
ENDROOT
BRANCH   2   4
HETATM    4  C   UNL     1      -8.704  19.581  66.564  1.00  0.00    -0.356 A  
HETATM    5  C   UNL     1      -7.998  18.877  67.547  1.00  0.00    -0.264 A  
HETATM    6  C   UNL     1      -8.657  18.003  68.419  1.00  0.00    -0.298 A  
HETATM    7  C   UNL     1     -10.046  17.852  68.361  1.00  0.00    -0.385 A  
HETATM    8  C   UNL     1     -10.100  19.495  66.578  1.00  0.00    -0.539 A  
HETATM    9  C   UNL     1     -10.765  18.626  67.449  1.00  0.00    -0.456 A  
BRANCH   7  10
HETATM   10  C   UNL     1     -10.681  16.800  69.161  1.00  0.00    -0.329 C  
HETATM   11  C   UNL     1     -11.359  15.746  68.676  1.00  0.00    -0.369 C  
BRANCH  11  12
HETATM   12  C   UNL     1     -11.888  14.677  69.538  1.00  0.00    -0.374 A  
HETATM   13  C   UNL     1     -12.649  14.963  70.673  1.00  0.00    -0.420 A  
HETATM   14  C   UNL     1     -13.101  13.941  71.507  1.00  0.00    -0.441 A  
HETATM   15  C   UNL     1     -12.821  12.606  71.216  1.00  0.00    -0.250 A  
HETATM   16  C   UNL     1     -11.643  13.334  69.220  1.00  0.00    -0.370 A  
HETATM   17  C   UNL     1     -12.100  12.307  70.058  1.00  0.00    -0.346 A  
BRANCH  15  18
HETATM   18  O   UNL     1     -13.198  11.536  71.991  1.00  0.00    -0.509 OA 
BRANCH  18  19
HETATM   19  C   UNL     1     -12.895  10.260  71.424  1.00  0.00    -0.441 C  
BRANCH  19  20
HETATM   20  C   UNL     1     -13.121   9.137  72.420  1.00  0.00    -0.423 C  
BRANCH  20  21
HETATM   21  O   UNL     1     -11.851   8.522  72.654  1.00  0.00    -0.369 OA 
BRANCH  21  22
HETATM   22  C   UNL     1     -10.891   8.881  71.665  1.00  0.00    -0.349 C  
BRANCH  22  23
HETATM   23  C   UNL     1     -10.043   7.660  71.322  1.00  0.00    -0.186 C  
BRANCH  23  24
HETATM   24  O   UNL     1     -10.871   6.499  71.352  1.00  0.00    -0.231 OA 
BRANCH  24  25
HETATM   25  C   UNL     1     -11.607   6.342  70.141  1.00  0.00    -0.381 C  
HETATM   26  C   UNL     1     -10.640   6.266  68.974  1.00  0.00    -0.267 C  
HETATM   27  F   UNL     1     -11.338   6.117  67.818  1.00  0.00    -0.390 F  
ENDBRANCH  24  25
ENDBRANCH  23  24
ENDBRANCH  22  23
ENDBRANCH  21  22
ENDBRANCH  20  21
ENDBRANCH  19  20
ENDBRANCH  18  19
ENDBRANCH  15  18
ENDBRANCH  11  12
ENDBRANCH   7  10
ENDBRANCH   2   4
TORSDOF 11
ENDMDL
MODEL        7
REMARK 921   NORMALIZED FREE ENERGY PREDICTED BY IDOCK:   -5.69 KCAL/MOL
REMARK 922        TOTAL FREE ENERGY PREDICTED BY IDOCK:  -10.41 KCAL/MOL
REMARK 923 INTER-LIGAND FREE ENERGY PREDICTED BY IDOCK:   -9.56 KCAL/MOL
REMARK 924 INTRA-LIGAND FREE ENERGY PREDICTED BY IDOCK:   -0.85 KCAL/MOL
REMARK 927      BINDING AFFINITY PREDICTED BY RF-SCORE:    0.00 PKD
ROOT
HETATM    1  C   UNL     1      -6.286  20.224  65.403  1.00  0.00    -0.237 C  
HETATM    2  N   UNL     1      -7.620  20.703  65.735  1.00  0.00    -0.502 NA 
HETATM    3  H   UNL     1      -7.984  21.578  65.359  1.00  0.00     0.000 HD 
ENDROOT
BRANCH   2   4
HETATM    4  C   UNL     1      -8.380  19.901  66.602  1.00  0.00    -0.330 A  
HETATM    5  C   UNL     1      -7.737  19.242  67.656  1.00  0.00    -0.288 A  
HETATM    6  C   UNL     1      -8.447  18.400  68.519  1.00  0.00    -0.346 A  
HETATM    7  C   UNL     1      -9.828  18.237  68.377  1.00  0.00    -0.386 A  
HETATM    8  C   UNL     1      -9.774  19.805  66.527  1.00  0.00    -0.529 A  
HETATM    9  C   UNL     1     -10.489  18.968  67.389  1.00  0.00    -0.539 A  
BRANCH   7  10
HETATM   10  C   UNL     1     -10.510  17.214  69.177  1.00  0.00    -0.296 C  
HETATM   11  C   UNL     1     -11.133  16.127  68.694  1.00  0.00    -0.356 C  
BRANCH  11  12
HETATM   12  C   UNL     1     -11.714  15.091  69.564  1.00  0.00    -0.350 A  
HETATM   13  C   UNL     1     -12.450  15.423  70.704  1.00  0.00    -0.478 A  
HETATM   14  C   UNL     1     -12.951  14.431  71.545  1.00  0.00    -0.406 A  
HETATM   15  C   UNL     1     -12.746  13.081  71.259  1.00  0.00    -0.293 A  
HETATM   16  C   UNL     1     -11.544  13.736  69.251  1.00  0.00    -0.362 A  
HETATM   17  C   UNL     1     -12.051  12.739  70.097  1.00  0.00    -0.370 A  
BRANCH  15  18
HETATM   18  O   UNL     1     -13.175  12.036  72.041  1.00  0.00    -0.499 OA 
BRANCH  18  19
HETATM   19  C   UNL     1     -12.945  10.744  71.477  1.00  0.00    -0.456 C  
BRANCH  19  20
HETATM   20  C   UNL     1     -13.636   9.653  72.278  1.00  0.00    -0.367 C  
BRANCH  20  21
HETATM   21  O   UNL     1     -12.629   8.712  72.659  1.00  0.00    -0.371 OA 
BRANCH  21  22
HETATM   22  C   UNL     1     -11.390   8.954  72.000  1.00  0.00    -0.357 C  
BRANCH  22  23
HETATM   23  C   UNL     1     -10.282   8.190  72.717  1.00  0.00    -0.302 C  
BRANCH  23  24
HETATM   24  O   UNL     1     -10.853   7.447  73.792  1.00  0.00    -0.321 OA 
BRANCH  24  25
HETATM   25  C   UNL     1     -10.439   6.082  73.771  1.00  0.00    -0.275 C  
HETATM   26  C   UNL     1     -11.342   5.300  72.835  1.00  0.00    -0.301 C  
HETATM   27  F   UNL     1     -10.951   3.999  72.812  1.00  0.00    -0.240 F  
ENDBRANCH  24  25
ENDBRANCH  23  24
ENDBRANCH  22  23
ENDBRANCH  21  22
ENDBRANCH  20  21
ENDBRANCH  19  20
ENDBRANCH  18  19
ENDBRANCH  15  18
ENDBRANCH  11  12
ENDBRANCH   7  10
ENDBRANCH   2   4
TORSDOF 11
ENDMDL
MODEL        8
REMARK 921   NORMALIZED FREE ENERGY PREDICTED BY IDOCK:   -5.66 KCAL/MOL
REMARK 922        TOTAL FREE ENERGY PREDICTED BY IDOCK:  -10.38 KCAL/MOL
REMARK 923 INTER-LIGAND FREE ENERGY PREDICTED BY IDOCK:   -9.33 KCAL/MOL
REMARK 924 INTRA-LIGAND FREE ENERGY PREDICTED BY IDOCK:   -1.05 KCAL/MOL
REMARK 927      BINDING AFFINITY PREDICTED BY RF-SCORE:    0.00 PKD
ROOT
HETATM    1  C   UNL     1      -6.654  19.931  65.204  1.00  0.00    -0.290 C  
HETATM    2  N   UNL     1      -7.805  20.526  65.869  1.00  0.00    -0.523 NA 
HETATM    3  H   UNL     1      -8.071  21.498  65.711  1.00  0.00     0.000 HD 
ENDROOT
BRANCH   2   4
HETATM    4  C   UNL     1      -8.529  19.695  66.738  1.00  0.00    -0.311 A  
HETATM    5  C   UNL     1      -7.835  18.936  67.688  1.00  0.00    -0.265 A  
HETATM    6  C   UNL     1      -8.512  18.064  68.547  1.00  0.00    -0.314 A  
HETATM    7  C   UNL     1      -9.907  17.969  68.510  1.00  0.00    -0.383 A  
HETATM    8  C   UNL     1      -9.928  19.663  66.774  1.00  0.00    -0.521 A  
HETATM    9  C   UNL     1     -10.610  18.795  67.633  1.00  0.00    -0.481 A  
BRANCH   7  10
HETATM   10  C   UNL     1     -10.569  16.920  69.292  1.00  0.00    -0.325 C  
HETATM   11  C   UNL     1     -11.334  15.934  68.794  1.00  0.00    -0.378 C  
BRANCH  11  12
HETATM   12  C   UNL     1     -11.890  14.858  69.631  1.00  0.00    -0.356 A  
HETATM   13  C   UNL     1     -12.766  15.130  70.684  1.00  0.00    -0.451 A  
HETATM   14  C   UNL     1     -13.244  14.105  71.499  1.00  0.00    -0.423 A  
HETATM   15  C   UNL     1     -12.873  12.779  71.271  1.00  0.00    -0.262 A  
HETATM   16  C   UNL     1     -11.550  13.523  69.373  1.00  0.00    -0.369 A  
HETATM   17  C   UNL     1     -12.034  12.493  70.192  1.00  0.00    -0.377 A  
BRANCH  15  18
HETATM   18  O   UNL     1     -13.269  11.709  72.035  1.00  0.00    -0.501 OA 
BRANCH  18  19
HETATM   19  C   UNL     1     -12.884  10.436  71.513  1.00  0.00    -0.464 C  
BRANCH  19  20
HETATM   20  C   UNL     1     -13.589   9.300  72.233  1.00  0.00    -0.480 C  
BRANCH  20  21
HETATM   21  O   UNL     1     -13.358   8.113  71.470  1.00  0.00    -0.325 OA 
BRANCH  21  22
HETATM   22  C   UNL     1     -12.028   7.627  71.622  1.00  0.00    -0.299 C  
BRANCH  22  23
HETATM   23  C   UNL     1     -11.733   6.616  70.519  1.00  0.00    -0.394 C  
BRANCH  23  24
HETATM   24  O   UNL     1     -10.913   7.236  69.530  1.00  0.00    -0.230 OA 
BRANCH  24  25
HETATM   25  C   UNL     1     -10.167   8.327  70.068  1.00  0.00    -0.202 C  
HETATM   26  C   UNL     1     -10.130   9.455  69.054  1.00  0.00    -0.194 C  
HETATM   27  F   UNL     1      -9.420  10.496  69.563  1.00  0.00    -0.213 F  
ENDBRANCH  24  25
ENDBRANCH  23  24
ENDBRANCH  22  23
ENDBRANCH  21  22
ENDBRANCH  20  21
ENDBRANCH  19  20
ENDBRANCH  18  19
ENDBRANCH  15  18
ENDBRANCH  11  12
ENDBRANCH   7  10
ENDBRANCH   2   4
TORSDOF 11
ENDMDL
MODEL        9
REMARK 921   NORMALIZED FREE ENERGY PREDICTED BY IDOCK:   -5.66 KCAL/MOL
REMARK 922        TOTAL FREE ENERGY PREDICTED BY IDOCK:  -10.38 KCAL/MOL
REMARK 923 INTER-LIGAND FREE ENERGY PREDICTED BY IDOCK:   -9.34 KCAL/MOL
REMARK 924 INTRA-LIGAND FREE ENERGY PREDICTED BY IDOCK:   -1.04 KCAL/MOL
REMARK 927      BINDING AFFINITY PREDICTED BY RF-SCORE:    0.00 PKD
ROOT
HETATM    1  C   UNL     1      -9.698   3.682  73.650  1.00  0.00    -0.107 C  
HETATM    2  N   UNL     1     -11.024   4.280  73.577  1.00  0.00    -0.264 NA 
HETATM    3  H   UNL     1     -11.861   3.759  73.839  1.00  0.00     0.000 HD 
ENDROOT
BRANCH   2   4
HETATM    4  C   UNL     1     -11.093   5.608  73.128  1.00  0.00    -0.270 A  
HETATM    5  C   UNL     1     -12.160   5.993  72.308  1.00  0.00    -0.196 A  
HETATM    6  C   UNL     1     -12.247   7.295  71.803  1.00  0.00    -0.368 A  
HETATM    7  C   UNL     1     -11.293   8.258  72.150  1.00  0.00    -0.419 A  
HETATM    8  C   UNL     1     -10.199   6.602  73.543  1.00  0.00    -0.300 A  
HETATM    9  C   UNL     1     -10.283   7.906  73.045  1.00  0.00    -0.394 A  
BRANCH   7  10
HETATM   10  C   UNL     1     -11.311   9.555  71.465  1.00  0.00    -0.456 C  
HETATM   11  C   UNL     1     -12.378  10.362  71.341  1.00  0.00    -0.500 C  
BRANCH  11  12
HETATM   12  C   UNL     1     -12.298  11.695  70.722  1.00  0.00    -0.454 A  
HETATM   13  C   UNL     1     -11.674  11.892  69.488  1.00  0.00    -0.410 A  
HETATM   14  C   UNL     1     -11.562  13.169  68.940  1.00  0.00    -0.354 A  
HETATM   15  C   UNL     1     -12.089  14.279  69.601  1.00  0.00    -0.346 A  
HETATM   16  C   UNL     1     -12.865  12.803  71.367  1.00  0.00    -0.371 A  
HETATM   17  C   UNL     1     -12.755  14.086  70.813  1.00  0.00    -0.396 A  
BRANCH  15  18
HETATM   18  O   UNL     1     -12.003  15.575  69.154  1.00  0.00    -0.348 OA 
BRANCH  18  19
HETATM   19  C   UNL     1     -10.845  16.280  69.605  1.00  0.00    -0.345 C  
BRANCH  19  20
HETATM   20  C   UNL     1      -9.973  16.726  68.445  1.00  0.00    -0.268 C  
BRANCH  20  21
HETATM   21  O   UNL     1     -10.546  17.930  67.928  1.00  0.00    -0.389 OA 
BRANCH  21  22
HETATM   22  C   UNL     1     -10.493  17.983  66.506  1.00  0.00    -0.334 C  
BRANCH  22  23
HETATM   23  C   UNL     1      -9.785  16.737  65.983  1.00  0.00    -0.259 C  
BRANCH  23  24
HETATM   24  O   UNL     1     -10.648  16.065  65.067  1.00  0.00    -0.551 OA 
BRANCH  24  25
HETATM   25  C   UNL     1     -10.981  14.754  65.519  1.00  0.00    -0.346 C  
HETATM   26  C   UNL     1     -12.373  14.396  65.031  1.00  0.00    -0.396 C  
HETATM   27  F   UNL     1     -12.695  13.147  65.459  1.00  0.00    -0.502 F  
ENDBRANCH  24  25
ENDBRANCH  23  24
ENDBRANCH  22  23
ENDBRANCH  21  22
ENDBRANCH  20  21
ENDBRANCH  19  20
ENDBRANCH  18  19
ENDBRANCH  15  18
ENDBRANCH  11  12
ENDBRANCH   7  10
ENDBRANCH   2   4
TORSDOF 11
ENDMDL
MODEL       10
REMARK 921   NORMALIZED FREE ENERGY PREDICTED BY IDOCK:   -5.66 KCAL/MOL
REMARK 922        TOTAL FREE ENERGY PREDICTED BY IDOCK:  -10.38 KCAL/MOL
REMARK 923 INTER-LIGAND FREE ENERGY PREDICTED BY IDOCK:   -9.31 KCAL/MOL
REMARK 924 INTRA-LIGAND FREE ENERGY PREDICTED BY IDOCK:   -1.07 KCAL/MOL
REMARK 927      BINDING AFFINITY PREDICTED BY RF-SCORE:    0.00 PKD
ROOT
HETATM    1  C   UNL     1     -10.413   3.359  73.392  1.00  0.00    -0.175 C  
HETATM    2  N   UNL     1     -10.487   4.591  74.164  1.00  0.00    -0.242 NA 
HETATM    3  H   UNL     1     -10.390   4.593  75.180  1.00  0.00     0.000 HD 
ENDROOT
BRANCH   2   4
HETATM    4  C   UNL     1     -10.698   5.776  73.442  1.00  0.00    -0.273 A  
HETATM    5  C   UNL     1     -11.643   5.781  72.408  1.00  0.00    -0.320 A  
HETATM    6  C   UNL     1     -11.858   6.928  71.635  1.00  0.00    -0.363 A  
HETATM    7  C   UNL     1     -11.167   8.112  71.911  1.00  0.00    -0.351 A  
HETATM    8  C   UNL     1     -10.084   6.990  73.769  1.00  0.00    -0.390 A  
HETATM    9  C   UNL     1     -10.297   8.139  73.002  1.00  0.00    -0.257 A  
BRANCH   7  10
HETATM   10  C   UNL     1     -11.280   9.236  70.976  1.00  0.00    -0.392 C  
HETATM   11  C   UNL     1     -12.020  10.341  71.163  1.00  0.00    -0.472 C  
BRANCH  11  12
HETATM   12  C   UNL     1     -12.009  11.473  70.222  1.00  0.00    -0.455 A  
HETATM   13  C   UNL     1     -11.811  11.284  68.853  1.00  0.00    -0.413 A  
HETATM   14  C   UNL     1     -11.754  12.370  67.982  1.00  0.00    -0.414 A  
HETATM   15  C   UNL     1     -11.913  13.674  68.454  1.00  0.00    -0.356 A  
HETATM   16  C   UNL     1     -12.212  12.778  70.693  1.00  0.00    -0.374 A  
HETATM   17  C   UNL     1     -12.158  13.870  69.815  1.00  0.00    -0.404 A  
BRANCH  15  18
HETATM   18  O   UNL     1     -11.844  14.805  67.678  1.00  0.00    -0.358 OA 
BRANCH  18  19
HETATM   19  C   UNL     1     -12.120  14.590  66.293  1.00  0.00    -0.294 C  
BRANCH  19  20
HETATM   20  C   UNL     1     -10.995  15.105  65.412  1.00  0.00    -0.374 C  
BRANCH  20  21
HETATM   21  O   UNL     1     -10.824  14.158  64.354  1.00  0.00    -0.353 OA 
BRANCH  21  22
HETATM   22  C   UNL     1     -12.041  13.494  64.026  1.00  0.00    -0.441 C  
BRANCH  22  23
HETATM   23  C   UNL     1     -11.722  12.123  63.439  1.00  0.00    -0.444 C  
BRANCH  23  24
HETATM   24  O   UNL     1     -10.306  11.975  63.352  1.00  0.00    -0.430 OA 
BRANCH  24  25
HETATM   25  C   UNL     1      -9.887  10.662  63.719  1.00  0.00    -0.335 C  
HETATM   26  C   UNL     1     -10.104  10.467  65.208  1.00  0.00    -0.300 C  
HETATM   27  F   UNL     1      -9.706   9.217  65.563  1.00  0.00    -0.326 F  
ENDBRANCH  24  25
ENDBRANCH  23  24
ENDBRANCH  22  23
ENDBRANCH  21  22
ENDBRANCH  20  21
ENDBRANCH  19  20
ENDBRANCH  18  19
ENDBRANCH  15  18
ENDBRANCH  11  12
ENDBRANCH   7  10
ENDBRANCH   2   4
TORSDOF 11
ENDMDL
MODEL       11
REMARK 921   NORMALIZED FREE ENERGY PREDICTED BY IDOCK:   -5.60 KCAL/MOL
REMARK 922        TOTAL FREE ENERGY PREDICTED BY IDOCK:  -10.28 KCAL/MOL
REMARK 923 INTER-LIGAND FREE ENERGY PREDICTED BY IDOCK:   -9.53 KCAL/MOL
REMARK 924 INTRA-LIGAND FREE ENERGY PREDICTED BY IDOCK:   -0.75 KCAL/MOL
REMARK 927      BINDING AFFINITY PREDICTED BY RF-SCORE:    0.00 PKD
ROOT
HETATM    1  C   UNL     1     -10.709   5.029  73.619  1.00  0.00    -0.293 C  
HETATM    2  N   UNL     1     -10.597   6.409  74.068  1.00  0.00    -0.432 NA 
HETATM    3  H   UNL     1     -10.490   6.644  75.055  1.00  0.00     0.000 HD 
ENDROOT
BRANCH   2   4
HETATM    4  C   UNL     1     -10.645   7.401  73.076  1.00  0.00    -0.343 A  
HETATM    5  C   UNL     1     -11.891   7.892  72.666  1.00  0.00    -0.352 A  
HETATM    6  C   UNL     1     -11.988   8.851  71.652  1.00  0.00    -0.415 A  
HETATM    7  C   UNL     1     -10.837   9.379  71.059  1.00  0.00    -0.406 A  
HETATM    8  C   UNL     1      -9.500   8.004  72.544  1.00  0.00    -0.297 A  
HETATM    9  C   UNL     1      -9.592   8.966  71.532  1.00  0.00    -0.362 A  
BRANCH   7  10
HETATM   10  C   UNL     1     -10.976  10.243  69.882  1.00  0.00    -0.358 C  
HETATM   11  C   UNL     1     -11.738  11.347  69.804  1.00  0.00    -0.418 C  
BRANCH  11  12
HETATM   12  C   UNL     1     -11.754  12.219  68.619  1.00  0.00    -0.377 A  
HETATM   13  C   UNL     1     -11.790  13.611  68.736  1.00  0.00    -0.395 A  
HETATM   14  C   UNL     1     -11.856  14.422  67.605  1.00  0.00    -0.412 A  
HETATM   15  C   UNL     1     -11.867  13.865  66.326  1.00  0.00    -0.408 A  
HETATM   16  C   UNL     1     -11.722  11.659  67.335  1.00  0.00    -0.278 A  
HETATM   17  C   UNL     1     -11.785  12.476  66.197  1.00  0.00    -0.466 A  
BRANCH  15  18
HETATM   18  O   UNL     1     -11.958  14.580  65.157  1.00  0.00    -0.369 OA 
BRANCH  18  19
HETATM   19  C   UNL     1     -10.796  15.349  64.843  1.00  0.00    -0.425 C  
BRANCH  19  20
HETATM   20  C   UNL     1     -11.076  16.840  64.913  1.00  0.00    -0.054 C  
BRANCH  20  21
HETATM   21  O   UNL     1     -10.081  17.413  65.766  1.00  0.00    -0.544 OA 
BRANCH  21  22
HETATM   22  C   UNL     1     -10.321  18.795  66.016  1.00  0.00    -0.422 C  
BRANCH  22  23
HETATM   23  C   UNL     1     -10.801  18.969  67.453  1.00  0.00    -0.409 C  
BRANCH  23  24
HETATM   24  O   UNL     1      -9.695  18.794  68.335  1.00  0.00    -0.334 OA 
BRANCH  24  25
HETATM   25  C   UNL     1      -8.655  19.736  68.074  1.00  0.00    -0.295 C  
HETATM   26  C   UNL     1      -7.451  19.402  68.936  1.00  0.00    -0.364 C  
HETATM   27  F   UNL     1      -6.458  20.297  68.690  1.00  0.00    -0.305 F  
ENDBRANCH  24  25
ENDBRANCH  23  24
ENDBRANCH  22  23
ENDBRANCH  21  22
ENDBRANCH  20  21
ENDBRANCH  19  20
ENDBRANCH  18  19
ENDBRANCH  15  18
ENDBRANCH  11  12
ENDBRANCH   7  10
ENDBRANCH   2   4
TORSDOF 11
ENDMDL
MODEL       12
REMARK 921   NORMALIZED FREE ENERGY PREDICTED BY IDOCK:   -5.59 KCAL/MOL
REMARK 922        TOTAL FREE ENERGY PREDICTED BY IDOCK:  -10.26 KCAL/MOL
REMARK 923 INTER-LIGAND FREE ENERGY PREDICTED BY IDOCK:   -9.46 KCAL/MOL
REMARK 924 INTRA-LIGAND FREE ENERGY PREDICTED BY IDOCK:   -0.81 KCAL/MOL
REMARK 927      BINDING AFFINITY PREDICTED BY RF-SCORE:    0.00 PKD
ROOT
HETATM    1  C   UNL     1     -11.705   7.223  72.410  1.00  0.00    -0.239 C  
HETATM    2  N   UNL     1     -12.574   8.368  72.646  1.00  0.00    -0.598 NA 
HETATM    3  H   UNL     1     -13.295   8.353  73.367  1.00  0.00     0.000 HD 
ENDROOT
BRANCH   2   4
HETATM    4  C   UNL     1     -12.369   9.493  71.832  1.00  0.00    -0.373 A  
HETATM    5  C   UNL     1     -11.474   9.401  70.759  1.00  0.00    -0.364 A  
HETATM    6  C   UNL     1     -11.209  10.509  69.946  1.00  0.00    -0.374 A  
HETATM    7  C   UNL     1     -11.872  11.722  70.158  1.00  0.00    -0.408 A  
HETATM    8  C   UNL     1     -13.095  10.680  71.974  1.00  0.00    -0.501 A  
HETATM    9  C   UNL     1     -12.837  11.790  71.163  1.00  0.00    -0.365 A  
BRANCH   7  10
HETATM   10  C   UNL     1     -11.441  12.907  69.409  1.00  0.00    -0.323 C  
HETATM   11  C   UNL     1     -11.652  13.128  68.100  1.00  0.00    -0.375 C  
BRANCH  11  12
HETATM   12  C   UNL     1     -11.275  14.386  67.436  1.00  0.00    -0.337 A  
HETATM   13  C   UNL     1     -11.157  14.473  66.047  1.00  0.00    -0.329 A  
HETATM   14  C   UNL     1     -10.750  15.657  65.437  1.00  0.00    -0.424 A  
HETATM   15  C   UNL     1     -10.470  16.793  66.197  1.00  0.00    -0.277 A  
HETATM   16  C   UNL     1     -11.036  15.538  68.199  1.00  0.00    -0.312 A  
HETATM   17  C   UNL     1     -10.630  16.730  67.583  1.00  0.00    -0.325 A  
BRANCH  15  18
HETATM   18  O   UNL     1     -10.037  17.994  65.689  1.00  0.00    -0.551 OA 
BRANCH  18  19
HETATM   19  C   UNL     1     -10.496  19.139  66.408  1.00  0.00    -0.463 C  
BRANCH  19  20
HETATM   20  C   UNL     1      -9.353  20.076  66.758  1.00  0.00    -0.392 C  
BRANCH  20  21
HETATM   21  O   UNL     1      -8.340  19.891  65.766  1.00  0.00    -0.346 OA 
BRANCH  21  22
HETATM   22  C   UNL     1      -7.061  20.327  66.216  1.00  0.00    -0.270 C  
BRANCH  22  23
HETATM   23  C   UNL     1      -7.146  20.691  67.695  1.00  0.00    -0.321 C  
BRANCH  23  24
HETATM   24  O   UNL     1      -6.055  20.083  68.384  1.00  0.00    -0.237 OA 
BRANCH  24  25
HETATM   25  C   UNL     1      -5.739  20.777  69.590  1.00  0.00    -0.317 C  
HETATM   26  C   UNL     1      -5.947  19.847  70.770  1.00  0.00    -0.276 C  
HETATM   27  F   UNL     1      -5.647  20.504  71.921  1.00  0.00    -0.360 F  
ENDBRANCH  24  25
ENDBRANCH  23  24
ENDBRANCH  22  23
ENDBRANCH  21  22
ENDBRANCH  20  21
ENDBRANCH  19  20
ENDBRANCH  18  19
ENDBRANCH  15  18
ENDBRANCH  11  12
ENDBRANCH   7  10
ENDBRANCH   2   4
TORSDOF 11
ENDMDL
MODEL       13
REMARK 921   NORMALIZED FREE ENERGY PREDICTED BY IDOCK:   -5.58 KCAL/MOL
REMARK 922        TOTAL FREE ENERGY PREDICTED BY IDOCK:  -10.25 KCAL/MOL
REMARK 923 INTER-LIGAND FREE ENERGY PREDICTED BY IDOCK:   -9.46 KCAL/MOL
REMARK 924 INTRA-LIGAND FREE ENERGY PREDICTED BY IDOCK:   -0.79 KCAL/MOL
REMARK 927      BINDING AFFINITY PREDICTED BY RF-SCORE:    0.00 PKD
ROOT
HETATM    1  C   UNL     1     -11.077   3.053  73.523  1.00  0.00    -0.217 C  
HETATM    2  N   UNL     1     -10.289   3.728  72.501  1.00  0.00    -0.159 NA 
HETATM    3  H   UNL     1      -9.519   3.260  72.023  1.00  0.00     0.000 HD 
ENDROOT
BRANCH   2   4
HETATM    4  C   UNL     1     -10.642   5.054  72.206  1.00  0.00    -0.206 A  
HETATM    5  C   UNL     1     -10.797   5.434  70.868  1.00  0.00    -0.190 A  
HETATM    6  C   UNL     1     -11.108   6.755  70.525  1.00  0.00    -0.346 A  
HETATM    7  C   UNL     1     -11.320   7.716  71.519  1.00  0.00    -0.286 A  
HETATM    8  C   UNL     1     -10.949   5.999  73.191  1.00  0.00    -0.269 A  
HETATM    9  C   UNL     1     -11.264   7.320  72.855  1.00  0.00    -0.336 A  
BRANCH   7  10
HETATM   10  C   UNL     1     -11.465   9.122  71.128  1.00  0.00    -0.388 C  
HETATM   11  C   UNL     1     -12.513   9.912  71.414  1.00  0.00    -0.495 C  
BRANCH  11  12
HETATM   12  C   UNL     1     -12.547  11.343  71.072  1.00  0.00    -0.487 A  
HETATM   13  C   UNL     1     -11.893  11.840  69.942  1.00  0.00    -0.423 A  
HETATM   14  C   UNL     1     -11.891  13.205  69.659  1.00  0.00    -0.390 A  
HETATM   15  C   UNL     1     -12.562  14.107  70.487  1.00  0.00    -0.342 A  
HETATM   16  C   UNL     1     -13.257  12.241  71.880  1.00  0.00    -0.481 A  
HETATM   17  C   UNL     1     -13.258  13.614  71.593  1.00  0.00    -0.447 A  
BRANCH  15  18
HETATM   18  O   UNL     1     -12.593  15.468  70.305  1.00  0.00    -0.403 OA 
BRANCH  18  19
HETATM   19  C   UNL     1     -11.397  16.143  70.696  1.00  0.00    -0.370 C  
BRANCH  19  20
HETATM   20  C   UNL     1     -10.583  16.584  69.492  1.00  0.00    -0.321 C  
BRANCH  20  21
HETATM   21  O   UNL     1     -11.401  16.382  68.337  1.00  0.00    -0.366 OA 
BRANCH  21  22
HETATM   22  C   UNL     1     -10.644  15.941  67.214  1.00  0.00    -0.314 C  
BRANCH  22  23
HETATM   23  C   UNL     1      -9.617  17.009  66.850  1.00  0.00    -0.257 C  
BRANCH  23  24
HETATM   24  O   UNL     1     -10.138  17.809  65.790  1.00  0.00    -0.555 OA 
BRANCH  24  25
HETATM   25  C   UNL     1     -10.625  19.063  66.264  1.00  0.00    -0.412 C  
HETATM   26  C   UNL     1      -9.450  19.926  66.687  1.00  0.00    -0.402 C  
HETATM   27  F   UNL     1      -9.909  21.123  67.139  1.00  0.00    -0.596 F  
ENDBRANCH  24  25
ENDBRANCH  23  24
ENDBRANCH  22  23
ENDBRANCH  21  22
ENDBRANCH  20  21
ENDBRANCH  19  20
ENDBRANCH  18  19
ENDBRANCH  15  18
ENDBRANCH  11  12
ENDBRANCH   7  10
ENDBRANCH   2   4
TORSDOF 11
ENDMDL
MODEL       14
REMARK 921   NORMALIZED FREE ENERGY PREDICTED BY IDOCK:   -5.58 KCAL/MOL
REMARK 922        TOTAL FREE ENERGY PREDICTED BY IDOCK:  -10.24 KCAL/MOL
REMARK 923 INTER-LIGAND FREE ENERGY PREDICTED BY IDOCK:   -8.78 KCAL/MOL
REMARK 924 INTRA-LIGAND FREE ENERGY PREDICTED BY IDOCK:   -1.46 KCAL/MOL
REMARK 927      BINDING AFFINITY PREDICTED BY RF-SCORE:    0.00 PKD
ROOT
HETATM    1  C   UNL     1     -11.546  16.206  64.338  1.00  0.00    -0.146 C  
HETATM    2  N   UNL     1     -11.944  14.850  63.989  1.00  0.00    -0.867 NA 
HETATM    3  H   UNL     1     -12.297  14.618  63.061  1.00  0.00     0.000 HD 
ENDROOT
BRANCH   2   4
HETATM    4  C   UNL     1     -11.818  13.878  64.995  1.00  0.00    -0.373 A  
HETATM    5  C   UNL     1     -12.268  14.175  66.287  1.00  0.00    -0.474 A  
HETATM    6  C   UNL     1     -12.125  13.252  67.329  1.00  0.00    -0.341 A  
HETATM    7  C   UNL     1     -11.575  11.989  67.090  1.00  0.00    -0.387 A  
HETATM    8  C   UNL     1     -11.358  12.580  64.748  1.00  0.00    -0.354 A  
HETATM    9  C   UNL     1     -11.216  11.652  65.784  1.00  0.00    -0.290 A  
BRANCH   7  10
HETATM   10  C   UNL     1     -11.274  11.117  68.231  1.00  0.00    -0.343 C  
HETATM   11  C   UNL     1     -11.916  11.121  69.411  1.00  0.00    -0.420 C  
BRANCH  11  12
HETATM   12  C   UNL     1     -11.622  10.151  70.478  1.00  0.00    -0.411 A  
HETATM   13  C   UNL     1     -10.315   9.747  70.760  1.00  0.00    -0.298 A  
HETATM   14  C   UNL     1     -10.057   8.790  71.739  1.00  0.00    -0.403 A  
HETATM   15  C   UNL     1     -11.098   8.225  72.477  1.00  0.00    -0.368 A  
HETATM   16  C   UNL     1     -12.665   9.617  71.248  1.00  0.00    -0.443 A  
HETATM   17  C   UNL     1     -12.404   8.657  72.235  1.00  0.00    -0.449 A  
BRANCH  15  18
HETATM   18  O   UNL     1     -10.946   7.258  73.440  1.00  0.00    -0.358 OA 
BRANCH  18  19
HETATM   19  C   UNL     1     -11.223   5.930  72.992  1.00  0.00    -0.221 C  
BRANCH  19  20
HETATM   20  C   UNL     1      -9.952   5.191  72.610  1.00  0.00    -0.165 C  
BRANCH  20  21
HETATM   21  O   UNL     1     -10.152   4.666  71.295  1.00  0.00    -0.194 OA 
BRANCH  21  22
HETATM   22  C   UNL     1      -9.502   5.450  70.300  1.00  0.00    -0.163 C  
BRANCH  22  23
HETATM   23  C   UNL     1     -10.547   6.006  69.337  1.00  0.00    -0.298 C  
BRANCH  23  24
HETATM   24  O   UNL     1     -10.453   5.304  68.098  1.00  0.00    -0.151 OA 
BRANCH  24  25
HETATM   25  C   UNL     1     -10.596   6.181  66.982  1.00  0.00    -0.315 C  
HETATM   26  C   UNL     1     -10.614   7.616  67.473  1.00  0.00    -0.252 C  
HETATM   27  F   UNL     1     -10.750   8.455  66.413  1.00  0.00    -0.300 F  
ENDBRANCH  24  25
ENDBRANCH  23  24
ENDBRANCH  22  23
ENDBRANCH  21  22
ENDBRANCH  20  21
ENDBRANCH  19  20
ENDBRANCH  18  19
ENDBRANCH  15  18
ENDBRANCH  11  12
ENDBRANCH   7  10
ENDBRANCH   2   4
TORSDOF 11
ENDMDL
MODEL       15
REMARK 921   NORMALIZED FREE ENERGY PREDICTED BY IDOCK:   -5.58 KCAL/MOL
REMARK 922        TOTAL FREE ENERGY PREDICTED BY IDOCK:  -10.24 KCAL/MOL
REMARK 923 INTER-LIGAND FREE ENERGY PREDICTED BY IDOCK:   -9.21 KCAL/MOL
REMARK 924 INTRA-LIGAND FREE ENERGY PREDICTED BY IDOCK:   -1.04 KCAL/MOL
REMARK 927      BINDING AFFINITY PREDICTED BY RF-SCORE:    0.00 PKD
ROOT
HETATM    1  C   UNL     1     -11.009   6.383  72.973  1.00  0.00    -0.238 C  
HETATM    2  N   UNL     1     -11.701   7.634  73.251  1.00  0.00    -0.601 NA 
HETATM    3  H   UNL     1     -12.192   7.790  74.131  1.00  0.00     0.000 HD 
ENDROOT
BRANCH   2   4
HETATM    4  C   UNL     1     -11.658   8.615  72.247  1.00  0.00    -0.354 A  
HETATM    5  C   UNL     1     -10.527   8.696  71.425  1.00  0.00    -0.327 A  
HETATM    6  C   UNL     1     -10.423   9.683  70.439  1.00  0.00    -0.352 A  
HETATM    7  C   UNL     1     -11.472  10.581  70.218  1.00  0.00    -0.416 A  
HETATM    8  C   UNL     1     -12.737   9.456  71.955  1.00  0.00    -0.484 A  
HETATM    9  C   UNL     1     -12.641  10.442  70.968  1.00  0.00    -0.491 A  
BRANCH   7  10
HETATM   10  C   UNL     1     -11.261  11.711  69.306  1.00  0.00    -0.328 C  
HETATM   11  C   UNL     1     -11.763  11.820  68.065  1.00  0.00    -0.363 C  
BRANCH  11  12
HETATM   12  C   UNL     1     -11.588  13.028  67.241  1.00  0.00    -0.409 A  
HETATM   13  C   UNL     1     -12.128  13.122  65.957  1.00  0.00    -0.495 A  
HETATM   14  C   UNL     1     -11.911  14.252  65.170  1.00  0.00    -0.395 A  
HETATM   15  C   UNL     1     -11.165  15.326  65.655  1.00  0.00    -0.256 A  
HETATM   16  C   UNL     1     -10.875  14.124  67.746  1.00  0.00    -0.260 A  
HETATM   17  C   UNL     1     -10.659  15.261  66.955  1.00  0.00    -0.306 A  
BRANCH  15  18
HETATM   18  O   UNL     1     -10.875  16.467  64.946  1.00  0.00    -0.655 OA 
BRANCH  18  19
HETATM   19  C   UNL     1      -9.940  17.337  65.584  1.00  0.00     0.026 C  
BRANCH  19  20
HETATM   20  C   UNL     1     -10.536  18.711  65.836  1.00  0.00    -0.356 C  
BRANCH  20  21
HETATM   21  O   UNL     1     -10.975  18.734  67.197  1.00  0.00    -0.380 OA 
BRANCH  21  22
HETATM   22  C   UNL     1     -10.403  19.814  67.927  1.00  0.00    -0.433 C  
BRANCH  22  23
HETATM   23  C   UNL     1      -8.940  19.974  67.524  1.00  0.00    -0.346 C  
BRANCH  23  24
HETATM   24  O   UNL     1      -8.114  19.503  68.587  1.00  0.00    -0.352 OA 
BRANCH  24  25
HETATM   25  C   UNL     1      -7.295  18.410  68.175  1.00  0.00    -0.261 C  
HETATM   26  C   UNL     1      -7.871  17.119  68.729  1.00  0.00    -0.258 C  
HETATM   27  F   UNL     1      -7.093  16.075  68.340  1.00  0.00    -0.116 F  
ENDBRANCH  24  25
ENDBRANCH  23  24
ENDBRANCH  22  23
ENDBRANCH  21  22
ENDBRANCH  20  21
ENDBRANCH  19  20
ENDBRANCH  18  19
ENDBRANCH  15  18
ENDBRANCH  11  12
ENDBRANCH   7  10
ENDBRANCH   2   4
TORSDOF 11
ENDMDL
MODEL       16
REMARK 921   NORMALIZED FREE ENERGY PREDICTED BY IDOCK:   -5.56 KCAL/MOL
REMARK 922        TOTAL FREE ENERGY PREDICTED BY IDOCK:  -10.21 KCAL/MOL
REMARK 923 INTER-LIGAND FREE ENERGY PREDICTED BY IDOCK:   -9.35 KCAL/MOL
REMARK 924 INTRA-LIGAND FREE ENERGY PREDICTED BY IDOCK:   -0.86 KCAL/MOL
REMARK 927      BINDING AFFINITY PREDICTED BY RF-SCORE:    0.00 PKD
ROOT
HETATM    1  C   UNL     1     -10.928   3.392  73.405  1.00  0.00    -0.206 C  
HETATM    2  N   UNL     1     -10.648   4.633  74.112  1.00  0.00    -0.279 NA 
HETATM    3  H   UNL     1     -10.362   4.639  75.091  1.00  0.00     0.000 HD 
ENDROOT
BRANCH   2   4
HETATM    4  C   UNL     1     -10.792   5.822  73.380  1.00  0.00    -0.260 A  
HETATM    5  C   UNL     1     -11.784   5.896  72.394  1.00  0.00    -0.307 A  
HETATM    6  C   UNL     1     -11.937   7.046  71.612  1.00  0.00    -0.365 A  
HETATM    7  C   UNL     1     -11.133   8.169  71.832  1.00  0.00    -0.346 A  
HETATM    8  C   UNL     1     -10.059   6.982  73.655  1.00  0.00    -0.376 A  
HETATM    9  C   UNL     1     -10.210   8.135  72.878  1.00  0.00    -0.341 A  
BRANCH   7  10
HETATM   10  C   UNL     1     -11.194   9.285  70.883  1.00  0.00    -0.372 C  
HETATM   11  C   UNL     1     -12.043  10.325  70.949  1.00  0.00    -0.468 C  
BRANCH  11  12
HETATM   12  C   UNL     1     -11.983  11.460  70.013  1.00  0.00    -0.442 A  
HETATM   13  C   UNL     1     -12.147  12.776  70.449  1.00  0.00    -0.382 A  
HETATM   14  C   UNL     1     -12.138  13.836  69.544  1.00  0.00    -0.386 A  
HETATM   15  C   UNL     1     -11.945  13.609  68.180  1.00  0.00    -0.355 A  
HETATM   16  C   UNL     1     -11.746  11.233  68.650  1.00  0.00    -0.391 A  
HETATM   17  C   UNL     1     -11.734  12.300  67.741  1.00  0.00    -0.403 A  
BRANCH  15  18
HETATM   18  O   UNL     1     -11.948  14.583  67.212  1.00  0.00    -0.405 OA 
BRANCH  18  19
HETATM   19  C   UNL     1     -10.706  14.736  66.524  1.00  0.00    -0.319 C  
BRANCH  19  20
HETATM   20  C   UNL     1     -10.916  15.053  65.054  1.00  0.00    -0.423 C  
BRANCH  20  21
HETATM   21  O   UNL     1     -10.844  16.474  64.916  1.00  0.00    -0.684 OA 
BRANCH  21  22
HETATM   22  C   UNL     1     -10.042  17.071  65.931  1.00  0.00    -0.263 C  
BRANCH  22  23
HETATM   23  C   UNL     1     -10.574  18.468  66.234  1.00  0.00    -0.330 C  
BRANCH  23  24
HETATM   24  O   UNL     1     -10.473  18.707  67.636  1.00  0.00    -0.389 OA 
BRANCH  24  25
HETATM   25  C   UNL     1      -9.668  17.723  68.284  1.00  0.00    -0.320 C  
HETATM   26  C   UNL     1     -10.506  16.996  69.319  1.00  0.00    -0.293 C  
HETATM   27  F   UNL     1      -9.743  16.058  69.939  1.00  0.00    -0.247 F  
ENDBRANCH  24  25
ENDBRANCH  23  24
ENDBRANCH  22  23
ENDBRANCH  21  22
ENDBRANCH  20  21
ENDBRANCH  19  20
ENDBRANCH  18  19
ENDBRANCH  15  18
ENDBRANCH  11  12
ENDBRANCH   7  10
ENDBRANCH   2   4
TORSDOF 11
ENDMDL
MODEL       17
REMARK 921   NORMALIZED FREE ENERGY PREDICTED BY IDOCK:   -5.56 KCAL/MOL
REMARK 922        TOTAL FREE ENERGY PREDICTED BY IDOCK:  -10.21 KCAL/MOL
REMARK 923 INTER-LIGAND FREE ENERGY PREDICTED BY IDOCK:   -9.12 KCAL/MOL
REMARK 924 INTRA-LIGAND FREE ENERGY PREDICTED BY IDOCK:   -1.09 KCAL/MOL
REMARK 927      BINDING AFFINITY PREDICTED BY RF-SCORE:    0.00 PKD
ROOT
HETATM    1  C   UNL     1     -11.332   4.915  73.277  1.00  0.00    -0.327 C  
HETATM    2  N   UNL     1     -12.311   5.763  72.611  1.00  0.00    -0.475 NA 
HETATM    3  H   UNL     1     -13.313   5.624  72.738  1.00  0.00     0.000 HD 
ENDROOT
BRANCH   2   4
HETATM    4  C   UNL     1     -11.806   6.781  71.786  1.00  0.00    -0.330 A  
HETATM    5  C   UNL     1     -11.828   8.102  72.247  1.00  0.00    -0.441 A  
HETATM    6  C   UNL     1     -11.373   9.153  71.443  1.00  0.00    -0.414 A  
HETATM    7  C   UNL     1     -10.839   8.899  70.176  1.00  0.00    -0.251 A  
HETATM    8  C   UNL     1     -11.183   6.529  70.559  1.00  0.00    -0.401 A  
HETATM    9  C   UNL     1     -10.724   7.575  69.752  1.00  0.00    -0.249 A  
BRANCH   7  10
HETATM   10  C   UNL     1     -10.540  10.030  69.291  1.00  0.00    -0.249 C  
HETATM   11  C   UNL     1     -11.447  10.851  68.733  1.00  0.00    -0.376 C  
BRANCH  11  12
HETATM   12  C   UNL     1     -11.068  12.025  67.931  1.00  0.00    -0.289 A  
HETATM   13  C   UNL     1     -11.989  12.673  67.104  1.00  0.00    -0.326 A  
HETATM   14  C   UNL     1     -11.602  13.752  66.312  1.00  0.00    -0.369 A  
HETATM   15  C   UNL     1     -10.290  14.226  66.341  1.00  0.00    -0.286 A  
HETATM   16  C   UNL     1      -9.761  12.526  67.995  1.00  0.00    -0.215 A  
HETATM   17  C   UNL     1      -9.374  13.615  67.200  1.00  0.00    -0.240 A  
BRANCH  15  18
HETATM   18  O   UNL     1      -9.810  15.263  65.578  1.00  0.00    -0.341 OA 
BRANCH  18  19
HETATM   19  C   UNL     1     -10.341  16.544  65.922  1.00  0.00    -0.350 C  
BRANCH  19  20
HETATM   20  C   UNL     1      -9.814  17.027  67.262  1.00  0.00    -0.260 C  
BRANCH  20  21
HETATM   21  O   UNL     1     -10.931  17.094  68.153  1.00  0.00    -0.361 OA 
BRANCH  21  22
HETATM   22  C   UNL     1     -10.684  16.406  69.375  1.00  0.00    -0.324 C  
BRANCH  22  23
HETATM   23  C   UNL     1     -11.875  15.509  69.696  1.00  0.00    -0.366 C  
BRANCH  23  24
HETATM   24  O   UNL     1     -11.772  15.070  71.050  1.00  0.00    -0.292 OA 
BRANCH  24  25
HETATM   25  C   UNL     1     -11.994  16.138  71.970  1.00  0.00    -0.526 C  
HETATM   26  C   UNL     1     -12.144  15.567  73.368  1.00  0.00    -0.495 C  
HETATM   27  F   UNL     1     -12.356  16.581  74.249  1.00  0.00    -0.564 F  
ENDBRANCH  24  25
ENDBRANCH  23  24
ENDBRANCH  22  23
ENDBRANCH  21  22
ENDBRANCH  20  21
ENDBRANCH  19  20
ENDBRANCH  18  19
ENDBRANCH  15  18
ENDBRANCH  11  12
ENDBRANCH   7  10
ENDBRANCH   2   4
TORSDOF 11
ENDMDL
MODEL       18
REMARK 921   NORMALIZED FREE ENERGY PREDICTED BY IDOCK:   -5.55 KCAL/MOL
REMARK 922        TOTAL FREE ENERGY PREDICTED BY IDOCK:  -10.20 KCAL/MOL
REMARK 923 INTER-LIGAND FREE ENERGY PREDICTED BY IDOCK:   -9.34 KCAL/MOL
REMARK 924 INTRA-LIGAND FREE ENERGY PREDICTED BY IDOCK:   -0.86 KCAL/MOL
REMARK 927      BINDING AFFINITY PREDICTED BY RF-SCORE:    0.00 PKD
ROOT
HETATM    1  C   UNL     1     -11.973   6.392  72.038  1.00  0.00    -0.326 C  
HETATM    2  N   UNL     1     -12.313   7.685  72.616  1.00  0.00    -0.555 NA 
HETATM    3  H   UNL     1     -12.625   7.774  73.583  1.00  0.00     0.000 HD 
ENDROOT
BRANCH   2   4
HETATM    4  C   UNL     1     -12.191   8.803  71.776  1.00  0.00    -0.349 A  
HETATM    5  C   UNL     1     -11.240   8.779  70.748  1.00  0.00    -0.309 A  
HETATM    6  C   UNL     1     -11.055   9.886  69.912  1.00  0.00    -0.318 A  
HETATM    7  C   UNL     1     -11.853  11.025  70.054  1.00  0.00    -0.435 A  
HETATM    8  C   UNL     1     -13.045   9.908  71.847  1.00  0.00    -0.559 A  
HETATM    9  C   UNL     1     -12.868  11.016  71.012  1.00  0.00    -0.442 A  
BRANCH   7  10
HETATM   10  C   UNL     1     -11.516  12.229  69.287  1.00  0.00    -0.352 C  
HETATM   11  C   UNL     1     -11.489  12.324  67.947  1.00  0.00    -0.390 C  
BRANCH  11  12
HETATM   12  C   UNL     1     -11.234  13.592  67.245  1.00  0.00    -0.329 A  
HETATM   13  C   UNL     1     -11.341  13.693  65.856  1.00  0.00    -0.317 A  
HETATM   14  C   UNL     1     -11.048  14.888  65.202  1.00  0.00    -0.399 A  
HETATM   15  C   UNL     1     -10.660  16.020  65.920  1.00  0.00    -0.328 A  
HETATM   16  C   UNL     1     -10.887  14.739  67.972  1.00  0.00    -0.261 A  
HETATM   17  C   UNL     1     -10.596  15.942  67.313  1.00  0.00    -0.314 A  
BRANCH  15  18
HETATM   18  O   UNL     1     -10.325  17.230  65.363  1.00  0.00    -0.626 OA 
BRANCH  18  19
HETATM   19  C   UNL     1      -9.772  18.171  66.284  1.00  0.00    -0.276 C  
BRANCH  19  20
HETATM   20  C   UNL     1     -10.468  19.518  66.192  1.00  0.00    -0.518 C  
BRANCH  20  21
HETATM   21  O   UNL     1      -9.668  20.454  66.920  1.00  0.00    -0.428 OA 
BRANCH  21  22
HETATM   22  C   UNL     1      -8.728  19.807  67.773  1.00  0.00    -0.325 C  
BRANCH  22  23
HETATM   23  C   UNL     1      -7.350  20.426  67.563  1.00  0.00    -0.318 C  
BRANCH  23  24
HETATM   24  O   UNL     1      -6.483  19.445  66.998  1.00  0.00    -0.193 OA 
BRANCH  24  25
HETATM   25  C   UNL     1      -5.731  19.969  65.905  1.00  0.00    -0.171 C  
HETATM   26  C   UNL     1      -6.686  20.499  64.851  1.00  0.00    -0.225 C  
HETATM   27  F   UNL     1      -5.974  21.000  63.807  1.00  0.00    -0.273 F  
ENDBRANCH  24  25
ENDBRANCH  23  24
ENDBRANCH  22  23
ENDBRANCH  21  22
ENDBRANCH  20  21
ENDBRANCH  19  20
ENDBRANCH  18  19
ENDBRANCH  15  18
ENDBRANCH  11  12
ENDBRANCH   7  10
ENDBRANCH   2   4
TORSDOF 11
ENDMDL
MODEL       19
REMARK 921   NORMALIZED FREE ENERGY PREDICTED BY IDOCK:   -5.55 KCAL/MOL
REMARK 922        TOTAL FREE ENERGY PREDICTED BY IDOCK:  -10.19 KCAL/MOL
REMARK 923 INTER-LIGAND FREE ENERGY PREDICTED BY IDOCK:   -9.52 KCAL/MOL
REMARK 924 INTRA-LIGAND FREE ENERGY PREDICTED BY IDOCK:   -0.68 KCAL/MOL
REMARK 927      BINDING AFFINITY PREDICTED BY RF-SCORE:    0.00 PKD
ROOT
HETATM    1  C   UNL     1     -11.151   3.558  73.407  1.00  0.00    -0.191 C  
HETATM    2  N   UNL     1     -10.796   4.890  73.876  1.00  0.00    -0.300 NA 
HETATM    3  H   UNL     1     -10.463   5.052  74.826  1.00  0.00     0.000 HD 
ENDROOT
BRANCH   2   4
HETATM    4  C   UNL     1     -10.937   5.941  72.955  1.00  0.00    -0.268 A  
HETATM    5  C   UNL     1     -10.651   7.248  73.367  1.00  0.00    -0.435 A  
HETATM    6  C   UNL     1     -10.816   8.330  72.496  1.00  0.00    -0.421 A  
HETATM    7  C   UNL     1     -11.224   8.123  71.175  1.00  0.00    -0.289 A  
HETATM    8  C   UNL     1     -11.251   5.737  71.607  1.00  0.00    -0.258 A  
HETATM    9  C   UNL     1     -11.415   6.814  70.731  1.00  0.00    -0.392 A  
BRANCH   7  10
HETATM   10  C   UNL     1     -11.561   9.285  70.344  1.00  0.00    -0.215 C  
HETATM   11  C   UNL     1     -10.700   9.980  69.582  1.00  0.00    -0.282 C  
BRANCH  11  12
HETATM   12  C   UNL     1     -11.128  11.078  68.699  1.00  0.00    -0.294 A  
HETATM   13  C   UNL     1     -11.043  10.973  67.309  1.00  0.00    -0.359 A  
HETATM   14  C   UNL     1     -11.405  12.040  66.489  1.00  0.00    -0.413 A  
HETATM   15  C   UNL     1     -11.881  13.232  67.035  1.00  0.00    -0.390 A  
HETATM   16  C   UNL     1     -11.646  12.258  69.249  1.00  0.00    -0.383 A  
HETATM   17  C   UNL     1     -12.013  13.330  68.422  1.00  0.00    -0.336 A  
BRANCH  15  18
HETATM   18  O   UNL     1     -12.234  14.344  66.311  1.00  0.00    -0.412 OA 
BRANCH  18  19
HETATM   19  C   UNL     1     -11.155  14.956  65.603  1.00  0.00    -0.348 C  
BRANCH  19  20
HETATM   20  C   UNL     1     -11.638  15.672  64.354  1.00  0.00    -0.249 C  
BRANCH  20  21
HETATM   21  O   UNL     1     -11.173  17.021  64.438  1.00  0.00    -1.167 OA 
BRANCH  21  22
HETATM   22  C   UNL     1     -10.684  17.341  65.736  1.00  0.00    -0.131 C  
BRANCH  22  23
HETATM   23  C   UNL     1     -10.537  18.854  65.860  1.00  0.00    -0.373 C  
BRANCH  23  24
HETATM   24  O   UNL     1     -10.834  19.239  67.201  1.00  0.00    -0.475 OA 
BRANCH  24  25
HETATM   25  C   UNL     1      -9.956  20.264  67.664  1.00  0.00    -0.410 C  
HETATM   26  C   UNL     1      -8.625  20.143  66.945  1.00  0.00    -0.324 C  
HETATM   27  F   UNL     1      -7.786  21.118  67.383  1.00  0.00    -0.399 F  
ENDBRANCH  24  25
ENDBRANCH  23  24
ENDBRANCH  22  23
ENDBRANCH  21  22
ENDBRANCH  20  21
ENDBRANCH  19  20
ENDBRANCH  18  19
ENDBRANCH  15  18
ENDBRANCH  11  12
ENDBRANCH   7  10
ENDBRANCH   2   4
TORSDOF 11
ENDMDL
MODEL       20
REMARK 921   NORMALIZED FREE ENERGY PREDICTED BY IDOCK:   -5.54 KCAL/MOL
REMARK 922        TOTAL FREE ENERGY PREDICTED BY IDOCK:  -10.18 KCAL/MOL
REMARK 923 INTER-LIGAND FREE ENERGY PREDICTED BY IDOCK:   -8.55 KCAL/MOL
REMARK 924 INTRA-LIGAND FREE ENERGY PREDICTED BY IDOCK:   -1.64 KCAL/MOL
REMARK 927      BINDING AFFINITY PREDICTED BY RF-SCORE:    0.00 PKD
ROOT
HETATM    1  C   UNL     1      -9.746   5.437  73.939  1.00  0.00    -0.157 C  
HETATM    2  N   UNL     1     -10.599   6.598  74.152  1.00  0.00    -0.452 NA 
HETATM    3  H   UNL     1     -11.164   6.699  74.995  1.00  0.00     0.000 HD 
ENDROOT
BRANCH   2   4
HETATM    4  C   UNL     1     -10.605   7.570  73.140  1.00  0.00    -0.388 A  
HETATM    5  C   UNL     1     -11.822   8.150  72.762  1.00  0.00    -0.296 A  
HETATM    6  C   UNL     1     -11.881   9.093  71.730  1.00  0.00    -0.453 A  
HETATM    7  C   UNL     1     -10.715   9.516  71.085  1.00  0.00    -0.408 A  
HETATM    8  C   UNL     1      -9.436   8.069  72.554  1.00  0.00    -0.297 A  
HETATM    9  C   UNL     1      -9.489   9.014  71.524  1.00  0.00    -0.316 A  
BRANCH   7  10
HETATM   10  C   UNL     1     -10.828  10.364  69.894  1.00  0.00    -0.353 C  
HETATM   11  C   UNL     1     -11.785  11.281  69.672  1.00  0.00    -0.420 C  
BRANCH  11  12
HETATM   12  C   UNL     1     -11.781  12.164  68.495  1.00  0.00    -0.382 A  
HETATM   13  C   UNL     1     -12.096  13.521  68.598  1.00  0.00    -0.303 A  
HETATM   14  C   UNL     1     -12.137  14.334  67.467  1.00  0.00    -0.347 A  
HETATM   15  C   UNL     1     -11.845  13.816  66.204  1.00  0.00    -0.398 A  
HETATM   16  C   UNL     1     -11.446  11.652  67.235  1.00  0.00    -0.350 A  
HETATM   17  C   UNL     1     -11.485  12.471  66.097  1.00  0.00    -0.426 A  
BRANCH  15  18
HETATM   18  O   UNL     1     -11.887  14.530  65.032  1.00  0.00    -0.372 OA 
BRANCH  18  19
HETATM   19  C   UNL     1     -10.730  15.331  64.787  1.00  0.00    -0.317 C  
BRANCH  19  20
HETATM   20  C   UNL     1     -11.030  16.811  64.949  1.00  0.00    -0.087 C  
BRANCH  20  21
HETATM   21  O   UNL     1      -9.925  17.389  65.648  1.00  0.00    -0.559 OA 
BRANCH  21  22
HETATM   22  C   UNL     1     -10.346  18.227  66.719  1.00  0.00    -0.384 C  
BRANCH  22  23
HETATM   23  C   UNL     1     -10.060  17.530  68.045  1.00  0.00    -0.332 C  
BRANCH  23  24
HETATM   24  O   UNL     1      -8.860  16.769  67.918  1.00  0.00    -0.211 OA 
BRANCH  24  25
HETATM   25  C   UNL     1      -8.949  15.521  68.603  1.00  0.00    -0.194 C  
HETATM   26  C   UNL     1      -8.512  14.407  67.670  1.00  0.00    -0.185 C  
HETATM   27  F   UNL     1      -8.596  13.216  68.320  1.00  0.00    -0.160 F  
ENDBRANCH  24  25
ENDBRANCH  23  24
ENDBRANCH  22  23
ENDBRANCH  21  22
ENDBRANCH  20  21
ENDBRANCH  19  20
ENDBRANCH  18  19
ENDBRANCH  15  18
ENDBRANCH  11  12
ENDBRANCH   7  10
ENDBRANCH   2   4
TORSDOF 11
ENDMDL
MODEL       21
REMARK 921   NORMALIZED FREE ENERGY PREDICTED BY IDOCK:   -5.52 KCAL/MOL
REMARK 922        TOTAL FREE ENERGY PREDICTED BY IDOCK:  -10.15 KCAL/MOL
REMARK 923 INTER-LIGAND FREE ENERGY PREDICTED BY IDOCK:   -9.24 KCAL/MOL
REMARK 924 INTRA-LIGAND FREE ENERGY PREDICTED BY IDOCK:   -0.90 KCAL/MOL
REMARK 927      BINDING AFFINITY PREDICTED BY RF-SCORE:    0.00 PKD
ROOT
HETATM    1  C   UNL     1     -10.472   3.217  73.022  1.00  0.00    -0.163 C  
HETATM    2  N   UNL     1     -10.888   4.335  73.857  1.00  0.00    -0.258 NA 
HETATM    3  H   UNL     1     -11.087   4.217  74.850  1.00  0.00     0.000 HD 
ENDROOT
BRANCH   2   4
HETATM    4  C   UNL     1     -11.004   5.584  73.226  1.00  0.00    -0.292 A  
HETATM    5  C   UNL     1     -11.907   5.728  72.166  1.00  0.00    -0.172 A  
HETATM    6  C   UNL     1     -12.025   6.942  71.481  1.00  0.00    -0.386 A  
HETATM    7  C   UNL     1     -11.278   8.057  71.875  1.00  0.00    -0.335 A  
HETATM    8  C   UNL     1     -10.333   6.728  73.670  1.00  0.00    -0.372 A  
HETATM    9  C   UNL     1     -10.450   7.946  72.992  1.00  0.00    -0.410 A  
BRANCH   7  10
HETATM   10  C   UNL     1     -11.290   9.256  71.030  1.00  0.00    -0.390 C  
HETATM   11  C   UNL     1     -12.213  10.232  71.066  1.00  0.00    -0.487 C  
BRANCH  11  12
HETATM   12  C   UNL     1     -12.108  11.455  70.253  1.00  0.00    -0.459 A  
HETATM   13  C   UNL     1     -12.371  12.716  70.793  1.00  0.00    -0.372 A  
HETATM   14  C   UNL     1     -12.317  13.859  69.998  1.00  0.00    -0.378 A  
HETATM   15  C   UNL     1     -11.979  13.774  68.647  1.00  0.00    -0.366 A  
HETATM   16  C   UNL     1     -11.727  11.371  68.907  1.00  0.00    -0.409 A  
HETATM   17  C   UNL     1     -11.670  12.523  68.109  1.00  0.00    -0.400 A  
BRANCH  15  18
HETATM   18  O   UNL     1     -11.927  14.838  67.780  1.00  0.00    -0.334 OA 
BRANCH  18  19
HETATM   19  C   UNL     1     -11.283  15.999  68.308  1.00  0.00    -0.350 C  
BRANCH  19  20
HETATM   20  C   UNL     1      -9.773  15.909  68.180  1.00  0.00    -0.212 C  
BRANCH  20  21
HETATM   21  O   UNL     1      -9.217  16.858  69.093  1.00  0.00    -0.219 OA 
BRANCH  21  22
HETATM   22  C   UNL     1      -8.036  17.468  68.580  1.00  0.00    -0.268 C  
BRANCH  22  23
HETATM   23  C   UNL     1      -8.178  18.984  68.661  1.00  0.00    -0.364 C  
BRANCH  23  24
HETATM   24  O   UNL     1      -9.564  19.317  68.703  1.00  0.00    -0.371 OA 
BRANCH  24  25
HETATM   25  C   UNL     1      -9.956  20.097  67.575  1.00  0.00    -0.430 C  
HETATM   26  C   UNL     1     -10.472  19.175  66.485  1.00  0.00    -0.448 C  
HETATM   27  F   UNL     1     -10.846  19.914  65.408  1.00  0.00    -0.600 F  
ENDBRANCH  24  25
ENDBRANCH  23  24
ENDBRANCH  22  23
ENDBRANCH  21  22
ENDBRANCH  20  21
ENDBRANCH  19  20
ENDBRANCH  18  19
ENDBRANCH  15  18
ENDBRANCH  11  12
ENDBRANCH   7  10
ENDBRANCH   2   4
TORSDOF 11
ENDMDL
MODEL       22
REMARK 921   NORMALIZED FREE ENERGY PREDICTED BY IDOCK:   -5.52 KCAL/MOL
REMARK 922        TOTAL FREE ENERGY PREDICTED BY IDOCK:  -10.14 KCAL/MOL
REMARK 923 INTER-LIGAND FREE ENERGY PREDICTED BY IDOCK:   -8.93 KCAL/MOL
REMARK 924 INTRA-LIGAND FREE ENERGY PREDICTED BY IDOCK:   -1.22 KCAL/MOL
REMARK 927      BINDING AFFINITY PREDICTED BY RF-SCORE:    0.00 PKD
ROOT
HETATM    1  C   UNL     1      -9.638   5.258  73.855  1.00  0.00    -0.141 C  
HETATM    2  N   UNL     1     -10.538   6.369  74.129  1.00  0.00    -0.432 NA 
HETATM    3  H   UNL     1     -11.102   6.404  74.978  1.00  0.00     0.000 HD 
ENDROOT
BRANCH   2   4
HETATM    4  C   UNL     1     -10.590   7.390  73.167  1.00  0.00    -0.374 A  
HETATM    5  C   UNL     1     -11.838   7.878  72.762  1.00  0.00    -0.287 A  
HETATM    6  C   UNL     1     -11.939   8.866  71.776  1.00  0.00    -0.429 A  
HETATM    7  C   UNL     1     -10.790   9.426  71.209  1.00  0.00    -0.431 A  
HETATM    8  C   UNL     1      -9.448   8.023  72.663  1.00  0.00    -0.317 A  
HETATM    9  C   UNL     1      -9.543   9.013  71.680  1.00  0.00    -0.319 A  
BRANCH   7  10
HETATM   10  C   UNL     1     -10.930  10.323  70.057  1.00  0.00    -0.371 C  
HETATM   11  C   UNL     1     -10.652  10.010  68.781  1.00  0.00    -0.241 C  
BRANCH  11  12
HETATM   12  C   UNL     1     -10.908  10.932  67.662  1.00  0.00    -0.317 A  
HETATM   13  C   UNL     1     -10.425  10.676  66.378  1.00  0.00    -0.276 A  
HETATM   14  C   UNL     1     -10.633  11.583  65.341  1.00  0.00    -0.336 A  
HETATM   15  C   UNL     1     -11.347  12.763  65.556  1.00  0.00    -0.312 A  
HETATM   16  C   UNL     1     -11.663  12.095  67.871  1.00  0.00    -0.403 A  
HETATM   17  C   UNL     1     -11.874  13.006  66.827  1.00  0.00    -0.451 A  
BRANCH  15  18
HETATM   18  O   UNL     1     -11.578  13.728  64.607  1.00  0.00    -0.349 OA 
BRANCH  18  19
HETATM   19  C   UNL     1     -10.732  14.874  64.712  1.00  0.00    -0.341 C  
BRANCH  19  20
HETATM   20  C   UNL     1     -11.504  16.162  64.490  1.00  0.00    -0.230 C  
BRANCH  20  21
HETATM   21  O   UNL     1     -10.815  17.193  65.201  1.00  0.00    -0.626 OA 
BRANCH  21  22
HETATM   22  C   UNL     1     -10.364  16.754  66.478  1.00  0.00    -0.301 C  
BRANCH  22  23
HETATM   23  C   UNL     1     -10.783  17.770  67.536  1.00  0.00    -0.307 C  
BRANCH  23  24
HETATM   24  O   UNL     1     -10.612  17.190  68.828  1.00  0.00    -0.343 OA 
BRANCH  24  25
HETATM   25  C   UNL     1     -11.274  15.931  68.934  1.00  0.00    -0.343 C  
HETATM   26  C   UNL     1     -11.093  15.389  70.340  1.00  0.00    -0.328 C  
HETATM   27  F   UNL     1     -11.722  14.189  70.446  1.00  0.00    -0.321 F  
ENDBRANCH  24  25
ENDBRANCH  23  24
ENDBRANCH  22  23
ENDBRANCH  21  22
ENDBRANCH  20  21
ENDBRANCH  19  20
ENDBRANCH  18  19
ENDBRANCH  15  18
ENDBRANCH  11  12
ENDBRANCH   7  10
ENDBRANCH   2   4
TORSDOF 11
ENDMDL
MODEL       23
REMARK 921   NORMALIZED FREE ENERGY PREDICTED BY IDOCK:   -5.50 KCAL/MOL
REMARK 922        TOTAL FREE ENERGY PREDICTED BY IDOCK:  -10.11 KCAL/MOL
REMARK 923 INTER-LIGAND FREE ENERGY PREDICTED BY IDOCK:   -8.82 KCAL/MOL
REMARK 924 INTRA-LIGAND FREE ENERGY PREDICTED BY IDOCK:   -1.29 KCAL/MOL
REMARK 927      BINDING AFFINITY PREDICTED BY RF-SCORE:    0.00 PKD
ROOT
HETATM    1  C   UNL     1      -9.839  20.186  66.484  1.00  0.00    -0.446 C  
HETATM    2  N   UNL     1      -9.453  18.912  65.895  1.00  0.00    -0.423 NA 
HETATM    3  H   UNL     1      -8.801  18.859  65.113  1.00  0.00     0.000 HD 
ENDROOT
BRANCH   2   4
HETATM    4  C   UNL     1     -10.023  17.759  66.457  1.00  0.00    -0.346 A  
HETATM    5  C   UNL     1     -10.494  17.807  67.775  1.00  0.00    -0.402 A  
HETATM    6  C   UNL     1     -11.033  16.671  68.389  1.00  0.00    -0.345 A  
HETATM    7  C   UNL     1     -11.159  15.472  67.681  1.00  0.00    -0.311 A  
HETATM    8  C   UNL     1     -10.242  16.583  65.731  1.00  0.00    -0.350 A  
HETATM    9  C   UNL     1     -10.783  15.446  66.338  1.00  0.00    -0.311 A  
BRANCH   7  10
HETATM   10  C   UNL     1     -11.557  14.259  68.403  1.00  0.00    -0.354 C  
HETATM   11  C   UNL     1     -11.721  14.155  69.733  1.00  0.00    -0.370 C  
BRANCH  11  12
HETATM   12  C   UNL     1     -12.216  12.929  70.380  1.00  0.00    -0.381 A  
HETATM   13  C   UNL     1     -13.048  12.978  71.500  1.00  0.00    -0.400 A  
HETATM   14  C   UNL     1     -13.467  11.808  72.131  1.00  0.00    -0.273 A  
HETATM   15  C   UNL     1     -13.081  10.558  71.647  1.00  0.00    -0.446 A  
HETATM   16  C   UNL     1     -11.863  11.674  69.866  1.00  0.00    -0.434 A  
HETATM   17  C   UNL     1     -12.287  10.497  70.499  1.00  0.00    -0.432 A  
BRANCH  15  18
HETATM   18  O   UNL     1     -13.420   9.354  72.216  1.00  0.00    -0.434 OA 
BRANCH  18  19
HETATM   19  C   UNL     1     -12.347   8.415  72.295  1.00  0.00    -0.376 C  
BRANCH  19  20
HETATM   20  C   UNL     1     -12.702   7.101  71.621  1.00  0.00    -0.379 C  
BRANCH  20  21
HETATM   21  O   UNL     1     -11.471   6.465  71.268  1.00  0.00    -0.295 OA 
BRANCH  21  22
HETATM   22  C   UNL     1     -11.296   6.382  69.857  1.00  0.00    -0.434 C  
BRANCH  22  23
HETATM   23  C   UNL     1     -10.210   7.364  69.427  1.00  0.00    -0.201 C  
BRANCH  23  24
HETATM   24  O   UNL     1      -9.364   7.635  70.543  1.00  0.00    -0.163 OA 
BRANCH  24  25
HETATM   25  C   UNL     1      -9.004   9.014  70.612  1.00  0.00    -0.220 C  
HETATM   26  C   UNL     1      -8.846   9.559  69.204  1.00  0.00    -0.147 C  
HETATM   27  F   UNL     1      -8.503  10.873  69.265  1.00  0.00    -0.151 F  
ENDBRANCH  24  25
ENDBRANCH  23  24
ENDBRANCH  22  23
ENDBRANCH  21  22
ENDBRANCH  20  21
ENDBRANCH  19  20
ENDBRANCH  18  19
ENDBRANCH  15  18
ENDBRANCH  11  12
ENDBRANCH   7  10
ENDBRANCH   2   4
TORSDOF 11
ENDMDL
MODEL       24
REMARK 921   NORMALIZED FREE ENERGY PREDICTED BY IDOCK:   -5.49 KCAL/MOL
REMARK 922        TOTAL FREE ENERGY PREDICTED BY IDOCK:  -10.09 KCAL/MOL
REMARK 923 INTER-LIGAND FREE ENERGY PREDICTED BY IDOCK:   -9.13 KCAL/MOL
REMARK 924 INTRA-LIGAND FREE ENERGY PREDICTED BY IDOCK:   -0.96 KCAL/MOL
REMARK 927      BINDING AFFINITY PREDICTED BY RF-SCORE:    0.00 PKD
ROOT
HETATM    1  C   UNL     1      -5.464  20.848  63.605  1.00  0.00    -0.244 C  
HETATM    2  N   UNL     1      -6.236  21.133  64.806  1.00  0.00    -0.417 NA 
HETATM    3  H   UNL     1      -6.315  22.078  65.180  1.00  0.00     0.000 HD 
ENDROOT
BRANCH   2   4
HETATM    4  C   UNL     1      -6.866  20.041  65.425  1.00  0.00    -0.305 A  
HETATM    5  C   UNL     1      -6.234  18.792  65.405  1.00  0.00    -0.317 A  
HETATM    6  C   UNL     1      -6.843  17.668  65.973  1.00  0.00    -0.308 A  
HETATM    7  C   UNL     1      -8.078  17.778  66.619  1.00  0.00    -0.288 A  
HETATM    8  C   UNL     1      -8.054  20.159  66.154  1.00  0.00    -0.246 A  
HETATM    9  C   UNL     1      -8.666  19.039  66.727  1.00  0.00    -0.318 A  
BRANCH   7  10
HETATM   10  C   UNL     1      -8.771  16.557  67.042  1.00  0.00    -0.221 C  
HETATM   11  C   UNL     1      -9.681  15.881  66.320  1.00  0.00    -0.332 C  
BRANCH  11  12
HETATM   12  C   UNL     1     -10.265  14.607  66.770  1.00  0.00    -0.268 A  
HETATM   13  C   UNL     1     -11.298  13.986  66.064  1.00  0.00    -0.328 A  
HETATM   14  C   UNL     1     -11.875  12.807  66.531  1.00  0.00    -0.471 A  
HETATM   15  C   UNL     1     -11.421  12.205  67.705  1.00  0.00    -0.332 A  
HETATM   16  C   UNL     1      -9.779  13.982  67.927  1.00  0.00    -0.229 A  
HETATM   17  C   UNL     1     -10.358  12.794  68.394  1.00  0.00    -0.248 A  
BRANCH  15  18
HETATM   18  O   UNL     1     -11.945  11.061  68.257  1.00  0.00    -0.593 OA 
BRANCH  18  19
HETATM   19  C   UNL     1     -11.242  10.585  69.406  1.00  0.00    -0.269 C  
BRANCH  19  20
HETATM   20  C   UNL     1     -12.152  10.485  70.617  1.00  0.00    -0.356 C  
BRANCH  20  21
HETATM   21  O   UNL     1     -12.475  11.821  71.011  1.00  0.00    -0.372 OA 
BRANCH  21  22
HETATM   22  C   UNL     1     -13.381  11.852  72.110  1.00  0.00    -0.256 C  
BRANCH  22  23
HETATM   23  C   UNL     1     -13.609  13.300  72.531  1.00  0.00    -0.532 C  
BRANCH  23  24
HETATM   24  O   UNL     1     -13.609  14.126  71.368  1.00  0.00    -0.342 OA 
BRANCH  24  25
HETATM   25  C   UNL     1     -13.314  15.485  71.684  1.00  0.00    -0.498 C  
HETATM   26  C   UNL     1     -12.001  15.548  72.442  1.00  0.00    -0.451 C  
HETATM   27  F   UNL     1     -11.716  16.841  72.746  1.00  0.00    -0.592 F  
ENDBRANCH  24  25
ENDBRANCH  23  24
ENDBRANCH  22  23
ENDBRANCH  21  22
ENDBRANCH  20  21
ENDBRANCH  19  20
ENDBRANCH  18  19
ENDBRANCH  15  18
ENDBRANCH  11  12
ENDBRANCH   7  10
ENDBRANCH   2   4
TORSDOF 11
ENDMDL
MODEL       25
REMARK 921   NORMALIZED FREE ENERGY PREDICTED BY IDOCK:   -5.49 KCAL/MOL
REMARK 922        TOTAL FREE ENERGY PREDICTED BY IDOCK:  -10.09 KCAL/MOL
REMARK 923 INTER-LIGAND FREE ENERGY PREDICTED BY IDOCK:   -9.16 KCAL/MOL
REMARK 924 INTRA-LIGAND FREE ENERGY PREDICTED BY IDOCK:   -0.93 KCAL/MOL
REMARK 927      BINDING AFFINITY PREDICTED BY RF-SCORE:    0.00 PKD
ROOT
HETATM    1  C   UNL     1     -10.353  19.800  66.353  1.00  0.00    -0.508 C  
HETATM    2  N   UNL     1      -9.952  18.549  65.726  1.00  0.00    -0.489 NA 
HETATM    3  H   UNL     1      -9.382  18.533  64.880  1.00  0.00     0.000 HD 
ENDROOT
BRANCH   2   4
HETATM    4  C   UNL     1     -10.389  17.366  66.342  1.00  0.00    -0.317 A  
HETATM    5  C   UNL     1     -10.733  17.394  67.698  1.00  0.00    -0.310 A  
HETATM    6  C   UNL     1     -11.135  16.231  68.364  1.00  0.00    -0.362 A  
HETATM    7  C   UNL     1     -11.251  15.020  67.673  1.00  0.00    -0.331 A  
HETATM    8  C   UNL     1     -10.600  16.173  65.641  1.00  0.00    -0.377 A  
HETATM    9  C   UNL     1     -11.004  15.008  66.300  1.00  0.00    -0.338 A  
BRANCH   7  10
HETATM   10  C   UNL     1     -11.498  13.789  68.432  1.00  0.00    -0.351 C  
HETATM   11  C   UNL     1     -11.817  13.722  69.735  1.00  0.00    -0.394 C  
BRANCH  11  12
HETATM   12  C   UNL     1     -12.145  12.455  70.408  1.00  0.00    -0.381 A  
HETATM   13  C   UNL     1     -13.122  12.387  71.404  1.00  0.00    -0.299 A  
HETATM   14  C   UNL     1     -13.386  11.190  72.067  1.00  0.00    -0.384 A  
HETATM   15  C   UNL     1     -12.693  10.024  71.738  1.00  0.00    -0.428 A  
HETATM   16  C   UNL     1     -11.479  11.276  70.046  1.00  0.00    -0.359 A  
HETATM   17  C   UNL     1     -11.747  10.071  70.712  1.00  0.00    -0.437 A  
BRANCH  15  18
HETATM   18  O   UNL     1     -12.864   8.808  72.354  1.00  0.00    -0.385 OA 
BRANCH  18  19
HETATM   19  C   UNL     1     -13.075   7.717  71.456  1.00  0.00    -0.338 C  
BRANCH  19  20
HETATM   20  C   UNL     1     -12.262   6.498  71.855  1.00  0.00    -0.324 C  
BRANCH  20  21
HETATM   21  O   UNL     1     -11.076   6.505  71.057  1.00  0.00    -0.259 OA 
BRANCH  21  22
HETATM   22  C   UNL     1     -11.349   6.229  69.687  1.00  0.00    -0.422 C  
BRANCH  22  23
HETATM   23  C   UNL     1     -10.223   5.377  69.111  1.00  0.00    -0.232 C  
BRANCH  23  24
HETATM   24  O   UNL     1     -10.388   5.287  67.697  1.00  0.00    -0.185 OA 
BRANCH  24  25
HETATM   25  C   UNL     1     -10.901   6.499  67.146  1.00  0.00    -0.401 C  
HETATM   26  C   UNL     1      -9.745   7.351  66.653  1.00  0.00    -0.194 C  
HETATM   27  F   UNL     1     -10.229   8.507  66.127  1.00  0.00    -0.352 F  
ENDBRANCH  24  25
ENDBRANCH  23  24
ENDBRANCH  22  23
ENDBRANCH  21  22
ENDBRANCH  20  21
ENDBRANCH  19  20
ENDBRANCH  18  19
ENDBRANCH  15  18
ENDBRANCH  11  12
ENDBRANCH   7  10
ENDBRANCH   2   4
TORSDOF 11
ENDMDL
MODEL       26
REMARK 921   NORMALIZED FREE ENERGY PREDICTED BY IDOCK:   -5.48 KCAL/MOL
REMARK 922        TOTAL FREE ENERGY PREDICTED BY IDOCK:  -10.08 KCAL/MOL
REMARK 923 INTER-LIGAND FREE ENERGY PREDICTED BY IDOCK:   -9.48 KCAL/MOL
REMARK 924 INTRA-LIGAND FREE ENERGY PREDICTED BY IDOCK:   -0.60 KCAL/MOL
REMARK 927      BINDING AFFINITY PREDICTED BY RF-SCORE:    0.00 PKD
ROOT
HETATM    1  C   UNL     1     -10.531   3.279  73.487  1.00  0.00    -0.166 C  
HETATM    2  N   UNL     1     -10.658   4.543  74.199  1.00  0.00    -0.267 NA 
HETATM    3  H   UNL     1     -10.577   4.595  75.215  1.00  0.00     0.000 HD 
ENDROOT
BRANCH   2   4
HETATM    4  C   UNL     1     -10.898   5.685  73.419  1.00  0.00    -0.275 A  
HETATM    5  C   UNL     1     -11.863   5.625  72.407  1.00  0.00    -0.181 A  
HETATM    6  C   UNL     1     -12.107   6.726  71.579  1.00  0.00    -0.410 A  
HETATM    7  C   UNL     1     -11.425   7.931  71.777  1.00  0.00    -0.313 A  
HETATM    8  C   UNL     1     -10.292   6.921  73.669  1.00  0.00    -0.397 A  
HETATM    9  C   UNL     1     -10.534   8.026  72.847  1.00  0.00    -0.402 A  
BRANCH   7  10
HETATM   10  C   UNL     1     -11.570   9.002  70.785  1.00  0.00    -0.313 C  
HETATM   11  C   UNL     1     -11.914  10.273  71.049  1.00  0.00    -0.483 C  
BRANCH  11  12
HETATM   12  C   UNL     1     -11.947  11.319  70.013  1.00  0.00    -0.447 A  
HETATM   13  C   UNL     1     -11.793  11.012  68.659  1.00  0.00    -0.318 A  
HETATM   14  C   UNL     1     -11.776  12.018  67.695  1.00  0.00    -0.365 A  
HETATM   15  C   UNL     1     -11.931  13.357  68.057  1.00  0.00    -0.322 A  
HETATM   16  C   UNL     1     -12.146  12.658  70.375  1.00  0.00    -0.381 A  
HETATM   17  C   UNL     1     -12.132  13.670  69.403  1.00  0.00    -0.364 A  
BRANCH  15  18
HETATM   18  O   UNL     1     -11.900  14.417  67.184  1.00  0.00    -0.388 OA 
BRANCH  18  19
HETATM   19  C   UNL     1     -12.523  14.162  65.924  1.00  0.00    -0.453 C  
BRANCH  19  20
HETATM   20  C   UNL     1     -11.567  14.403  64.769  1.00  0.00    -0.408 C  
BRANCH  20  21
HETATM   21  O   UNL     1     -11.047  15.725  64.922  1.00  0.00    -0.422 OA 
BRANCH  21  22
HETATM   22  C   UNL     1      -9.750  15.727  65.510  1.00  0.00    -0.220 C  
BRANCH  22  23
HETATM   23  C   UNL     1      -9.540  17.038  66.260  1.00  0.00    -0.267 C  
BRANCH  23  24
HETATM   24  O   UNL     1     -10.194  18.088  65.549  1.00  0.00    -0.556 OA 
BRANCH  24  25
HETATM   25  C   UNL     1     -10.523  19.182  66.404  1.00  0.00    -0.463 C  
HETATM   26  C   UNL     1     -10.273  18.781  67.846  1.00  0.00    -0.396 C  
HETATM   27  F   UNL     1     -10.585  19.820  68.664  1.00  0.00    -0.505 F  
ENDBRANCH  24  25
ENDBRANCH  23  24
ENDBRANCH  22  23
ENDBRANCH  21  22
ENDBRANCH  20  21
ENDBRANCH  19  20
ENDBRANCH  18  19
ENDBRANCH  15  18
ENDBRANCH  11  12
ENDBRANCH   7  10
ENDBRANCH   2   4
TORSDOF 11
ENDMDL
MODEL       27
REMARK 921   NORMALIZED FREE ENERGY PREDICTED BY IDOCK:   -5.43 KCAL/MOL
REMARK 922        TOTAL FREE ENERGY PREDICTED BY IDOCK:  -10.00 KCAL/MOL
REMARK 923 INTER-LIGAND FREE ENERGY PREDICTED BY IDOCK:   -8.18 KCAL/MOL
REMARK 924 INTRA-LIGAND FREE ENERGY PREDICTED BY IDOCK:   -1.83 KCAL/MOL
REMARK 927      BINDING AFFINITY PREDICTED BY RF-SCORE:    0.00 PKD
ROOT
HETATM    1  C   UNL     1     -12.327  13.371  63.360  1.00  0.00    -0.269 C  
HETATM    2  N   UNL     1     -12.565  14.022  64.640  1.00  0.00    -0.659 NA 
HETATM    3  H   UNL     1     -13.045  14.920  64.703  1.00  0.00     0.000 HD 
ENDROOT
BRANCH   2   4
HETATM    4  C   UNL     1     -12.102  13.352  65.784  1.00  0.00    -0.436 A  
HETATM    5  C   UNL     1     -11.479  12.107  65.636  1.00  0.00    -0.408 A  
HETATM    6  C   UNL     1     -11.038  11.385  66.750  1.00  0.00    -0.343 A  
HETATM    7  C   UNL     1     -11.165  11.917  68.038  1.00  0.00    -0.317 A  
HETATM    8  C   UNL     1     -12.137  13.914  67.064  1.00  0.00    -0.451 A  
HETATM    9  C   UNL     1     -11.695  13.199  68.182  1.00  0.00    -0.391 A  
BRANCH   7  10
HETATM   10  C   UNL     1     -10.861  11.064  69.192  1.00  0.00    -0.283 C  
HETATM   11  C   UNL     1     -11.765  10.430  69.958  1.00  0.00    -0.366 C  
BRANCH  11  12
HETATM   12  C   UNL     1     -11.382   9.513  71.044  1.00  0.00    -0.423 A  
HETATM   13  C   UNL     1     -10.048   9.340  71.419  1.00  0.00    -0.348 A  
HETATM   14  C   UNL     1      -9.697   8.431  72.414  1.00  0.00    -0.376 A  
HETATM   15  C   UNL     1     -10.672   7.684  73.076  1.00  0.00    -0.391 A  
HETATM   16  C   UNL     1     -12.367   8.796  71.737  1.00  0.00    -0.412 A  
HETATM   17  C   UNL     1     -12.013   7.883  72.740  1.00  0.00    -0.223 A  
BRANCH  15  18
HETATM   18  O   UNL     1     -10.421   6.746  74.048  1.00  0.00    -0.364 OA 
BRANCH  18  19
HETATM   19  C   UNL     1      -9.376   5.827  73.725  1.00  0.00    -0.138 C  
BRANCH  19  20
HETATM   20  C   UNL     1      -9.898   4.406  73.602  1.00  0.00    -0.129 C  
BRANCH  20  21
HETATM   21  O   UNL     1      -9.816   4.047  72.221  1.00  0.00    -0.145 OA 
BRANCH  21  22
HETATM   22  C   UNL     1      -8.885   4.857  71.510  1.00  0.00    -0.134 C  
BRANCH  22  23
HETATM   23  C   UNL     1      -9.498   5.278  70.179  1.00  0.00    -0.160 C  
BRANCH  23  24
HETATM   24  O   UNL     1     -10.908   5.423  70.345  1.00  0.00    -0.251 OA 
BRANCH  24  25
HETATM   25  C   UNL     1     -11.473   6.274  69.349  1.00  0.00    -0.278 C  
HETATM   26  C   UNL     1     -10.355   6.911  68.544  1.00  0.00    -0.186 C  
HETATM   27  F   UNL     1     -10.889   7.724  67.595  1.00  0.00    -0.297 F  
ENDBRANCH  24  25
ENDBRANCH  23  24
ENDBRANCH  22  23
ENDBRANCH  21  22
ENDBRANCH  20  21
ENDBRANCH  19  20
ENDBRANCH  18  19
ENDBRANCH  15  18
ENDBRANCH  11  12
ENDBRANCH   7  10
ENDBRANCH   2   4
TORSDOF 11
ENDMDL
MODEL       28
REMARK 921   NORMALIZED FREE ENERGY PREDICTED BY IDOCK:   -5.41 KCAL/MOL
REMARK 922        TOTAL FREE ENERGY PREDICTED BY IDOCK:   -9.96 KCAL/MOL
REMARK 923 INTER-LIGAND FREE ENERGY PREDICTED BY IDOCK:   -8.43 KCAL/MOL
REMARK 924 INTRA-LIGAND FREE ENERGY PREDICTED BY IDOCK:   -1.53 KCAL/MOL
REMARK 927      BINDING AFFINITY PREDICTED BY RF-SCORE:    0.00 PKD
ROOT
HETATM    1  C   UNL     1     -12.393  15.972  74.422  1.00  0.00    -0.577 C  
HETATM    2  N   UNL     1     -13.439  15.685  73.451  1.00  0.00    -0.649 NA 
HETATM    3  H   UNL     1     -14.410  15.949  73.617  1.00  0.00     0.000 HD 
ENDROOT
BRANCH   2   4
HETATM    4  C   UNL     1     -13.046  15.025  72.276  1.00  0.00    -0.358 A  
HETATM    5  C   UNL     1     -13.251  13.644  72.171  1.00  0.00    -0.541 A  
HETATM    6  C   UNL     1     -12.837  12.939  71.036  1.00  0.00    -0.268 A  
HETATM    7  C   UNL     1     -12.254  13.609  69.956  1.00  0.00    -0.395 A  
HETATM    8  C   UNL     1     -12.549  15.697  71.154  1.00  0.00    -0.511 A  
HETATM    9  C   UNL     1     -12.137  14.998  70.015  1.00  0.00    -0.382 A  
BRANCH   7  10
HETATM   10  C   UNL     1     -11.669  12.823  68.864  1.00  0.00    -0.370 C  
HETATM   11  C   UNL     1     -10.527  12.118  68.928  1.00  0.00    -0.142 C  
BRANCH  11  12
HETATM   12  C   UNL     1     -10.051  11.274  67.820  1.00  0.00    -0.199 A  
HETATM   13  C   UNL     1     -10.758  10.143  67.406  1.00  0.00    -0.336 A  
HETATM   14  C   UNL     1     -10.268   9.327  66.389  1.00  0.00    -0.298 A  
HETATM   15  C   UNL     1      -9.068   9.630  65.745  1.00  0.00    -0.185 A  
HETATM   16  C   UNL     1      -8.867  11.605  67.146  1.00  0.00    -0.172 A  
HETATM   17  C   UNL     1      -8.377  10.784  66.120  1.00  0.00    -0.166 A  
BRANCH  15  18
HETATM   18  O   UNL     1      -8.493   8.872  64.754  1.00  0.00    -0.167 OA 
BRANCH  18  19
HETATM   19  C   UNL     1      -7.750   9.623  63.792  1.00  0.00    -0.130 C  
BRANCH  19  20
HETATM   20  C   UNL     1      -8.579   9.924  62.556  1.00  0.00    -0.186 C  
BRANCH  20  21
HETATM   21  O   UNL     1      -9.039  11.272  62.677  1.00  0.00    -0.336 OA 
BRANCH  21  22
HETATM   22  C   UNL     1     -10.452  11.346  62.837  1.00  0.00    -0.027 C  
BRANCH  22  23
HETATM   23  C   UNL     1     -10.783  12.371  63.917  1.00  0.00    -0.426 C  
BRANCH  23  24
HETATM   24  O   UNL     1     -11.992  13.040  63.564  1.00  0.00    -0.514 OA 
BRANCH  24  25
HETATM   25  C   UNL     1     -12.272  14.127  64.444  1.00  0.00    -0.439 C  
HETATM   26  C   UNL     1     -11.234  14.153  65.551  1.00  0.00    -0.317 C  
HETATM   27  F   UNL     1     -11.498  15.187  66.393  1.00  0.00    -0.340 F  
ENDBRANCH  24  25
ENDBRANCH  23  24
ENDBRANCH  22  23
ENDBRANCH  21  22
ENDBRANCH  20  21
ENDBRANCH  19  20
ENDBRANCH  18  19
ENDBRANCH  15  18
ENDBRANCH  11  12
ENDBRANCH   7  10
ENDBRANCH   2   4
TORSDOF 11
ENDMDL
MODEL       29
REMARK 921   NORMALIZED FREE ENERGY PREDICTED BY IDOCK:   -5.39 KCAL/MOL
REMARK 922        TOTAL FREE ENERGY PREDICTED BY IDOCK:   -9.93 KCAL/MOL
REMARK 923 INTER-LIGAND FREE ENERGY PREDICTED BY IDOCK:   -8.92 KCAL/MOL
REMARK 924 INTRA-LIGAND FREE ENERGY PREDICTED BY IDOCK:   -1.01 KCAL/MOL
REMARK 927      BINDING AFFINITY PREDICTED BY RF-SCORE:    0.00 PKD
ROOT
HETATM    1  C   UNL     1      -9.499   1.593  68.691  1.00  0.00    -0.163 C  
HETATM    2  N   UNL     1      -9.132   2.801  67.967  1.00  0.00    -0.162 NA 
HETATM    3  H   UNL     1      -8.545   2.768  67.133  1.00  0.00     0.000 HD 
ENDROOT
BRANCH   2   4
HETATM    4  C   UNL     1      -9.624   4.015  68.473  1.00  0.00    -0.116 A  
HETATM    5  C   UNL     1      -9.499   4.280  69.842  1.00  0.00    -0.260 A  
HETATM    6  C   UNL     1     -10.011   5.458  70.397  1.00  0.00    -0.291 A  
HETATM    7  C   UNL     1     -10.616   6.422  69.585  1.00  0.00    -0.309 A  
HETATM    8  C   UNL     1     -10.144   5.026  67.659  1.00  0.00    -0.192 A  
HETATM    9  C   UNL     1     -10.655   6.207  68.207  1.00  0.00    -0.324 A  
BRANCH   7  10
HETATM   10  C   UNL     1     -11.300   7.555  70.217  1.00  0.00    -0.219 C  
HETATM   11  C   UNL     1     -10.973   8.850  70.070  1.00  0.00    -0.217 C  
BRANCH  11  12
HETATM   12  C   UNL     1     -11.765   9.942  70.659  1.00  0.00    -0.404 A  
HETATM   13  C   UNL     1     -11.663  11.254  70.191  1.00  0.00    -0.429 A  
HETATM   14  C   UNL     1     -12.382  12.285  70.792  1.00  0.00    -0.383 A  
HETATM   15  C   UNL     1     -13.237  12.029  71.864  1.00  0.00    -0.364 A  
HETATM   16  C   UNL     1     -12.656   9.675  71.707  1.00  0.00    -0.497 A  
HETATM   17  C   UNL     1     -13.381  10.713  72.309  1.00  0.00    -0.182 A  
BRANCH  15  18
HETATM   18  O   UNL     1     -13.963  12.982  72.537  1.00  0.00    -0.632 OA 
BRANCH  18  19
HETATM   19  C   UNL     1     -13.270  14.213  72.747  1.00  0.00    -0.509 C  
BRANCH  19  20
HETATM   20  C   UNL     1     -13.995  15.381  72.101  1.00  0.00    -0.549 C  
BRANCH  20  21
HETATM   21  O   UNL     1     -13.189  15.820  71.004  1.00  0.00    -0.547 OA 
BRANCH  21  22
HETATM   22  C   UNL     1     -11.809  15.899  71.350  1.00  0.00    -0.463 C  
BRANCH  22  23
HETATM   23  C   UNL     1     -10.967  15.782  70.084  1.00  0.00    -0.352 C  
BRANCH  23  24
HETATM   24  O   UNL     1     -11.827  15.501  68.981  1.00  0.00    -0.361 OA 
BRANCH  24  25
HETATM   25  C   UNL     1     -11.142  15.614  67.734  1.00  0.00    -0.311 C  
HETATM   26  C   UNL     1     -11.691  14.579  66.768  1.00  0.00    -0.377 C  
HETATM   27  F   UNL     1     -11.042  14.683  65.579  1.00  0.00    -0.305 F  
ENDBRANCH  24  25
ENDBRANCH  23  24
ENDBRANCH  22  23
ENDBRANCH  21  22
ENDBRANCH  20  21
ENDBRANCH  19  20
ENDBRANCH  18  19
ENDBRANCH  15  18
ENDBRANCH  11  12
ENDBRANCH   7  10
ENDBRANCH   2   4
TORSDOF 11
ENDMDL
MODEL       30
REMARK 921   NORMALIZED FREE ENERGY PREDICTED BY IDOCK:   -5.38 KCAL/MOL
REMARK 922        TOTAL FREE ENERGY PREDICTED BY IDOCK:   -9.91 KCAL/MOL
REMARK 923 INTER-LIGAND FREE ENERGY PREDICTED BY IDOCK:   -8.57 KCAL/MOL
REMARK 924 INTRA-LIGAND FREE ENERGY PREDICTED BY IDOCK:   -1.35 KCAL/MOL
REMARK 927      BINDING AFFINITY PREDICTED BY RF-SCORE:    0.00 PKD
ROOT
HETATM    1  C   UNL     1     -12.390  15.671  74.435  1.00  0.00    -0.652 C  
HETATM    2  N   UNL     1     -13.473  15.233  73.565  1.00  0.00    -0.616 NA 
HETATM    3  H   UNL     1     -14.445  15.249  73.872  1.00  0.00     0.000 HD 
ENDROOT
BRANCH   2   4
HETATM    4  C   UNL     1     -13.111  14.787  72.284  1.00  0.00    -0.356 A  
HETATM    5  C   UNL     1     -13.107  13.412  72.020  1.00  0.00    -0.473 A  
HETATM    6  C   UNL     1     -12.714  12.920  70.770  1.00  0.00    -0.229 A  
HETATM    7  C   UNL     1     -12.365  13.797  69.739  1.00  0.00    -0.311 A  
HETATM    8  C   UNL     1     -12.853  15.656  71.219  1.00  0.00    -0.550 A  
HETATM    9  C   UNL     1     -12.463  15.170  69.966  1.00  0.00    -0.316 A  
BRANCH   7  10
HETATM   10  C   UNL     1     -11.788  13.251  68.506  1.00  0.00    -0.384 C  
HETATM   11  C   UNL     1     -12.274  13.429  67.266  1.00  0.00    -0.282 C  
BRANCH  11  12
HETATM   12  C   UNL     1     -11.587  12.930  66.064  1.00  0.00    -0.424 A  
HETATM   13  C   UNL     1     -12.143  13.076  64.790  1.00  0.00    -0.465 A  
HETATM   14  C   UNL     1     -11.504  12.553  63.668  1.00  0.00    -0.568 A  
HETATM   15  C   UNL     1     -10.283  11.888  63.785  1.00  0.00    -0.413 A  
HETATM   16  C   UNL     1     -10.340  12.300  66.179  1.00  0.00    -0.269 A  
HETATM   17  C   UNL     1      -9.697  11.778  65.048  1.00  0.00    -0.212 A  
BRANCH  15  18
HETATM   18  O   UNL     1      -9.594  11.317  62.743  1.00  0.00    -0.342 OA 
BRANCH  18  19
HETATM   19  C   UNL     1      -8.502  10.487  63.141  1.00  0.00    -0.167 C  
BRANCH  19  20
HETATM   20  C   UNL     1      -8.654   9.070  62.616  1.00  0.00    -0.200 C  
BRANCH  20  21
HETATM   21  O   UNL     1      -8.033   8.201  63.566  1.00  0.00    -0.149 OA 
BRANCH  21  22
HETATM   22  C   UNL     1      -8.468   8.463  64.897  1.00  0.00    -0.122 C  
BRANCH  22  23
HETATM   23  C   UNL     1      -8.412   7.171  65.707  1.00  0.00    -0.146 C  
BRANCH  23  24
HETATM   24  O   UNL     1      -9.548   7.116  66.568  1.00  0.00    -0.177 OA 
BRANCH  24  25
HETATM   25  C   UNL     1     -10.156   8.397  66.725  1.00  0.00    -0.303 C  
HETATM   26  C   UNL     1     -10.263   8.720  68.204  1.00  0.00    -0.205 C  
HETATM   27  F   UNL     1     -10.842   9.940  68.358  1.00  0.00    -0.236 F  
ENDBRANCH  24  25
ENDBRANCH  23  24
ENDBRANCH  22  23
ENDBRANCH  21  22
ENDBRANCH  20  21
ENDBRANCH  19  20
ENDBRANCH  18  19
ENDBRANCH  15  18
ENDBRANCH  11  12
ENDBRANCH   7  10
ENDBRANCH   2   4
TORSDOF 11
ENDMDL
MODEL       31
REMARK 921   NORMALIZED FREE ENERGY PREDICTED BY IDOCK:   -5.37 KCAL/MOL
REMARK 922        TOTAL FREE ENERGY PREDICTED BY IDOCK:   -9.90 KCAL/MOL
REMARK 923 INTER-LIGAND FREE ENERGY PREDICTED BY IDOCK:   -9.12 KCAL/MOL
REMARK 924 INTRA-LIGAND FREE ENERGY PREDICTED BY IDOCK:   -0.78 KCAL/MOL
REMARK 927      BINDING AFFINITY PREDICTED BY RF-SCORE:    0.00 PKD
ROOT
HETATM    1  C   UNL     1     -10.451   2.234  72.615  1.00  0.00    -0.134 C  
HETATM    2  N   UNL     1      -9.872   3.247  73.486  1.00  0.00    -0.107 NA 
HETATM    3  H   UNL     1      -9.248   2.999  74.254  1.00  0.00     0.000 HD 
ENDROOT
BRANCH   2   4
HETATM    4  C   UNL     1     -10.216   4.581  73.217  1.00  0.00    -0.169 A  
HETATM    5  C   UNL     1     -10.766   4.902  71.970  1.00  0.00    -0.161 A  
HETATM    6  C   UNL     1     -11.087   6.224  71.643  1.00  0.00    -0.325 A  
HETATM    7  C   UNL     1     -10.910   7.250  72.576  1.00  0.00    -0.312 A  
HETATM    8  C   UNL     1     -10.134   5.598  74.173  1.00  0.00    -0.258 A  
HETATM    9  C   UNL     1     -10.455   6.921  73.854  1.00  0.00    -0.352 A  
BRANCH   7  10
HETATM   10  C   UNL     1     -11.083   8.642  72.145  1.00  0.00    -0.434 C  
HETATM   11  C   UNL     1     -12.196   9.161  71.601  1.00  0.00    -0.433 C  
BRANCH  11  12
HETATM   12  C   UNL     1     -12.330  10.592  71.279  1.00  0.00    -0.502 A  
HETATM   13  C   UNL     1     -11.656  11.165  70.199  1.00  0.00    -0.410 A  
HETATM   14  C   UNL     1     -11.753  12.530  69.938  1.00  0.00    -0.327 A  
HETATM   15  C   UNL     1     -12.544  13.356  70.739  1.00  0.00    -0.294 A  
HETATM   16  C   UNL     1     -13.159  11.411  72.058  1.00  0.00    -0.423 A  
HETATM   17  C   UNL     1     -13.259  12.784  71.793  1.00  0.00    -0.471 A  
BRANCH  15  18
HETATM   18  O   UNL     1     -12.679  14.713  70.577  1.00  0.00    -0.338 OA 
BRANCH  18  19
HETATM   19  C   UNL     1     -11.511  15.466  70.905  1.00  0.00    -0.361 C  
BRANCH  19  20
HETATM   20  C   UNL     1     -10.936  16.167  69.686  1.00  0.00    -0.346 C  
BRANCH  20  21
HETATM   21  O   UNL     1     -11.877  16.000  68.624  1.00  0.00    -0.367 OA 
BRANCH  21  22
HETATM   22  C   UNL     1     -11.248  15.619  67.404  1.00  0.00    -0.219 C  
BRANCH  22  23
HETATM   23  C   UNL     1     -11.719  14.222  67.012  1.00  0.00    -0.403 C  
BRANCH  23  24
HETATM   24  O   UNL     1     -12.478  14.311  65.807  1.00  0.00    -0.441 OA 
BRANCH  24  25
HETATM   25  C   UNL     1     -12.648  13.034  65.194  1.00  0.00    -0.469 C  
HETATM   26  C   UNL     1     -12.068  13.072  63.792  1.00  0.00    -0.502 C  
HETATM   27  F   UNL     1     -12.228  11.858  63.204  1.00  0.00    -0.560 F  
ENDBRANCH  24  25
ENDBRANCH  23  24
ENDBRANCH  22  23
ENDBRANCH  21  22
ENDBRANCH  20  21
ENDBRANCH  19  20
ENDBRANCH  18  19
ENDBRANCH  15  18
ENDBRANCH  11  12
ENDBRANCH   7  10
ENDBRANCH   2   4
TORSDOF 11
ENDMDL
MODEL       32
REMARK 921   NORMALIZED FREE ENERGY PREDICTED BY IDOCK:   -5.35 KCAL/MOL
REMARK 922        TOTAL FREE ENERGY PREDICTED BY IDOCK:   -9.86 KCAL/MOL
REMARK 923 INTER-LIGAND FREE ENERGY PREDICTED BY IDOCK:   -9.07 KCAL/MOL
REMARK 924 INTRA-LIGAND FREE ENERGY PREDICTED BY IDOCK:   -0.80 KCAL/MOL
REMARK 927      BINDING AFFINITY PREDICTED BY RF-SCORE:    0.00 PKD
ROOT
HETATM    1  C   UNL     1     -10.043   4.174  74.134  1.00  0.00    -0.165 C  
HETATM    2  N   UNL     1     -11.239   4.604  73.425  1.00  0.00    -0.334 NA 
HETATM    3  H   UNL     1     -12.031   3.977  73.282  1.00  0.00     0.000 HD 
ENDROOT
BRANCH   2   4
HETATM    4  C   UNL     1     -11.249   5.924  72.948  1.00  0.00    -0.253 A  
HETATM    5  C   UNL     1     -12.255   6.317  72.057  1.00  0.00    -0.270 A  
HETATM    6  C   UNL     1     -12.281   7.610  71.525  1.00  0.00    -0.351 A  
HETATM    7  C   UNL     1     -11.328   8.558  71.911  1.00  0.00    -0.399 A  
HETATM    8  C   UNL     1     -10.360   6.905  73.400  1.00  0.00    -0.337 A  
HETATM    9  C   UNL     1     -10.383   8.201  72.874  1.00  0.00    -0.333 A  
BRANCH   7  10
HETATM   10  C   UNL     1     -11.273   9.841  71.203  1.00  0.00    -0.444 C  
HETATM   11  C   UNL     1     -11.849  10.109  70.019  1.00  0.00    -0.253 C  
BRANCH  11  12
HETATM   12  C   UNL     1     -11.832  11.450  69.412  1.00  0.00    -0.419 A  
HETATM   13  C   UNL     1     -11.602  11.632  68.047  1.00  0.00    -0.383 A  
HETATM   14  C   UNL     1     -11.539  12.911  67.497  1.00  0.00    -0.409 A  
HETATM   15  C   UNL     1     -11.726  14.041  68.294  1.00  0.00    -0.357 A  
HETATM   16  C   UNL     1     -12.063  12.581  70.207  1.00  0.00    -0.373 A  
HETATM   17  C   UNL     1     -12.003  13.868  69.652  1.00  0.00    -0.399 A  
BRANCH  15  18
HETATM   18  O   UNL     1     -11.655  15.339  67.849  1.00  0.00    -0.339 OA 
BRANCH  18  19
HETATM   19  C   UNL     1     -11.459  16.307  68.880  1.00  0.00    -0.282 C  
BRANCH  19  20
HETATM   20  C   UNL     1     -10.349  17.283  68.528  1.00  0.00    -0.371 C  
BRANCH  20  21
HETATM   21  O   UNL     1     -10.886  18.203  67.575  1.00  0.00    -0.389 OA 
BRANCH  21  22
HETATM   22  C   UNL     1     -10.444  19.536  67.808  1.00  0.00    -0.449 C  
BRANCH  22  23
HETATM   23  C   UNL     1      -9.804  20.083  66.535  1.00  0.00    -0.459 C  
BRANCH  23  24
HETATM   24  O   UNL     1      -8.568  19.405  66.312  1.00  0.00    -0.337 OA 
BRANCH  24  25
HETATM   25  C   UNL     1      -7.618  19.684  67.339  1.00  0.00    -0.257 C  
HETATM   26  C   UNL     1      -7.032  21.066  67.115  1.00  0.00    -0.345 C  
HETATM   27  F   UNL     1      -6.126  21.336  68.091  1.00  0.00    -0.361 F  
ENDBRANCH  24  25
ENDBRANCH  23  24
ENDBRANCH  22  23
ENDBRANCH  21  22
ENDBRANCH  20  21
ENDBRANCH  19  20
ENDBRANCH  18  19
ENDBRANCH  15  18
ENDBRANCH  11  12
ENDBRANCH   7  10
ENDBRANCH   2   4
TORSDOF 11
ENDMDL
MODEL       33
REMARK 921   NORMALIZED FREE ENERGY PREDICTED BY IDOCK:   -5.25 KCAL/MOL
REMARK 922        TOTAL FREE ENERGY PREDICTED BY IDOCK:   -9.70 KCAL/MOL
REMARK 923 INTER-LIGAND FREE ENERGY PREDICTED BY IDOCK:   -8.68 KCAL/MOL
REMARK 924 INTRA-LIGAND FREE ENERGY PREDICTED BY IDOCK:   -1.01 KCAL/MOL
REMARK 927      BINDING AFFINITY PREDICTED BY RF-SCORE:    0.00 PKD
ROOT
HETATM    1  C   UNL     1      -8.152   2.272  72.365  1.00  0.00    -0.054 C  
HETATM    2  N   UNL     1      -9.278   2.510  71.472  1.00  0.00    -0.099 NA 
HETATM    3  H   UNL     1      -9.595   1.801  70.810  1.00  0.00     0.000 HD 
ENDROOT
BRANCH   2   4
HETATM    4  C   UNL     1      -9.904   3.763  71.566  1.00  0.00    -0.165 A  
HETATM    5  C   UNL     1     -10.014   4.555  70.417  1.00  0.00    -0.284 A  
HETATM    6  C   UNL     1     -10.594   5.827  70.473  1.00  0.00    -0.359 A  
HETATM    7  C   UNL     1     -11.123   6.316  71.672  1.00  0.00    -0.325 A  
HETATM    8  C   UNL     1     -10.520   4.221  72.735  1.00  0.00    -0.249 A  
HETATM    9  C   UNL     1     -11.104   5.491  72.796  1.00  0.00    -0.340 A  
BRANCH   7  10
HETATM   10  C   UNL     1     -11.557   7.715  71.739  1.00  0.00    -0.307 C  
HETATM   11  C   UNL     1     -11.311   8.658  70.813  1.00  0.00    -0.299 C  
BRANCH  11  12
HETATM   12  C   UNL     1     -11.861  10.021  70.902  1.00  0.00    -0.459 A  
HETATM   13  C   UNL     1     -11.485  11.021  70.003  1.00  0.00    -0.398 A  
HETATM   14  C   UNL     1     -11.976  12.319  70.130  1.00  0.00    -0.377 A  
HETATM   15  C   UNL     1     -12.873  12.647  71.148  1.00  0.00    -0.220 A  
HETATM   16  C   UNL     1     -12.795  10.337  71.898  1.00  0.00    -0.528 A  
HETATM   17  C   UNL     1     -13.291  11.642  72.024  1.00  0.00    -0.405 A  
BRANCH  15  18
HETATM   18  O   UNL     1     -13.387  13.901  71.370  1.00  0.00    -0.333 OA 
BRANCH  18  19
HETATM   19  C   UNL     1     -12.624  14.701  72.274  1.00  0.00    -0.322 C  
BRANCH  19  20
HETATM   20  C   UNL     1     -12.041  15.922  71.586  1.00  0.00    -0.484 C  
BRANCH  20  21
HETATM   21  O   UNL     1     -10.846  15.500  70.925  1.00  0.00    -0.325 OA 
BRANCH  21  22
HETATM   22  C   UNL     1     -10.675  16.140  69.664  1.00  0.00    -0.325 C  
BRANCH  22  23
HETATM   23  C   UNL     1     -11.785  15.691  68.719  1.00  0.00    -0.370 C  
BRANCH  23  24
HETATM   24  O   UNL     1     -11.228  15.466  67.425  1.00  0.00    -0.328 OA 
BRANCH  24  25
HETATM   25  C   UNL     1     -11.458  14.132  66.975  1.00  0.00    -0.352 C  
HETATM   26  C   UNL     1     -12.518  14.147  65.889  1.00  0.00    -0.453 C  
HETATM   27  F   UNL     1     -12.740  12.878  65.457  1.00  0.00    -0.522 F  
ENDBRANCH  24  25
ENDBRANCH  23  24
ENDBRANCH  22  23
ENDBRANCH  21  22
ENDBRANCH  20  21
ENDBRANCH  19  20
ENDBRANCH  18  19
ENDBRANCH  15  18
ENDBRANCH  11  12
ENDBRANCH   7  10
ENDBRANCH   2   4
TORSDOF 11
ENDMDL
MODEL       34
REMARK 921   NORMALIZED FREE ENERGY PREDICTED BY IDOCK:   -5.21 KCAL/MOL
REMARK 922        TOTAL FREE ENERGY PREDICTED BY IDOCK:   -9.64 KCAL/MOL
REMARK 923 INTER-LIGAND FREE ENERGY PREDICTED BY IDOCK:   -8.04 KCAL/MOL
REMARK 924 INTRA-LIGAND FREE ENERGY PREDICTED BY IDOCK:   -1.60 KCAL/MOL
REMARK 927      BINDING AFFINITY PREDICTED BY RF-SCORE:    0.00 PKD
ROOT
HETATM    1  C   UNL     1     -10.607   3.801  73.886  1.00  0.00    -0.217 C  
HETATM    2  N   UNL     1     -11.014   5.162  74.204  1.00  0.00    -0.419 NA 
HETATM    3  H   UNL     1     -11.295   5.430  75.147  1.00  0.00     0.000 HD 
ENDROOT
BRANCH   2   4
HETATM    4  C   UNL     1     -11.001   6.087  73.148  1.00  0.00    -0.239 A  
HETATM    5  C   UNL     1     -10.508   7.377  73.381  1.00  0.00    -0.419 A  
HETATM    6  C   UNL     1     -10.514   8.343  72.369  1.00  0.00    -0.402 A  
HETATM    7  C   UNL     1     -10.967   8.026  71.085  1.00  0.00    -0.271 A  
HETATM    8  C   UNL     1     -11.362   5.755  71.838  1.00  0.00    -0.268 A  
HETATM    9  C   UNL     1     -11.367   6.715  70.822  1.00  0.00    -0.389 A  
BRANCH   7  10
HETATM   10  C   UNL     1     -11.130   9.103  70.102  1.00  0.00    -0.248 C  
HETATM   11  C   UNL     1     -11.590  10.338  70.361  1.00  0.00    -0.411 C  
BRANCH  11  12
HETATM   12  C   UNL     1     -11.636  11.399  69.341  1.00  0.00    -0.391 A  
HETATM   13  C   UNL     1     -11.838  12.737  69.686  1.00  0.00    -0.384 A  
HETATM   14  C   UNL     1     -11.929  13.722  68.705  1.00  0.00    -0.400 A  
HETATM   15  C   UNL     1     -11.800  13.399  67.354  1.00  0.00    -0.375 A  
HETATM   16  C   UNL     1     -11.463  11.078  67.987  1.00  0.00    -0.365 A  
HETATM   17  C   UNL     1     -11.552  12.071  67.002  1.00  0.00    -0.387 A  
BRANCH  15  18
HETATM   18  O   UNL     1     -11.903  14.295  66.317  1.00  0.00    -0.380 OA 
BRANCH  18  19
HETATM   19  C   UNL     1     -11.089  15.460  66.461  1.00  0.00    -0.227 C  
BRANCH  19  20
HETATM   20  C   UNL     1     -10.039  15.547  65.367  1.00  0.00    -0.352 C  
BRANCH  20  21
HETATM   21  O   UNL     1      -9.111  16.562  65.756  1.00  0.00    -0.487 OA 
BRANCH  21  22
HETATM   22  C   UNL     1      -9.300  16.974  67.107  1.00  0.00    -0.236 C  
BRANCH  22  23
HETATM   23  C   UNL     1      -7.946  17.047  67.805  1.00  0.00    -0.185 C  
BRANCH  23  24
HETATM   24  O   UNL     1      -7.291  15.786  67.676  1.00  0.00    -0.135 OA 
BRANCH  24  25
HETATM   25  C   UNL     1      -7.902  14.786  68.490  1.00  0.00    -0.130 C  
HETATM   26  C   UNL     1      -7.876  13.459  67.753  1.00  0.00    -0.158 C  
HETATM   27  F   UNL     1      -8.457  12.504  68.525  1.00  0.00    -0.162 F  
ENDBRANCH  24  25
ENDBRANCH  23  24
ENDBRANCH  22  23
ENDBRANCH  21  22
ENDBRANCH  20  21
ENDBRANCH  19  20
ENDBRANCH  18  19
ENDBRANCH  15  18
ENDBRANCH  11  12
ENDBRANCH   7  10
ENDBRANCH   2   4
TORSDOF 11
ENDMDL
MODEL       35
REMARK 921   NORMALIZED FREE ENERGY PREDICTED BY IDOCK:   -5.21 KCAL/MOL
REMARK 922        TOTAL FREE ENERGY PREDICTED BY IDOCK:   -9.63 KCAL/MOL
REMARK 923 INTER-LIGAND FREE ENERGY PREDICTED BY IDOCK:   -7.91 KCAL/MOL
REMARK 924 INTRA-LIGAND FREE ENERGY PREDICTED BY IDOCK:   -1.72 KCAL/MOL
REMARK 927      BINDING AFFINITY PREDICTED BY RF-SCORE:    0.00 PKD
ROOT
HETATM    1  C   UNL     1     -13.135  15.933  73.382  1.00  0.00    -0.587 C  
HETATM    2  N   UNL     1     -13.771  15.421  72.177  1.00  0.00    -0.471 NA 
HETATM    3  H   UNL     1     -14.520  15.931  71.709  1.00  0.00     0.000 HD 
ENDROOT
BRANCH   2   4
HETATM    4  C   UNL     1     -13.302  14.190  71.691  1.00  0.00    -0.364 A  
HETATM    5  C   UNL     1     -13.727  13.009  72.312  1.00  0.00    -0.608 A  
HETATM    6  C   UNL     1     -13.254  11.762  71.888  1.00  0.00    -0.468 A  
HETATM    7  C   UNL     1     -12.383  11.665  70.798  1.00  0.00    -0.454 A  
HETATM    8  C   UNL     1     -12.508  14.074  70.545  1.00  0.00    -0.429 A  
HETATM    9  C   UNL     1     -12.035  12.830  70.114  1.00  0.00    -0.371 A  
BRANCH   7  10
HETATM   10  C   UNL     1     -11.767  10.369  70.494  1.00  0.00    -0.434 C  
HETATM   11  C   UNL     1     -11.177   9.553  71.384  1.00  0.00    -0.452 C  
BRANCH  11  12
HETATM   12  C   UNL     1     -10.664   8.222  71.022  1.00  0.00    -0.256 A  
HETATM   13  C   UNL     1     -11.509   7.115  70.922  1.00  0.00    -0.333 A  
HETATM   14  C   UNL     1     -11.001   5.851  70.628  1.00  0.00    -0.357 A  
HETATM   15  C   UNL     1      -9.636   5.664  70.407  1.00  0.00    -0.170 A  
HETATM   16  C   UNL     1      -9.299   8.044  70.758  1.00  0.00    -0.167 A  
HETATM   17  C   UNL     1      -8.789   6.773  70.459  1.00  0.00    -0.151 A  
BRANCH  15  18
HETATM   18  O   UNL     1      -9.040   4.455  70.139  1.00  0.00    -0.089 OA 
BRANCH  18  19
HETATM   19  C   UNL     1      -9.608   3.748  69.036  1.00  0.00    -0.120 C  
BRANCH  19  20
HETATM   20  C   UNL     1      -8.972   4.160  67.720  1.00  0.00    -0.121 C  
BRANCH  20  21
HETATM   21  O   UNL     1      -9.938   4.943  67.013  1.00  0.00    -0.178 OA 
BRANCH  21  22
HETATM   22  C   UNL     1      -9.474   6.265  66.757  1.00  0.00    -0.144 C  
BRANCH  22  23
HETATM   23  C   UNL     1     -10.554   7.263  67.162  1.00  0.00    -0.346 C  
BRANCH  23  24
HETATM   24  O   UNL     1     -10.335   8.488  66.465  1.00  0.00    -0.283 OA 
BRANCH  24  25
HETATM   25  C   UNL     1     -10.482   9.619  67.323  1.00  0.00    -0.258 C  
HETATM   26  C   UNL     1      -9.108  10.145  67.695  1.00  0.00    -0.137 C  
HETATM   27  F   UNL     1      -9.243  11.222  68.512  1.00  0.00    -0.159 F  
ENDBRANCH  24  25
ENDBRANCH  23  24
ENDBRANCH  22  23
ENDBRANCH  21  22
ENDBRANCH  20  21
ENDBRANCH  19  20
ENDBRANCH  18  19
ENDBRANCH  15  18
ENDBRANCH  11  12
ENDBRANCH   7  10
ENDBRANCH   2   4
TORSDOF 11
ENDMDL
MODEL       36
REMARK 921   NORMALIZED FREE ENERGY PREDICTED BY IDOCK:   -5.18 KCAL/MOL
REMARK 922        TOTAL FREE ENERGY PREDICTED BY IDOCK:   -9.59 KCAL/MOL
REMARK 923 INTER-LIGAND FREE ENERGY PREDICTED BY IDOCK:   -8.82 KCAL/MOL
REMARK 924 INTRA-LIGAND FREE ENERGY PREDICTED BY IDOCK:   -0.77 KCAL/MOL
REMARK 927      BINDING AFFINITY PREDICTED BY RF-SCORE:    0.00 PKD
ROOT
HETATM    1  C   UNL     1     -10.741   3.870  73.045  1.00  0.00    -0.153 C  
HETATM    2  N   UNL     1     -11.330   5.053  73.655  1.00  0.00    -0.424 NA 
HETATM    3  H   UNL     1     -11.771   5.018  74.574  1.00  0.00     0.000 HD 
ENDROOT
BRANCH   2   4
HETATM    4  C   UNL     1     -11.263   6.244  72.915  1.00  0.00    -0.200 A  
HETATM    5  C   UNL     1     -10.247   7.164  73.202  1.00  0.00    -0.317 A  
HETATM    6  C   UNL     1     -10.166   8.382  72.518  1.00  0.00    -0.369 A  
HETATM    7  C   UNL     1     -11.070   8.686  71.495  1.00  0.00    -0.358 A  
HETATM    8  C   UNL     1     -12.101   6.516  71.828  1.00  0.00    -0.393 A  
HETATM    9  C   UNL     1     -12.022   7.731  71.139  1.00  0.00    -0.312 A  
BRANCH   7  10
HETATM   10  C   UNL     1     -11.070  10.037  70.925  1.00  0.00    -0.385 C  
HETATM   11  C   UNL     1     -11.873  10.472  69.939  1.00  0.00    -0.358 C  
BRANCH  11  12
HETATM   12  C   UNL     1     -11.884  11.871  69.482  1.00  0.00    -0.395 A  
HETATM   13  C   UNL     1     -11.670  12.204  68.142  1.00  0.00    -0.402 A  
HETATM   14  C   UNL     1     -11.633  13.536  67.734  1.00  0.00    -0.374 A  
HETATM   15  C   UNL     1     -11.829  14.570  68.650  1.00  0.00    -0.320 A  
HETATM   16  C   UNL     1     -12.124  12.906  70.396  1.00  0.00    -0.385 A  
HETATM   17  C   UNL     1     -12.089  14.246  69.984  1.00  0.00    -0.400 A  
BRANCH  15  18
HETATM   18  O   UNL     1     -11.782  15.909  68.348  1.00  0.00    -0.358 OA 
BRANCH  18  19
HETATM   19  C   UNL     1     -10.728  16.624  68.994  1.00  0.00    -0.343 C  
BRANCH  19  20
HETATM   20  C   UNL     1      -9.895  17.414  67.999  1.00  0.00    -0.288 C  
BRANCH  20  21
HETATM   21  O   UNL     1     -10.785  18.299  67.316  1.00  0.00    -0.404 OA 
BRANCH  21  22
HETATM   22  C   UNL     1     -10.260  19.620  67.221  1.00  0.00    -0.433 C  
BRANCH  22  23
HETATM   23  C   UNL     1      -8.923  19.683  67.951  1.00  0.00    -0.324 C  
BRANCH  23  24
HETATM   24  O   UNL     1      -7.961  20.305  67.102  1.00  0.00    -0.314 OA 
BRANCH  24  25
HETATM   25  C   UNL     1      -7.854  19.638  65.845  1.00  0.00    -0.286 C  
HETATM   26  C   UNL     1      -6.388  19.423  65.517  1.00  0.00    -0.245 C  
HETATM   27  F   UNL     1      -6.282  18.788  64.320  1.00  0.00    -0.281 F  
ENDBRANCH  24  25
ENDBRANCH  23  24
ENDBRANCH  22  23
ENDBRANCH  21  22
ENDBRANCH  20  21
ENDBRANCH  19  20
ENDBRANCH  18  19
ENDBRANCH  15  18
ENDBRANCH  11  12
ENDBRANCH   7  10
ENDBRANCH   2   4
TORSDOF 11
ENDMDL
MODEL       37
REMARK 921   NORMALIZED FREE ENERGY PREDICTED BY IDOCK:   -5.15 KCAL/MOL
REMARK 922        TOTAL FREE ENERGY PREDICTED BY IDOCK:   -9.54 KCAL/MOL
REMARK 923 INTER-LIGAND FREE ENERGY PREDICTED BY IDOCK:   -8.42 KCAL/MOL
REMARK 924 INTRA-LIGAND FREE ENERGY PREDICTED BY IDOCK:   -1.12 KCAL/MOL
REMARK 927      BINDING AFFINITY PREDICTED BY RF-SCORE:    0.00 PKD
ROOT
HETATM    1  C   UNL     1      -6.439   6.519  64.515  1.00  0.00    -0.041 C  
HETATM    2  N   UNL     1      -7.342   7.514  63.955  1.00  0.00    -0.085 NA 
HETATM    3  H   UNL     1      -7.295   7.787  62.974  1.00  0.00     0.000 HD 
ENDROOT
BRANCH   2   4
HETATM    4  C   UNL     1      -8.281   8.079  64.833  1.00  0.00    -0.134 A  
HETATM    5  C   UNL     1      -8.818   9.337  64.535  1.00  0.00    -0.203 A  
HETATM    6  C   UNL     1      -9.725   9.956  65.402  1.00  0.00    -0.375 A  
HETATM    7  C   UNL     1     -10.155   9.307  66.564  1.00  0.00    -0.343 A  
HETATM    8  C   UNL     1      -8.790   7.400  65.946  1.00  0.00    -0.149 A  
HETATM    9  C   UNL     1      -9.699   8.012  66.814  1.00  0.00    -0.305 A  
BRANCH   7  10
HETATM   10  C   UNL     1     -10.961  10.051  67.537  1.00  0.00    -0.276 C  
HETATM   11  C   UNL     1     -11.001   9.823  68.861  1.00  0.00    -0.183 C  
BRANCH  11  12
HETATM   12  C   UNL     1     -11.761  10.673  69.791  1.00  0.00    -0.385 A  
HETATM   13  C   UNL     1     -11.909  12.045  69.573  1.00  0.00    -0.390 A  
HETATM   14  C   UNL     1     -12.589  12.845  70.490  1.00  0.00    -0.204 A  
HETATM   15  C   UNL     1     -13.156  12.292  71.639  1.00  0.00    -0.306 A  
HETATM   16  C   UNL     1     -12.366  10.108  70.922  1.00  0.00    -0.461 A  
HETATM   17  C   UNL     1     -13.053  10.914  71.842  1.00  0.00    -0.537 A  
BRANCH  15  18
HETATM   18  O   UNL     1     -13.818  13.002  72.610  1.00  0.00    -0.653 OA 
BRANCH  18  19
HETATM   19  C   UNL     1     -13.735  14.421  72.464  1.00  0.00    -0.488 C  
BRANCH  19  20
HETATM   20  C   UNL     1     -12.701  15.021  73.400  1.00  0.00    -0.530 C  
BRANCH  20  21
HETATM   21  O   UNL     1     -11.537  15.298  72.618  1.00  0.00    -0.449 OA 
BRANCH  21  22
HETATM   22  C   UNL     1     -11.805  16.217  71.564  1.00  0.00    -0.463 C  
BRANCH  22  23
HETATM   23  C   UNL     1     -10.988  15.825  70.336  1.00  0.00    -0.355 C  
BRANCH  23  24
HETATM   24  O   UNL     1     -11.717  16.184  69.163  1.00  0.00    -0.327 OA 
BRANCH  24  25
HETATM   25  C   UNL     1     -11.289  15.437  68.026  1.00  0.00    -0.341 C  
HETATM   26  C   UNL     1      -9.968  14.759  68.342  1.00  0.00    -0.223 C  
HETATM   27  F   UNL     1      -9.557  14.046  67.260  1.00  0.00    -0.216 F  
ENDBRANCH  24  25
ENDBRANCH  23  24
ENDBRANCH  22  23
ENDBRANCH  21  22
ENDBRANCH  20  21
ENDBRANCH  19  20
ENDBRANCH  18  19
ENDBRANCH  15  18
ENDBRANCH  11  12
ENDBRANCH   7  10
ENDBRANCH   2   4
TORSDOF 11
ENDMDL
MODEL       38
REMARK 921   NORMALIZED FREE ENERGY PREDICTED BY IDOCK:   -5.14 KCAL/MOL
REMARK 922        TOTAL FREE ENERGY PREDICTED BY IDOCK:   -9.52 KCAL/MOL
REMARK 923 INTER-LIGAND FREE ENERGY PREDICTED BY IDOCK:   -7.93 KCAL/MOL
REMARK 924 INTRA-LIGAND FREE ENERGY PREDICTED BY IDOCK:   -1.60 KCAL/MOL
REMARK 927      BINDING AFFINITY PREDICTED BY RF-SCORE:    0.00 PKD
ROOT
HETATM    1  C   UNL     1     -13.193  15.793  73.314  1.00  0.00    -0.581 C  
HETATM    2  N   UNL     1     -13.520  15.420  71.945  1.00  0.00    -0.438 NA 
HETATM    3  H   UNL     1     -14.011  16.059  71.319  1.00  0.00     0.000 HD 
ENDROOT
BRANCH   2   4
HETATM    4  C   UNL     1     -13.128  14.138  71.529  1.00  0.00    -0.353 A  
HETATM    5  C   UNL     1     -13.587  13.023  72.241  1.00  0.00    -0.643 A  
HETATM    6  C   UNL     1     -13.189  11.729  71.888  1.00  0.00    -0.468 A  
HETATM    7  C   UNL     1     -12.360  11.517  70.782  1.00  0.00    -0.472 A  
HETATM    8  C   UNL     1     -12.378  13.907  70.371  1.00  0.00    -0.433 A  
HETATM    9  C   UNL     1     -11.980  12.616  70.011  1.00  0.00    -0.377 A  
BRANCH   7  10
HETATM   10  C   UNL     1     -11.817  10.175  70.547  1.00  0.00    -0.408 C  
HETATM   11  C   UNL     1     -11.083   9.462  71.419  1.00  0.00    -0.450 C  
BRANCH  11  12
HETATM   12  C   UNL     1     -10.651   8.081  71.151  1.00  0.00    -0.235 A  
HETATM   13  C   UNL     1      -9.356   7.649  71.446  1.00  0.00    -0.157 A  
HETATM   14  C   UNL     1      -8.948   6.352  71.140  1.00  0.00    -0.146 A  
HETATM   15  C   UNL     1      -9.830   5.446  70.550  1.00  0.00    -0.203 A  
HETATM   16  C   UNL     1     -11.552   7.160  70.598  1.00  0.00    -0.354 A  
HETATM   17  C   UNL     1     -11.140   5.854  70.293  1.00  0.00    -0.368 A  
BRANCH  15  18
HETATM   18  O   UNL     1      -9.511   4.160  70.187  1.00  0.00    -0.147 OA 
BRANCH  18  19
HETATM   19  C   UNL     1      -8.287   4.037  69.461  1.00  0.00    -0.057 C  
BRANCH  19  20
HETATM   20  C   UNL     1      -8.342   2.896  68.461  1.00  0.00    -0.065 C  
BRANCH  20  21
HETATM   21  O   UNL     1      -9.464   3.137  67.609  1.00  0.00    -0.207 OA 
BRANCH  21  22
HETATM   22  C   UNL     1      -9.189   4.132  66.628  1.00  0.00    -0.155 C  
BRANCH  22  23
HETATM   23  C   UNL     1     -10.296   5.181  66.651  1.00  0.00    -0.281 C  
BRANCH  23  24
HETATM   24  O   UNL     1      -9.725   6.448  66.974  1.00  0.00    -0.137 OA 
BRANCH  24  25
HETATM   25  C   UNL     1     -10.697   7.491  66.935  1.00  0.00    -0.229 C  
HETATM   26  C   UNL     1     -10.073   8.774  67.453  1.00  0.00    -0.226 C  
HETATM   27  F   UNL     1     -10.996   9.771  67.418  1.00  0.00    -0.333 F  
ENDBRANCH  24  25
ENDBRANCH  23  24
ENDBRANCH  22  23
ENDBRANCH  21  22
ENDBRANCH  20  21
ENDBRANCH  19  20
ENDBRANCH  18  19
ENDBRANCH  15  18
ENDBRANCH  11  12
ENDBRANCH   7  10
ENDBRANCH   2   4
TORSDOF 11
ENDMDL
MODEL       39
REMARK 921   NORMALIZED FREE ENERGY PREDICTED BY IDOCK:   -5.14 KCAL/MOL
REMARK 922        TOTAL FREE ENERGY PREDICTED BY IDOCK:   -9.52 KCAL/MOL
REMARK 923 INTER-LIGAND FREE ENERGY PREDICTED BY IDOCK:   -7.84 KCAL/MOL
REMARK 924 INTRA-LIGAND FREE ENERGY PREDICTED BY IDOCK:   -1.68 KCAL/MOL
REMARK 927      BINDING AFFINITY PREDICTED BY RF-SCORE:    0.00 PKD
ROOT
HETATM    1  C   UNL     1     -11.438  15.887  64.422  1.00  0.00    -0.264 C  
HETATM    2  N   UNL     1     -11.790  14.585  63.874  1.00  0.00    -0.765 NA 
HETATM    3  H   UNL     1     -12.202  14.488  62.946  1.00  0.00     0.000 HD 
ENDROOT
BRANCH   2   4
HETATM    4  C   UNL     1     -11.537  13.469  64.687  1.00  0.00    -0.368 A  
HETATM    5  C   UNL     1     -12.053  13.445  65.988  1.00  0.00    -0.487 A  
HETATM    6  C   UNL     1     -11.792  12.372  66.847  1.00  0.00    -0.377 A  
HETATM    7  C   UNL     1     -11.047  11.273  66.407  1.00  0.00    -0.257 A  
HETATM    8  C   UNL     1     -10.876  12.324  64.228  1.00  0.00    -0.392 A  
HETATM    9  C   UNL     1     -10.614  11.247  65.081  1.00  0.00    -0.343 A  
BRANCH   7  10
HETATM   10  C   UNL     1     -10.639  10.254  67.380  1.00  0.00    -0.324 C  
HETATM   11  C   UNL     1     -10.550   8.935  67.144  1.00  0.00    -0.301 C  
BRANCH  11  12
HETATM   12  C   UNL     1     -10.040   7.981  68.143  1.00  0.00    -0.234 A  
HETATM   13  C   UNL     1      -8.749   8.090  68.665  1.00  0.00    -0.131 A  
HETATM   14  C   UNL     1      -8.264   7.150  69.572  1.00  0.00    -0.132 A  
HETATM   15  C   UNL     1      -9.063   6.088  69.997  1.00  0.00    -0.146 A  
HETATM   16  C   UNL     1     -10.859   6.940  68.600  1.00  0.00    -0.236 A  
HETATM   17  C   UNL     1     -10.371   5.997  69.516  1.00  0.00    -0.295 A  
BRANCH  15  18
HETATM   18  O   UNL     1      -8.664   5.100  70.864  1.00  0.00    -0.125 OA 
BRANCH  18  19
HETATM   19  C   UNL     1      -9.735   4.343  71.430  1.00  0.00    -0.178 C  
BRANCH  19  20
HETATM   20  C   UNL     1      -9.829   4.543  72.932  1.00  0.00    -0.144 C  
BRANCH  20  21
HETATM   21  O   UNL     1     -10.960   5.385  73.173  1.00  0.00    -0.257 OA 
BRANCH  21  22
HETATM   22  C   UNL     1     -10.577   6.717  73.498  1.00  0.00    -0.332 C  
BRANCH  22  23
HETATM   23  C   UNL     1     -11.304   7.689  72.575  1.00  0.00    -0.355 C  
BRANCH  23  24
HETATM   24  O   UNL     1     -10.378   8.673  72.117  1.00  0.00    -0.316 OA 
BRANCH  24  25
HETATM   25  C   UNL     1     -10.985   9.589  71.207  1.00  0.00    -0.370 C  
HETATM   26  C   UNL     1     -12.488   9.378  71.215  1.00  0.00    -0.335 C  
HETATM   27  F   UNL     1     -13.070  10.248  70.349  1.00  0.00    -0.381 F  
ENDBRANCH  24  25
ENDBRANCH  23  24
ENDBRANCH  22  23
ENDBRANCH  21  22
ENDBRANCH  20  21
ENDBRANCH  19  20
ENDBRANCH  18  19
ENDBRANCH  15  18
ENDBRANCH  11  12
ENDBRANCH   7  10
ENDBRANCH   2   4
TORSDOF 11
ENDMDL
MODEL       40
REMARK 921   NORMALIZED FREE ENERGY PREDICTED BY IDOCK:   -5.12 KCAL/MOL
REMARK 922        TOTAL FREE ENERGY PREDICTED BY IDOCK:   -9.49 KCAL/MOL
REMARK 923 INTER-LIGAND FREE ENERGY PREDICTED BY IDOCK:   -8.07 KCAL/MOL
REMARK 924 INTRA-LIGAND FREE ENERGY PREDICTED BY IDOCK:   -1.42 KCAL/MOL
REMARK 927      BINDING AFFINITY PREDICTED BY RF-SCORE:    0.00 PKD
ROOT
HETATM    1  C   UNL     1      -8.794   3.341  64.933  1.00  0.00    -0.122 C  
HETATM    2  N   UNL     1      -9.972   3.841  65.628  1.00  0.00    -0.394 NA 
HETATM    3  H   UNL     1     -10.794   3.255  65.778  1.00  0.00     0.000 HD 
ENDROOT
BRANCH   2   4
HETATM    4  C   UNL     1      -9.922   5.169  66.080  1.00  0.00    -0.194 A  
HETATM    5  C   UNL     1     -10.882   5.610  66.998  1.00  0.00    -0.265 A  
HETATM    6  C   UNL     1     -10.895   6.936  67.445  1.00  0.00    -0.396 A  
HETATM    7  C   UNL     1      -9.915   7.839  67.021  1.00  0.00    -0.314 A  
HETATM    8  C   UNL     1      -8.893   6.053  65.738  1.00  0.00    -0.143 A  
HETATM    9  C   UNL     1      -8.899   7.378  66.183  1.00  0.00    -0.185 A  
BRANCH   7  10
HETATM   10  C   UNL     1     -10.060   9.259  67.362  1.00  0.00    -0.280 C  
HETATM   11  C   UNL     1     -10.312  10.252  66.493  1.00  0.00    -0.276 C  
BRANCH  11  12
HETATM   12  C   UNL     1     -10.541  11.642  66.920  1.00  0.00    -0.276 A  
HETATM   13  C   UNL     1      -9.577  12.354  67.638  1.00  0.00    -0.193 A  
HETATM   14  C   UNL     1      -9.828  13.652  68.079  1.00  0.00    -0.244 A  
HETATM   15  C   UNL     1     -11.042  14.280  67.797  1.00  0.00    -0.280 A  
HETATM   16  C   UNL     1     -11.744  12.286  66.599  1.00  0.00    -0.417 A  
HETATM   17  C   UNL     1     -11.994  13.593  67.040  1.00  0.00    -0.448 A  
BRANCH  15  18
HETATM   18  O   UNL     1     -11.391  15.542  68.212  1.00  0.00    -0.328 OA 
BRANCH  18  19
HETATM   19  C   UNL     1     -12.063  15.585  69.471  1.00  0.00    -0.302 C  
BRANCH  19  20
HETATM   20  C   UNL     1     -11.123  15.985  70.595  1.00  0.00    -0.330 C  
BRANCH  20  21
HETATM   21  O   UNL     1     -11.928  16.219  71.753  1.00  0.00    -0.478 OA 
BRANCH  21  22
HETATM   22  C   UNL     1     -13.180  15.544  71.681  1.00  0.00    -0.492 C  
BRANCH  22  23
HETATM   23  C   UNL     1     -13.193  14.400  72.689  1.00  0.00    -0.497 C  
BRANCH  23  24
HETATM   24  O   UNL     1     -13.720  13.234  72.058  1.00  0.00    -0.462 OA 
BRANCH  24  25
HETATM   25  C   UNL     1     -12.738  12.206  71.940  1.00  0.00    -0.097 C  
HETATM   26  C   UNL     1     -12.252  12.142  70.504  1.00  0.00    -0.304 C  
HETATM   27  F   UNL     1     -11.316  11.164  70.387  1.00  0.00    -0.357 F  
ENDBRANCH  24  25
ENDBRANCH  23  24
ENDBRANCH  22  23
ENDBRANCH  21  22
ENDBRANCH  20  21
ENDBRANCH  19  20
ENDBRANCH  18  19
ENDBRANCH  15  18
ENDBRANCH  11  12
ENDBRANCH   7  10
ENDBRANCH   2   4
TORSDOF 11
ENDMDL
MODEL       41
REMARK 921   NORMALIZED FREE ENERGY PREDICTED BY IDOCK:   -5.12 KCAL/MOL
REMARK 922        TOTAL FREE ENERGY PREDICTED BY IDOCK:   -9.48 KCAL/MOL
REMARK 923 INTER-LIGAND FREE ENERGY PREDICTED BY IDOCK:   -8.67 KCAL/MOL
REMARK 924 INTRA-LIGAND FREE ENERGY PREDICTED BY IDOCK:   -0.82 KCAL/MOL
REMARK 927      BINDING AFFINITY PREDICTED BY RF-SCORE:    0.00 PKD
ROOT
HETATM    1  C   UNL     1     -10.694   5.097  73.272  1.00  0.00    -0.266 C  
HETATM    2  N   UNL     1     -11.771   6.028  72.970  1.00  0.00    -0.486 NA 
HETATM    3  H   UNL     1     -12.675   5.971  73.438  1.00  0.00     0.000 HD 
ENDROOT
BRANCH   2   4
HETATM    4  C   UNL     1     -11.504   7.009  72.001  1.00  0.00    -0.271 A  
HETATM    5  C   UNL     1     -11.648   8.358  72.343  1.00  0.00    -0.450 A  
HETATM    6  C   UNL     1     -11.431   9.368  71.398  1.00  0.00    -0.449 A  
HETATM    7  C   UNL     1     -11.016   9.050  70.101  1.00  0.00    -0.256 A  
HETATM    8  C   UNL     1     -10.998   6.709  70.732  1.00  0.00    -0.318 A  
HETATM    9  C   UNL     1     -10.777   7.713  69.784  1.00  0.00    -0.243 A  
BRANCH   7  10
HETATM   10  C   UNL     1     -10.974  10.111  69.088  1.00  0.00    -0.270 C  
HETATM   11  C   UNL     1     -11.742  11.213  69.075  1.00  0.00    -0.408 C  
BRANCH  11  12
HETATM   12  C   UNL     1     -11.577  12.284  68.078  1.00  0.00    -0.408 A  
HETATM   13  C   UNL     1     -11.336  11.999  66.732  1.00  0.00    -0.398 A  
HETATM   14  C   UNL     1     -11.132  13.023  65.810  1.00  0.00    -0.302 A  
HETATM   15  C   UNL     1     -11.185  14.361  66.204  1.00  0.00    -0.336 A  
HETATM   16  C   UNL     1     -11.674  13.627  68.468  1.00  0.00    -0.392 A  
HETATM   17  C   UNL     1     -11.472  14.657  67.539  1.00  0.00    -0.378 A  
BRANCH  15  18
HETATM   18  O   UNL     1     -10.970  15.435  65.375  1.00  0.00    -0.346 OA 
BRANCH  18  19
HETATM   19  C   UNL     1     -10.157  16.464  65.941  1.00  0.00    -0.347 C  
BRANCH  19  20
HETATM   20  C   UNL     1      -8.701  16.040  66.032  1.00  0.00    -0.232 C  
BRANCH  20  21
HETATM   21  O   UNL     1      -8.267  16.315  67.366  1.00  0.00    -0.150 OA 
BRANCH  21  22
HETATM   22  C   UNL     1      -7.108  17.142  67.394  1.00  0.00    -0.155 C  
BRANCH  22  23
HETATM   23  C   UNL     1      -7.252  18.173  68.509  1.00  0.00    -0.268 C  
BRANCH  23  24
HETATM   24  O   UNL     1      -7.826  19.362  67.967  1.00  0.00    -0.283 OA 
BRANCH  24  25
HETATM   25  C   UNL     1      -9.240  19.398  68.151  1.00  0.00    -0.336 C  
HETATM   26  C   UNL     1      -9.900  19.843  66.859  1.00  0.00    -0.414 C  
HETATM   27  F   UNL     1     -11.248  19.880  67.031  1.00  0.00    -0.506 F  
ENDBRANCH  24  25
ENDBRANCH  23  24
ENDBRANCH  22  23
ENDBRANCH  21  22
ENDBRANCH  20  21
ENDBRANCH  19  20
ENDBRANCH  18  19
ENDBRANCH  15  18
ENDBRANCH  11  12
ENDBRANCH   7  10
ENDBRANCH   2   4
TORSDOF 11
ENDMDL
MODEL       42
REMARK 921   NORMALIZED FREE ENERGY PREDICTED BY IDOCK:   -5.11 KCAL/MOL
REMARK 922        TOTAL FREE ENERGY PREDICTED BY IDOCK:   -9.48 KCAL/MOL
REMARK 923 INTER-LIGAND FREE ENERGY PREDICTED BY IDOCK:   -7.96 KCAL/MOL
REMARK 924 INTRA-LIGAND FREE ENERGY PREDICTED BY IDOCK:   -1.52 KCAL/MOL
REMARK 927      BINDING AFFINITY PREDICTED BY RF-SCORE:    0.00 PKD
ROOT
HETATM    1  C   UNL     1     -12.832  15.991  73.522  1.00  0.00    -0.590 C  
HETATM    2  N   UNL     1     -13.782  15.190  72.763  1.00  0.00    -0.472 NA 
HETATM    3  H   UNL     1     -14.785  15.368  72.805  1.00  0.00     0.000 HD 
ENDROOT
BRANCH   2   4
HETATM    4  C   UNL     1     -13.248  14.160  71.973  1.00  0.00    -0.402 A  
HETATM    5  C   UNL     1     -13.510  12.830  72.324  1.00  0.00    -0.591 A  
HETATM    6  C   UNL     1     -12.966  11.771  71.589  1.00  0.00    -0.467 A  
HETATM    7  C   UNL     1     -12.186  12.019  70.455  1.00  0.00    -0.379 A  
HETATM    8  C   UNL     1     -12.548  14.394  70.785  1.00  0.00    -0.426 A  
HETATM    9  C   UNL     1     -12.004  13.340  70.044  1.00  0.00    -0.399 A  
BRANCH   7  10
HETATM   10  C   UNL     1     -11.484  10.900  69.816  1.00  0.00    -0.390 C  
HETATM   11  C   UNL     1     -10.797  10.961  68.663  1.00  0.00    -0.258 C  
BRANCH  11  12
HETATM   12  C   UNL     1     -10.037   9.819  68.130  1.00  0.00    -0.193 A  
HETATM   13  C   UNL     1     -10.532   9.034  67.086  1.00  0.00    -0.333 A  
HETATM   14  C   UNL     1      -9.823   7.926  66.627  1.00  0.00    -0.311 A  
HETATM   15  C   UNL     1      -8.590   7.585  67.184  1.00  0.00    -0.121 A  
HETATM   16  C   UNL     1      -8.779   9.505  68.662  1.00  0.00    -0.127 A  
HETATM   17  C   UNL     1      -8.065   8.392  68.196  1.00  0.00    -0.120 A  
BRANCH  15  18
HETATM   18  O   UNL     1      -7.833   6.499  66.817  1.00  0.00    -0.101 OA 
BRANCH  18  19
HETATM   19  C   UNL     1      -8.532   5.253  66.855  1.00  0.00    -0.106 C  
BRANCH  19  20
HETATM   20  C   UNL     1      -8.459   4.613  68.230  1.00  0.00    -0.097 C  
BRANCH  20  21
HETATM   21  O   UNL     1      -9.801   4.492  68.708  1.00  0.00    -0.163 OA 
BRANCH  21  22
HETATM   22  C   UNL     1     -10.048   5.329  69.834  1.00  0.00    -0.263 C  
BRANCH  22  23
HETATM   23  C   UNL     1     -11.275   6.192  69.559  1.00  0.00    -0.411 C  
BRANCH  23  24
HETATM   24  O   UNL     1     -11.119   7.443  70.226  1.00  0.00    -0.259 OA 
BRANCH  24  25
HETATM   25  C   UNL     1     -10.425   7.299  71.465  1.00  0.00    -0.202 C  
HETATM   26  C   UNL     1     -11.366   7.638  72.606  1.00  0.00    -0.370 C  
HETATM   27  F   UNL     1     -10.709   7.502  73.788  1.00  0.00    -0.402 F  
ENDBRANCH  24  25
ENDBRANCH  23  24
ENDBRANCH  22  23
ENDBRANCH  21  22
ENDBRANCH  20  21
ENDBRANCH  19  20
ENDBRANCH  18  19
ENDBRANCH  15  18
ENDBRANCH  11  12
ENDBRANCH   7  10
ENDBRANCH   2   4
TORSDOF 11
ENDMDL
MODEL       43
REMARK 921   NORMALIZED FREE ENERGY PREDICTED BY IDOCK:   -5.11 KCAL/MOL
REMARK 922        TOTAL FREE ENERGY PREDICTED BY IDOCK:   -9.46 KCAL/MOL
REMARK 923 INTER-LIGAND FREE ENERGY PREDICTED BY IDOCK:   -8.77 KCAL/MOL
REMARK 924 INTRA-LIGAND FREE ENERGY PREDICTED BY IDOCK:   -0.69 KCAL/MOL
REMARK 927      BINDING AFFINITY PREDICTED BY RF-SCORE:    0.00 PKD
ROOT
HETATM    1  C   UNL     1     -11.179   5.796  72.773  1.00  0.00    -0.292 C  
HETATM    2  N   UNL     1     -12.424   6.461  72.415  1.00  0.00    -0.547 NA 
HETATM    3  H   UNL     1     -13.330   6.020  72.569  1.00  0.00     0.000 HD 
ENDROOT
BRANCH   2   4
HETATM    4  C   UNL     1     -12.314   7.740  71.846  1.00  0.00    -0.310 A  
HETATM    5  C   UNL     1     -11.276   7.994  70.942  1.00  0.00    -0.282 A  
HETATM    6  C   UNL     1     -11.104   9.265  70.382  1.00  0.00    -0.300 A  
HETATM    7  C   UNL     1     -11.999  10.298  70.675  1.00  0.00    -0.436 A  
HETATM    8  C   UNL     1     -13.257   8.752  72.057  1.00  0.00    -0.438 A  
HETATM    9  C   UNL     1     -13.092  10.023  71.497  1.00  0.00    -0.531 A  
BRANCH   7  10
HETATM   10  C   UNL     1     -11.690  11.658  70.218  1.00  0.00    -0.355 C  
HETATM   11  C   UNL     1     -11.355  12.007  68.964  1.00  0.00    -0.331 C  
BRANCH  11  12
HETATM   12  C   UNL     1     -11.151  13.406  68.557  1.00  0.00    -0.299 A  
HETATM   13  C   UNL     1     -11.848  14.453  69.164  1.00  0.00    -0.359 A  
HETATM   14  C   UNL     1     -11.681  15.768  68.733  1.00  0.00    -0.387 A  
HETATM   15  C   UNL     1     -10.798  16.073  67.696  1.00  0.00    -0.311 A  
HETATM   16  C   UNL     1     -10.232  13.715  67.545  1.00  0.00    -0.241 A  
HETATM   17  C   UNL     1     -10.063  15.039  67.114  1.00  0.00    -0.239 A  
BRANCH  15  18
HETATM   18  O   UNL     1     -10.589  17.331  67.186  1.00  0.00    -0.324 OA 
BRANCH  18  19
HETATM   19  C   UNL     1      -9.940  18.232  68.084  1.00  0.00    -0.360 C  
BRANCH  19  20
HETATM   20  C   UNL     1     -10.400  19.664  67.870  1.00  0.00    -0.454 C  
BRANCH  20  21
HETATM   21  O   UNL     1      -9.254  20.417  67.464  1.00  0.00    -0.363 OA 
BRANCH  21  22
HETATM   22  C   UNL     1      -8.568  19.804  66.376  1.00  0.00    -0.360 C  
BRANCH  22  23
HETATM   23  C   UNL     1      -7.080  20.124  66.476  1.00  0.00    -0.251 C  
BRANCH  23  24
HETATM   24  O   UNL     1      -6.424  19.061  67.165  1.00  0.00    -0.188 OA 
BRANCH  24  25
HETATM   25  C   UNL     1      -5.953  19.473  68.447  1.00  0.00    -0.226 C  
HETATM   26  C   UNL     1      -6.098  20.978  68.573  1.00  0.00    -0.230 C  
HETATM   27  F   UNL     1      -5.651  21.375  69.793  1.00  0.00    -0.355 F  
ENDBRANCH  24  25
ENDBRANCH  23  24
ENDBRANCH  22  23
ENDBRANCH  21  22
ENDBRANCH  20  21
ENDBRANCH  19  20
ENDBRANCH  18  19
ENDBRANCH  15  18
ENDBRANCH  11  12
ENDBRANCH   7  10
ENDBRANCH   2   4
TORSDOF 11
ENDMDL
MODEL       44
REMARK 921   NORMALIZED FREE ENERGY PREDICTED BY IDOCK:   -5.10 KCAL/MOL
REMARK 922        TOTAL FREE ENERGY PREDICTED BY IDOCK:   -9.46 KCAL/MOL
REMARK 923 INTER-LIGAND FREE ENERGY PREDICTED BY IDOCK:   -8.56 KCAL/MOL
REMARK 924 INTRA-LIGAND FREE ENERGY PREDICTED BY IDOCK:   -0.90 KCAL/MOL
REMARK 927      BINDING AFFINITY PREDICTED BY RF-SCORE:    0.00 PKD
ROOT
HETATM    1  C   UNL     1     -10.576  19.822  66.135  1.00  0.00    -0.464 C  
HETATM    2  N   UNL     1      -9.742  18.648  65.922  1.00  0.00    -0.479 NA 
HETATM    3  H   UNL     1      -8.882  18.694  65.375  1.00  0.00     0.000 HD 
ENDROOT
BRANCH   2   4
HETATM    4  C   UNL     1     -10.180  17.449  66.506  1.00  0.00    -0.329 A  
HETATM    5  C   UNL     1     -10.563  17.451  67.852  1.00  0.00    -0.383 A  
HETATM    6  C   UNL     1     -10.968  16.271  68.487  1.00  0.00    -0.345 A  
HETATM    7  C   UNL     1     -11.045  15.070  67.775  1.00  0.00    -0.312 A  
HETATM    8  C   UNL     1     -10.352  16.265  65.781  1.00  0.00    -0.393 A  
HETATM    9  C   UNL     1     -10.759  15.084  66.409  1.00  0.00    -0.322 A  
BRANCH   7  10
HETATM   10  C   UNL     1     -11.296  13.824  68.506  1.00  0.00    -0.318 C  
HETATM   11  C   UNL     1     -11.845  13.729  69.729  1.00  0.00    -0.394 C  
BRANCH  11  12
HETATM   12  C   UNL     1     -12.155  12.438  70.363  1.00  0.00    -0.381 A  
HETATM   13  C   UNL     1     -12.966  12.356  71.498  1.00  0.00    -0.385 A  
HETATM   14  C   UNL     1     -13.209  11.131  72.116  1.00  0.00    -0.297 A  
HETATM   15  C   UNL     1     -12.665   9.952  71.604  1.00  0.00    -0.429 A  
HETATM   16  C   UNL     1     -11.643  11.250  69.822  1.00  0.00    -0.408 A  
HETATM   17  C   UNL     1     -11.891  10.018  70.443  1.00  0.00    -0.343 A  
BRANCH  15  18
HETATM   18  O   UNL     1     -12.825   8.705  72.158  1.00  0.00    -0.349 OA 
BRANCH  18  19
HETATM   19  C   UNL     1     -11.604   8.054  72.510  1.00  0.00    -0.403 C  
BRANCH  19  20
HETATM   20  C   UNL     1     -11.645   6.572  72.183  1.00  0.00    -0.308 C  
BRANCH  20  21
HETATM   21  O   UNL     1     -11.852   6.459  70.773  1.00  0.00    -0.361 OA 
BRANCH  21  22
HETATM   22  C   UNL     1     -10.635   6.564  70.041  1.00  0.00    -0.230 C  
BRANCH  22  23
HETATM   23  C   UNL     1     -10.890   6.187  68.585  1.00  0.00    -0.332 C  
BRANCH  23  24
HETATM   24  O   UNL     1      -9.841   5.329  68.139  1.00  0.00    -0.136 OA 
BRANCH  24  25
HETATM   25  C   UNL     1      -9.566   4.295  69.083  1.00  0.00    -0.179 C  
HETATM   26  C   UNL     1      -9.527   2.960  68.363  1.00  0.00    -0.143 C  
HETATM   27  F   UNL     1      -9.266   1.972  69.259  1.00  0.00    -0.137 F  
ENDBRANCH  24  25
ENDBRANCH  23  24
ENDBRANCH  22  23
ENDBRANCH  21  22
ENDBRANCH  20  21
ENDBRANCH  19  20
ENDBRANCH  18  19
ENDBRANCH  15  18
ENDBRANCH  11  12
ENDBRANCH   7  10
ENDBRANCH   2   4
TORSDOF 11
ENDMDL
MODEL       45
REMARK 921   NORMALIZED FREE ENERGY PREDICTED BY IDOCK:   -5.09 KCAL/MOL
REMARK 922        TOTAL FREE ENERGY PREDICTED BY IDOCK:   -9.44 KCAL/MOL
REMARK 923 INTER-LIGAND FREE ENERGY PREDICTED BY IDOCK:   -8.38 KCAL/MOL
REMARK 924 INTRA-LIGAND FREE ENERGY PREDICTED BY IDOCK:   -1.07 KCAL/MOL
REMARK 927      BINDING AFFINITY PREDICTED BY RF-SCORE:    0.00 PKD
ROOT
HETATM    1  C   UNL     1     -10.176  20.215  66.328  1.00  0.00    -0.422 C  
HETATM    2  N   UNL     1     -10.339  18.917  65.689  1.00  0.00    -0.531 NA 
HETATM    3  H   UNL     1     -10.426  18.826  64.677  1.00  0.00     0.000 HD 
ENDROOT
BRANCH   2   4
HETATM    4  C   UNL     1     -10.371  17.797  66.535  1.00  0.00    -0.345 A  
HETATM    5  C   UNL     1     -10.364  16.517  65.968  1.00  0.00    -0.358 A  
HETATM    6  C   UNL     1     -10.437  15.374  66.771  1.00  0.00    -0.299 A  
HETATM    7  C   UNL     1     -10.467  15.484  68.165  1.00  0.00    -0.259 A  
HETATM    8  C   UNL     1     -10.306  17.892  67.930  1.00  0.00    -0.396 A  
HETATM    9  C   UNL     1     -10.375  16.753  68.737  1.00  0.00    -0.318 A  
BRANCH   7  10
HETATM   10  C   UNL     1     -10.724  14.283  68.967  1.00  0.00    -0.259 C  
HETATM   11  C   UNL     1     -11.906  13.937  69.504  1.00  0.00    -0.383 C  
BRANCH  11  12
HETATM   12  C   UNL     1     -12.113  12.667  70.219  1.00  0.00    -0.372 A  
HETATM   13  C   UNL     1     -11.505  11.483  69.796  1.00  0.00    -0.362 A  
HETATM   14  C   UNL     1     -11.750  10.279  70.453  1.00  0.00    -0.404 A  
HETATM   15  C   UNL     1     -12.595  10.230  71.563  1.00  0.00    -0.440 A  
HETATM   16  C   UNL     1     -12.927  12.628  71.359  1.00  0.00    -0.353 A  
HETATM   17  C   UNL     1     -13.171  11.416  72.021  1.00  0.00    -0.432 A  
BRANCH  15  18
HETATM   18  O   UNL     1     -12.918   9.089  72.256  1.00  0.00    -0.388 OA 
BRANCH  18  19
HETATM   19  C   UNL     1     -12.788   7.883  71.502  1.00  0.00    -0.317 C  
BRANCH  19  20
HETATM   20  C   UNL     1     -11.820   6.914  72.158  1.00  0.00    -0.281 C  
BRANCH  20  21
HETATM   21  O   UNL     1     -11.353   7.535  73.358  1.00  0.00    -0.249 OA 
BRANCH  21  22
HETATM   22  C   UNL     1     -10.257   6.833  73.935  1.00  0.00    -0.367 C  
BRANCH  22  23
HETATM   23  C   UNL     1      -9.005   7.699  73.851  1.00  0.00    -0.267 C  
BRANCH  23  24
HETATM   24  O   UNL     1      -8.079   7.089  72.953  1.00  0.00    -0.105 OA 
BRANCH  24  25
HETATM   25  C   UNL     1      -7.510   8.038  72.053  1.00  0.00    -0.090 C  
HETATM   26  C   UNL     1      -8.625   8.819  71.381  1.00  0.00    -0.194 C  
HETATM   27  F   UNL     1      -8.087   9.724  70.522  1.00  0.00    -0.185 F  
ENDBRANCH  24  25
ENDBRANCH  23  24
ENDBRANCH  22  23
ENDBRANCH  21  22
ENDBRANCH  20  21
ENDBRANCH  19  20
ENDBRANCH  18  19
ENDBRANCH  15  18
ENDBRANCH  11  12
ENDBRANCH   7  10
ENDBRANCH   2   4
TORSDOF 11
ENDMDL
MODEL       46
REMARK 921   NORMALIZED FREE ENERGY PREDICTED BY IDOCK:   -5.04 KCAL/MOL
REMARK 922        TOTAL FREE ENERGY PREDICTED BY IDOCK:   -9.35 KCAL/MOL
REMARK 923 INTER-LIGAND FREE ENERGY PREDICTED BY IDOCK:   -7.78 KCAL/MOL
REMARK 924 INTRA-LIGAND FREE ENERGY PREDICTED BY IDOCK:   -1.57 KCAL/MOL
REMARK 927      BINDING AFFINITY PREDICTED BY RF-SCORE:    0.00 PKD
ROOT
HETATM    1  C   UNL     1     -12.534  16.189  74.175  1.00  0.00    -0.588 C  
HETATM    2  N   UNL     1     -13.567  15.618  73.322  1.00  0.00    -0.645 NA 
HETATM    3  H   UNL     1     -14.558  15.776  73.503  1.00  0.00     0.000 HD 
ENDROOT
BRANCH   2   4
HETATM    4  C   UNL     1     -13.131  14.839  72.239  1.00  0.00    -0.356 A  
HETATM    5  C   UNL     1     -13.309  13.451  72.286  1.00  0.00    -0.641 A  
HETATM    6  C   UNL     1     -12.853  12.631  71.248  1.00  0.00    -0.344 A  
HETATM    7  C   UNL     1     -12.253  13.187  70.114  1.00  0.00    -0.360 A  
HETATM    8  C   UNL     1     -12.617  15.390  71.061  1.00  0.00    -0.491 A  
HETATM    9  C   UNL     1     -12.162  14.576  70.018  1.00  0.00    -0.396 A  
BRANCH   7  10
HETATM   10  C   UNL     1     -11.626  12.295  69.132  1.00  0.00    -0.373 C  
HETATM   11  C   UNL     1     -11.794  12.354  67.800  1.00  0.00    -0.362 C  
BRANCH  11  12
HETATM   12  C   UNL     1     -11.057  11.486  66.867  1.00  0.00    -0.366 A  
HETATM   13  C   UNL     1     -10.628  10.210  67.240  1.00  0.00    -0.321 A  
HETATM   14  C   UNL     1      -9.888   9.420  66.363  1.00  0.00    -0.337 A  
HETATM   15  C   UNL     1      -9.573   9.876  65.082  1.00  0.00    -0.300 A  
HETATM   16  C   UNL     1     -10.780  11.929  65.567  1.00  0.00    -0.329 A  
HETATM   17  C   UNL     1     -10.037  11.132  64.684  1.00  0.00    -0.358 A  
BRANCH  15  18
HETATM   18  O   UNL     1      -8.827   9.183  64.160  1.00  0.00    -0.185 OA 
BRANCH  18  19
HETATM   19  C   UNL     1      -7.825   8.338  64.727  1.00  0.00    -0.129 C  
BRANCH  19  20
HETATM   20  C   UNL     1      -6.563   9.113  65.062  1.00  0.00    -0.073 C  
BRANCH  20  21
HETATM   21  O   UNL     1      -6.391   9.044  66.480  1.00  0.00    -0.063 OA 
BRANCH  21  22
HETATM   22  C   UNL     1      -5.813  10.232  67.009  1.00  0.00    -0.050 C  
BRANCH  22  23
HETATM   23  C   UNL     1      -6.823  11.370  66.911  1.00  0.00    -0.142 C  
BRANCH  23  24
HETATM   24  O   UNL     1      -6.881  12.047  68.165  1.00  0.00    -0.061 OA 
BRANCH  24  25
HETATM   25  C   UNL     1      -8.090  12.790  68.311  1.00  0.00    -0.154 C  
HETATM   26  C   UNL     1      -8.008  14.049  67.467  1.00  0.00    -0.187 C  
HETATM   27  F   UNL     1      -9.158  14.759  67.603  1.00  0.00    -0.173 F  
ENDBRANCH  24  25
ENDBRANCH  23  24
ENDBRANCH  22  23
ENDBRANCH  21  22
ENDBRANCH  20  21
ENDBRANCH  19  20
ENDBRANCH  18  19
ENDBRANCH  15  18
ENDBRANCH  11  12
ENDBRANCH   7  10
ENDBRANCH   2   4
TORSDOF 11
ENDMDL
MODEL       47
REMARK 921   NORMALIZED FREE ENERGY PREDICTED BY IDOCK:   -5.03 KCAL/MOL
REMARK 922        TOTAL FREE ENERGY PREDICTED BY IDOCK:   -9.33 KCAL/MOL
REMARK 923 INTER-LIGAND FREE ENERGY PREDICTED BY IDOCK:   -8.44 KCAL/MOL
REMARK 924 INTRA-LIGAND FREE ENERGY PREDICTED BY IDOCK:   -0.89 KCAL/MOL
REMARK 927      BINDING AFFINITY PREDICTED BY RF-SCORE:    0.00 PKD
ROOT
HETATM    1  C   UNL     1      -8.983   2.991  73.813  1.00  0.00    -0.075 C  
HETATM    2  N   UNL     1      -9.667   4.104  74.456  1.00  0.00    -0.122 NA 
HETATM    3  H   UNL     1      -9.842   4.117  75.460  1.00  0.00     0.000 HD 
ENDROOT
BRANCH   2   4
HETATM    4  C   UNL     1     -10.073   5.159  73.623  1.00  0.00    -0.188 A  
HETATM    5  C   UNL     1     -10.479   4.874  72.314  1.00  0.00    -0.267 A  
HETATM    6  C   UNL     1     -10.854   5.897  71.437  1.00  0.00    -0.332 A  
HETATM    7  C   UNL     1     -10.879   7.228  71.866  1.00  0.00    -0.255 A  
HETATM    8  C   UNL     1     -10.194   6.480  74.069  1.00  0.00    -0.374 A  
HETATM    9  C   UNL     1     -10.570   7.507  73.198  1.00  0.00    -0.442 A  
BRANCH   7  10
HETATM   10  C   UNL     1     -11.099   8.290  70.878  1.00  0.00    -0.289 C  
HETATM   11  C   UNL     1     -11.377   9.575  71.156  1.00  0.00    -0.440 C  
BRANCH  11  12
HETATM   12  C   UNL     1     -11.491  10.607  70.113  1.00  0.00    -0.411 A  
HETATM   13  C   UNL     1     -11.978  11.884  70.398  1.00  0.00    -0.400 A  
HETATM   14  C   UNL     1     -12.128  12.834  69.390  1.00  0.00    -0.248 A  
HETATM   15  C   UNL     1     -11.776  12.539  68.072  1.00  0.00    -0.355 A  
HETATM   16  C   UNL     1     -11.097  10.322  68.798  1.00  0.00    -0.276 A  
HETATM   17  C   UNL     1     -11.245  11.279  67.785  1.00  0.00    -0.354 A  
BRANCH  15  18
HETATM   18  O   UNL     1     -11.913  13.398  67.009  1.00  0.00    -0.382 OA 
BRANCH  18  19
HETATM   19  C   UNL     1     -10.699  14.026  66.597  1.00  0.00    -0.281 C  
BRANCH  19  20
HETATM   20  C   UNL     1     -10.426  15.293  67.390  1.00  0.00    -0.270 C  
BRANCH  20  21
HETATM   21  O   UNL     1      -9.195  15.094  68.088  1.00  0.00    -0.179 OA 
BRANCH  21  22
HETATM   22  C   UNL     1      -9.245  15.597  69.420  1.00  0.00    -0.279 C  
BRANCH  22  23
HETATM   23  C   UNL     1     -10.695  15.884  69.794  1.00  0.00    -0.324 C  
BRANCH  23  24
HETATM   24  O   UNL     1     -10.929  15.422  71.124  1.00  0.00    -0.345 OA 
BRANCH  24  25
HETATM   25  C   UNL     1     -12.101  16.007  71.688  1.00  0.00    -0.472 C  
HETATM   26  C   UNL     1     -12.188  15.632  73.156  1.00  0.00    -0.477 C  
HETATM   27  F   UNL     1     -13.304  16.187  73.699  1.00  0.00    -0.601 F  
ENDBRANCH  24  25
ENDBRANCH  23  24
ENDBRANCH  22  23
ENDBRANCH  21  22
ENDBRANCH  20  21
ENDBRANCH  19  20
ENDBRANCH  18  19
ENDBRANCH  15  18
ENDBRANCH  11  12
ENDBRANCH   7  10
ENDBRANCH   2   4
TORSDOF 11
ENDMDL
MODEL       48
REMARK 921   NORMALIZED FREE ENERGY PREDICTED BY IDOCK:   -5.03 KCAL/MOL
REMARK 922        TOTAL FREE ENERGY PREDICTED BY IDOCK:   -9.33 KCAL/MOL
REMARK 923 INTER-LIGAND FREE ENERGY PREDICTED BY IDOCK:   -8.25 KCAL/MOL
REMARK 924 INTRA-LIGAND FREE ENERGY PREDICTED BY IDOCK:   -1.08 KCAL/MOL
REMARK 927      BINDING AFFINITY PREDICTED BY RF-SCORE:    0.00 PKD
ROOT
HETATM    1  C   UNL     1      -9.528  20.343  67.547  1.00  0.00    -0.396 C  
HETATM    2  N   UNL     1     -10.609  19.581  66.938  1.00  0.00    -0.469 NA 
HETATM    3  H   UNL     1     -11.383  20.040  66.458  1.00  0.00     0.000 HD 
ENDROOT
BRANCH   2   4
HETATM    4  C   UNL     1     -10.532  18.183  67.043  1.00  0.00    -0.370 A  
HETATM    5  C   UNL     1     -10.485  17.415  65.874  1.00  0.00    -0.256 A  
HETATM    6  C   UNL     1     -10.449  16.018  65.931  1.00  0.00    -0.373 A  
HETATM    7  C   UNL     1     -10.408  15.357  67.162  1.00  0.00    -0.271 A  
HETATM    8  C   UNL     1     -10.395  17.516  68.266  1.00  0.00    -0.379 A  
HETATM    9  C   UNL     1     -10.355  16.120  68.329  1.00  0.00    -0.266 A  
BRANCH   7  10
HETATM   10  C   UNL     1     -10.553  13.897  67.191  1.00  0.00    -0.277 C  
HETATM   11  C   UNL     1      -9.893  13.028  66.408  1.00  0.00    -0.270 C  
BRANCH  11  12
HETATM   12  C   UNL     1     -10.019  11.569  66.559  1.00  0.00    -0.240 A  
HETATM   13  C   UNL     1      -9.664  10.694  65.529  1.00  0.00    -0.291 A  
HETATM   14  C   UNL     1      -9.837   9.318  65.669  1.00  0.00    -0.237 A  
HETATM   15  C   UNL     1     -10.349   8.779  66.849  1.00  0.00    -0.274 A  
HETATM   16  C   UNL     1     -10.493  11.026  67.761  1.00  0.00    -0.232 A  
HETATM   17  C   UNL     1     -10.662   9.642  67.902  1.00  0.00    -0.302 A  
BRANCH  15  18
HETATM   18  O   UNL     1     -10.580   7.443  67.069  1.00  0.00    -0.313 OA 
BRANCH  18  19
HETATM   19  C   UNL     1      -9.743   6.855  68.067  1.00  0.00    -0.130 C  
BRANCH  19  20
HETATM   20  C   UNL     1     -10.421   5.676  68.742  1.00  0.00    -0.219 C  
BRANCH  20  21
HETATM   21  O   UNL     1     -11.554   6.191  69.448  1.00  0.00    -0.372 OA 
BRANCH  21  22
HETATM   22  C   UNL     1     -11.173   7.018  70.543  1.00  0.00    -0.295 C  
BRANCH  22  23
HETATM   23  C   UNL     1     -12.316   7.073  71.552  1.00  0.00    -0.379 C  
BRANCH  23  24
HETATM   24  O   UNL     1     -12.128   8.202  72.402  1.00  0.00    -0.351 OA 
BRANCH  24  25
HETATM   25  C   UNL     1     -11.808   9.377  71.659  1.00  0.00    -0.394 C  
HETATM   26  C   UNL     1     -12.957  10.363  71.766  1.00  0.00    -0.475 C  
HETATM   27  F   UNL     1     -12.657  11.484  71.059  1.00  0.00    -0.423 F  
ENDBRANCH  24  25
ENDBRANCH  23  24
ENDBRANCH  22  23
ENDBRANCH  21  22
ENDBRANCH  20  21
ENDBRANCH  19  20
ENDBRANCH  18  19
ENDBRANCH  15  18
ENDBRANCH  11  12
ENDBRANCH   7  10
ENDBRANCH   2   4
TORSDOF 11
ENDMDL
MODEL       49
REMARK 921   NORMALIZED FREE ENERGY PREDICTED BY IDOCK:   -5.02 KCAL/MOL
REMARK 922        TOTAL FREE ENERGY PREDICTED BY IDOCK:   -9.33 KCAL/MOL
REMARK 923 INTER-LIGAND FREE ENERGY PREDICTED BY IDOCK:   -8.52 KCAL/MOL
REMARK 924 INTRA-LIGAND FREE ENERGY PREDICTED BY IDOCK:   -0.81 KCAL/MOL
REMARK 927      BINDING AFFINITY PREDICTED BY RF-SCORE:    0.00 PKD
ROOT
HETATM    1  C   UNL     1      -8.205   1.915  71.537  1.00  0.00    -0.050 C  
HETATM    2  N   UNL     1      -9.469   2.123  72.229  1.00  0.00    -0.091 NA 
HETATM    3  H   UNL     1      -9.927   1.372  72.744  1.00  0.00     0.000 HD 
ENDROOT
BRANCH   2   4
HETATM    4  C   UNL     1     -10.025   3.410  72.152  1.00  0.00    -0.160 A  
HETATM    5  C   UNL     1      -9.759   4.199  71.027  1.00  0.00    -0.260 A  
HETATM    6  C   UNL     1     -10.259   5.502  70.926  1.00  0.00    -0.293 A  
HETATM    7  C   UNL     1     -11.080   6.028  71.928  1.00  0.00    -0.331 A  
HETATM    8  C   UNL     1     -10.923   3.911  73.101  1.00  0.00    -0.246 A  
HETATM    9  C   UNL     1     -11.428   5.212  73.004  1.00  0.00    -0.349 A  
BRANCH   7  10
HETATM   10  C   UNL     1     -11.437   7.450  71.881  1.00  0.00    -0.300 C  
HETATM   11  C   UNL     1     -11.299   8.259  70.816  1.00  0.00    -0.285 C  
BRANCH  11  12
HETATM   12  C   UNL     1     -11.768   9.654  70.812  1.00  0.00    -0.390 A  
HETATM   13  C   UNL     1     -11.311  10.576  69.868  1.00  0.00    -0.380 A  
HETATM   14  C   UNL     1     -11.727  11.905  69.908  1.00  0.00    -0.383 A  
HETATM   15  C   UNL     1     -12.626  12.344  70.881  1.00  0.00    -0.246 A  
HETATM   16  C   UNL     1     -12.704  10.082  71.763  1.00  0.00    -0.526 A  
HETATM   17  C   UNL     1     -13.124  11.419  71.801  1.00  0.00    -0.523 A  
BRANCH  15  18
HETATM   18  O   UNL     1     -13.070  13.637  71.017  1.00  0.00    -0.271 OA 
BRANCH  18  19
HETATM   19  C   UNL     1     -12.078  14.556  71.476  1.00  0.00    -0.331 C  
BRANCH  19  20
HETATM   20  C   UNL     1     -11.958  15.757  70.554  1.00  0.00    -0.371 C  
BRANCH  20  21
HETATM   21  O   UNL     1     -12.025  15.265  69.214  1.00  0.00    -0.320 OA 
BRANCH  21  22
HETATM   22  C   UNL     1     -11.051  15.872  68.370  1.00  0.00    -0.345 C  
BRANCH  22  23
HETATM   23  C   UNL     1     -10.182  16.811  69.200  1.00  0.00    -0.306 C  
BRANCH  23  24
HETATM   24  O   UNL     1     -10.282  18.129  68.663  1.00  0.00    -0.378 OA 
BRANCH  24  25
HETATM   25  C   UNL     1     -10.568  18.110  67.265  1.00  0.00    -0.367 C  
HETATM   26  C   UNL     1     -10.749  19.535  66.774  1.00  0.00    -0.460 C  
HETATM   27  F   UNL     1     -11.023  19.522  65.443  1.00  0.00    -0.557 F  
ENDBRANCH  24  25
ENDBRANCH  23  24
ENDBRANCH  22  23
ENDBRANCH  21  22
ENDBRANCH  20  21
ENDBRANCH  19  20
ENDBRANCH  18  19
ENDBRANCH  15  18
ENDBRANCH  11  12
ENDBRANCH   7  10
ENDBRANCH   2   4
TORSDOF 11
ENDMDL
MODEL       50
REMARK 921   NORMALIZED FREE ENERGY PREDICTED BY IDOCK:   -5.02 KCAL/MOL
REMARK 922        TOTAL FREE ENERGY PREDICTED BY IDOCK:   -9.32 KCAL/MOL
REMARK 923 INTER-LIGAND FREE ENERGY PREDICTED BY IDOCK:   -8.50 KCAL/MOL
REMARK 924 INTRA-LIGAND FREE ENERGY PREDICTED BY IDOCK:   -0.83 KCAL/MOL
REMARK 927      BINDING AFFINITY PREDICTED BY RF-SCORE:    0.00 PKD
ROOT
HETATM    1  C   UNL     1     -10.143  19.957  66.145  1.00  0.00    -0.504 C  
HETATM    2  N   UNL     1     -10.483  18.665  65.566  1.00  0.00    -0.539 NA 
HETATM    3  H   UNL     1     -10.698  18.562  64.575  1.00  0.00     0.000 HD 
ENDROOT
BRANCH   2   4
HETATM    4  C   UNL     1     -10.502  17.568  66.442  1.00  0.00    -0.277 A  
HETATM    5  C   UNL     1     -10.364  16.278  65.917  1.00  0.00    -0.381 A  
HETATM    6  C   UNL     1     -10.417  15.153  66.748  1.00  0.00    -0.283 A  
HETATM    7  C   UNL     1     -10.560  15.296  68.131  1.00  0.00    -0.254 A  
HETATM    8  C   UNL     1     -10.549  17.703  67.834  1.00  0.00    -0.390 A  
HETATM    9  C   UNL     1     -10.599  16.583  68.670  1.00  0.00    -0.316 A  
BRANCH   7  10
HETATM   10  C   UNL     1     -10.794  14.102  68.950  1.00  0.00    -0.276 C  
HETATM   11  C   UNL     1     -11.963  13.754  69.514  1.00  0.00    -0.399 C  
BRANCH  11  12
HETATM   12  C   UNL     1     -12.147  12.489  70.244  1.00  0.00    -0.373 A  
HETATM   13  C   UNL     1     -11.537  11.305  69.822  1.00  0.00    -0.408 A  
HETATM   14  C   UNL     1     -11.762  10.106  70.494  1.00  0.00    -0.407 A  
HETATM   15  C   UNL     1     -12.587  10.061  71.619  1.00  0.00    -0.427 A  
HETATM   16  C   UNL     1     -12.942  12.454  71.398  1.00  0.00    -0.348 A  
HETATM   17  C   UNL     1     -13.165  11.247  72.076  1.00  0.00    -0.437 A  
BRANCH  15  18
HETATM   18  O   UNL     1     -12.889   8.924  72.328  1.00  0.00    -0.378 OA 
BRANCH  18  19
HETATM   19  C   UNL     1     -12.861   7.722  71.557  1.00  0.00    -0.329 C  
BRANCH  19  20
HETATM   20  C   UNL     1     -11.750   6.791  72.012  1.00  0.00    -0.306 C  
BRANCH  20  21
HETATM   21  O   UNL     1     -10.956   7.515  72.954  1.00  0.00    -0.323 OA 
BRANCH  21  22
HETATM   22  C   UNL     1     -10.293   6.652  73.873  1.00  0.00    -0.360 C  
BRANCH  22  23
HETATM   23  C   UNL     1      -9.185   5.899  73.145  1.00  0.00    -0.133 C  
BRANCH  23  24
HETATM   24  O   UNL     1      -9.181   4.542  73.586  1.00  0.00    -0.111 OA 
BRANCH  24  25
HETATM   25  C   UNL     1      -9.746   3.667  72.611  1.00  0.00    -0.141 C  
HETATM   26  C   UNL     1      -9.304   4.110  71.228  1.00  0.00    -0.151 C  
HETATM   27  F   UNL     1      -9.840   3.279  70.296  1.00  0.00    -0.247 F  
ENDBRANCH  24  25
ENDBRANCH  23  24
ENDBRANCH  22  23
ENDBRANCH  21  22
ENDBRANCH  20  21
ENDBRANCH  19  20
ENDBRANCH  18  19
ENDBRANCH  15  18
ENDBRANCH  11  12
ENDBRANCH   7  10
ENDBRANCH   2   4
TORSDOF 11
ENDMDL
MODEL       51
REMARK 921   NORMALIZED FREE ENERGY PREDICTED BY IDOCK:   -5.02 KCAL/MOL
REMARK 922        TOTAL FREE ENERGY PREDICTED BY IDOCK:   -9.32 KCAL/MOL
REMARK 923 INTER-LIGAND FREE ENERGY PREDICTED BY IDOCK:   -8.29 KCAL/MOL
REMARK 924 INTRA-LIGAND FREE ENERGY PREDICTED BY IDOCK:   -1.03 KCAL/MOL
REMARK 927      BINDING AFFINITY PREDICTED BY RF-SCORE:    0.00 PKD
ROOT
HETATM    1  C   UNL     1      -9.000   2.970  66.593  1.00  0.00    -0.157 C  
HETATM    2  N   UNL     1      -9.121   3.990  65.561  1.00  0.00    -0.134 NA 
HETATM    3  H   UNL     1      -9.001   3.768  64.572  1.00  0.00     0.000 HD 
ENDROOT
BRANCH   2   4
HETATM    4  C   UNL     1      -9.409   5.294  65.994  1.00  0.00    -0.158 A  
HETATM    5  C   UNL     1     -10.522   5.505  66.817  1.00  0.00    -0.355 A  
HETATM    6  C   UNL     1     -10.871   6.793  67.239  1.00  0.00    -0.443 A  
HETATM    7  C   UNL     1     -10.084   7.894  66.888  1.00  0.00    -0.362 A  
HETATM    8  C   UNL     1      -8.578   6.387  65.728  1.00  0.00    -0.152 A  
HETATM    9  C   UNL     1      -8.920   7.676  66.150  1.00  0.00    -0.197 A  
BRANCH   7  10
HETATM   10  C   UNL     1     -10.573   9.243  67.191  1.00  0.00    -0.286 C  
HETATM   11  C   UNL     1     -11.032   9.661  68.383  1.00  0.00    -0.161 C  
BRANCH  11  12
HETATM   12  C   UNL     1     -11.418  11.059  68.640  1.00  0.00    -0.375 A  
HETATM   13  C   UNL     1     -11.389  12.023  67.630  1.00  0.00    -0.375 A  
HETATM   14  C   UNL     1     -11.709  13.352  67.901  1.00  0.00    -0.396 A  
HETATM   15  C   UNL     1     -12.085  13.749  69.185  1.00  0.00    -0.333 A  
HETATM   16  C   UNL     1     -11.836  11.446  69.921  1.00  0.00    -0.435 A  
HETATM   17  C   UNL     1     -12.161  12.783  70.191  1.00  0.00    -0.370 A  
BRANCH  15  18
HETATM   18  O   UNL     1     -12.389  15.036  69.553  1.00  0.00    -0.252 OA 
BRANCH  18  19
HETATM   19  C   UNL     1     -11.334  15.723  70.229  1.00  0.00    -0.361 C  
BRANCH  19  20
HETATM   20  C   UNL     1     -10.731  16.814  69.362  1.00  0.00    -0.300 C  
BRANCH  20  21
HETATM   21  O   UNL     1      -9.478  16.323  68.881  1.00  0.00    -0.231 OA 
BRANCH  21  22
HETATM   22  C   UNL     1      -9.475  16.154  67.467  1.00  0.00    -0.223 C  
BRANCH  22  23
HETATM   23  C   UNL     1     -10.577  17.013  66.856  1.00  0.00    -0.208 C  
BRANCH  23  24
HETATM   24  O   UNL     1     -10.000  17.881  65.882  1.00  0.00    -0.533 OA 
BRANCH  24  25
HETATM   25  C   UNL     1     -10.425  19.231  66.057  1.00  0.00    -0.487 C  
HETATM   26  C   UNL     1      -9.498  19.922  67.040  1.00  0.00    -0.380 C  
HETATM   27  F   UNL     1      -9.899  21.209  67.211  1.00  0.00    -0.622 F  
ENDBRANCH  24  25
ENDBRANCH  23  24
ENDBRANCH  22  23
ENDBRANCH  21  22
ENDBRANCH  20  21
ENDBRANCH  19  20
ENDBRANCH  18  19
ENDBRANCH  15  18
ENDBRANCH  11  12
ENDBRANCH   7  10
ENDBRANCH   2   4
TORSDOF 11
ENDMDL
MODEL       52
REMARK 921   NORMALIZED FREE ENERGY PREDICTED BY IDOCK:   -4.99 KCAL/MOL
REMARK 922        TOTAL FREE ENERGY PREDICTED BY IDOCK:   -9.27 KCAL/MOL
REMARK 923 INTER-LIGAND FREE ENERGY PREDICTED BY IDOCK:   -7.48 KCAL/MOL
REMARK 924 INTRA-LIGAND FREE ENERGY PREDICTED BY IDOCK:   -1.79 KCAL/MOL
REMARK 927      BINDING AFFINITY PREDICTED BY RF-SCORE:    0.00 PKD
ROOT
HETATM    1  C   UNL     1     -13.348  15.947  73.152  1.00  0.00    -0.587 C  
HETATM    2  N   UNL     1     -13.459  15.560  71.753  1.00  0.00    -0.474 NA 
HETATM    3  H   UNL     1     -13.772  16.218  71.039  1.00  0.00     0.000 HD 
ENDROOT
BRANCH   2   4
HETATM    4  C   UNL     1     -13.115  14.236  71.435  1.00  0.00    -0.351 A  
HETATM    5  C   UNL     1     -13.624  13.195  72.221  1.00  0.00    -0.677 A  
HETATM    6  C   UNL     1     -13.276  11.864  71.967  1.00  0.00    -0.461 A  
HETATM    7  C   UNL     1     -12.448  11.540  70.887  1.00  0.00    -0.464 A  
HETATM    8  C   UNL     1     -12.367  13.892  70.304  1.00  0.00    -0.413 A  
HETATM    9  C   UNL     1     -12.018  12.564  70.043  1.00  0.00    -0.372 A  
BRANCH   7  10
HETATM   10  C   UNL     1     -11.957  10.164  70.756  1.00  0.00    -0.442 C  
HETATM   11  C   UNL     1     -11.632   9.347  71.773  1.00  0.00    -0.433 C  
BRANCH  11  12
HETATM   12  C   UNL     1     -11.237   7.944  71.569  1.00  0.00    -0.286 A  
HETATM   13  C   UNL     1     -10.638   7.197  72.587  1.00  0.00    -0.290 A  
HETATM   14  C   UNL     1     -10.224   5.886  72.362  1.00  0.00    -0.217 A  
HETATM   15  C   UNL     1     -10.415   5.278  71.121  1.00  0.00    -0.205 A  
HETATM   16  C   UNL     1     -11.469   7.322  70.334  1.00  0.00    -0.279 A  
HETATM   17  C   UNL     1     -11.055   6.001  70.111  1.00  0.00    -0.432 A  
BRANCH  15  18
HETATM   18  O   UNL     1     -10.017   4.004  70.798  1.00  0.00    -0.188 OA 
BRANCH  18  19
HETATM   19  C   UNL     1      -8.717   3.653  71.276  1.00  0.00    -0.081 C  
BRANCH  19  20
HETATM   20  C   UNL     1      -7.628   4.100  70.316  1.00  0.00    -0.045 C  
BRANCH  20  21
HETATM   21  O   UNL     1      -6.990   5.236  70.905  1.00  0.00    -0.051 OA 
BRANCH  21  22
HETATM   22  C   UNL     1      -6.555   6.175  69.926  1.00  0.00    -0.044 C  
BRANCH  22  23
HETATM   23  C   UNL     1      -7.521   7.355  69.897  1.00  0.00    -0.085 C  
BRANCH  23  24
HETATM   24  O   UNL     1      -8.094   7.451  68.595  1.00  0.00    -0.121 OA 
BRANCH  24  25
HETATM   25  C   UNL     1      -8.706   8.722  68.378  1.00  0.00    -0.135 C  
HETATM   26  C   UNL     1      -8.508   9.587  69.609  1.00  0.00    -0.169 C  
HETATM   27  F   UNL     1      -9.090  10.799  69.407  1.00  0.00    -0.176 F  
ENDBRANCH  24  25
ENDBRANCH  23  24
ENDBRANCH  22  23
ENDBRANCH  21  22
ENDBRANCH  20  21
ENDBRANCH  19  20
ENDBRANCH  18  19
ENDBRANCH  15  18
ENDBRANCH  11  12
ENDBRANCH   7  10
ENDBRANCH   2   4
TORSDOF 11
ENDMDL
MODEL       53
REMARK 921   NORMALIZED FREE ENERGY PREDICTED BY IDOCK:   -4.99 KCAL/MOL
REMARK 922        TOTAL FREE ENERGY PREDICTED BY IDOCK:   -9.27 KCAL/MOL
REMARK 923 INTER-LIGAND FREE ENERGY PREDICTED BY IDOCK:   -7.83 KCAL/MOL
REMARK 924 INTRA-LIGAND FREE ENERGY PREDICTED BY IDOCK:   -1.43 KCAL/MOL
REMARK 927      BINDING AFFINITY PREDICTED BY RF-SCORE:    0.00 PKD
ROOT
HETATM    1  C   UNL     1     -12.410  16.008  74.412  1.00  0.00    -0.577 C  
HETATM    2  N   UNL     1     -13.410  15.227  73.698  1.00  0.00    -0.620 NA 
HETATM    3  H   UNL     1     -14.324  15.030  74.104  1.00  0.00     0.000 HD 
ENDROOT
BRANCH   2   4
HETATM    4  C   UNL     1     -13.053  14.759  72.424  1.00  0.00    -0.377 A  
HETATM    5  C   UNL     1     -13.167  13.392  72.146  1.00  0.00    -0.557 A  
HETATM    6  C   UNL     1     -12.784  12.875  70.903  1.00  0.00    -0.291 A  
HETATM    7  C   UNL     1     -12.324  13.724  69.891  1.00  0.00    -0.334 A  
HETATM    8  C   UNL     1     -12.683  15.608  71.375  1.00  0.00    -0.535 A  
HETATM    9  C   UNL     1     -12.302  15.098  70.130  1.00  0.00    -0.385 A  
BRANCH   7  10
HETATM   10  C   UNL     1     -11.763  13.135  68.670  1.00  0.00    -0.362 C  
HETATM   11  C   UNL     1     -12.198  13.361  67.419  1.00  0.00    -0.262 C  
BRANCH  11  12
HETATM   12  C   UNL     1     -11.524  12.810  66.232  1.00  0.00    -0.405 A  
HETATM   13  C   UNL     1     -11.085  11.485  66.190  1.00  0.00    -0.302 A  
HETATM   14  C   UNL     1     -10.404  10.992  65.079  1.00  0.00    -0.360 A  
HETATM   15  C   UNL     1     -10.161  11.806  63.971  1.00  0.00    -0.327 A  
HETATM   16  C   UNL     1     -11.319  13.616  65.104  1.00  0.00    -0.319 A  
HETATM   17  C   UNL     1     -10.637  13.119  63.985  1.00  0.00    -0.303 A  
BRANCH  15  18
HETATM   18  O   UNL     1      -9.476  11.418  62.845  1.00  0.00    -0.368 OA 
BRANCH  18  19
HETATM   19  C   UNL     1      -9.181  10.022  62.785  1.00  0.00    -0.290 C  
BRANCH  19  20
HETATM   20  C   UNL     1      -7.701   9.753  62.994  1.00  0.00    -0.133 C  
BRANCH  20  21
HETATM   21  O   UNL     1      -7.599   8.660  63.911  1.00  0.00    -0.114 OA 
BRANCH  21  22
HETATM   22  C   UNL     1      -6.468   8.782  64.767  1.00  0.00    -0.066 C  
BRANCH  22  23
HETATM   23  C   UNL     1      -6.654   9.993  65.676  1.00  0.00    -0.104 C  
BRANCH  23  24
HETATM   24  O   UNL     1      -6.761   9.546  67.026  1.00  0.00    -0.070 OA 
BRANCH  24  25
HETATM   25  C   UNL     1      -7.760  10.268  67.745  1.00  0.00    -0.090 C  
HETATM   26  C   UNL     1      -7.573  11.754  67.502  1.00  0.00    -0.135 C  
HETATM   27  F   UNL     1      -8.522  12.446  68.185  1.00  0.00    -0.149 F  
ENDBRANCH  24  25
ENDBRANCH  23  24
ENDBRANCH  22  23
ENDBRANCH  21  22
ENDBRANCH  20  21
ENDBRANCH  19  20
ENDBRANCH  18  19
ENDBRANCH  15  18
ENDBRANCH  11  12
ENDBRANCH   7  10
ENDBRANCH   2   4
TORSDOF 11
ENDMDL
MODEL       54
REMARK 921   NORMALIZED FREE ENERGY PREDICTED BY IDOCK:   -4.95 KCAL/MOL
REMARK 922        TOTAL FREE ENERGY PREDICTED BY IDOCK:   -9.21 KCAL/MOL
REMARK 923 INTER-LIGAND FREE ENERGY PREDICTED BY IDOCK:   -8.39 KCAL/MOL
REMARK 924 INTRA-LIGAND FREE ENERGY PREDICTED BY IDOCK:   -0.82 KCAL/MOL
REMARK 927      BINDING AFFINITY PREDICTED BY RF-SCORE:    0.00 PKD
ROOT
HETATM    1  C   UNL     1      -9.574   2.978  72.719  1.00  0.00    -0.111 C  
HETATM    2  N   UNL     1     -10.715   3.803  73.088  1.00  0.00    -0.180 NA 
HETATM    3  H   UNL     1     -11.463   3.446  73.684  1.00  0.00     0.000 HD 
ENDROOT
BRANCH   2   4
HETATM    4  C   UNL     1     -10.736   5.112  72.582  1.00  0.00    -0.237 A  
HETATM    5  C   UNL     1     -10.746   6.186  73.480  1.00  0.00    -0.263 A  
HETATM    6  C   UNL     1     -10.808   7.507  73.022  1.00  0.00    -0.445 A  
HETATM    7  C   UNL     1     -10.811   7.785  71.652  1.00  0.00    -0.265 A  
HETATM    8  C   UNL     1     -10.644   5.405  71.217  1.00  0.00    -0.276 A  
HETATM    9  C   UNL     1     -10.702   6.723  70.754  1.00  0.00    -0.270 A  
BRANCH   7  10
HETATM   10  C   UNL     1     -11.058   9.161  71.206  1.00  0.00    -0.405 C  
HETATM   11  C   UNL     1     -12.207   9.841  71.361  1.00  0.00    -0.486 C  
BRANCH  11  12
HETATM   12  C   UNL     1     -12.352  11.253  70.973  1.00  0.00    -0.472 A  
HETATM   13  C   UNL     1     -11.810  11.744  69.783  1.00  0.00    -0.420 A  
HETATM   14  C   UNL     1     -11.912  13.095  69.454  1.00  0.00    -0.347 A  
HETATM   15  C   UNL     1     -12.576  13.987  70.297  1.00  0.00    -0.291 A  
HETATM   16  C   UNL     1     -13.057  12.139  71.800  1.00  0.00    -0.457 A  
HETATM   17  C   UNL     1     -13.162  13.497  71.466  1.00  0.00    -0.402 A  
BRANCH  15  18
HETATM   18  O   UNL     1     -12.704  15.336  70.072  1.00  0.00    -0.276 OA 
BRANCH  18  19
HETATM   19  C   UNL     1     -11.514  16.089  70.310  1.00  0.00    -0.359 C  
BRANCH  19  20
HETATM   20  C   UNL     1     -10.892  16.579  69.014  1.00  0.00    -0.329 C  
BRANCH  20  21
HETATM   21  O   UNL     1     -10.141  17.755  69.327  1.00  0.00    -0.281 OA 
BRANCH  21  22
HETATM   22  C   UNL     1      -9.938  18.582  68.186  1.00  0.00    -0.361 C  
BRANCH  22  23
HETATM   23  C   UNL     1     -10.613  17.943  66.976  1.00  0.00    -0.279 C  
BRANCH  23  24
HETATM   24  O   UNL     1      -9.654  17.810  65.928  1.00  0.00    -0.517 OA 
BRANCH  24  25
HETATM   25  C   UNL     1      -8.422  17.271  66.404  1.00  0.00    -0.269 C  
HETATM   26  C   UNL     1      -8.450  15.760  66.262  1.00  0.00    -0.210 C  
HETATM   27  F   UNL     1      -7.278  15.242  66.714  1.00  0.00    -0.177 F  
ENDBRANCH  24  25
ENDBRANCH  23  24
ENDBRANCH  22  23
ENDBRANCH  21  22
ENDBRANCH  20  21
ENDBRANCH  19  20
ENDBRANCH  18  19
ENDBRANCH  15  18
ENDBRANCH  11  12
ENDBRANCH   7  10
ENDBRANCH   2   4
TORSDOF 11
ENDMDL
MODEL       55
REMARK 921   NORMALIZED FREE ENERGY PREDICTED BY IDOCK:   -4.92 KCAL/MOL
REMARK 922        TOTAL FREE ENERGY PREDICTED BY IDOCK:   -9.15 KCAL/MOL
REMARK 923 INTER-LIGAND FREE ENERGY PREDICTED BY IDOCK:   -8.26 KCAL/MOL
REMARK 924 INTRA-LIGAND FREE ENERGY PREDICTED BY IDOCK:   -0.89 KCAL/MOL
REMARK 927      BINDING AFFINITY PREDICTED BY RF-SCORE:    0.00 PKD
ROOT
HETATM    1  C   UNL     1     -12.423  16.459  74.515  1.00  0.00    -0.351 C  
HETATM    2  N   UNL     1     -13.497  15.860  73.736  1.00  0.00    -0.793 NA 
HETATM    3  H   UNL     1     -14.475  15.951  74.013  1.00  0.00     0.000 HD 
ENDROOT
BRANCH   2   4
HETATM    4  C   UNL     1     -13.121  15.149  72.585  1.00  0.00    -0.421 A  
HETATM    5  C   UNL     1     -13.482  13.802  72.471  1.00  0.00    -0.682 A  
HETATM    6  C   UNL     1     -13.094  13.043  71.361  1.00  0.00    -0.336 A  
HETATM    7  C   UNL     1     -12.376  13.631  70.314  1.00  0.00    -0.392 A  
HETATM    8  C   UNL     1     -12.487  15.749  71.491  1.00  0.00    -0.515 A  
HETATM    9  C   UNL     1     -12.099  14.997  70.378  1.00  0.00    -0.384 A  
BRANCH   7  10
HETATM   10  C   UNL     1     -11.830  12.773  69.257  1.00  0.00    -0.358 C  
HETATM   11  C   UNL     1     -11.998  12.954  67.936  1.00  0.00    -0.333 C  
BRANCH  11  12
HETATM   12  C   UNL     1     -11.340  12.106  66.928  1.00  0.00    -0.402 A  
HETATM   13  C   UNL     1     -10.594  10.983  67.293  1.00  0.00    -0.287 A  
HETATM   14  C   UNL     1      -9.935  10.219  66.331  1.00  0.00    -0.287 A  
HETATM   15  C   UNL     1     -10.021  10.547  64.977  1.00  0.00    -0.322 A  
HETATM   16  C   UNL     1     -11.463  12.411  65.566  1.00  0.00    -0.404 A  
HETATM   17  C   UNL     1     -10.803  11.641  64.599  1.00  0.00    -0.373 A  
BRANCH  15  18
HETATM   18  O   UNL     1      -9.387   9.873  63.962  1.00  0.00    -0.269 OA 
BRANCH  18  19
HETATM   19  C   UNL     1      -8.252   9.112  64.379  1.00  0.00    -0.158 C  
BRANCH  19  20
HETATM   20  C   UNL     1      -8.078   7.859  63.538  1.00  0.00    -0.079 C  
BRANCH  20  21
HETATM   21  O   UNL     1      -7.704   6.805  64.429  1.00  0.00    -0.098 OA 
BRANCH  21  22
HETATM   22  C   UNL     1      -7.929   7.149  65.792  1.00  0.00    -0.123 C  
BRANCH  22  23
HETATM   23  C   UNL     1      -8.458   5.929  66.538  1.00  0.00    -0.113 C  
BRANCH  23  24
HETATM   24  O   UNL     1      -9.253   5.150  65.646  1.00  0.00    -0.156 OA 
BRANCH  24  25
HETATM   25  C   UNL     1      -9.632   3.903  66.225  1.00  0.00    -0.185 C  
HETATM   26  C   UNL     1      -9.321   3.928  67.711  1.00  0.00    -0.183 C  
HETATM   27  F   UNL     1      -9.680   2.741  68.267  1.00  0.00    -0.257 F  
ENDBRANCH  24  25
ENDBRANCH  23  24
ENDBRANCH  22  23
ENDBRANCH  21  22
ENDBRANCH  20  21
ENDBRANCH  19  20
ENDBRANCH  18  19
ENDBRANCH  15  18
ENDBRANCH  11  12
ENDBRANCH   7  10
ENDBRANCH   2   4
TORSDOF 11
ENDMDL
MODEL       56
REMARK 921   NORMALIZED FREE ENERGY PREDICTED BY IDOCK:   -4.91 KCAL/MOL
REMARK 922        TOTAL FREE ENERGY PREDICTED BY IDOCK:   -9.14 KCAL/MOL
REMARK 923 INTER-LIGAND FREE ENERGY PREDICTED BY IDOCK:   -7.92 KCAL/MOL
REMARK 924 INTRA-LIGAND FREE ENERGY PREDICTED BY IDOCK:   -1.22 KCAL/MOL
REMARK 927      BINDING AFFINITY PREDICTED BY RF-SCORE:    0.00 PKD
ROOT
HETATM    1  C   UNL     1     -10.039   4.714  70.195  1.00  0.00    -0.213 C  
HETATM    2  N   UNL     1     -11.121   5.688  70.224  1.00  0.00    -0.229 NA 
HETATM    3  H   UNL     1     -12.020   5.476  70.655  1.00  0.00     0.000 HD 
ENDROOT
BRANCH   2   4
HETATM    4  C   UNL     1     -10.864   6.933  69.628  1.00  0.00    -0.259 A  
HETATM    5  C   UNL     1     -10.844   8.079  70.431  1.00  0.00    -0.247 A  
HETATM    6  C   UNL     1     -10.633   9.345  69.874  1.00  0.00    -0.258 A  
HETATM    7  C   UNL     1     -10.387   9.488  68.505  1.00  0.00    -0.234 A  
HETATM    8  C   UNL     1     -10.523   7.077  68.279  1.00  0.00    -0.237 A  
HETATM    9  C   UNL     1     -10.308   8.340  67.717  1.00  0.00    -0.296 A  
BRANCH   7  10
HETATM   10  C   UNL     1     -10.350  10.835  67.926  1.00  0.00    -0.216 C  
HETATM   11  C   UNL     1     -11.088  11.263  66.888  1.00  0.00    -0.339 C  
BRANCH  11  12
HETATM   12  C   UNL     1     -11.068  12.659  66.421  1.00  0.00    -0.325 A  
HETATM   13  C   UNL     1     -12.171  13.232  65.785  1.00  0.00    -0.510 A  
HETATM   14  C   UNL     1     -12.119  14.539  65.303  1.00  0.00    -0.337 A  
HETATM   15  C   UNL     1     -10.970  15.314  65.463  1.00  0.00    -0.359 A  
HETATM   16  C   UNL     1      -9.928  13.449  66.621  1.00  0.00    -0.277 A  
HETATM   17  C   UNL     1      -9.878  14.765  66.139  1.00  0.00    -0.335 A  
BRANCH  15  18
HETATM   18  O   UNL     1     -10.815  16.598  64.999  1.00  0.00    -0.641 OA 
BRANCH  18  19
HETATM   19  C   UNL     1      -9.912  17.397  65.764  1.00  0.00    -0.062 C  
BRANCH  19  20
HETATM   20  C   UNL     1     -10.499  18.763  66.074  1.00  0.00    -0.432 C  
BRANCH  20  21
HETATM   21  O   UNL     1     -10.209  19.042  67.446  1.00  0.00    -0.347 OA 
BRANCH  21  22
HETATM   22  C   UNL     1      -9.493  17.981  68.071  1.00  0.00    -0.284 C  
BRANCH  22  23
HETATM   23  C   UNL     1     -10.386  17.319  69.114  1.00  0.00    -0.290 C  
BRANCH  23  24
HETATM   24  O   UNL     1      -9.883  16.013  69.391  1.00  0.00    -0.242 OA 
BRANCH  24  25
HETATM   25  C   UNL     1     -10.807  15.240  70.156  1.00  0.00    -0.281 C  
HETATM   26  C   UNL     1     -12.024  14.931  69.303  1.00  0.00    -0.291 C  
HETATM   27  F   UNL     1     -12.908  14.195  70.027  1.00  0.00    -0.374 F  
ENDBRANCH  24  25
ENDBRANCH  23  24
ENDBRANCH  22  23
ENDBRANCH  21  22
ENDBRANCH  20  21
ENDBRANCH  19  20
ENDBRANCH  18  19
ENDBRANCH  15  18
ENDBRANCH  11  12
ENDBRANCH   7  10
ENDBRANCH   2   4
TORSDOF 11
ENDMDL
MODEL       57
REMARK 921   NORMALIZED FREE ENERGY PREDICTED BY IDOCK:   -4.90 KCAL/MOL
REMARK 922        TOTAL FREE ENERGY PREDICTED BY IDOCK:   -9.13 KCAL/MOL
REMARK 923 INTER-LIGAND FREE ENERGY PREDICTED BY IDOCK:   -8.35 KCAL/MOL
REMARK 924 INTRA-LIGAND FREE ENERGY PREDICTED BY IDOCK:   -0.77 KCAL/MOL
REMARK 927      BINDING AFFINITY PREDICTED BY RF-SCORE:    0.00 PKD
ROOT
HETATM    1  C   UNL     1      -9.880   2.872  72.111  1.00  0.00    -0.169 C  
HETATM    2  N   UNL     1     -10.230   4.110  72.793  1.00  0.00    -0.160 NA 
HETATM    3  H   UNL     1     -10.306   4.157  73.809  1.00  0.00     0.000 HD 
ENDROOT
BRANCH   2   4
HETATM    4  C   UNL     1     -10.459   5.233  71.983  1.00  0.00    -0.222 A  
HETATM    5  C   UNL     1     -10.346   5.103  70.594  1.00  0.00    -0.305 A  
HETATM    6  C   UNL     1     -10.526   6.205  69.750  1.00  0.00    -0.299 A  
HETATM    7  C   UNL     1     -10.872   7.454  70.276  1.00  0.00    -0.260 A  
HETATM    8  C   UNL     1     -10.899   6.461  72.489  1.00  0.00    -0.268 A  
HETATM    9  C   UNL     1     -11.082   7.566  71.650  1.00  0.00    -0.270 A  
BRANCH   7  10
HETATM   10  C   UNL     1     -10.875   8.622  69.389  1.00  0.00    -0.108 C  
HETATM   11  C   UNL     1     -10.302   8.687  68.175  1.00  0.00    -0.267 C  
BRANCH  11  12
HETATM   12  C   UNL     1     -10.428   9.864  67.300  1.00  0.00    -0.319 A  
HETATM   13  C   UNL     1     -11.294  10.915  67.607  1.00  0.00    -0.345 A  
HETATM   14  C   UNL     1     -11.439  11.998  66.743  1.00  0.00    -0.410 A  
HETATM   15  C   UNL     1     -10.706  12.069  65.557  1.00  0.00    -0.276 A  
HETATM   16  C   UNL     1      -9.659   9.953  66.131  1.00  0.00    -0.275 A  
HETATM   17  C   UNL     1      -9.803  11.045  65.263  1.00  0.00    -0.309 A  
BRANCH  15  18
HETATM   18  O   UNL     1     -10.802  13.080  64.632  1.00  0.00    -0.315 OA 
BRANCH  18  19
HETATM   19  C   UNL     1     -11.141  14.354  65.182  1.00  0.00    -0.362 C  
BRANCH  19  20
HETATM   20  C   UNL     1     -11.986  15.172  64.221  1.00  0.00    -0.262 C  
BRANCH  20  21
HETATM   21  O   UNL     1     -11.441  16.494  64.205  1.00  0.00    -1.059 OA 
BRANCH  21  22
HETATM   22  C   UNL     1     -10.533  16.714  65.280  1.00  0.00    -0.173 C  
BRANCH  22  23
HETATM   23  C   UNL     1     -10.650  18.161  65.748  1.00  0.00    -0.175 C  
BRANCH  23  24
HETATM   24  O   UNL     1      -9.340  18.707  65.891  1.00  0.00    -0.475 OA 
BRANCH  24  25
HETATM   25  C   UNL     1      -9.169  19.347  67.155  1.00  0.00    -0.313 C  
HETATM   26  C   UNL     1     -10.520  19.483  67.832  1.00  0.00    -0.427 C  
HETATM   27  F   UNL     1     -10.361  20.093  69.036  1.00  0.00    -0.529 F  
ENDBRANCH  24  25
ENDBRANCH  23  24
ENDBRANCH  22  23
ENDBRANCH  21  22
ENDBRANCH  20  21
ENDBRANCH  19  20
ENDBRANCH  18  19
ENDBRANCH  15  18
ENDBRANCH  11  12
ENDBRANCH   7  10
ENDBRANCH   2   4
TORSDOF 11
ENDMDL
MODEL       58
REMARK 921   NORMALIZED FREE ENERGY PREDICTED BY IDOCK:   -4.90 KCAL/MOL
REMARK 922        TOTAL FREE ENERGY PREDICTED BY IDOCK:   -9.12 KCAL/MOL
REMARK 923 INTER-LIGAND FREE ENERGY PREDICTED BY IDOCK:   -7.74 KCAL/MOL
REMARK 924 INTRA-LIGAND FREE ENERGY PREDICTED BY IDOCK:   -1.38 KCAL/MOL
REMARK 927      BINDING AFFINITY PREDICTED BY RF-SCORE:    0.00 PKD
ROOT
HETATM    1  C   UNL     1      -9.766   4.273  74.296  1.00  0.00    -0.122 C  
HETATM    2  N   UNL     1     -10.818   5.277  74.369  1.00  0.00    -0.406 NA 
HETATM    3  H   UNL     1     -11.510   5.273  75.117  1.00  0.00     0.000 HD 
ENDROOT
BRANCH   2   4
HETATM    4  C   UNL     1     -10.832   6.250  73.356  1.00  0.00    -0.214 A  
HETATM    5  C   UNL     1     -10.006   7.373  73.482  1.00  0.00    -0.377 A  
HETATM    6  C   UNL     1     -10.018   8.387  72.518  1.00  0.00    -0.356 A  
HETATM    7  C   UNL     1     -10.821   8.276  71.379  1.00  0.00    -0.293 A  
HETATM    8  C   UNL     1     -11.558   6.105  72.169  1.00  0.00    -0.369 A  
HETATM    9  C   UNL     1     -11.571   7.113  71.200  1.00  0.00    -0.336 A  
BRANCH   7  10
HETATM   10  C   UNL     1     -10.947   9.430  70.482  1.00  0.00    -0.332 C  
HETATM   11  C   UNL     1      -9.933  10.054  69.859  1.00  0.00    -0.280 C  
BRANCH  11  12
HETATM   12  C   UNL     1     -10.144  11.148  68.897  1.00  0.00    -0.199 A  
HETATM   13  C   UNL     1      -9.076  11.884  68.381  1.00  0.00    -0.167 A  
HETATM   14  C   UNL     1      -9.296  12.949  67.510  1.00  0.00    -0.190 A  
HETATM   15  C   UNL     1     -10.589  13.294  67.116  1.00  0.00    -0.258 A  
HETATM   16  C   UNL     1     -11.441  11.465  68.470  1.00  0.00    -0.361 A  
HETATM   17  C   UNL     1     -11.661  12.535  67.591  1.00  0.00    -0.423 A  
BRANCH  15  18
HETATM   18  O   UNL     1     -10.906  14.342  66.286  1.00  0.00    -0.304 OA 
BRANCH  18  19
HETATM   19  C   UNL     1     -10.453  14.188  64.941  1.00  0.00    -0.438 C  
BRANCH  19  20
HETATM   20  C   UNL     1     -11.120  13.007  64.257  1.00  0.00    -0.385 C  
BRANCH  20  21
HETATM   21  O   UNL     1     -10.144  12.414  63.397  1.00  0.00    -0.393 OA 
BRANCH  21  22
HETATM   22  C   UNL     1     -10.087  10.999  63.546  1.00  0.00    -0.373 C  
BRANCH  22  23
HETATM   23  C   UNL     1      -8.631  10.566  63.686  1.00  0.00    -0.156 C  
BRANCH  23  24
HETATM   24  O   UNL     1      -8.436  10.015  64.988  1.00  0.00    -0.143 OA 
BRANCH  24  25
HETATM   25  C   UNL     1      -9.675   9.771  65.651  1.00  0.00    -0.288 C  
HETATM   26  C   UNL     1      -9.535   8.546  66.536  1.00  0.00    -0.218 C  
HETATM   27  F   UNL     1     -10.713   8.310  67.169  1.00  0.00    -0.357 F  
ENDBRANCH  24  25
ENDBRANCH  23  24
ENDBRANCH  22  23
ENDBRANCH  21  22
ENDBRANCH  20  21
ENDBRANCH  19  20
ENDBRANCH  18  19
ENDBRANCH  15  18
ENDBRANCH  11  12
ENDBRANCH   7  10
ENDBRANCH   2   4
TORSDOF 11
ENDMDL
MODEL       59
REMARK 921   NORMALIZED FREE ENERGY PREDICTED BY IDOCK:   -4.89 KCAL/MOL
REMARK 922        TOTAL FREE ENERGY PREDICTED BY IDOCK:   -9.10 KCAL/MOL
REMARK 923 INTER-LIGAND FREE ENERGY PREDICTED BY IDOCK:   -8.07 KCAL/MOL
REMARK 924 INTRA-LIGAND FREE ENERGY PREDICTED BY IDOCK:   -1.03 KCAL/MOL
REMARK 927      BINDING AFFINITY PREDICTED BY RF-SCORE:    0.00 PKD
ROOT
HETATM    1  C   UNL     1      -7.451   2.332  64.874  1.00  0.00    -0.067 C  
HETATM    2  N   UNL     1      -8.792   2.891  64.779  1.00  0.00    -0.110 NA 
HETATM    3  H   UNL     1      -9.502   2.478  64.175  1.00  0.00     0.000 HD 
ENDROOT
BRANCH   2   4
HETATM    4  C   UNL     1      -9.057   4.028  65.558  1.00  0.00    -0.142 A  
HETATM    5  C   UNL     1      -9.721   3.872  66.781  1.00  0.00    -0.189 A  
HETATM    6  C   UNL     1     -10.043   4.980  67.572  1.00  0.00    -0.201 A  
HETATM    7  C   UNL     1      -9.663   6.268  67.181  1.00  0.00    -0.164 A  
HETATM    8  C   UNL     1      -8.600   5.307  65.224  1.00  0.00    -0.150 A  
HETATM    9  C   UNL     1      -8.916   6.418  66.012  1.00  0.00    -0.143 A  
BRANCH   7  10
HETATM   10  C   UNL     1     -10.170   7.419  67.935  1.00  0.00    -0.242 C  
HETATM   11  C   UNL     1     -10.202   8.690  67.499  1.00  0.00    -0.308 C  
BRANCH  11  12
HETATM   12  C   UNL     1     -10.814   9.781  68.275  1.00  0.00    -0.256 A  
HETATM   13  C   UNL     1     -11.213  10.974  67.669  1.00  0.00    -0.373 A  
HETATM   14  C   UNL     1     -11.745  12.017  68.426  1.00  0.00    -0.390 A  
HETATM   15  C   UNL     1     -11.910  11.887  69.805  1.00  0.00    -0.340 A  
HETATM   16  C   UNL     1     -11.019   9.631  69.654  1.00  0.00    -0.253 A  
HETATM   17  C   UNL     1     -11.557  10.680  70.413  1.00  0.00    -0.441 A  
BRANCH  15  18
HETATM   18  O   UNL     1     -12.398  12.866  70.635  1.00  0.00    -0.358 OA 
BRANCH  18  19
HETATM   19  C   UNL     1     -13.111  12.376  71.772  1.00  0.00    -0.342 C  
BRANCH  19  20
HETATM   20  C   UNL     1     -14.012  13.442  72.371  1.00  0.00    -0.504 C  
BRANCH  20  21
HETATM   21  O   UNL     1     -13.206  14.224  73.256  1.00  0.00    -0.614 OA 
BRANCH  21  22
HETATM   22  C   UNL     1     -13.335  15.620  73.006  1.00  0.00    -0.570 C  
BRANCH  22  23
HETATM   23  C   UNL     1     -12.098  16.115  72.263  1.00  0.00    -0.531 C  
BRANCH  23  24
HETATM   24  O   UNL     1     -12.360  16.088  70.861  1.00  0.00    -0.380 OA 
BRANCH  24  25
HETATM   25  C   UNL     1     -11.156  16.128  70.097  1.00  0.00    -0.371 C  
HETATM   26  C   UNL     1     -11.476  15.823  68.645  1.00  0.00    -0.386 C  
HETATM   27  F   UNL     1     -10.332  15.860  67.913  1.00  0.00    -0.245 F  
ENDBRANCH  24  25
ENDBRANCH  23  24
ENDBRANCH  22  23
ENDBRANCH  21  22
ENDBRANCH  20  21
ENDBRANCH  19  20
ENDBRANCH  18  19
ENDBRANCH  15  18
ENDBRANCH  11  12
ENDBRANCH   7  10
ENDBRANCH   2   4
TORSDOF 11
ENDMDL
MODEL       60
REMARK 921   NORMALIZED FREE ENERGY PREDICTED BY IDOCK:   -4.85 KCAL/MOL
REMARK 922        TOTAL FREE ENERGY PREDICTED BY IDOCK:   -9.04 KCAL/MOL
REMARK 923 INTER-LIGAND FREE ENERGY PREDICTED BY IDOCK:   -8.19 KCAL/MOL
REMARK 924 INTRA-LIGAND FREE ENERGY PREDICTED BY IDOCK:   -0.85 KCAL/MOL
REMARK 927      BINDING AFFINITY PREDICTED BY RF-SCORE:    0.00 PKD
ROOT
HETATM    1  C   UNL     1     -10.831  17.607  65.211  1.00  0.00     0.194 C  
HETATM    2  N   UNL     1     -11.139  16.570  64.236  1.00  0.00    -1.300 NA 
HETATM    3  H   UNL     1     -11.336  16.794  63.260  1.00  0.00     0.000 HD 
ENDROOT
BRANCH   2   4
HETATM    4  C   UNL     1     -11.153  15.247  64.705  1.00  0.00    -0.394 A  
HETATM    5  C   UNL     1     -10.179  14.844  65.627  1.00  0.00    -0.382 A  
HETATM    6  C   UNL     1     -10.129  13.524  66.091  1.00  0.00    -0.307 A  
HETATM    7  C   UNL     1     -11.085  12.590  65.681  1.00  0.00    -0.338 A  
HETATM    8  C   UNL     1     -12.158  14.331  64.377  1.00  0.00    -0.490 A  
HETATM    9  C   UNL     1     -12.116  13.012  64.840  1.00  0.00    -0.459 A  
BRANCH   7  10
HETATM   10  C   UNL     1     -10.901  11.180  66.040  1.00  0.00    -0.230 C  
HETATM   11  C   UNL     1      -9.884  10.396  65.643  1.00  0.00    -0.321 C  
BRANCH  11  12
HETATM   12  C   UNL     1      -9.713   9.014  66.122  1.00  0.00    -0.354 A  
HETATM   13  C   UNL     1      -8.737   8.171  65.586  1.00  0.00    -0.176 A  
HETATM   14  C   UNL     1      -8.620   6.850  66.014  1.00  0.00    -0.150 A  
HETATM   15  C   UNL     1      -9.463   6.343  67.004  1.00  0.00    -0.139 A  
HETATM   16  C   UNL     1     -10.531   8.520  67.147  1.00  0.00    -0.370 A  
HETATM   17  C   UNL     1     -10.411   7.192  67.579  1.00  0.00    -0.331 A  
BRANCH  15  18
HETATM   18  O   UNL     1      -9.442   5.051  67.470  1.00  0.00    -0.123 OA 
BRANCH  18  19
HETATM   19  C   UNL     1      -8.730   4.876  68.696  1.00  0.00    -0.093 C  
BRANCH  19  20
HETATM   20  C   UNL     1      -9.618   4.292  69.780  1.00  0.00    -0.209 C  
BRANCH  20  21
HETATM   21  O   UNL     1     -10.569   5.300  70.132  1.00  0.00    -0.290 OA 
BRANCH  21  22
HETATM   22  C   UNL     1     -10.367   5.790  71.454  1.00  0.00    -0.224 C  
BRANCH  22  23
HETATM   23  C   UNL     1     -10.713   7.275  71.498  1.00  0.00    -0.219 C  
BRANCH  23  24
HETATM   24  O   UNL     1     -11.776   7.475  72.427  1.00  0.00    -0.300 OA 
BRANCH  24  25
HETATM   25  C   UNL     1     -12.504   8.670  72.150  1.00  0.00    -0.389 C  
HETATM   26  C   UNL     1     -11.567   9.693  71.533  1.00  0.00    -0.381 C  
HETATM   27  F   UNL     1     -12.257  10.834  71.268  1.00  0.00    -0.410 F  
ENDBRANCH  24  25
ENDBRANCH  23  24
ENDBRANCH  22  23
ENDBRANCH  21  22
ENDBRANCH  20  21
ENDBRANCH  19  20
ENDBRANCH  18  19
ENDBRANCH  15  18
ENDBRANCH  11  12
ENDBRANCH   7  10
ENDBRANCH   2   4
TORSDOF 11
ENDMDL
MODEL       61
REMARK 921   NORMALIZED FREE ENERGY PREDICTED BY IDOCK:   -4.84 KCAL/MOL
REMARK 922        TOTAL FREE ENERGY PREDICTED BY IDOCK:   -9.03 KCAL/MOL
REMARK 923 INTER-LIGAND FREE ENERGY PREDICTED BY IDOCK:   -7.38 KCAL/MOL
REMARK 924 INTRA-LIGAND FREE ENERGY PREDICTED BY IDOCK:   -1.65 KCAL/MOL
REMARK 927      BINDING AFFINITY PREDICTED BY RF-SCORE:    0.00 PKD
ROOT
HETATM    1  C   UNL     1     -10.980  16.475  68.545  1.00  0.00    -0.350 C  
HETATM    2  N   UNL     1     -12.241  15.767  68.710  1.00  0.00    -0.507 NA 
HETATM    3  H   UNL     1     -13.123  16.163  68.384  1.00  0.00     0.000 HD 
ENDROOT
BRANCH   2   4
HETATM    4  C   UNL     1     -12.183  14.513  69.339  1.00  0.00    -0.247 A  
HETATM    5  C   UNL     1     -11.492  13.470  68.711  1.00  0.00    -0.349 A  
HETATM    6  C   UNL     1     -11.443  12.193  69.282  1.00  0.00    -0.363 A  
HETATM    7  C   UNL     1     -12.043  11.944  70.520  1.00  0.00    -0.422 A  
HETATM    8  C   UNL     1     -12.697  14.277  70.619  1.00  0.00    -0.409 A  
HETATM    9  C   UNL     1     -12.648  13.004  71.196  1.00  0.00    -0.388 A  
BRANCH   7  10
HETATM   10  C   UNL     1     -12.130  10.562  71.003  1.00  0.00    -0.492 C  
HETATM   11  C   UNL     1     -11.090   9.738  71.216  1.00  0.00    -0.375 C  
BRANCH  11  12
HETATM   12  C   UNL     1     -11.246   8.393  71.793  1.00  0.00    -0.360 A  
HETATM   13  C   UNL     1     -10.413   7.936  72.817  1.00  0.00    -0.412 A  
HETATM   14  C   UNL     1     -10.541   6.642  73.318  1.00  0.00    -0.316 A  
HETATM   15  C   UNL     1     -11.519   5.777  72.823  1.00  0.00    -0.255 A  
HETATM   16  C   UNL     1     -12.256   7.542  71.325  1.00  0.00    -0.357 A  
HETATM   17  C   UNL     1     -12.386   6.241  71.832  1.00  0.00    -0.186 A  
BRANCH  15  18
HETATM   18  O   UNL     1     -11.702   4.480  73.234  1.00  0.00    -0.262 OA 
BRANCH  18  19
HETATM   19  C   UNL     1     -10.493   3.760  73.477  1.00  0.00    -0.179 C  
BRANCH  19  20
HETATM   20  C   UNL     1     -10.055   2.971  72.255  1.00  0.00    -0.148 C  
BRANCH  20  21
HETATM   21  O   UNL     1      -9.134   3.792  71.534  1.00  0.00    -0.102 OA 
BRANCH  21  22
HETATM   22  C   UNL     1      -9.583   4.068  70.211  1.00  0.00    -0.201 C  
BRANCH  22  23
HETATM   23  C   UNL     1      -9.258   5.517  69.861  1.00  0.00    -0.138 C  
BRANCH  23  24
HETATM   24  O   UNL     1     -10.013   5.896  68.712  1.00  0.00    -0.135 OA 
BRANCH  24  25
HETATM   25  C   UNL     1      -9.925   7.297  68.459  1.00  0.00    -0.162 C  
HETATM   26  C   UNL     1      -8.693   7.853  69.150  1.00  0.00    -0.138 C  
HETATM   27  F   UNL     1      -8.606   9.188  68.912  1.00  0.00    -0.122 F  
ENDBRANCH  24  25
ENDBRANCH  23  24
ENDBRANCH  22  23
ENDBRANCH  21  22
ENDBRANCH  20  21
ENDBRANCH  19  20
ENDBRANCH  18  19
ENDBRANCH  15  18
ENDBRANCH  11  12
ENDBRANCH   7  10
ENDBRANCH   2   4
TORSDOF 11
ENDMDL
MODEL       62
REMARK 921   NORMALIZED FREE ENERGY PREDICTED BY IDOCK:   -4.83 KCAL/MOL
REMARK 922        TOTAL FREE ENERGY PREDICTED BY IDOCK:   -9.02 KCAL/MOL
REMARK 923 INTER-LIGAND FREE ENERGY PREDICTED BY IDOCK:   -8.13 KCAL/MOL
REMARK 924 INTRA-LIGAND FREE ENERGY PREDICTED BY IDOCK:   -0.89 KCAL/MOL
REMARK 927      BINDING AFFINITY PREDICTED BY RF-SCORE:    0.00 PKD
ROOT
HETATM    1  C   UNL     1      -8.954   3.196  66.277  1.00  0.00    -0.150 C  
HETATM    2  N   UNL     1     -10.125   4.044  66.101  1.00  0.00    -0.420 NA 
HETATM    3  H   UNL     1     -11.046   3.651  65.907  1.00  0.00     0.000 HD 
ENDROOT
BRANCH   2   4
HETATM    4  C   UNL     1      -9.923   5.429  66.213  1.00  0.00    -0.170 A  
HETATM    5  C   UNL     1     -10.811   6.184  66.987  1.00  0.00    -0.435 A  
HETATM    6  C   UNL     1     -10.672   7.573  67.093  1.00  0.00    -0.379 A  
HETATM    7  C   UNL     1      -9.610   8.231  66.467  1.00  0.00    -0.312 A  
HETATM    8  C   UNL     1      -8.812   6.084  65.670  1.00  0.00    -0.118 A  
HETATM    9  C   UNL     1      -8.666   7.471  65.775  1.00  0.00    -0.142 A  
BRANCH   7  10
HETATM   10  C   UNL     1      -9.595   9.698  66.447  1.00  0.00    -0.268 C  
HETATM   11  C   UNL     1     -10.024  10.473  65.436  1.00  0.00    -0.353 C  
BRANCH  11  12
HETATM   12  C   UNL     1     -10.068  11.941  65.525  1.00  0.00    -0.277 A  
HETATM   13  C   UNL     1      -9.354  12.636  66.504  1.00  0.00    -0.228 A  
HETATM   14  C   UNL     1      -9.445  14.023  66.606  1.00  0.00    -0.300 A  
HETATM   15  C   UNL     1     -10.237  14.754  65.719  1.00  0.00    -0.338 A  
HETATM   16  C   UNL     1     -10.830  12.677  64.607  1.00  0.00    -0.349 A  
HETATM   17  C   UNL     1     -10.918  14.073  64.708  1.00  0.00    -0.410 A  
BRANCH  15  18
HETATM   18  O   UNL     1     -10.411  16.116  65.759  1.00  0.00    -0.341 OA 
BRANCH  18  19
HETATM   19  C   UNL     1      -9.781  16.760  66.868  1.00  0.00    -0.257 C  
BRANCH  19  20
HETATM   20  C   UNL     1     -10.742  17.679  67.602  1.00  0.00    -0.314 C  
BRANCH  20  21
HETATM   21  O   UNL     1     -10.491  17.518  69.000  1.00  0.00    -0.350 OA 
BRANCH  21  22
HETATM   22  C   UNL     1     -10.476  16.148  69.388  1.00  0.00    -0.283 C  
BRANCH  22  23
HETATM   23  C   UNL     1     -11.869  15.743  69.859  1.00  0.00    -0.344 C  
BRANCH  23  24
HETATM   24  O   UNL     1     -11.747  14.692  70.816  1.00  0.00    -0.285 OA 
BRANCH  24  25
HETATM   25  C   UNL     1     -11.448  15.194  72.117  1.00  0.00    -0.339 C  
HETATM   26  C   UNL     1     -12.533  16.168  72.538  1.00  0.00    -0.437 C  
HETATM   27  F   UNL     1     -12.252  16.649  73.778  1.00  0.00    -0.533 F  
ENDBRANCH  24  25
ENDBRANCH  23  24
ENDBRANCH  22  23
ENDBRANCH  21  22
ENDBRANCH  20  21
ENDBRANCH  19  20
ENDBRANCH  18  19
ENDBRANCH  15  18
ENDBRANCH  11  12
ENDBRANCH   7  10
ENDBRANCH   2   4
TORSDOF 11
ENDMDL
MODEL       63
REMARK 921   NORMALIZED FREE ENERGY PREDICTED BY IDOCK:   -4.83 KCAL/MOL
REMARK 922        TOTAL FREE ENERGY PREDICTED BY IDOCK:   -9.00 KCAL/MOL
REMARK 923 INTER-LIGAND FREE ENERGY PREDICTED BY IDOCK:   -7.80 KCAL/MOL
REMARK 924 INTRA-LIGAND FREE ENERGY PREDICTED BY IDOCK:   -1.21 KCAL/MOL
REMARK 927      BINDING AFFINITY PREDICTED BY RF-SCORE:    0.00 PKD
ROOT
HETATM    1  C   UNL     1      -8.826   3.151  65.426  1.00  0.00    -0.136 C  
HETATM    2  N   UNL     1      -8.494   3.917  66.619  1.00  0.00    -0.104 NA 
HETATM    3  H   UNL     1      -7.868   3.549  67.334  1.00  0.00     0.000 HD 
ENDROOT
BRANCH   2   4
HETATM    4  C   UNL     1      -9.080   5.188  66.735  1.00  0.00    -0.118 A  
HETATM    5  C   UNL     1      -8.282   6.323  66.550  1.00  0.00    -0.112 A  
HETATM    6  C   UNL     1      -8.814   7.609  66.696  1.00  0.00    -0.159 A  
HETATM    7  C   UNL     1     -10.171   7.789  66.981  1.00  0.00    -0.375 A  
HETATM    8  C   UNL     1     -10.453   5.381  66.925  1.00  0.00    -0.337 A  
HETATM    9  C   UNL     1     -10.991   6.663  67.069  1.00  0.00    -0.463 A  
BRANCH   7  10
HETATM   10  C   UNL     1     -10.657   9.134  67.306  1.00  0.00    -0.303 C  
HETATM   11  C   UNL     1     -10.988   9.574  68.531  1.00  0.00    -0.109 C  
BRANCH  11  12
HETATM   12  C   UNL     1     -11.378  10.969  68.796  1.00  0.00    -0.349 A  
HETATM   13  C   UNL     1     -11.474  11.909  67.768  1.00  0.00    -0.389 A  
HETATM   14  C   UNL     1     -11.795  13.237  68.041  1.00  0.00    -0.392 A  
HETATM   15  C   UNL     1     -12.048  13.657  69.348  1.00  0.00    -0.314 A  
HETATM   16  C   UNL     1     -11.675  11.378  70.104  1.00  0.00    -0.414 A  
HETATM   17  C   UNL     1     -12.001  12.714  70.377  1.00  0.00    -0.331 A  
BRANCH  15  18
HETATM   18  O   UNL     1     -12.344  14.946  69.717  1.00  0.00    -0.298 OA 
BRANCH  18  19
HETATM   19  C   UNL     1     -11.790  15.947  68.862  1.00  0.00    -0.304 C  
BRANCH  19  20
HETATM   20  C   UNL     1     -10.344  16.248  69.215  1.00  0.00    -0.277 C  
BRANCH  20  21
HETATM   21  O   UNL     1      -9.564  15.985  68.046  1.00  0.00    -0.213 OA 
BRANCH  21  22
HETATM   22  C   UNL     1     -10.016  16.730  66.920  1.00  0.00    -0.273 C  
BRANCH  22  23
HETATM   23  C   UNL     1      -9.679  15.966  65.643  1.00  0.00    -0.271 C  
BRANCH  23  24
HETATM   24  O   UNL     1     -10.796  16.028  64.758  1.00  0.00    -0.587 OA 
BRANCH  24  25
HETATM   25  C   UNL     1     -11.549  14.817  64.771  1.00  0.00    -0.418 C  
HETATM   26  C   UNL     1     -10.607  13.641  64.589  1.00  0.00    -0.430 C  
HETATM   27  F   UNL     1     -11.321  12.485  64.600  1.00  0.00    -0.318 F  
ENDBRANCH  24  25
ENDBRANCH  23  24
ENDBRANCH  22  23
ENDBRANCH  21  22
ENDBRANCH  20  21
ENDBRANCH  19  20
ENDBRANCH  18  19
ENDBRANCH  15  18
ENDBRANCH  11  12
ENDBRANCH   7  10
ENDBRANCH   2   4
TORSDOF 11
ENDMDL
MODEL       64
REMARK 921   NORMALIZED FREE ENERGY PREDICTED BY IDOCK:   -4.81 KCAL/MOL
REMARK 922        TOTAL FREE ENERGY PREDICTED BY IDOCK:   -8.97 KCAL/MOL
REMARK 923 INTER-LIGAND FREE ENERGY PREDICTED BY IDOCK:   -8.26 KCAL/MOL
REMARK 924 INTRA-LIGAND FREE ENERGY PREDICTED BY IDOCK:   -0.71 KCAL/MOL
REMARK 927      BINDING AFFINITY PREDICTED BY RF-SCORE:    0.00 PKD
ROOT
HETATM    1  C   UNL     1      -8.048   2.289  66.298  1.00  0.00    -0.084 C  
HETATM    2  N   UNL     1      -8.834   2.134  67.514  1.00  0.00    -0.121 NA 
HETATM    3  H   UNL     1      -8.987   1.219  67.939  1.00  0.00     0.000 HD 
ENDROOT
BRANCH   2   4
HETATM    4  C   UNL     1      -9.370   3.305  68.072  1.00  0.00    -0.191 A  
HETATM    5  C   UNL     1      -9.323   3.479  69.461  1.00  0.00    -0.243 A  
HETATM    6  C   UNL     1      -9.881   4.611  70.064  1.00  0.00    -0.294 A  
HETATM    7  C   UNL     1     -10.456   5.621  69.286  1.00  0.00    -0.356 A  
HETATM    8  C   UNL     1      -9.860   4.364  67.300  1.00  0.00    -0.207 A  
HETATM    9  C   UNL     1     -10.417   5.499  67.897  1.00  0.00    -0.244 A  
BRANCH   7  10
HETATM   10  C   UNL     1     -11.189   6.702  69.953  1.00  0.00    -0.421 C  
HETATM   11  C   UNL     1     -10.763   7.969  70.094  1.00  0.00    -0.244 C  
BRANCH  11  12
HETATM   12  C   UNL     1     -11.596   9.025  70.692  1.00  0.00    -0.265 A  
HETATM   13  C   UNL     1     -12.567   8.735  71.652  1.00  0.00    -0.393 A  
HETATM   14  C   UNL     1     -13.382   9.739  72.172  1.00  0.00    -0.527 A  
HETATM   15  C   UNL     1     -13.233  11.064  71.760  1.00  0.00    -0.400 A  
HETATM   16  C   UNL     1     -11.416  10.361  70.308  1.00  0.00    -0.406 A  
HETATM   17  C   UNL     1     -12.234  11.372  70.834  1.00  0.00    -0.447 A  
BRANCH  15  18
HETATM   18  O   UNL     1     -14.005  12.114  72.193  1.00  0.00    -0.085 OA 
BRANCH  18  19
HETATM   19  C   UNL     1     -13.287  13.333  72.391  1.00  0.00    -0.516 C  
BRANCH  19  20
HETATM   20  C   UNL     1     -13.992  14.510  71.740  1.00  0.00    -0.473 C  
BRANCH  20  21
HETATM   21  O   UNL     1     -12.976  15.388  71.248  1.00  0.00    -0.405 OA 
BRANCH  21  22
HETATM   22  C   UNL     1     -12.274  14.831  70.141  1.00  0.00    -0.337 C  
BRANCH  22  23
HETATM   23  C   UNL     1     -10.876  15.436  70.077  1.00  0.00    -0.305 C  
BRANCH  23  24
HETATM   24  O   UNL     1     -10.986  16.825  69.773  1.00  0.00    -0.293 OA 
BRANCH  24  25
HETATM   25  C   UNL     1      -9.981  17.247  68.853  1.00  0.00    -0.307 C  
HETATM   26  C   UNL     1      -9.994  18.762  68.761  1.00  0.00    -0.391 C  
HETATM   27  F   UNL     1      -9.038  19.169  67.885  1.00  0.00    -0.302 F  
ENDBRANCH  24  25
ENDBRANCH  23  24
ENDBRANCH  22  23
ENDBRANCH  21  22
ENDBRANCH  20  21
ENDBRANCH  19  20
ENDBRANCH  18  19
ENDBRANCH  15  18
ENDBRANCH  11  12
ENDBRANCH   7  10
ENDBRANCH   2   4
TORSDOF 11
ENDMDL
MODEL       65
REMARK 921   NORMALIZED FREE ENERGY PREDICTED BY IDOCK:   -4.79 KCAL/MOL
REMARK 922        TOTAL FREE ENERGY PREDICTED BY IDOCK:   -8.95 KCAL/MOL
REMARK 923 INTER-LIGAND FREE ENERGY PREDICTED BY IDOCK:   -8.08 KCAL/MOL
REMARK 924 INTRA-LIGAND FREE ENERGY PREDICTED BY IDOCK:   -0.87 KCAL/MOL
REMARK 927      BINDING AFFINITY PREDICTED BY RF-SCORE:    0.00 PKD
ROOT
HETATM    1  C   UNL     1      -7.582   2.557  69.630  1.00  0.00    -0.043 C  
HETATM    2  N   UNL     1      -9.025   2.635  69.448  1.00  0.00    -0.097 NA 
HETATM    3  H   UNL     1      -9.633   1.842  69.650  1.00  0.00     0.000 HD 
ENDROOT
BRANCH   2   4
HETATM    4  C   UNL     1      -9.535   3.856  68.980  1.00  0.00    -0.170 A  
HETATM    5  C   UNL     1      -9.568   4.095  67.601  1.00  0.00    -0.213 A  
HETATM    6  C   UNL     1     -10.030   5.313  67.092  1.00  0.00    -0.211 A  
HETATM    7  C   UNL     1     -10.519   6.303  67.950  1.00  0.00    -0.285 A  
HETATM    8  C   UNL     1     -10.114   4.814  69.821  1.00  0.00    -0.289 A  
HETATM    9  C   UNL     1     -10.580   6.032  69.318  1.00  0.00    -0.366 A  
BRANCH   7  10
HETATM   10  C   UNL     1     -10.825   7.630  67.404  1.00  0.00    -0.240 C  
HETATM   11  C   UNL     1      -9.930   8.599  67.148  1.00  0.00    -0.297 C  
BRANCH  11  12
HETATM   12  C   UNL     1     -10.299   9.873  66.510  1.00  0.00    -0.259 A  
HETATM   13  C   UNL     1     -10.912  10.901  67.230  1.00  0.00    -0.355 A  
HETATM   14  C   UNL     1     -11.300  12.082  66.600  1.00  0.00    -0.399 A  
HETATM   15  C   UNL     1     -11.069  12.274  65.237  1.00  0.00    -0.316 A  
HETATM   16  C   UNL     1     -10.026  10.081  65.151  1.00  0.00    -0.350 A  
HETATM   17  C   UNL     1     -10.415  11.271  64.519  1.00  0.00    -0.396 A  
BRANCH  15  18
HETATM   18  O   UNL     1     -11.440  13.389  64.525  1.00  0.00    -0.344 OA 
BRANCH  18  19
HETATM   19  C   UNL     1     -11.610  14.565  65.317  1.00  0.00    -0.359 C  
BRANCH  19  20
HETATM   20  C   UNL     1     -11.386  15.826  64.501  1.00  0.00    -0.316 C  
BRANCH  20  21
HETATM   21  O   UNL     1     -10.499  16.660  65.251  1.00  0.00    -0.612 OA 
BRANCH  21  22
HETATM   22  C   UNL     1      -9.500  15.906  65.930  1.00  0.00    -0.337 C  
BRANCH  22  23
HETATM   23  C   UNL     1      -9.052  16.668  67.173  1.00  0.00    -0.214 C  
BRANCH  23  24
HETATM   24  O   UNL     1     -10.192  16.930  67.989  1.00  0.00    -0.282 OA 
BRANCH  24  25
HETATM   25  C   UNL     1     -10.102  18.201  68.631  1.00  0.00    -0.392 C  
HETATM   26  C   UNL     1     -10.480  19.288  67.642  1.00  0.00    -0.453 C  
HETATM   27  F   UNL     1     -10.395  20.501  68.250  1.00  0.00    -0.486 F  
ENDBRANCH  24  25
ENDBRANCH  23  24
ENDBRANCH  22  23
ENDBRANCH  21  22
ENDBRANCH  20  21
ENDBRANCH  19  20
ENDBRANCH  18  19
ENDBRANCH  15  18
ENDBRANCH  11  12
ENDBRANCH   7  10
ENDBRANCH   2   4
TORSDOF 11
ENDMDL
MODEL       66
REMARK 921   NORMALIZED FREE ENERGY PREDICTED BY IDOCK:   -4.79 KCAL/MOL
REMARK 922        TOTAL FREE ENERGY PREDICTED BY IDOCK:   -8.94 KCAL/MOL
REMARK 923 INTER-LIGAND FREE ENERGY PREDICTED BY IDOCK:   -8.16 KCAL/MOL
REMARK 924 INTRA-LIGAND FREE ENERGY PREDICTED BY IDOCK:   -0.78 KCAL/MOL
REMARK 927      BINDING AFFINITY PREDICTED BY RF-SCORE:    0.00 PKD
ROOT
HETATM    1  C   UNL     1      -9.623  20.812  67.279  1.00  0.00    -0.354 C  
HETATM    2  N   UNL     1      -8.771  19.662  67.014  1.00  0.00    -0.303 NA 
HETATM    3  H   UNL     1      -7.938  19.736  66.429  1.00  0.00     0.000 HD 
ENDROOT
BRANCH   2   4
HETATM    4  C   UNL     1      -9.152  18.446  67.603  1.00  0.00    -0.273 A  
HETATM    5  C   UNL     1     -10.461  17.984  67.420  1.00  0.00    -0.399 A  
HETATM    6  C   UNL     1     -10.897  16.798  68.022  1.00  0.00    -0.341 A  
HETATM    7  C   UNL     1     -10.016  16.020  68.780  1.00  0.00    -0.224 A  
HETATM    8  C   UNL     1      -8.256  17.613  68.282  1.00  0.00    -0.276 A  
HETATM    9  C   UNL     1      -8.685  16.425  68.883  1.00  0.00    -0.253 A  
BRANCH   7  10
HETATM   10  C   UNL     1     -10.547  14.885  69.542  1.00  0.00    -0.242 C  
HETATM   11  C   UNL     1     -11.845  14.566  69.672  1.00  0.00    -0.367 C  
BRANCH  11  12
HETATM   12  C   UNL     1     -12.299  13.354  70.374  1.00  0.00    -0.382 A  
HETATM   13  C   UNL     1     -13.125  13.427  71.499  1.00  0.00    -0.427 A  
HETATM   14  C   UNL     1     -13.505  12.274  72.183  1.00  0.00    -0.431 A  
HETATM   15  C   UNL     1     -13.086  11.016  71.749  1.00  0.00    -0.449 A  
HETATM   16  C   UNL     1     -11.913  12.089  69.912  1.00  0.00    -0.391 A  
HETATM   17  C   UNL     1     -12.299  10.929  70.599  1.00  0.00    -0.470 A  
BRANCH  15  18
HETATM   18  O   UNL     1     -13.386   9.829  72.372  1.00  0.00    -0.412 OA 
BRANCH  18  19
HETATM   19  C   UNL     1     -12.379   8.823  72.242  1.00  0.00    -0.378 C  
BRANCH  19  20
HETATM   20  C   UNL     1     -12.889   7.617  71.472  1.00  0.00    -0.344 C  
BRANCH  20  21
HETATM   21  O   UNL     1     -11.782   6.726  71.308  1.00  0.00    -0.299 OA 
BRANCH  21  22
HETATM   22  C   UNL     1     -10.549   7.326  71.693  1.00  0.00    -0.206 C  
BRANCH  22  23
HETATM   23  C   UNL     1      -9.786   6.367  72.602  1.00  0.00    -0.166 C  
BRANCH  23  24
HETATM   24  O   UNL     1     -10.687   5.834  73.571  1.00  0.00    -0.254 OA 
BRANCH  24  25
HETATM   25  C   UNL     1     -10.392   4.472  73.875  1.00  0.00    -0.219 C  
HETATM   26  C   UNL     1     -10.366   3.668  72.588  1.00  0.00    -0.147 C  
HETATM   27  F   UNL     1     -10.086   2.369  72.873  1.00  0.00    -0.152 F  
ENDBRANCH  24  25
ENDBRANCH  23  24
ENDBRANCH  22  23
ENDBRANCH  21  22
ENDBRANCH  20  21
ENDBRANCH  19  20
ENDBRANCH  18  19
ENDBRANCH  15  18
ENDBRANCH  11  12
ENDBRANCH   7  10
ENDBRANCH   2   4
TORSDOF 11
ENDMDL
MODEL       67
REMARK 921   NORMALIZED FREE ENERGY PREDICTED BY IDOCK:   -4.76 KCAL/MOL
REMARK 922        TOTAL FREE ENERGY PREDICTED BY IDOCK:   -8.89 KCAL/MOL
REMARK 923 INTER-LIGAND FREE ENERGY PREDICTED BY IDOCK:   -7.72 KCAL/MOL
REMARK 924 INTRA-LIGAND FREE ENERGY PREDICTED BY IDOCK:   -1.17 KCAL/MOL
REMARK 927      BINDING AFFINITY PREDICTED BY RF-SCORE:    0.00 PKD
ROOT
HETATM    1  C   UNL     1     -10.602   5.505  70.279  1.00  0.00    -0.287 C  
HETATM    2  N   UNL     1     -10.723   5.821  68.863  1.00  0.00    -0.271 NA 
HETATM    3  H   UNL     1     -10.869   5.094  68.163  1.00  0.00     0.000 HD 
ENDROOT
BRANCH   2   4
HETATM    4  C   UNL     1     -10.629   7.177  68.510  1.00  0.00    -0.187 A  
HETATM    5  C   UNL     1     -10.517   7.519  67.157  1.00  0.00    -0.407 A  
HETATM    6  C   UNL     1     -10.380   8.854  66.761  1.00  0.00    -0.317 A  
HETATM    7  C   UNL     1     -10.401   9.883  67.709  1.00  0.00    -0.268 A  
HETATM    8  C   UNL     1     -10.744   8.217  69.438  1.00  0.00    -0.160 A  
HETATM    9  C   UNL     1     -10.611   9.554  69.048  1.00  0.00    -0.238 A  
BRANCH   7  10
HETATM   10  C   UNL     1     -10.075  11.248  67.284  1.00  0.00    -0.214 C  
HETATM   11  C   UNL     1      -9.400  12.155  68.009  1.00  0.00    -0.197 C  
BRANCH  11  12
HETATM   12  C   UNL     1      -9.025  13.477  67.480  1.00  0.00    -0.210 A  
HETATM   13  C   UNL     1      -7.980  14.218  68.036  1.00  0.00    -0.142 A  
HETATM   14  C   UNL     1      -7.670  15.489  67.556  1.00  0.00    -0.195 A  
HETATM   15  C   UNL     1      -8.383  16.045  66.493  1.00  0.00    -0.313 A  
HETATM   16  C   UNL     1      -9.714  14.014  66.384  1.00  0.00    -0.309 A  
HETATM   17  C   UNL     1      -9.399  15.292  65.900  1.00  0.00    -0.308 A  
BRANCH  15  18
HETATM   18  O   UNL     1      -8.170  17.297  65.971  1.00  0.00    -0.488 OA 
BRANCH  18  19
HETATM   19  C   UNL     1      -9.231  18.224  66.207  1.00  0.00    -0.203 C  
BRANCH  19  20
HETATM   20  C   UNL     1      -9.369  18.552  67.684  1.00  0.00    -0.281 C  
BRANCH  20  21
HETATM   21  O   UNL     1     -10.635  18.042  68.110  1.00  0.00    -0.378 OA 
BRANCH  21  22
HETATM   22  C   UNL     1     -10.514  17.182  69.238  1.00  0.00    -0.267 C  
BRANCH  22  23
HETATM   23  C   UNL     1     -11.479  16.011  69.083  1.00  0.00    -0.347 C  
BRANCH  23  24
HETATM   24  O   UNL     1     -11.388  15.180  70.239  1.00  0.00    -0.251 OA 
BRANCH  24  25
HETATM   25  C   UNL     1     -12.561  15.264  71.046  1.00  0.00    -0.406 C  
HETATM   26  C   UNL     1     -12.236  16.017  72.322  1.00  0.00    -0.519 C  
HETATM   27  F   UNL     1     -13.351  16.099  73.094  1.00  0.00    -0.554 F  
ENDBRANCH  24  25
ENDBRANCH  23  24
ENDBRANCH  22  23
ENDBRANCH  21  22
ENDBRANCH  20  21
ENDBRANCH  19  20
ENDBRANCH  18  19
ENDBRANCH  15  18
ENDBRANCH  11  12
ENDBRANCH   7  10
ENDBRANCH   2   4
TORSDOF 11
ENDMDL
MODEL       68
REMARK 921   NORMALIZED FREE ENERGY PREDICTED BY IDOCK:   -4.75 KCAL/MOL
REMARK 922        TOTAL FREE ENERGY PREDICTED BY IDOCK:   -8.88 KCAL/MOL
REMARK 923 INTER-LIGAND FREE ENERGY PREDICTED BY IDOCK:   -7.95 KCAL/MOL
REMARK 924 INTRA-LIGAND FREE ENERGY PREDICTED BY IDOCK:   -0.94 KCAL/MOL
REMARK 927      BINDING AFFINITY PREDICTED BY RF-SCORE:    0.00 PKD
ROOT
HETATM    1  C   UNL     1     -10.669   4.411  72.900  1.00  0.00    -0.186 C  
HETATM    2  N   UNL     1     -11.763   5.356  73.080  1.00  0.00    -0.536 NA 
HETATM    3  H   UNL     1     -12.566   5.139  73.669  1.00  0.00     0.000 HD 
ENDROOT
BRANCH   2   4
HETATM    4  C   UNL     1     -11.655   6.581  72.403  1.00  0.00    -0.255 A  
HETATM    5  C   UNL     1     -10.424   7.248  72.396  1.00  0.00    -0.263 A  
HETATM    6  C   UNL     1     -10.281   8.490  71.769  1.00  0.00    -0.352 A  
HETATM    7  C   UNL     1     -11.356   9.072  71.089  1.00  0.00    -0.375 A  
HETATM    8  C   UNL     1     -12.695   7.126  71.641  1.00  0.00    -0.415 A  
HETATM    9  C   UNL     1     -12.557   8.366  71.009  1.00  0.00    -0.058 A  
BRANCH   7  10
HETATM   10  C   UNL     1     -11.227  10.449  70.600  1.00  0.00    -0.358 C  
HETATM   11  C   UNL     1     -12.116  11.092  69.825  1.00  0.00    -0.424 C  
BRANCH  11  12
HETATM   12  C   UNL     1     -11.967  12.508  69.451  1.00  0.00    -0.315 A  
HETATM   13  C   UNL     1     -11.563  12.886  68.169  1.00  0.00    -0.378 A  
HETATM   14  C   UNL     1     -11.377  14.229  67.845  1.00  0.00    -0.320 A  
HETATM   15  C   UNL     1     -11.609  15.230  68.789  1.00  0.00    -0.362 A  
HETATM   16  C   UNL     1     -12.242  13.513  70.388  1.00  0.00    -0.426 A  
HETATM   17  C   UNL     1     -12.057  14.864  70.060  1.00  0.00    -0.387 A  
BRANCH  15  18
HETATM   18  O   UNL     1     -11.427  16.574  68.572  1.00  0.00    -0.317 OA 
BRANCH  18  19
HETATM   19  C   UNL     1     -10.060  16.972  68.447  1.00  0.00    -0.302 C  
BRANCH  19  20
HETATM   20  C   UNL     1      -9.937  18.406  67.961  1.00  0.00    -0.351 C  
BRANCH  20  21
HETATM   21  O   UNL     1      -9.424  18.354  66.628  1.00  0.00    -0.293 OA 
BRANCH  21  22
HETATM   22  C   UNL     1      -8.713  17.147  66.372  1.00  0.00    -0.256 C  
BRANCH  22  23
HETATM   23  C   UNL     1      -7.271  17.480  66.007  1.00  0.00    -0.263 C  
BRANCH  23  24
HETATM   24  O   UNL     1      -6.402  16.561  66.668  1.00  0.00    -0.281 OA 
BRANCH  24  25
HETATM   25  C   UNL     1      -6.046  17.015  67.973  1.00  0.00    -0.133 C  
HETATM   26  C   UNL     1      -6.433  15.959  68.992  1.00  0.00    -0.137 C  
HETATM   27  F   UNL     1      -6.095  16.388  70.236  1.00  0.00    -0.203 F  
ENDBRANCH  24  25
ENDBRANCH  23  24
ENDBRANCH  22  23
ENDBRANCH  21  22
ENDBRANCH  20  21
ENDBRANCH  19  20
ENDBRANCH  18  19
ENDBRANCH  15  18
ENDBRANCH  11  12
ENDBRANCH   7  10
ENDBRANCH   2   4
TORSDOF 11
ENDMDL
MODEL       69
REMARK 921   NORMALIZED FREE ENERGY PREDICTED BY IDOCK:   -4.75 KCAL/MOL
REMARK 922        TOTAL FREE ENERGY PREDICTED BY IDOCK:   -8.87 KCAL/MOL
REMARK 923 INTER-LIGAND FREE ENERGY PREDICTED BY IDOCK:   -8.14 KCAL/MOL
REMARK 924 INTRA-LIGAND FREE ENERGY PREDICTED BY IDOCK:   -0.73 KCAL/MOL
REMARK 927      BINDING AFFINITY PREDICTED BY RF-SCORE:    0.00 PKD
ROOT
HETATM    1  C   UNL     1      -6.034  20.690  63.747  1.00  0.00    -0.290 C  
HETATM    2  N   UNL     1      -6.811  21.025  64.932  1.00  0.00    -0.523 NA 
HETATM    3  H   UNL     1      -6.939  21.991  65.233  1.00  0.00     0.000 HD 
ENDROOT
BRANCH   2   4
HETATM    4  C   UNL     1      -7.373  19.952  65.641  1.00  0.00    -0.296 A  
HETATM    5  C   UNL     1      -6.722  18.713  65.627  1.00  0.00    -0.309 A  
HETATM    6  C   UNL     1      -7.267  17.605  66.286  1.00  0.00    -0.342 A  
HETATM    7  C   UNL     1      -8.453  17.725  67.016  1.00  0.00    -0.245 A  
HETATM    8  C   UNL     1      -8.506  20.083  66.452  1.00  0.00    -0.341 A  
HETATM    9  C   UNL     1      -9.054  18.980  67.115  1.00  0.00    -0.311 A  
BRANCH   7  10
HETATM   10  C   UNL     1      -9.091  16.512  67.541  1.00  0.00    -0.200 C  
HETATM   11  C   UNL     1     -10.162  15.898  67.012  1.00  0.00    -0.283 C  
BRANCH  11  12
HETATM   12  C   UNL     1     -10.691  14.629  67.538  1.00  0.00    -0.268 A  
HETATM   13  C   UNL     1     -10.846  13.507  66.720  1.00  0.00    -0.284 A  
HETATM   14  C   UNL     1     -11.395  12.328  67.221  1.00  0.00    -0.392 A  
HETATM   15  C   UNL     1     -11.784  12.232  68.558  1.00  0.00    -0.331 A  
HETATM   16  C   UNL     1     -11.040  14.521  68.891  1.00  0.00    -0.273 A  
HETATM   17  C   UNL     1     -11.589  13.333  69.394  1.00  0.00    -0.364 A  
BRANCH  15  18
HETATM   18  O   UNL     1     -12.358  11.125  69.133  1.00  0.00    -0.438 OA 
BRANCH  18  19
HETATM   19  C   UNL     1     -11.806  10.766  70.401  1.00  0.00    -0.358 C  
BRANCH  19  20
HETATM   20  C   UNL     1     -10.542   9.939  70.248  1.00  0.00    -0.301 C  
BRANCH  20  21
HETATM   21  O   UNL     1     -10.605   8.892  71.219  1.00  0.00    -0.232 OA 
BRANCH  21  22
HETATM   22  C   UNL     1     -11.857   8.863  71.897  1.00  0.00    -0.370 C  
BRANCH  22  23
HETATM   23  C   UNL     1     -12.402   7.439  71.886  1.00  0.00    -0.310 C  
BRANCH  23  24
HETATM   24  O   UNL     1     -11.307   6.525  71.855  1.00  0.00    -0.256 OA 
BRANCH  24  25
HETATM   25  C   UNL     1     -10.936   6.099  73.165  1.00  0.00    -0.231 C  
HETATM   26  C   UNL     1     -11.223   4.616  73.307  1.00  0.00    -0.325 C  
HETATM   27  F   UNL     1     -10.871   4.206  74.554  1.00  0.00    -0.268 F  
ENDBRANCH  24  25
ENDBRANCH  23  24
ENDBRANCH  22  23
ENDBRANCH  21  22
ENDBRANCH  20  21
ENDBRANCH  19  20
ENDBRANCH  18  19
ENDBRANCH  15  18
ENDBRANCH  11  12
ENDBRANCH   7  10
ENDBRANCH   2   4
TORSDOF 11
ENDMDL
MODEL       70
REMARK 921   NORMALIZED FREE ENERGY PREDICTED BY IDOCK:   -4.74 KCAL/MOL
REMARK 922        TOTAL FREE ENERGY PREDICTED BY IDOCK:   -8.87 KCAL/MOL
REMARK 923 INTER-LIGAND FREE ENERGY PREDICTED BY IDOCK:   -7.76 KCAL/MOL
REMARK 924 INTRA-LIGAND FREE ENERGY PREDICTED BY IDOCK:   -1.11 KCAL/MOL
REMARK 927      BINDING AFFINITY PREDICTED BY RF-SCORE:    0.00 PKD
ROOT
HETATM    1  C   UNL     1     -12.724  16.263  74.152  1.00  0.00    -0.382 C  
HETATM    2  N   UNL     1     -13.661  15.918  73.093  1.00  0.00    -0.689 NA 
HETATM    3  H   UNL     1     -14.584  16.349  73.033  1.00  0.00     0.000 HD 
ENDROOT
BRANCH   2   4
HETATM    4  C   UNL     1     -13.233  14.961  72.159  1.00  0.00    -0.361 A  
HETATM    5  C   UNL     1     -13.375  13.602  72.464  1.00  0.00    -0.638 A  
HETATM    6  C   UNL     1     -12.925  12.615  71.581  1.00  0.00    -0.400 A  
HETATM    7  C   UNL     1     -12.367  12.965  70.348  1.00  0.00    -0.333 A  
HETATM    8  C   UNL     1     -12.762  15.296  70.885  1.00  0.00    -0.496 A  
HETATM    9  C   UNL     1     -12.314  14.314  69.996  1.00  0.00    -0.403 A  
BRANCH   7  10
HETATM   10  C   UNL     1     -11.743  11.921  69.528  1.00  0.00    -0.410 C  
HETATM   11  C   UNL     1     -11.619  11.943  68.190  1.00  0.00    -0.400 C  
BRANCH  11  12
HETATM   12  C   UNL     1     -10.895  10.903  67.441  1.00  0.00    -0.333 A  
HETATM   13  C   UNL     1     -10.235  11.190  66.244  1.00  0.00    -0.286 A  
HETATM   14  C   UNL     1      -9.596  10.184  65.521  1.00  0.00    -0.310 A  
HETATM   15  C   UNL     1      -9.583   8.868  65.986  1.00  0.00    -0.250 A  
HETATM   16  C   UNL     1     -10.846   9.591  67.932  1.00  0.00    -0.240 A  
HETATM   17  C   UNL     1     -10.200   8.581  67.206  1.00  0.00    -0.346 A  
BRANCH  15  18
HETATM   18  O   UNL     1      -9.005   7.808  65.332  1.00  0.00    -0.028 OA 
BRANCH  18  19
HETATM   19  C   UNL     1      -7.595   7.929  65.142  1.00  0.00    -0.092 C  
BRANCH  19  20
HETATM   20  C   UNL     1      -6.821   7.084  66.138  1.00  0.00    -0.057 C  
BRANCH  20  21
HETATM   21  O   UNL     1      -7.719   6.086  66.629  1.00  0.00    -0.100 OA 
BRANCH  21  22
HETATM   22  C   UNL     1      -7.308   5.567  67.890  1.00  0.00    -0.073 C  
BRANCH  22  23
HETATM   23  C   UNL     1      -7.817   6.481  69.000  1.00  0.00    -0.110 C  
BRANCH  23  24
HETATM   24  O   UNL     1      -8.600   5.712  69.910  1.00  0.00    -0.121 OA 
BRANCH  24  25
HETATM   25  C   UNL     1      -9.982   5.716  69.554  1.00  0.00    -0.198 C  
HETATM   26  C   UNL     1     -10.783   6.359  70.671  1.00  0.00    -0.257 C  
HETATM   27  F   UNL     1     -12.100   6.366  70.337  1.00  0.00    -0.446 F  
ENDBRANCH  24  25
ENDBRANCH  23  24
ENDBRANCH  22  23
ENDBRANCH  21  22
ENDBRANCH  20  21
ENDBRANCH  19  20
ENDBRANCH  18  19
ENDBRANCH  15  18
ENDBRANCH  11  12
ENDBRANCH   7  10
ENDBRANCH   2   4
TORSDOF 11
ENDMDL
MODEL       71
REMARK 921   NORMALIZED FREE ENERGY PREDICTED BY IDOCK:   -4.73 KCAL/MOL
REMARK 922        TOTAL FREE ENERGY PREDICTED BY IDOCK:   -8.85 KCAL/MOL
REMARK 923 INTER-LIGAND FREE ENERGY PREDICTED BY IDOCK:   -7.64 KCAL/MOL
REMARK 924 INTRA-LIGAND FREE ENERGY PREDICTED BY IDOCK:   -1.21 KCAL/MOL
REMARK 927      BINDING AFFINITY PREDICTED BY RF-SCORE:    0.00 PKD
ROOT
HETATM    1  C   UNL     1     -10.381   4.004  72.749  1.00  0.00    -0.168 C  
HETATM    2  N   UNL     1     -11.396   5.014  73.014  1.00  0.00    -0.311 NA 
HETATM    3  H   UNL     1     -12.156   4.849  73.674  1.00  0.00     0.000 HD 
ENDROOT
BRANCH   2   4
HETATM    4  C   UNL     1     -11.276   6.226  72.315  1.00  0.00    -0.283 A  
HETATM    5  C   UNL     1     -10.957   7.390  73.024  1.00  0.00    -0.422 A  
HETATM    6  C   UNL     1     -10.867   8.626  72.375  1.00  0.00    -0.312 A  
HETATM    7  C   UNL     1     -11.046   8.718  70.991  1.00  0.00    -0.328 A  
HETATM    8  C   UNL     1     -11.359   6.314  70.921  1.00  0.00    -0.389 A  
HETATM    9  C   UNL     1     -11.267   7.547  70.267  1.00  0.00    -0.253 A  
BRANCH   7  10
HETATM   10  C   UNL     1     -11.126  10.045  70.371  1.00  0.00    -0.393 C  
HETATM   11  C   UNL     1     -11.986  11.019  70.710  1.00  0.00    -0.436 C  
BRANCH  11  12
HETATM   12  C   UNL     1     -11.944  12.362  70.108  1.00  0.00    -0.376 A  
HETATM   13  C   UNL     1     -11.396  12.578  68.842  1.00  0.00    -0.346 A  
HETATM   14  C   UNL     1     -11.318  13.862  68.306  1.00  0.00    -0.325 A  
HETATM   15  C   UNL     1     -11.805  14.962  69.014  1.00  0.00    -0.301 A  
HETATM   16  C   UNL     1     -12.473  13.459  70.802  1.00  0.00    -0.418 A  
HETATM   17  C   UNL     1     -12.397  14.750  70.261  1.00  0.00    -0.400 A  
BRANCH  15  18
HETATM   18  O   UNL     1     -11.747  16.265  68.581  1.00  0.00    -0.314 OA 
BRANCH  18  19
HETATM   19  C   UNL     1     -10.781  16.504  67.556  1.00  0.00    -0.283 C  
BRANCH  19  20
HETATM   20  C   UNL     1     -10.117  17.860  67.719  1.00  0.00    -0.348 C  
BRANCH  20  21
HETATM   21  O   UNL     1      -9.075  17.703  68.685  1.00  0.00    -0.282 OA 
BRANCH  21  22
HETATM   22  C   UNL     1      -7.825  17.385  68.081  1.00  0.00    -0.234 C  
BRANCH  22  23
HETATM   23  C   UNL     1      -7.203  16.197  68.809  1.00  0.00    -0.170 C  
BRANCH  23  24
HETATM   24  O   UNL     1      -7.186  15.074  67.930  1.00  0.00    -0.119 OA 
BRANCH  24  25
HETATM   25  C   UNL     1      -7.717  13.906  68.554  1.00  0.00    -0.139 C  
HETATM   26  C   UNL     1      -7.683  12.754  67.567  1.00  0.00    -0.168 C  
HETATM   27  F   UNL     1      -8.188  11.639  68.157  1.00  0.00    -0.122 F  
ENDBRANCH  24  25
ENDBRANCH  23  24
ENDBRANCH  22  23
ENDBRANCH  21  22
ENDBRANCH  20  21
ENDBRANCH  19  20
ENDBRANCH  18  19
ENDBRANCH  15  18
ENDBRANCH  11  12
ENDBRANCH   7  10
ENDBRANCH   2   4
TORSDOF 11
ENDMDL
MODEL       72
REMARK 921   NORMALIZED FREE ENERGY PREDICTED BY IDOCK:   -4.73 KCAL/MOL
REMARK 922        TOTAL FREE ENERGY PREDICTED BY IDOCK:   -8.85 KCAL/MOL
REMARK 923 INTER-LIGAND FREE ENERGY PREDICTED BY IDOCK:   -7.59 KCAL/MOL
REMARK 924 INTRA-LIGAND FREE ENERGY PREDICTED BY IDOCK:   -1.26 KCAL/MOL
REMARK 927      BINDING AFFINITY PREDICTED BY RF-SCORE:    0.00 PKD
ROOT
HETATM    1  C   UNL     1      -9.148   5.225  70.180  1.00  0.00    -0.133 C  
HETATM    2  N   UNL     1     -10.222   5.516  69.240  1.00  0.00    -0.221 NA 
HETATM    3  H   UNL     1     -10.844   4.785  68.896  1.00  0.00     0.000 HD 
ENDROOT
BRANCH   2   4
HETATM    4  C   UNL     1     -10.357   6.852  68.832  1.00  0.00    -0.189 A  
HETATM    5  C   UNL     1     -10.433   7.139  67.464  1.00  0.00    -0.331 A  
HETATM    6  C   UNL     1     -10.527   8.460  67.010  1.00  0.00    -0.375 A  
HETATM    7  C   UNL     1     -10.599   9.521  67.917  1.00  0.00    -0.299 A  
HETATM    8  C   UNL     1     -10.525   7.911  69.730  1.00  0.00    -0.233 A  
HETATM    9  C   UNL     1     -10.623   9.233  69.282  1.00  0.00    -0.234 A  
BRANCH   7  10
HETATM   10  C   UNL     1     -10.515  10.895  67.413  1.00  0.00    -0.263 C  
HETATM   11  C   UNL     1     -11.074  11.976  67.983  1.00  0.00    -0.292 C  
BRANCH  11  12
HETATM   12  C   UNL     1     -10.867  13.341  67.471  1.00  0.00    -0.276 A  
HETATM   13  C   UNL     1     -11.345  14.459  68.158  1.00  0.00    -0.317 A  
HETATM   14  C   UNL     1     -11.186  15.741  67.635  1.00  0.00    -0.246 A  
HETATM   15  C   UNL     1     -10.525  15.941  66.422  1.00  0.00    -0.308 A  
HETATM   16  C   UNL     1     -10.166  13.543  66.275  1.00  0.00    -0.299 A  
HETATM   17  C   UNL     1     -10.002  14.833  65.752  1.00  0.00    -0.375 A  
BRANCH  15  18
HETATM   18  O   UNL     1     -10.344  17.160  65.817  1.00  0.00    -0.504 OA 
BRANCH  18  19
HETATM   19  C   UNL     1     -10.570  18.283  66.670  1.00  0.00    -0.298 C  
BRANCH  19  20
HETATM   20  C   UNL     1     -10.444  19.595  65.915  1.00  0.00    -0.493 C  
BRANCH  20  21
HETATM   21  O   UNL     1      -9.449  20.371  66.586  1.00  0.00    -0.360 OA 
BRANCH  21  22
HETATM   22  C   UNL     1      -8.129  19.932  66.280  1.00  0.00    -0.329 C  
BRANCH  22  23
HETATM   23  C   UNL     1      -7.238  20.125  67.503  1.00  0.00    -0.285 C  
BRANCH  23  24
HETATM   24  O   UNL     1      -6.734  18.856  67.913  1.00  0.00    -0.211 OA 
BRANCH  24  25
HETATM   25  C   UNL     1      -7.614  18.207  68.829  1.00  0.00    -0.274 C  
HETATM   26  C   UNL     1      -7.606  16.714  68.557  1.00  0.00    -0.212 C  
HETATM   27  F   UNL     1      -8.444  16.092  69.428  1.00  0.00    -0.239 F  
ENDBRANCH  24  25
ENDBRANCH  23  24
ENDBRANCH  22  23
ENDBRANCH  21  22
ENDBRANCH  20  21
ENDBRANCH  19  20
ENDBRANCH  18  19
ENDBRANCH  15  18
ENDBRANCH  11  12
ENDBRANCH   7  10
ENDBRANCH   2   4
TORSDOF 11
ENDMDL
MODEL       73
REMARK 921   NORMALIZED FREE ENERGY PREDICTED BY IDOCK:   -4.73 KCAL/MOL
REMARK 922        TOTAL FREE ENERGY PREDICTED BY IDOCK:   -8.84 KCAL/MOL
REMARK 923 INTER-LIGAND FREE ENERGY PREDICTED BY IDOCK:   -7.85 KCAL/MOL
REMARK 924 INTRA-LIGAND FREE ENERGY PREDICTED BY IDOCK:   -0.99 KCAL/MOL
REMARK 927      BINDING AFFINITY PREDICTED BY RF-SCORE:    0.00 PKD
ROOT
HETATM    1  C   UNL     1      -9.832   5.034  71.093  1.00  0.00    -0.187 C  
HETATM    2  N   UNL     1     -11.136   5.680  71.056  1.00  0.00    -0.192 NA 
HETATM    3  H   UNL     1     -11.989   5.177  71.300  1.00  0.00     0.000 HD 
ENDROOT
BRANCH   2   4
HETATM    4  C   UNL     1     -11.161   7.029  70.667  1.00  0.00    -0.288 A  
HETATM    5  C   UNL     1     -10.616   7.389  69.429  1.00  0.00    -0.231 A  
HETATM    6  C   UNL     1     -10.582   8.726  69.018  1.00  0.00    -0.191 A  
HETATM    7  C   UNL     1     -11.140   9.729  69.816  1.00  0.00    -0.272 A  
HETATM    8  C   UNL     1     -11.800   8.026  71.412  1.00  0.00    -0.326 A  
HETATM    9  C   UNL     1     -11.772   9.364  71.005  1.00  0.00    -0.395 A  
BRANCH   7  10
HETATM   10  C   UNL     1     -10.929  11.133  69.445  1.00  0.00    -0.298 C  
HETATM   11  C   UNL     1     -11.894  12.052  69.271  1.00  0.00    -0.377 C  
BRANCH  11  12
HETATM   12  C   UNL     1     -11.602  13.467  68.992  1.00  0.00    -0.356 A  
HETATM   13  C   UNL     1     -11.174  14.337  69.998  1.00  0.00    -0.154 A  
HETATM   14  C   UNL     1     -10.950  15.686  69.728  1.00  0.00    -0.307 A  
HETATM   15  C   UNL     1     -11.128  16.197  68.442  1.00  0.00    -0.359 A  
HETATM   16  C   UNL     1     -11.739  13.968  67.691  1.00  0.00    -0.412 A  
HETATM   17  C   UNL     1     -11.511  15.325  67.420  1.00  0.00    -0.246 A  
BRANCH  15  18
HETATM   18  O   UNL     1     -10.960  17.513  68.087  1.00  0.00    -0.316 OA 
BRANCH  18  19
HETATM   19  C   UNL     1      -9.897  18.177  68.772  1.00  0.00    -0.350 C  
BRANCH  19  20
HETATM   20  C   UNL     1      -9.915  19.674  68.516  1.00  0.00    -0.443 C  
BRANCH  20  21
HETATM   21  O   UNL     1      -8.686  20.003  67.864  1.00  0.00    -0.309 OA 
BRANCH  21  22
HETATM   22  C   UNL     1      -8.780  19.881  66.448  1.00  0.00    -0.345 C  
BRANCH  22  23
HETATM   23  C   UNL     1      -7.421  19.476  65.886  1.00  0.00    -0.300 C  
BRANCH  23  24
HETATM   24  O   UNL     1      -7.465  18.100  65.514  1.00  0.00    -0.540 OA 
BRANCH  24  25
HETATM   25  C   UNL     1      -7.336  17.241  66.646  1.00  0.00    -0.247 C  
HETATM   26  C   UNL     1      -8.217  16.022  66.451  1.00  0.00    -0.274 C  
HETATM   27  F   UNL     1      -8.097  15.201  67.527  1.00  0.00    -0.136 F  
ENDBRANCH  24  25
ENDBRANCH  23  24
ENDBRANCH  22  23
ENDBRANCH  21  22
ENDBRANCH  20  21
ENDBRANCH  19  20
ENDBRANCH  18  19
ENDBRANCH  15  18
ENDBRANCH  11  12
ENDBRANCH   7  10
ENDBRANCH   2   4
TORSDOF 11
ENDMDL
MODEL       74
REMARK 921   NORMALIZED FREE ENERGY PREDICTED BY IDOCK:   -4.73 KCAL/MOL
REMARK 922        TOTAL FREE ENERGY PREDICTED BY IDOCK:   -8.84 KCAL/MOL
REMARK 923 INTER-LIGAND FREE ENERGY PREDICTED BY IDOCK:   -8.11 KCAL/MOL
REMARK 924 INTRA-LIGAND FREE ENERGY PREDICTED BY IDOCK:   -0.73 KCAL/MOL
REMARK 927      BINDING AFFINITY PREDICTED BY RF-SCORE:    0.00 PKD
ROOT
HETATM    1  C   UNL     1      -9.319   2.337  69.257  1.00  0.00    -0.105 C  
HETATM    2  N   UNL     1      -8.514   3.550  69.292  1.00  0.00    -0.063 NA 
HETATM    3  H   UNL     1      -7.575   3.558  69.690  1.00  0.00     0.000 HD 
ENDROOT
BRANCH   2   4
HETATM    4  C   UNL     1      -9.095   4.708  68.752  1.00  0.00    -0.116 A  
HETATM    5  C   UNL     1      -8.406   5.414  67.759  1.00  0.00    -0.099 A  
HETATM    6  C   UNL     1      -8.928   6.596  67.221  1.00  0.00    -0.115 A  
HETATM    7  C   UNL     1     -10.177   7.072  67.630  1.00  0.00    -0.245 A  
HETATM    8  C   UNL     1     -10.384   5.141  69.083  1.00  0.00    -0.226 A  
HETATM    9  C   UNL     1     -10.912   6.320  68.547  1.00  0.00    -0.421 A  
BRANCH   7  10
HETATM   10  C   UNL     1     -10.613   8.400  67.184  1.00  0.00    -0.326 C  
HETATM   11  C   UNL     1     -10.653   9.508  67.944  1.00  0.00    -0.299 C  
BRANCH  11  12
HETATM   12  C   UNL     1     -11.011  10.829  67.403  1.00  0.00    -0.361 A  
HETATM   13  C   UNL     1     -11.592  11.814  68.204  1.00  0.00    -0.391 A  
HETATM   14  C   UNL     1     -11.971  13.042  67.665  1.00  0.00    -0.353 A  
HETATM   15  C   UNL     1     -11.761  13.326  66.315  1.00  0.00    -0.369 A  
HETATM   16  C   UNL     1     -10.759  11.127  66.056  1.00  0.00    -0.272 A  
HETATM   17  C   UNL     1     -11.138  12.365  65.516  1.00  0.00    -0.338 A  
BRANCH  15  18
HETATM   18  O   UNL     1     -12.126  14.493  65.690  1.00  0.00    -0.357 OA 
BRANCH  18  19
HETATM   19  C   UNL     1     -11.092  15.090  64.905  1.00  0.00    -0.415 C  
BRANCH  19  20
HETATM   20  C   UNL     1     -10.224  16.019  65.735  1.00  0.00    -0.377 C  
BRANCH  20  21
HETATM   21  O   UNL     1     -10.562  17.356  65.361  1.00  0.00    -0.638 OA 
BRANCH  21  22
HETATM   22  C   UNL     1     -10.529  18.249  66.470  1.00  0.00    -0.356 C  
BRANCH  22  23
HETATM   23  C   UNL     1     -10.523  19.686  65.958  1.00  0.00    -0.523 C  
BRANCH  23  24
HETATM   24  O   UNL     1      -9.967  20.532  66.963  1.00  0.00    -0.453 OA 
BRANCH  24  25
HETATM   25  C   UNL     1      -8.926  19.880  67.688  1.00  0.00    -0.335 C  
HETATM   26  C   UNL     1      -7.582  20.339  67.153  1.00  0.00    -0.315 C  
HETATM   27  F   UNL     1      -6.587  19.719  67.840  1.00  0.00    -0.240 F  
ENDBRANCH  24  25
ENDBRANCH  23  24
ENDBRANCH  22  23
ENDBRANCH  21  22
ENDBRANCH  20  21
ENDBRANCH  19  20
ENDBRANCH  18  19
ENDBRANCH  15  18
ENDBRANCH  11  12
ENDBRANCH   7  10
ENDBRANCH   2   4
TORSDOF 11
ENDMDL
MODEL       75
REMARK 921   NORMALIZED FREE ENERGY PREDICTED BY IDOCK:   -4.73 KCAL/MOL
REMARK 922        TOTAL FREE ENERGY PREDICTED BY IDOCK:   -8.84 KCAL/MOL
REMARK 923 INTER-LIGAND FREE ENERGY PREDICTED BY IDOCK:   -8.17 KCAL/MOL
REMARK 924 INTRA-LIGAND FREE ENERGY PREDICTED BY IDOCK:   -0.66 KCAL/MOL
REMARK 927      BINDING AFFINITY PREDICTED BY RF-SCORE:    0.00 PKD
ROOT
HETATM    1  C   UNL     1     -10.175   5.294  70.687  1.00  0.00    -0.257 C  
HETATM    2  N   UNL     1     -11.103   5.659  69.626  1.00  0.00    -0.243 NA 
HETATM    3  H   UNL     1     -11.895   5.065  69.380  1.00  0.00     0.000 HD 
ENDROOT
BRANCH   2   4
HETATM    4  C   UNL     1     -10.853   6.868  68.958  1.00  0.00    -0.212 A  
HETATM    5  C   UNL     1     -10.681   8.036  69.710  1.00  0.00    -0.231 A  
HETATM    6  C   UNL     1     -10.470   9.271  69.086  1.00  0.00    -0.231 A  
HETATM    7  C   UNL     1     -10.377   9.356  67.693  1.00  0.00    -0.303 A  
HETATM    8  C   UNL     1     -10.664   6.951  67.574  1.00  0.00    -0.368 A  
HETATM    9  C   UNL     1     -10.450   8.181  66.944  1.00  0.00    -0.379 A  
BRANCH   7  10
HETATM   10  C   UNL     1     -10.338  10.681  67.063  1.00  0.00    -0.280 C  
HETATM   11  C   UNL     1     -10.681  11.839  67.651  1.00  0.00    -0.254 C  
BRANCH  11  12
HETATM   12  C   UNL     1     -10.525  13.144  66.987  1.00  0.00    -0.248 A  
HETATM   13  C   UNL     1      -9.297  13.808  66.961  1.00  0.00    -0.250 A  
HETATM   14  C   UNL     1      -9.177  15.066  66.372  1.00  0.00    -0.328 A  
HETATM   15  C   UNL     1     -10.277  15.683  65.776  1.00  0.00    -0.367 A  
HETATM   16  C   UNL     1     -11.621  13.742  66.351  1.00  0.00    -0.380 A  
HETATM   17  C   UNL     1     -11.498  15.006  65.756  1.00  0.00    -0.236 A  
BRANCH  15  18
HETATM   18  O   UNL     1     -10.262  16.929  65.197  1.00  0.00    -0.595 OA 
BRANCH  18  19
HETATM   19  C   UNL     1     -10.502  18.005  66.106  1.00  0.00    -0.331 C  
BRANCH  19  20
HETATM   20  C   UNL     1      -9.215  18.720  66.478  1.00  0.00    -0.331 C  
BRANCH  20  21
HETATM   21  O   UNL     1      -8.195  18.231  65.604  1.00  0.00    -0.440 OA 
BRANCH  21  22
HETATM   22  C   UNL     1      -6.919  18.790  65.902  1.00  0.00    -0.268 C  
BRANCH  22  23
HETATM   23  C   UNL     1      -6.818  20.176  65.272  1.00  0.00    -0.300 C  
BRANCH  23  24
HETATM   24  O   UNL     1      -6.102  21.034  66.157  1.00  0.00    -0.240 OA 
BRANCH  24  25
HETATM   25  C   UNL     1      -6.661  21.028  67.470  1.00  0.00    -0.377 C  
HETATM   26  C   UNL     1      -5.542  20.909  68.488  1.00  0.00    -0.349 C  
HETATM   27  F   UNL     1      -6.070  20.902  69.740  1.00  0.00    -0.375 F  
ENDBRANCH  24  25
ENDBRANCH  23  24
ENDBRANCH  22  23
ENDBRANCH  21  22
ENDBRANCH  20  21
ENDBRANCH  19  20
ENDBRANCH  18  19
ENDBRANCH  15  18
ENDBRANCH  11  12
ENDBRANCH   7  10
ENDBRANCH   2   4
TORSDOF 11
ENDMDL
MODEL       76
REMARK 921   NORMALIZED FREE ENERGY PREDICTED BY IDOCK:   -4.72 KCAL/MOL
REMARK 922        TOTAL FREE ENERGY PREDICTED BY IDOCK:   -8.84 KCAL/MOL
REMARK 923 INTER-LIGAND FREE ENERGY PREDICTED BY IDOCK:   -7.55 KCAL/MOL
REMARK 924 INTRA-LIGAND FREE ENERGY PREDICTED BY IDOCK:   -1.29 KCAL/MOL
REMARK 927      BINDING AFFINITY PREDICTED BY RF-SCORE:    0.00 PKD
ROOT
HETATM    1  C   UNL     1     -12.574  16.133  74.329  1.00  0.00    -0.500 C  
HETATM    2  N   UNL     1     -13.567  15.700  73.357  1.00  0.00    -0.622 NA 
HETATM    3  H   UNL     1     -14.557  15.917  73.470  1.00  0.00     0.000 HD 
ENDROOT
BRANCH   2   4
HETATM    4  C   UNL     1     -13.095  14.968  72.256  1.00  0.00    -0.358 A  
HETATM    5  C   UNL     1     -13.201  13.572  72.273  1.00  0.00    -0.571 A  
HETATM    6  C   UNL     1     -12.706  12.800  71.216  1.00  0.00    -0.364 A  
HETATM    7  C   UNL     1     -12.139  13.411  70.093  1.00  0.00    -0.415 A  
HETATM    8  C   UNL     1     -12.613  15.571  71.089  1.00  0.00    -0.509 A  
HETATM    9  C   UNL     1     -12.120  14.804  70.028  1.00  0.00    -0.380 A  
BRANCH   7  10
HETATM   10  C   UNL     1     -11.470  12.574  69.091  1.00  0.00    -0.361 C  
HETATM   11  C   UNL     1     -10.867  13.018  67.975  1.00  0.00    -0.261 C  
BRANCH  11  12
HETATM   12  C   UNL     1     -10.132  12.129  67.061  1.00  0.00    -0.219 A  
HETATM   13  C   UNL     1     -10.746  11.558  65.944  1.00  0.00    -0.325 A  
HETATM   14  C   UNL     1     -10.051  10.678  65.117  1.00  0.00    -0.374 A  
HETATM   15  C   UNL     1      -8.716  10.361  65.374  1.00  0.00    -0.180 A  
HETATM   16  C   UNL     1      -8.779  11.845  67.296  1.00  0.00    -0.171 A  
HETATM   17  C   UNL     1      -8.080  10.962  66.461  1.00  0.00    -0.154 A  
BRANCH  15  18
HETATM   18  O   UNL     1      -7.959   9.485  64.634  1.00  0.00    -0.116 OA 
BRANCH  18  19
HETATM   19  C   UNL     1      -8.437   8.139  64.642  1.00  0.00    -0.024 C  
BRANCH  19  20
HETATM   20  C   UNL     1      -7.702   7.290  65.665  1.00  0.00    -0.105 C  
BRANCH  20  21
HETATM   21  O   UNL     1      -8.467   7.332  66.872  1.00  0.00    -0.115 OA 
BRANCH  21  22
HETATM   22  C   UNL     1      -9.832   6.989  66.655  1.00  0.00    -0.156 C  
BRANCH  22  23
HETATM   23  C   UNL     1     -10.687   7.609  67.756  1.00  0.00    -0.145 C  
BRANCH  23  24
HETATM   24  O   UNL     1      -9.838   8.012  68.828  1.00  0.00    -0.164 OA 
BRANCH  24  25
HETATM   25  C   UNL     1     -10.540   8.061  70.069  1.00  0.00    -0.242 C  
HETATM   26  C   UNL     1     -10.210   9.362  70.778  1.00  0.00    -0.299 C  
HETATM   27  F   UNL     1     -10.876   9.413  71.961  1.00  0.00    -0.420 F  
ENDBRANCH  24  25
ENDBRANCH  23  24
ENDBRANCH  22  23
ENDBRANCH  21  22
ENDBRANCH  20  21
ENDBRANCH  19  20
ENDBRANCH  18  19
ENDBRANCH  15  18
ENDBRANCH  11  12
ENDBRANCH   7  10
ENDBRANCH   2   4
TORSDOF 11
ENDMDL
MODEL       77
REMARK 921   NORMALIZED FREE ENERGY PREDICTED BY IDOCK:   -4.71 KCAL/MOL
REMARK 922        TOTAL FREE ENERGY PREDICTED BY IDOCK:   -8.82 KCAL/MOL
REMARK 923 INTER-LIGAND FREE ENERGY PREDICTED BY IDOCK:   -7.50 KCAL/MOL
REMARK 924 INTRA-LIGAND FREE ENERGY PREDICTED BY IDOCK:   -1.32 KCAL/MOL
REMARK 927      BINDING AFFINITY PREDICTED BY RF-SCORE:    0.00 PKD
ROOT
HETATM    1  C   UNL     1      -9.900   3.996  74.153  1.00  0.00    -0.124 C  
HETATM    2  N   UNL     1     -10.643   4.225  72.922  1.00  0.00    -0.182 NA 
HETATM    3  H   UNL     1     -10.988   3.452  72.353  1.00  0.00     0.000 HD 
ENDROOT
BRANCH   2   4
HETATM    4  C   UNL     1     -10.858   5.563  72.555  1.00  0.00    -0.252 A  
HETATM    5  C   UNL     1     -11.347   5.845  71.274  1.00  0.00    -0.238 A  
HETATM    6  C   UNL     1     -11.539   7.165  70.851  1.00  0.00    -0.350 A  
HETATM    7  C   UNL     1     -11.293   8.233  71.720  1.00  0.00    -0.350 A  
HETATM    8  C   UNL     1     -10.707   6.632  73.445  1.00  0.00    -0.315 A  
HETATM    9  C   UNL     1     -10.900   7.953  73.029  1.00  0.00    -0.408 A  
BRANCH   7  10
HETATM   10  C   UNL     1     -11.329   9.602  71.193  1.00  0.00    -0.456 C  
HETATM   11  C   UNL     1     -12.408  10.402  71.162  1.00  0.00    -0.505 C  
BRANCH  11  12
HETATM   12  C   UNL     1     -12.348  11.800  70.705  1.00  0.00    -0.433 A  
HETATM   13  C   UNL     1     -12.930  12.835  71.440  1.00  0.00    -0.359 A  
HETATM   14  C   UNL     1     -12.908  14.146  70.969  1.00  0.00    -0.421 A  
HETATM   15  C   UNL     1     -12.285  14.461  69.760  1.00  0.00    -0.321 A  
HETATM   16  C   UNL     1     -11.684  12.120  69.513  1.00  0.00    -0.402 A  
HETATM   17  C   UNL     1     -11.659  13.440  69.041  1.00  0.00    -0.358 A  
BRANCH  15  18
HETATM   18  O   UNL     1     -12.236  15.716  69.203  1.00  0.00    -0.298 OA 
BRANCH  18  19
HETATM   19  C   UNL     1     -11.079  16.474  69.557  1.00  0.00    -0.245 C  
BRANCH  19  20
HETATM   20  C   UNL     1     -10.237  16.813  68.339  1.00  0.00    -0.296 C  
BRANCH  20  21
HETATM   21  O   UNL     1      -8.870  16.619  68.707  1.00  0.00    -0.249 OA 
BRANCH  21  22
HETATM   22  C   UNL     1      -8.493  15.246  68.672  1.00  0.00    -0.168 C  
BRANCH  22  23
HETATM   23  C   UNL     1      -7.850  14.935  67.324  1.00  0.00    -0.206 C  
BRANCH  23  24
HETATM   24  O   UNL     1      -7.628  13.529  67.232  1.00  0.00    -0.149 OA 
BRANCH  24  25
HETATM   25  C   UNL     1      -8.097  12.841  68.390  1.00  0.00    -0.129 C  
HETATM   26  C   UNL     1      -8.282  11.372  68.058  1.00  0.00    -0.140 C  
HETATM   27  F   UNL     1      -8.729  10.713  69.159  1.00  0.00    -0.147 F  
ENDBRANCH  24  25
ENDBRANCH  23  24
ENDBRANCH  22  23
ENDBRANCH  21  22
ENDBRANCH  20  21
ENDBRANCH  19  20
ENDBRANCH  18  19
ENDBRANCH  15  18
ENDBRANCH  11  12
ENDBRANCH   7  10
ENDBRANCH   2   4
TORSDOF 11
ENDMDL
MODEL       78
REMARK 921   NORMALIZED FREE ENERGY PREDICTED BY IDOCK:   -4.71 KCAL/MOL
REMARK 922        TOTAL FREE ENERGY PREDICTED BY IDOCK:   -8.81 KCAL/MOL
REMARK 923 INTER-LIGAND FREE ENERGY PREDICTED BY IDOCK:   -7.92 KCAL/MOL
REMARK 924 INTRA-LIGAND FREE ENERGY PREDICTED BY IDOCK:   -0.89 KCAL/MOL
REMARK 927      BINDING AFFINITY PREDICTED BY RF-SCORE:    0.00 PKD
ROOT
HETATM    1  C   UNL     1      -8.817   3.551  67.185  1.00  0.00    -0.131 C  
HETATM    2  N   UNL     1      -9.544   4.309  66.176  1.00  0.00    -0.177 NA 
HETATM    3  H   UNL     1      -9.925   3.862  65.343  1.00  0.00     0.000 HD 
ENDROOT
BRANCH   2   4
HETATM    4  C   UNL     1      -9.692   5.686  66.407  1.00  0.00    -0.156 A  
HETATM    5  C   UNL     1     -10.671   6.121  67.308  1.00  0.00    -0.414 A  
HETATM    6  C   UNL     1     -10.882   7.485  67.538  1.00  0.00    -0.232 A  
HETATM    7  C   UNL     1     -10.083   8.445  66.909  1.00  0.00    -0.364 A  
HETATM    8  C   UNL     1      -8.838   6.648  65.857  1.00  0.00    -0.126 A  
HETATM    9  C   UNL     1      -9.042   8.013  66.086  1.00  0.00    -0.224 A  
BRANCH   7  10
HETATM   10  C   UNL     1     -10.444   9.861  67.030  1.00  0.00    -0.296 C  
HETATM   11  C   UNL     1     -11.259  10.386  67.960  1.00  0.00    -0.340 C  
BRANCH  11  12
HETATM   12  C   UNL     1     -11.501  11.833  68.079  1.00  0.00    -0.388 A  
HETATM   13  C   UNL     1     -11.646  12.645  66.952  1.00  0.00    -0.438 A  
HETATM   14  C   UNL     1     -11.824  14.022  67.081  1.00  0.00    -0.444 A  
HETATM   15  C   UNL     1     -11.883  14.620  68.340  1.00  0.00    -0.295 A  
HETATM   16  C   UNL     1     -11.603  12.425  69.345  1.00  0.00    -0.371 A  
HETATM   17  C   UNL     1     -11.786  13.810  69.474  1.00  0.00    -0.380 A  
BRANCH  15  18
HETATM   18  O   UNL     1     -12.027  15.967  68.565  1.00  0.00    -0.306 OA 
BRANCH  18  19
HETATM   19  C   UNL     1     -10.858  16.609  69.077  1.00  0.00    -0.314 C  
BRANCH  19  20
HETATM   20  C   UNL     1      -9.989  17.161  67.961  1.00  0.00    -0.295 C  
BRANCH  20  21
HETATM   21  O   UNL     1     -10.855  17.853  67.058  1.00  0.00    -0.258 OA 
BRANCH  21  22
HETATM   22  C   UNL     1     -10.792  19.265  67.229  1.00  0.00    -0.449 C  
BRANCH  22  23
HETATM   23  C   UNL     1      -9.603  19.813  66.446  1.00  0.00    -0.411 C  
BRANCH  23  24
HETATM   24  O   UNL     1      -8.751  20.527  67.339  1.00  0.00    -0.342 OA 
BRANCH  24  25
HETATM   25  C   UNL     1      -7.377  20.398  66.976  1.00  0.00    -0.301 C  
HETATM   26  C   UNL     1      -7.246  19.356  65.880  1.00  0.00    -0.290 C  
HETATM   27  F   UNL     1      -5.939  19.230  65.532  1.00  0.00    -0.180 F  
ENDBRANCH  24  25
ENDBRANCH  23  24
ENDBRANCH  22  23
ENDBRANCH  21  22
ENDBRANCH  20  21
ENDBRANCH  19  20
ENDBRANCH  18  19
ENDBRANCH  15  18
ENDBRANCH  11  12
ENDBRANCH   7  10
ENDBRANCH   2   4
TORSDOF 11
ENDMDL
MODEL       79
REMARK 921   NORMALIZED FREE ENERGY PREDICTED BY IDOCK:   -4.68 KCAL/MOL
REMARK 922        TOTAL FREE ENERGY PREDICTED BY IDOCK:   -8.76 KCAL/MOL
REMARK 923 INTER-LIGAND FREE ENERGY PREDICTED BY IDOCK:   -7.38 KCAL/MOL
REMARK 924 INTRA-LIGAND FREE ENERGY PREDICTED BY IDOCK:   -1.39 KCAL/MOL
REMARK 927      BINDING AFFINITY PREDICTED BY RF-SCORE:    0.00 PKD
ROOT
HETATM    1  C   UNL     1     -10.848   6.439  66.747  1.00  0.00    -0.291 C  
HETATM    2  N   UNL     1     -10.765   7.303  67.917  1.00  0.00    -0.393 NA 
HETATM    3  H   UNL     1     -10.893   6.939  68.861  1.00  0.00     0.000 HD 
ENDROOT
BRANCH   2   4
HETATM    4  C   UNL     1     -10.502   8.661  67.680  1.00  0.00    -0.244 A  
HETATM    5  C   UNL     1     -10.463   9.544  68.766  1.00  0.00    -0.243 A  
HETATM    6  C   UNL     1     -10.244  10.913  68.573  1.00  0.00    -0.197 A  
HETATM    7  C   UNL     1     -10.010  11.422  67.292  1.00  0.00    -0.217 A  
HETATM    8  C   UNL     1     -10.172   9.166  66.418  1.00  0.00    -0.300 A  
HETATM    9  C   UNL     1      -9.950  10.532  66.219  1.00  0.00    -0.276 A  
BRANCH   7  10
HETATM   10  C   UNL     1      -9.965  12.876  67.102  1.00  0.00    -0.240 C  
HETATM   11  C   UNL     1     -10.946  13.739  67.415  1.00  0.00    -0.296 C  
BRANCH  11  12
HETATM   12  C   UNL     1     -10.794  15.197  67.285  1.00  0.00    -0.316 A  
HETATM   13  C   UNL     1     -10.434  15.789  66.072  1.00  0.00    -0.350 A  
HETATM   14  C   UNL     1     -10.244  17.167  65.978  1.00  0.00    -0.332 A  
HETATM   15  C   UNL     1     -10.429  17.991  67.089  1.00  0.00    -0.367 A  
HETATM   16  C   UNL     1     -11.023  16.027  68.391  1.00  0.00    -0.331 A  
HETATM   17  C   UNL     1     -10.835  17.413  68.294  1.00  0.00    -0.256 A  
BRANCH  15  18
HETATM   18  O   UNL     1     -10.240  19.351  67.099  1.00  0.00    -0.356 OA 
BRANCH  18  19
HETATM   19  C   UNL     1      -9.400  19.839  66.051  1.00  0.00    -0.298 C  
BRANCH  19  20
HETATM   20  C   UNL     1      -7.929  19.701  66.402  1.00  0.00    -0.318 C  
BRANCH  20  21
HETATM   21  O   UNL     1      -7.616  20.753  67.319  1.00  0.00    -0.346 OA 
BRANCH  21  22
HETATM   22  C   UNL     1      -6.658  20.350  68.292  1.00  0.00    -0.292 C  
BRANCH  22  23
HETATM   23  C   UNL     1      -7.158  19.095  69.000  1.00  0.00    -0.342 C  
BRANCH  23  24
HETATM   24  O   UNL     1      -6.040  18.393  69.541  1.00  0.00    -0.242 OA 
BRANCH  24  25
HETATM   25  C   UNL     1      -6.123  16.991  69.290  1.00  0.00    -0.213 C  
HETATM   26  C   UNL     1      -7.460  16.679  68.641  1.00  0.00    -0.211 C  
HETATM   27  F   UNL     1      -7.544  15.344  68.400  1.00  0.00    -0.109 F  
ENDBRANCH  24  25
ENDBRANCH  23  24
ENDBRANCH  22  23
ENDBRANCH  21  22
ENDBRANCH  20  21
ENDBRANCH  19  20
ENDBRANCH  18  19
ENDBRANCH  15  18
ENDBRANCH  11  12
ENDBRANCH   7  10
ENDBRANCH   2   4
TORSDOF 11
ENDMDL
MODEL       80
REMARK 921   NORMALIZED FREE ENERGY PREDICTED BY IDOCK:   -4.66 KCAL/MOL
REMARK 922        TOTAL FREE ENERGY PREDICTED BY IDOCK:   -8.74 KCAL/MOL
REMARK 923 INTER-LIGAND FREE ENERGY PREDICTED BY IDOCK:   -7.70 KCAL/MOL
REMARK 924 INTRA-LIGAND FREE ENERGY PREDICTED BY IDOCK:   -1.04 KCAL/MOL
REMARK 927      BINDING AFFINITY PREDICTED BY RF-SCORE:    0.00 PKD
ROOT
HETATM    1  C   UNL     1      -9.787   3.643  74.564  1.00  0.00    -0.141 C  
HETATM    2  N   UNL     1     -10.939   3.648  73.674  1.00  0.00    -0.237 NA 
HETATM    3  H   UNL     1     -11.689   2.963  73.766  1.00  0.00     0.000 HD 
ENDROOT
BRANCH   2   4
HETATM    4  C   UNL     1     -10.966   4.642  72.684  1.00  0.00    -0.110 A  
HETATM    5  C   UNL     1     -10.125   4.516  71.572  1.00  0.00    -0.239 A  
HETATM    6  C   UNL     1     -10.089   5.503  70.581  1.00  0.00    -0.288 A  
HETATM    7  C   UNL     1     -10.932   6.616  70.654  1.00  0.00    -0.329 A  
HETATM    8  C   UNL     1     -11.871   5.710  72.698  1.00  0.00    -0.192 A  
HETATM    9  C   UNL     1     -11.842   6.698  71.709  1.00  0.00    -0.380 A  
BRANCH   7  10
HETATM   10  C   UNL     1     -10.743   7.716  69.701  1.00  0.00    -0.230 C  
HETATM   11  C   UNL     1     -10.288   7.594  68.443  1.00  0.00    -0.228 C  
BRANCH  11  12
HETATM   12  C   UNL     1     -10.215   8.730  67.511  1.00  0.00    -0.309 A  
HETATM   13  C   UNL     1     -10.853   9.942  67.784  1.00  0.00    -0.321 A  
HETATM   14  C   UNL     1     -10.816  10.992  66.868  1.00  0.00    -0.324 A  
HETATM   15  C   UNL     1     -10.123  10.865  65.664  1.00  0.00    -0.261 A  
HETATM   16  C   UNL     1      -9.482   8.616  66.321  1.00  0.00    -0.307 A  
HETATM   17  C   UNL     1      -9.443   9.674  65.402  1.00  0.00    -0.343 A  
BRANCH  15  18
HETATM   18  O   UNL     1     -10.054  11.832  64.690  1.00  0.00    -0.257 OA 
BRANCH  18  19
HETATM   19  C   UNL     1     -10.919  11.609  63.575  1.00  0.00    -0.407 C  
BRANCH  19  20
HETATM   20  C   UNL     1     -11.991  12.681  63.475  1.00  0.00    -0.548 C  
BRANCH  20  21
HETATM   21  O   UNL     1     -11.594  13.753  64.335  1.00  0.00    -0.380 OA 
BRANCH  21  22
HETATM   22  C   UNL     1     -12.636  14.140  65.225  1.00  0.00    -0.442 C  
BRANCH  22  23
HETATM   23  C   UNL     1     -12.062  14.304  66.629  1.00  0.00    -0.420 C  
BRANCH  23  24
HETATM   24  O   UNL     1     -10.848  15.048  66.548  1.00  0.00    -0.310 OA 
BRANCH  24  25
HETATM   25  C   UNL     1      -9.969  14.746  67.631  1.00  0.00    -0.226 C  
HETATM   26  C   UNL     1     -10.343  15.598  68.830  1.00  0.00    -0.218 C  
HETATM   27  F   UNL     1      -9.508  15.314  69.863  1.00  0.00    -0.247 F  
ENDBRANCH  24  25
ENDBRANCH  23  24
ENDBRANCH  22  23
ENDBRANCH  21  22
ENDBRANCH  20  21
ENDBRANCH  19  20
ENDBRANCH  18  19
ENDBRANCH  15  18
ENDBRANCH  11  12
ENDBRANCH   7  10
ENDBRANCH   2   4
TORSDOF 11
ENDMDL
MODEL       81
REMARK 921   NORMALIZED FREE ENERGY PREDICTED BY IDOCK:   -4.66 KCAL/MOL
REMARK 922        TOTAL FREE ENERGY PREDICTED BY IDOCK:   -8.73 KCAL/MOL
REMARK 923 INTER-LIGAND FREE ENERGY PREDICTED BY IDOCK:   -7.33 KCAL/MOL
REMARK 924 INTRA-LIGAND FREE ENERGY PREDICTED BY IDOCK:   -1.40 KCAL/MOL
REMARK 927      BINDING AFFINITY PREDICTED BY RF-SCORE:    0.00 PKD
ROOT
HETATM    1  C   UNL     1     -13.414  16.055  73.178  1.00  0.00    -0.504 C  
HETATM    2  N   UNL     1     -13.325  15.685  71.773  1.00  0.00    -0.481 NA 
HETATM    3  H   UNL     1     -13.421  16.377  71.030  1.00  0.00     0.000 HD 
ENDROOT
BRANCH   2   4
HETATM    4  C   UNL     1     -13.101  14.328  71.492  1.00  0.00    -0.343 A  
HETATM    5  C   UNL     1     -13.744  13.358  72.270  1.00  0.00    -0.705 A  
HETATM    6  C   UNL     1     -13.519  11.994  72.052  1.00  0.00    -0.364 A  
HETATM    7  C   UNL     1     -12.682  11.568  71.015  1.00  0.00    -0.426 A  
HETATM    8  C   UNL     1     -12.344  13.890  70.400  1.00  0.00    -0.433 A  
HETATM    9  C   UNL     1     -12.117  12.528  70.175  1.00  0.00    -0.368 A  
BRANCH   7  10
HETATM   10  C   UNL     1     -12.326  10.148  70.927  1.00  0.00    -0.461 C  
HETATM   11  C   UNL     1     -11.393   9.622  70.115  1.00  0.00    -0.275 C  
BRANCH  11  12
HETATM   12  C   UNL     1     -11.021   8.199  70.149  1.00  0.00    -0.223 A  
HETATM   13  C   UNL     1     -11.616   7.309  71.046  1.00  0.00    -0.329 A  
HETATM   14  C   UNL     1     -11.217   5.975  71.101  1.00  0.00    -0.328 A  
HETATM   15  C   UNL     1     -10.226   5.490  70.246  1.00  0.00    -0.255 A  
HETATM   16  C   UNL     1     -10.057   7.704  69.260  1.00  0.00    -0.190 A  
HETATM   17  C   UNL     1      -9.658   6.361  69.313  1.00  0.00    -0.145 A  
BRANCH  15  18
HETATM   18  O   UNL     1      -9.749   4.202  70.245  1.00  0.00    -0.189 OA 
BRANCH  18  19
HETATM   19  C   UNL     1      -9.771   3.563  71.522  1.00  0.00    -0.167 C  
BRANCH  19  20
HETATM   20  C   UNL     1      -8.615   4.017  72.396  1.00  0.00    -0.103 C  
BRANCH  20  21
HETATM   21  O   UNL     1      -8.918   3.617  73.734  1.00  0.00    -0.088 OA 
BRANCH  21  22
HETATM   22  C   UNL     1      -9.558   4.654  74.472  1.00  0.00    -0.137 C  
BRANCH  22  23
HETATM   23  C   UNL     1      -8.791   5.957  74.276  1.00  0.00    -0.123 C  
BRANCH  23  24
HETATM   24  O   UNL     1      -9.708   6.981  73.894  1.00  0.00    -0.237 OA 
BRANCH  24  25
HETATM   25  C   UNL     1      -9.036   8.179  73.511  1.00  0.00    -0.225 C  
HETATM   26  C   UNL     1      -8.105   7.878  72.350  1.00  0.00    -0.130 C  
HETATM   27  F   UNL     1      -7.461   9.017  71.981  1.00  0.00    -0.100 F  
ENDBRANCH  24  25
ENDBRANCH  23  24
ENDBRANCH  22  23
ENDBRANCH  21  22
ENDBRANCH  20  21
ENDBRANCH  19  20
ENDBRANCH  18  19
ENDBRANCH  15  18
ENDBRANCH  11  12
ENDBRANCH   7  10
ENDBRANCH   2   4
TORSDOF 11
ENDMDL
MODEL       82
REMARK 921   NORMALIZED FREE ENERGY PREDICTED BY IDOCK:   -4.65 KCAL/MOL
REMARK 922        TOTAL FREE ENERGY PREDICTED BY IDOCK:   -8.71 KCAL/MOL
REMARK 923 INTER-LIGAND FREE ENERGY PREDICTED BY IDOCK:   -8.02 KCAL/MOL
REMARK 924 INTRA-LIGAND FREE ENERGY PREDICTED BY IDOCK:   -0.69 KCAL/MOL
REMARK 927      BINDING AFFINITY PREDICTED BY RF-SCORE:    0.00 PKD
ROOT
HETATM    1  C   UNL     1      -9.966  20.127  66.474  1.00  0.00    -0.457 C  
HETATM    2  N   UNL     1      -9.728  18.882  65.758  1.00  0.00    -0.384 NA 
HETATM    3  H   UNL     1      -9.229  18.863  64.869  1.00  0.00     0.000 HD 
ENDROOT
BRANCH   2   4
HETATM    4  C   UNL     1     -10.221  17.709  66.352  1.00  0.00    -0.364 A  
HETATM    5  C   UNL     1     -10.626  17.745  67.691  1.00  0.00    -0.385 A  
HETATM    6  C   UNL     1     -11.086  16.591  68.336  1.00  0.00    -0.333 A  
HETATM    7  C   UNL     1     -11.198  15.384  67.639  1.00  0.00    -0.311 A  
HETATM    8  C   UNL     1     -10.427  16.522  65.641  1.00  0.00    -0.341 A  
HETATM    9  C   UNL     1     -10.889  15.366  66.279  1.00  0.00    -0.301 A  
BRANCH   7  10
HETATM   10  C   UNL     1     -11.508  14.159  68.384  1.00  0.00    -0.334 C  
HETATM   11  C   UNL     1     -11.882  14.099  69.673  1.00  0.00    -0.379 C  
BRANCH  11  12
HETATM   12  C   UNL     1     -12.271  12.840  70.330  1.00  0.00    -0.351 A  
HETATM   13  C   UNL     1     -13.090  12.827  71.461  1.00  0.00    -0.380 A  
HETATM   14  C   UNL     1     -13.408  11.631  72.100  1.00  0.00    -0.310 A  
HETATM   15  C   UNL     1     -12.931  10.412  71.614  1.00  0.00    -0.475 A  
HETATM   16  C   UNL     1     -11.827  11.614  69.814  1.00  0.00    -0.428 A  
HETATM   17  C   UNL     1     -12.150  10.410  70.457  1.00  0.00    -0.423 A  
BRANCH  15  18
HETATM   18  O   UNL     1     -13.168   9.188  72.191  1.00  0.00    -0.390 OA 
BRANCH  18  19
HETATM   19  C   UNL     1     -12.353   8.130  71.684  1.00  0.00    -0.314 C  
BRANCH  19  20
HETATM   20  C   UNL     1     -11.320   7.682  72.702  1.00  0.00    -0.370 C  
BRANCH  20  21
HETATM   21  O   UNL     1     -10.180   8.530  72.544  1.00  0.00    -0.310 OA 
BRANCH  21  22
HETATM   22  C   UNL     1      -8.999   7.791  72.244  1.00  0.00    -0.145 C  
BRANCH  22  23
HETATM   23  C   UNL     1      -9.380   6.357  71.890  1.00  0.00    -0.152 C  
BRANCH  23  24
HETATM   24  O   UNL     1      -9.316   6.198  70.474  1.00  0.00    -0.159 OA 
BRANCH  24  25
HETATM   25  C   UNL     1      -8.089   5.595  70.065  1.00  0.00    -0.106 C  
HETATM   26  C   UNL     1      -7.417   6.483  69.033  1.00  0.00    -0.095 C  
HETATM   27  F   UNL     1      -6.248   5.912  68.639  1.00  0.00    -0.023 F  
ENDBRANCH  24  25
ENDBRANCH  23  24
ENDBRANCH  22  23
ENDBRANCH  21  22
ENDBRANCH  20  21
ENDBRANCH  19  20
ENDBRANCH  18  19
ENDBRANCH  15  18
ENDBRANCH  11  12
ENDBRANCH   7  10
ENDBRANCH   2   4
TORSDOF 11
ENDMDL
MODEL       83
REMARK 921   NORMALIZED FREE ENERGY PREDICTED BY IDOCK:   -4.64 KCAL/MOL
REMARK 922        TOTAL FREE ENERGY PREDICTED BY IDOCK:   -8.69 KCAL/MOL
REMARK 923 INTER-LIGAND FREE ENERGY PREDICTED BY IDOCK:   -7.81 KCAL/MOL
REMARK 924 INTRA-LIGAND FREE ENERGY PREDICTED BY IDOCK:   -0.88 KCAL/MOL
REMARK 927      BINDING AFFINITY PREDICTED BY RF-SCORE:    0.00 PKD
ROOT
HETATM    1  C   UNL     1     -11.127   3.455  73.365  1.00  0.00    -0.186 C  
HETATM    2  N   UNL     1     -11.064   4.738  74.051  1.00  0.00    -0.346 NA 
HETATM    3  H   UNL     1     -11.116   4.804  75.067  1.00  0.00     0.000 HD 
ENDROOT
BRANCH   2   4
HETATM    4  C   UNL     1     -10.930   5.878  73.243  1.00  0.00    -0.233 A  
HETATM    5  C   UNL     1     -11.650   5.950  72.045  1.00  0.00    -0.289 A  
HETATM    6  C   UNL     1     -11.517   7.049  71.189  1.00  0.00    -0.333 A  
HETATM    7  C   UNL     1     -10.696   8.126  71.538  1.00  0.00    -0.286 A  
HETATM    8  C   UNL     1     -10.188   7.001  73.626  1.00  0.00    -0.396 A  
HETATM    9  C   UNL     1     -10.053   8.104  72.776  1.00  0.00    -0.367 A  
BRANCH   7  10
HETATM   10  C   UNL     1     -10.437   9.173  70.544  1.00  0.00    -0.289 C  
HETATM   11  C   UNL     1     -10.140   8.970  69.250  1.00  0.00    -0.197 C  
BRANCH  11  12
HETATM   12  C   UNL     1      -9.986  10.073  68.287  1.00  0.00    -0.173 A  
HETATM   13  C   UNL     1      -8.797  10.799  68.191  1.00  0.00    -0.133 A  
HETATM   14  C   UNL     1      -8.685  11.873  67.310  1.00  0.00    -0.171 A  
HETATM   15  C   UNL     1      -9.751  12.237  66.487  1.00  0.00    -0.234 A  
HETATM   16  C   UNL     1     -11.044  10.410  67.431  1.00  0.00    -0.297 A  
HETATM   17  C   UNL     1     -10.929  11.488  66.543  1.00  0.00    -0.346 A  
BRANCH  15  18
HETATM   18  O   UNL     1      -9.744  13.295  65.610  1.00  0.00    -0.201 OA 
BRANCH  18  19
HETATM   19  C   UNL     1      -9.533  14.568  66.223  1.00  0.00    -0.283 C  
BRANCH  19  20
HETATM   20  C   UNL     1     -10.846  15.250  66.563  1.00  0.00    -0.311 C  
BRANCH  20  21
HETATM   21  O   UNL     1     -10.883  15.403  67.984  1.00  0.00    -0.273 OA 
BRANCH  21  22
HETATM   22  C   UNL     1     -11.034  16.764  68.374  1.00  0.00    -0.325 C  
BRANCH  22  23
HETATM   23  C   UNL     1      -9.661  17.356  68.677  1.00  0.00    -0.308 C  
BRANCH  23  24
HETATM   24  O   UNL     1      -9.677  18.747  68.362  1.00  0.00    -0.334 OA 
BRANCH  24  25
HETATM   25  C   UNL     1     -10.686  19.061  67.403  1.00  0.00    -0.473 C  
HETATM   26  C   UNL     1     -10.028  19.577  66.137  1.00  0.00    -0.444 C  
HETATM   27  F   UNL     1     -10.985  19.878  65.221  1.00  0.00    -0.583 F  
ENDBRANCH  24  25
ENDBRANCH  23  24
ENDBRANCH  22  23
ENDBRANCH  21  22
ENDBRANCH  20  21
ENDBRANCH  19  20
ENDBRANCH  18  19
ENDBRANCH  15  18
ENDBRANCH  11  12
ENDBRANCH   7  10
ENDBRANCH   2   4
TORSDOF 11
ENDMDL
MODEL       84
REMARK 921   NORMALIZED FREE ENERGY PREDICTED BY IDOCK:   -4.63 KCAL/MOL
REMARK 922        TOTAL FREE ENERGY PREDICTED BY IDOCK:   -8.68 KCAL/MOL
REMARK 923 INTER-LIGAND FREE ENERGY PREDICTED BY IDOCK:   -7.97 KCAL/MOL
REMARK 924 INTRA-LIGAND FREE ENERGY PREDICTED BY IDOCK:   -0.71 KCAL/MOL
REMARK 927      BINDING AFFINITY PREDICTED BY RF-SCORE:    0.00 PKD
ROOT
HETATM    1  C   UNL     1     -10.619   1.681  73.474  1.00  0.00    -0.112 C  
HETATM    2  N   UNL     1      -9.835   2.907  73.542  1.00  0.00    -0.099 NA 
HETATM    3  H   UNL     1      -8.997   2.975  74.120  1.00  0.00     0.000 HD 
ENDROOT
BRANCH   2   4
HETATM    4  C   UNL     1     -10.291   3.990  72.774  1.00  0.00    -0.168 A  
HETATM    5  C   UNL     1      -9.843   4.121  71.454  1.00  0.00    -0.254 A  
HETATM    6  C   UNL     1     -10.239   5.207  70.664  1.00  0.00    -0.326 A  
HETATM    7  C   UNL     1     -11.133   6.160  71.162  1.00  0.00    -0.360 A  
HETATM    8  C   UNL     1     -11.257   4.895  73.227  1.00  0.00    -0.423 A  
HETATM    9  C   UNL     1     -11.658   5.980  72.442  1.00  0.00    -0.349 A  
BRANCH   7  10
HETATM   10  C   UNL     1     -11.385   7.375  70.380  1.00  0.00    -0.273 C  
HETATM   11  C   UNL     1     -10.997   8.617  70.713  1.00  0.00    -0.286 C  
BRANCH  11  12
HETATM   12  C   UNL     1     -11.202   9.778  69.831  1.00  0.00    -0.271 A  
HETATM   13  C   UNL     1     -10.872   9.732  68.475  1.00  0.00    -0.227 A  
HETATM   14  C   UNL     1     -11.025  10.855  67.664  1.00  0.00    -0.350 A  
HETATM   15  C   UNL     1     -11.531  12.048  68.183  1.00  0.00    -0.322 A  
HETATM   16  C   UNL     1     -11.750  10.961  70.345  1.00  0.00    -0.444 A  
HETATM   17  C   UNL     1     -11.907  12.089  69.527  1.00  0.00    -0.390 A  
BRANCH  15  18
HETATM   18  O   UNL     1     -11.691  13.211  67.470  1.00  0.00    -0.329 OA 
BRANCH  18  19
HETATM   19  C   UNL     1     -11.861  13.023  66.064  1.00  0.00    -0.417 C  
BRANCH  19  20
HETATM   20  C   UNL     1     -11.078  14.049  65.264  1.00  0.00    -0.325 C  
BRANCH  20  21
HETATM   21  O   UNL     1     -11.002  15.234  66.060  1.00  0.00    -0.332 OA 
BRANCH  21  22
HETATM   22  C   UNL     1      -9.944  16.093  65.646  1.00  0.00    -0.297 C  
BRANCH  22  23
HETATM   23  C   UNL     1     -10.290  17.531  66.016  1.00  0.00    -0.306 C  
BRANCH  23  24
HETATM   24  O   UNL     1     -10.158  17.690  67.427  1.00  0.00    -0.307 OA 
BRANCH  24  25
HETATM   25  C   UNL     1      -8.820  18.017  67.800  1.00  0.00    -0.255 C  
HETATM   26  C   UNL     1      -8.827  19.303  68.606  1.00  0.00    -0.374 C  
HETATM   27  F   UNL     1      -7.554  19.618  68.963  1.00  0.00    -0.376 F  
ENDBRANCH  24  25
ENDBRANCH  23  24
ENDBRANCH  22  23
ENDBRANCH  21  22
ENDBRANCH  20  21
ENDBRANCH  19  20
ENDBRANCH  18  19
ENDBRANCH  15  18
ENDBRANCH  11  12
ENDBRANCH   7  10
ENDBRANCH   2   4
TORSDOF 11
ENDMDL
MODEL       85
REMARK 921   NORMALIZED FREE ENERGY PREDICTED BY IDOCK:   -4.63 KCAL/MOL
REMARK 922        TOTAL FREE ENERGY PREDICTED BY IDOCK:   -8.68 KCAL/MOL
REMARK 923 INTER-LIGAND FREE ENERGY PREDICTED BY IDOCK:   -7.79 KCAL/MOL
REMARK 924 INTRA-LIGAND FREE ENERGY PREDICTED BY IDOCK:   -0.89 KCAL/MOL
REMARK 927      BINDING AFFINITY PREDICTED BY RF-SCORE:    0.00 PKD
ROOT
HETATM    1  C   UNL     1     -10.501   3.417  64.164  1.00  0.00    -0.181 C  
HETATM    2  N   UNL     1      -9.827   3.703  65.423  1.00  0.00    -0.347 NA 
HETATM    3  H   UNL     1      -9.387   2.966  65.974  1.00  0.00     0.000 HD 
ENDROOT
BRANCH   2   4
HETATM    4  C   UNL     1      -9.815   5.043  65.841  1.00  0.00    -0.164 A  
HETATM    5  C   UNL     1     -10.850   5.508  66.662  1.00  0.00    -0.257 A  
HETATM    6  C   UNL     1     -10.900   6.845  67.069  1.00  0.00    -0.436 A  
HETATM    7  C   UNL     1      -9.887   7.738  66.706  1.00  0.00    -0.312 A  
HETATM    8  C   UNL     1      -8.760   5.919  65.564  1.00  0.00    -0.133 A  
HETATM    9  C   UNL     1      -8.803   7.256  65.971  1.00  0.00    -0.161 A  
BRANCH   7  10
HETATM   10  C   UNL     1     -10.060   9.166  66.995  1.00  0.00    -0.316 C  
HETATM   11  C   UNL     1     -10.197  10.140  66.079  1.00  0.00    -0.288 C  
BRANCH  11  12
HETATM   12  C   UNL     1     -10.463  11.541  66.444  1.00  0.00    -0.292 A  
HETATM   13  C   UNL     1      -9.591  12.262  67.262  1.00  0.00    -0.187 A  
HETATM   14  C   UNL     1      -9.883  13.571  67.640  1.00  0.00    -0.228 A  
HETATM   15  C   UNL     1     -11.044  14.202  67.193  1.00  0.00    -0.307 A  
HETATM   16  C   UNL     1     -11.609  12.186  65.958  1.00  0.00    -0.420 A  
HETATM   17  C   UNL     1     -11.900  13.505  66.336  1.00  0.00    -0.435 A  
BRANCH  15  18
HETATM   18  O   UNL     1     -11.429  15.476  67.533  1.00  0.00    -0.297 OA 
BRANCH  18  19
HETATM   19  C   UNL     1     -10.839  15.969  68.736  1.00  0.00    -0.302 C  
BRANCH  19  20
HETATM   20  C   UNL     1     -10.497  17.445  68.628  1.00  0.00    -0.355 C  
BRANCH  20  21
HETATM   21  O   UNL     1      -9.922  17.649  67.335  1.00  0.00    -0.299 OA 
BRANCH  21  22
HETATM   22  C   UNL     1     -10.460  18.796  66.684  1.00  0.00    -0.426 C  
BRANCH  22  23
HETATM   23  C   UNL     1      -9.320  19.730  66.291  1.00  0.00    -0.391 C  
BRANCH  23  24
HETATM   24  O   UNL     1      -8.085  19.161  66.723  1.00  0.00    -0.255 OA 
BRANCH  24  25
HETATM   25  C   UNL     1      -7.380  20.034  67.603  1.00  0.00    -0.288 C  
HETATM   26  C   UNL     1      -7.314  19.405  68.983  1.00  0.00    -0.360 C  
HETATM   27  F   UNL     1      -6.643  20.233  69.825  1.00  0.00    -0.360 F  
ENDBRANCH  24  25
ENDBRANCH  23  24
ENDBRANCH  22  23
ENDBRANCH  21  22
ENDBRANCH  20  21
ENDBRANCH  19  20
ENDBRANCH  18  19
ENDBRANCH  15  18
ENDBRANCH  11  12
ENDBRANCH   7  10
ENDBRANCH   2   4
TORSDOF 11
ENDMDL
MODEL       86
REMARK 921   NORMALIZED FREE ENERGY PREDICTED BY IDOCK:   -4.62 KCAL/MOL
REMARK 922        TOTAL FREE ENERGY PREDICTED BY IDOCK:   -8.67 KCAL/MOL
REMARK 923 INTER-LIGAND FREE ENERGY PREDICTED BY IDOCK:   -7.81 KCAL/MOL
REMARK 924 INTRA-LIGAND FREE ENERGY PREDICTED BY IDOCK:   -0.86 KCAL/MOL
REMARK 927      BINDING AFFINITY PREDICTED BY RF-SCORE:    0.00 PKD
ROOT
HETATM    1  C   UNL     1      -9.622  20.804  67.280  1.00  0.00    -0.354 C  
HETATM    2  N   UNL     1      -8.786  19.646  66.996  1.00  0.00    -0.303 NA 
HETATM    3  H   UNL     1      -7.961  19.715  66.400  1.00  0.00     0.000 HD 
ENDROOT
BRANCH   2   4
HETATM    4  C   UNL     1      -9.171  18.430  67.582  1.00  0.00    -0.266 A  
HETATM    5  C   UNL     1     -10.491  17.990  67.427  1.00  0.00    -0.399 A  
HETATM    6  C   UNL     1     -10.930  16.805  68.027  1.00  0.00    -0.296 A  
HETATM    7  C   UNL     1     -10.044  16.007  68.758  1.00  0.00    -0.225 A  
HETATM    8  C   UNL     1      -8.273  17.578  68.233  1.00  0.00    -0.263 A  
HETATM    9  C   UNL     1      -8.705  16.391  68.833  1.00  0.00    -0.253 A  
BRANCH   7  10
HETATM   10  C   UNL     1     -10.574  14.872  69.522  1.00  0.00    -0.242 C  
HETATM   11  C   UNL     1     -11.874  14.578  69.689  1.00  0.00    -0.367 C  
BRANCH  11  12
HETATM   12  C   UNL     1     -12.331  13.367  70.390  1.00  0.00    -0.382 A  
HETATM   13  C   UNL     1     -13.106  13.441  71.549  1.00  0.00    -0.427 A  
HETATM   14  C   UNL     1     -13.488  12.287  72.230  1.00  0.00    -0.365 A  
HETATM   15  C   UNL     1     -13.122  11.026  71.758  1.00  0.00    -0.449 A  
HETATM   16  C   UNL     1     -11.998  12.100  69.891  1.00  0.00    -0.380 A  
HETATM   17  C   UNL     1     -12.386  10.939  70.574  1.00  0.00    -0.463 A  
BRANCH  15  18
HETATM   18  O   UNL     1     -13.427   9.836  72.374  1.00  0.00    -0.413 OA 
BRANCH  18  19
HETATM   19  C   UNL     1     -12.463   8.802  72.170  1.00  0.00    -0.393 C  
BRANCH  19  20
HETATM   20  C   UNL     1     -13.053   7.630  71.404  1.00  0.00    -0.296 C  
BRANCH  20  21
HETATM   21  O   UNL     1     -11.992   6.698  71.180  1.00  0.00    -0.348 OA 
BRANCH  21  22
HETATM   22  C   UNL     1     -11.220   7.031  70.031  1.00  0.00    -0.269 C  
BRANCH  22  23
HETATM   23  C   UNL     1      -9.737   6.936  70.376  1.00  0.00    -0.172 C  
BRANCH  23  24
HETATM   24  O   UNL     1      -9.090   8.140  69.971  1.00  0.00    -0.149 OA 
BRANCH  24  25
HETATM   25  C   UNL     1      -8.051   8.513  70.876  1.00  0.00    -0.127 C  
HETATM   26  C   UNL     1      -8.615   8.578  72.283  1.00  0.00    -0.165 C  
HETATM   27  F   UNL     1      -7.629   8.933  73.149  1.00  0.00    -0.048 F  
ENDBRANCH  24  25
ENDBRANCH  23  24
ENDBRANCH  22  23
ENDBRANCH  21  22
ENDBRANCH  20  21
ENDBRANCH  19  20
ENDBRANCH  18  19
ENDBRANCH  15  18
ENDBRANCH  11  12
ENDBRANCH   7  10
ENDBRANCH   2   4
TORSDOF 11
ENDMDL
MODEL       87
REMARK 921   NORMALIZED FREE ENERGY PREDICTED BY IDOCK:   -4.62 KCAL/MOL
REMARK 922        TOTAL FREE ENERGY PREDICTED BY IDOCK:   -8.67 KCAL/MOL
REMARK 923 INTER-LIGAND FREE ENERGY PREDICTED BY IDOCK:   -7.67 KCAL/MOL
REMARK 924 INTRA-LIGAND FREE ENERGY PREDICTED BY IDOCK:   -1.00 KCAL/MOL
REMARK 927      BINDING AFFINITY PREDICTED BY RF-SCORE:    0.00 PKD
ROOT
HETATM    1  C   UNL     1      -6.057  21.340  66.977  1.00  0.00    -0.338 C  
HETATM    2  N   UNL     1      -7.473  21.378  67.313  1.00  0.00    -0.750 NA 
HETATM    3  H   UNL     1      -7.977  22.260  67.410  1.00  0.00     0.000 HD 
ENDROOT
BRANCH   2   4
HETATM    4  C   UNL     1      -8.111  20.141  67.499  1.00  0.00    -0.320 A  
HETATM    5  C   UNL     1      -7.405  19.099  68.112  1.00  0.00    -0.304 A  
HETATM    6  C   UNL     1      -7.986  17.837  68.280  1.00  0.00    -0.282 A  
HETATM    7  C   UNL     1      -9.307  17.604  67.884  1.00  0.00    -0.268 A  
HETATM    8  C   UNL     1      -9.459  19.924  67.194  1.00  0.00    -0.497 A  
HETATM    9  C   UNL     1     -10.046  18.666  67.363  1.00  0.00    -0.397 A  
BRANCH   7  10
HETATM   10  C   UNL     1      -9.824  16.231  67.907  1.00  0.00    -0.237 C  
HETATM   11  C   UNL     1      -9.703  15.331  66.917  1.00  0.00    -0.243 C  
BRANCH  11  12
HETATM   12  C   UNL     1     -10.164  13.939  67.049  1.00  0.00    -0.254 A  
HETATM   13  C   UNL     1      -9.573  13.055  67.954  1.00  0.00    -0.215 A  
HETATM   14  C   UNL     1      -9.988  11.727  68.031  1.00  0.00    -0.191 A  
HETATM   15  C   UNL     1     -11.018  11.252  67.219  1.00  0.00    -0.286 A  
HETATM   16  C   UNL     1     -11.228  13.475  66.263  1.00  0.00    -0.310 A  
HETATM   17  C   UNL     1     -11.647  12.140  66.343  1.00  0.00    -0.429 A  
BRANCH  15  18
HETATM   18  O   UNL     1     -11.475   9.956  67.204  1.00  0.00     0.087 OA 
BRANCH  18  19
HETATM   19  C   UNL     1     -10.456   8.973  67.013  1.00  0.00    -0.246 C  
BRANCH  19  20
HETATM   20  C   UNL     1     -10.455   7.944  68.130  1.00  0.00    -0.173 C  
BRANCH  20  21
HETATM   21  O   UNL     1      -9.450   8.341  69.066  1.00  0.00    -0.154 OA 
BRANCH  21  22
HETATM   22  C   UNL     1      -9.785   7.974  70.401  1.00  0.00    -0.178 C  
BRANCH  22  23
HETATM   23  C   UNL     1      -9.666   9.198  71.303  1.00  0.00    -0.281 C  
BRANCH  23  24
HETATM   24  O   UNL     1     -10.775  10.061  71.060  1.00  0.00    -0.268 OA 
BRANCH  24  25
HETATM   25  C   UNL     1     -11.977   9.554  71.637  1.00  0.00    -0.401 C  
HETATM   26  C   UNL     1     -12.991  10.679  71.747  1.00  0.00    -0.472 C  
HETATM   27  F   UNL     1     -14.137  10.200  72.297  1.00  0.00    -0.263 F  
ENDBRANCH  24  25
ENDBRANCH  23  24
ENDBRANCH  22  23
ENDBRANCH  21  22
ENDBRANCH  20  21
ENDBRANCH  19  20
ENDBRANCH  18  19
ENDBRANCH  15  18
ENDBRANCH  11  12
ENDBRANCH   7  10
ENDBRANCH   2   4
TORSDOF 11
ENDMDL
MODEL       88
REMARK 921   NORMALIZED FREE ENERGY PREDICTED BY IDOCK:   -4.60 KCAL/MOL
REMARK 922        TOTAL FREE ENERGY PREDICTED BY IDOCK:   -8.63 KCAL/MOL
REMARK 923 INTER-LIGAND FREE ENERGY PREDICTED BY IDOCK:   -7.01 KCAL/MOL
REMARK 924 INTRA-LIGAND FREE ENERGY PREDICTED BY IDOCK:   -1.62 KCAL/MOL
REMARK 927      BINDING AFFINITY PREDICTED BY RF-SCORE:    0.00 PKD
ROOT
HETATM    1  C   UNL     1     -13.771   8.494  72.244  1.00  0.00    -0.336 C  
HETATM    2  N   UNL     1     -12.500   8.162  71.615  1.00  0.00    -0.310 NA 
HETATM    3  H   UNL     1     -12.072   7.244  71.727  1.00  0.00     0.000 HD 
ENDROOT
BRANCH   2   4
HETATM    4  C   UNL     1     -11.895   9.170  70.847  1.00  0.00    -0.270 A  
HETATM    5  C   UNL     1     -10.600   8.964  70.357  1.00  0.00    -0.252 A  
HETATM    6  C   UNL     1      -9.942   9.957  69.622  1.00  0.00    -0.255 A  
HETATM    7  C   UNL     1     -10.586  11.160  69.317  1.00  0.00    -0.212 A  
HETATM    8  C   UNL     1     -12.562  10.336  70.455  1.00  0.00    -0.338 A  
HETATM    9  C   UNL     1     -11.911  11.330  69.718  1.00  0.00    -0.431 A  
BRANCH   7  10
HETATM   10  C   UNL     1      -9.812  12.245  68.705  1.00  0.00    -0.098 C  
HETATM   11  C   UNL     1     -10.305  13.208  67.908  1.00  0.00    -0.232 C  
BRANCH  11  12
HETATM   12  C   UNL     1      -9.484  14.323  67.407  1.00  0.00    -0.211 A  
HETATM   13  C   UNL     1      -9.897  15.106  66.327  1.00  0.00    -0.317 A  
HETATM   14  C   UNL     1      -9.086  16.125  65.832  1.00  0.00    -0.268 A  
HETATM   15  C   UNL     1      -7.849  16.401  66.416  1.00  0.00    -0.262 A  
HETATM   16  C   UNL     1      -8.263  14.626  68.023  1.00  0.00    -0.145 A  
HETATM   17  C   UNL     1      -7.448  15.654  67.526  1.00  0.00    -0.205 A  
BRANCH  15  18
HETATM   18  O   UNL     1      -6.971  17.364  65.982  1.00  0.00    -0.271 OA 
BRANCH  18  19
HETATM   19  C   UNL     1      -7.571  18.631  65.710  1.00  0.00    -0.047 C  
BRANCH  19  20
HETATM   20  C   UNL     1      -7.073  19.704  66.663  1.00  0.00    -0.217 C  
BRANCH  20  21
HETATM   21  O   UNL     1      -8.195  20.126  67.443  1.00  0.00    -0.319 OA 
BRANCH  21  22
HETATM   22  C   UNL     1      -9.432  19.875  66.783  1.00  0.00    -0.395 C  
BRANCH  22  23
HETATM   23  C   UNL     1     -10.523  19.657  67.826  1.00  0.00    -0.439 C  
BRANCH  23  24
HETATM   24  O   UNL     1     -10.805  18.262  67.915  1.00  0.00    -0.363 OA 
BRANCH  24  25
HETATM   25  C   UNL     1     -10.212  17.675  69.072  1.00  0.00    -0.314 C  
HETATM   26  C   UNL     1     -11.120  16.580  69.598  1.00  0.00    -0.235 C  
HETATM   27  F   UNL     1     -10.559  16.018  70.701  1.00  0.00    -0.270 F  
ENDBRANCH  24  25
ENDBRANCH  23  24
ENDBRANCH  22  23
ENDBRANCH  21  22
ENDBRANCH  20  21
ENDBRANCH  19  20
ENDBRANCH  18  19
ENDBRANCH  15  18
ENDBRANCH  11  12
ENDBRANCH   7  10
ENDBRANCH   2   4
TORSDOF 11
ENDMDL
MODEL       89
REMARK 921   NORMALIZED FREE ENERGY PREDICTED BY IDOCK:   -4.59 KCAL/MOL
REMARK 922        TOTAL FREE ENERGY PREDICTED BY IDOCK:   -8.61 KCAL/MOL
REMARK 923 INTER-LIGAND FREE ENERGY PREDICTED BY IDOCK:   -7.74 KCAL/MOL
REMARK 924 INTRA-LIGAND FREE ENERGY PREDICTED BY IDOCK:   -0.87 KCAL/MOL
REMARK 927      BINDING AFFINITY PREDICTED BY RF-SCORE:    0.00 PKD
ROOT
HETATM    1  C   UNL     1      -9.156   2.147  70.107  1.00  0.00    -0.105 C  
HETATM    2  N   UNL     1      -9.704   3.272  70.852  1.00  0.00    -0.162 NA 
HETATM    3  H   UNL     1      -9.938   3.196  71.841  1.00  0.00     0.000 HD 
ENDROOT
BRANCH   2   4
HETATM    4  C   UNL     1      -9.893   4.467  70.139  1.00  0.00    -0.217 A  
HETATM    5  C   UNL     1     -10.296   5.614  70.833  1.00  0.00    -0.303 A  
HETATM    6  C   UNL     1     -10.537   6.816  70.158  1.00  0.00    -0.254 A  
HETATM    7  C   UNL     1     -10.330   6.911  68.778  1.00  0.00    -0.200 A  
HETATM    8  C   UNL     1      -9.599   4.598  68.778  1.00  0.00    -0.229 A  
HETATM    9  C   UNL     1      -9.834   5.798  68.098  1.00  0.00    -0.162 A  
BRANCH   7  10
HETATM   10  C   UNL     1     -10.762   8.124  68.076  1.00  0.00    -0.108 C  
HETATM   11  C   UNL     1     -10.655   9.380  68.542  1.00  0.00    -0.234 C  
BRANCH  11  12
HETATM   12  C   UNL     1     -11.023  10.559  67.741  1.00  0.00    -0.372 A  
HETATM   13  C   UNL     1     -10.709  10.646  66.383  1.00  0.00    -0.198 A  
HETATM   14  C   UNL     1     -11.018  11.790  65.650  1.00  0.00    -0.348 A  
HETATM   15  C   UNL     1     -11.668  12.869  66.250  1.00  0.00    -0.399 A  
HETATM   16  C   UNL     1     -11.714  11.623  68.335  1.00  0.00    -0.374 A  
HETATM   17  C   UNL     1     -12.028  12.772  67.596  1.00  0.00    -0.331 A  
BRANCH  15  18
HETATM   18  O   UNL     1     -11.989  14.046  65.618  1.00  0.00    -0.362 OA 
BRANCH  18  19
HETATM   19  C   UNL     1     -10.900  14.661  64.928  1.00  0.00    -0.419 C  
BRANCH  19  20
HETATM   20  C   UNL     1     -10.703  16.102  65.365  1.00  0.00    -0.358 C  
BRANCH  20  21
HETATM   21  O   UNL     1      -9.911  16.076  66.555  1.00  0.00    -0.254 OA 
BRANCH  21  22
HETATM   22  C   UNL     1      -8.530  15.871  66.276  1.00  0.00    -0.267 C  
BRANCH  22  23
HETATM   23  C   UNL     1      -7.742  17.105  66.705  1.00  0.00    -0.244 C  
BRANCH  23  24
HETATM   24  O   UNL     1      -8.045  18.179  65.817  1.00  0.00    -0.520 OA 
BRANCH  24  25
HETATM   25  C   UNL     1      -8.438  19.355  66.524  1.00  0.00    -0.337 C  
HETATM   26  C   UNL     1      -9.901  19.642  66.239  1.00  0.00    -0.447 C  
HETATM   27  F   UNL     1     -10.280  20.762  66.910  1.00  0.00    -0.538 F  
ENDBRANCH  24  25
ENDBRANCH  23  24
ENDBRANCH  22  23
ENDBRANCH  21  22
ENDBRANCH  20  21
ENDBRANCH  19  20
ENDBRANCH  18  19
ENDBRANCH  15  18
ENDBRANCH  11  12
ENDBRANCH   7  10
ENDBRANCH   2   4
TORSDOF 11
ENDMDL
MODEL       90
REMARK 921   NORMALIZED FREE ENERGY PREDICTED BY IDOCK:   -4.58 KCAL/MOL
REMARK 922        TOTAL FREE ENERGY PREDICTED BY IDOCK:   -8.60 KCAL/MOL
REMARK 923 INTER-LIGAND FREE ENERGY PREDICTED BY IDOCK:   -7.47 KCAL/MOL
REMARK 924 INTRA-LIGAND FREE ENERGY PREDICTED BY IDOCK:   -1.14 KCAL/MOL
REMARK 927      BINDING AFFINITY PREDICTED BY RF-SCORE:    0.00 PKD
ROOT
HETATM    1  C   UNL     1      -6.960   5.255  63.295  1.00  0.00    -0.042 C  
HETATM    2  N   UNL     1      -7.647   5.159  64.575  1.00  0.00    -0.075 NA 
HETATM    3  H   UNL     1      -7.714   4.277  65.083  1.00  0.00     0.000 HD 
ENDROOT
BRANCH   2   4
HETATM    4  C   UNL     1      -8.215   6.342  65.076  1.00  0.00    -0.125 A  
HETATM    5  C   UNL     1      -8.008   7.541  64.382  1.00  0.00    -0.117 A  
HETATM    6  C   UNL     1      -8.520   8.750  64.866  1.00  0.00    -0.189 A  
HETATM    7  C   UNL     1      -9.294   8.780  66.030  1.00  0.00    -0.296 A  
HETATM    8  C   UNL     1      -9.068   6.370  66.184  1.00  0.00    -0.150 A  
HETATM    9  C   UNL     1      -9.585   7.575  66.670  1.00  0.00    -0.263 A  
BRANCH   7  10
HETATM   10  C   UNL     1      -9.662  10.077  66.606  1.00  0.00    -0.246 C  
HETATM   11  C   UNL     1     -10.689  10.848  66.212  1.00  0.00    -0.241 C  
BRANCH  11  12
HETATM   12  C   UNL     1     -11.057  12.096  66.901  1.00  0.00    -0.348 A  
HETATM   13  C   UNL     1     -11.832  13.075  66.277  1.00  0.00    -0.466 A  
HETATM   14  C   UNL     1     -12.129  14.273  66.924  1.00  0.00    -0.440 A  
HETATM   15  C   UNL     1     -11.676  14.515  68.222  1.00  0.00    -0.335 A  
HETATM   16  C   UNL     1     -10.637  12.318  68.220  1.00  0.00    -0.243 A  
HETATM   17  C   UNL     1     -10.939  13.522  68.872  1.00  0.00    -0.286 A  
BRANCH  15  18
HETATM   18  O   UNL     1     -11.894  15.672  68.929  1.00  0.00    -0.379 OA 
BRANCH  18  19
HETATM   19  C   UNL     1     -11.556  15.590  70.314  1.00  0.00    -0.335 C  
BRANCH  19  20
HETATM   20  C   UNL     1     -12.788  15.693  71.197  1.00  0.00    -0.480 C  
BRANCH  20  21
HETATM   21  O   UNL     1     -12.620  14.753  72.261  1.00  0.00    -0.317 OA 
BRANCH  21  22
HETATM   22  C   UNL     1     -13.560  13.685  72.188  1.00  0.00    -0.538 C  
BRANCH  22  23
HETATM   23  C   UNL     1     -12.845  12.415  71.741  1.00  0.00    -0.245 C  
BRANCH  23  24
HETATM   24  O   UNL     1     -13.469  11.291  72.358  1.00  0.00    -0.223 OA 
BRANCH  24  25
HETATM   25  C   UNL     1     -13.080  10.064  71.743  1.00  0.00    -0.457 C  
HETATM   26  C   UNL     1     -11.742  10.256  71.052  1.00  0.00    -0.370 C  
HETATM   27  F   UNL     1     -11.367   9.089  70.463  1.00  0.00    -0.261 F  
ENDBRANCH  24  25
ENDBRANCH  23  24
ENDBRANCH  22  23
ENDBRANCH  21  22
ENDBRANCH  20  21
ENDBRANCH  19  20
ENDBRANCH  18  19
ENDBRANCH  15  18
ENDBRANCH  11  12
ENDBRANCH   7  10
ENDBRANCH   2   4
TORSDOF 11
ENDMDL
MODEL       91
REMARK 921   NORMALIZED FREE ENERGY PREDICTED BY IDOCK:   -4.58 KCAL/MOL
REMARK 922        TOTAL FREE ENERGY PREDICTED BY IDOCK:   -8.59 KCAL/MOL
REMARK 923 INTER-LIGAND FREE ENERGY PREDICTED BY IDOCK:   -7.72 KCAL/MOL
REMARK 924 INTRA-LIGAND FREE ENERGY PREDICTED BY IDOCK:   -0.87 KCAL/MOL
REMARK 927      BINDING AFFINITY PREDICTED BY RF-SCORE:    0.00 PKD
ROOT
HETATM    1  C   UNL     1      -9.258   2.734  68.897  1.00  0.00    -0.161 C  
HETATM    2  N   UNL     1      -9.389   3.551  67.699  1.00  0.00    -0.196 NA 
HETATM    3  H   UNL     1      -9.263   3.158  66.766  1.00  0.00     0.000 HD 
ENDROOT
BRANCH   2   4
HETATM    4  C   UNL     1      -9.697   4.907  67.892  1.00  0.00    -0.155 A  
HETATM    5  C   UNL     1     -10.549   5.546  66.983  1.00  0.00    -0.332 A  
HETATM    6  C   UNL     1     -10.850   6.906  67.113  1.00  0.00    -0.447 A  
HETATM    7  C   UNL     1     -10.345   7.648  68.185  1.00  0.00    -0.250 A  
HETATM    8  C   UNL     1      -9.276   5.634  69.011  1.00  0.00    -0.141 A  
HETATM    9  C   UNL     1      -9.577   6.993  69.148  1.00  0.00    -0.149 A  
BRANCH   7  10
HETATM   10  C   UNL     1     -10.530   9.103  68.194  1.00  0.00    -0.260 C  
HETATM   11  C   UNL     1     -10.880   9.855  67.137  1.00  0.00    -0.227 C  
BRANCH  11  12
HETATM   12  C   UNL     1     -11.141  11.300  67.241  1.00  0.00    -0.367 A  
HETATM   13  C   UNL     1     -11.053  12.141  66.130  1.00  0.00    -0.354 A  
HETATM   14  C   UNL     1     -11.253  13.515  66.255  1.00  0.00    -0.310 A  
HETATM   15  C   UNL     1     -11.567  14.081  67.491  1.00  0.00    -0.367 A  
HETATM   16  C   UNL     1     -11.499  11.860  68.475  1.00  0.00    -0.349 A  
HETATM   17  C   UNL     1     -11.704  13.242  68.599  1.00  0.00    -0.376 A  
BRANCH  15  18
HETATM   18  O   UNL     1     -11.755  15.423  67.717  1.00  0.00    -0.297 OA 
BRANCH  18  19
HETATM   19  C   UNL     1     -10.823  16.003  68.631  1.00  0.00    -0.301 C  
BRANCH  19  20
HETATM   20  C   UNL     1      -9.663  16.661  67.905  1.00  0.00    -0.244 C  
BRANCH  20  21
HETATM   21  O   UNL     1      -8.761  17.143  68.905  1.00  0.00    -0.259 OA 
BRANCH  21  22
HETATM   22  C   UNL     1      -7.711  17.926  68.348  1.00  0.00    -0.291 C  
BRANCH  22  23
HETATM   23  C   UNL     1      -7.876  19.377  68.791  1.00  0.00    -0.357 C  
BRANCH  23  24
HETATM   24  O   UNL     1      -8.022  20.199  67.634  1.00  0.00    -0.293 OA 
BRANCH  24  25
HETATM   25  C   UNL     1      -9.391  20.356  67.265  1.00  0.00    -0.413 C  
HETATM   26  C   UNL     1      -9.587  19.845  65.849  1.00  0.00    -0.257 C  
HETATM   27  F   UNL     1     -10.890  19.993  65.493  1.00  0.00    -0.569 F  
ENDBRANCH  24  25
ENDBRANCH  23  24
ENDBRANCH  22  23
ENDBRANCH  21  22
ENDBRANCH  20  21
ENDBRANCH  19  20
ENDBRANCH  18  19
ENDBRANCH  15  18
ENDBRANCH  11  12
ENDBRANCH   7  10
ENDBRANCH   2   4
TORSDOF 11
ENDMDL
MODEL       92
REMARK 921   NORMALIZED FREE ENERGY PREDICTED BY IDOCK:   -4.57 KCAL/MOL
REMARK 922        TOTAL FREE ENERGY PREDICTED BY IDOCK:   -8.57 KCAL/MOL
REMARK 923 INTER-LIGAND FREE ENERGY PREDICTED BY IDOCK:   -7.62 KCAL/MOL
REMARK 924 INTRA-LIGAND FREE ENERGY PREDICTED BY IDOCK:   -0.96 KCAL/MOL
REMARK 927      BINDING AFFINITY PREDICTED BY RF-SCORE:    0.00 PKD
ROOT
HETATM    1  C   UNL     1     -12.661  15.569  74.079  1.00  0.00    -0.625 C  
HETATM    2  N   UNL     1     -13.564  14.841  73.199  1.00  0.00    -0.546 NA 
HETATM    3  H   UNL     1     -14.568  14.805  73.374  1.00  0.00     0.000 HD 
ENDROOT
BRANCH   2   4
HETATM    4  C   UNL     1     -12.984  14.189  72.099  1.00  0.00    -0.376 A  
HETATM    5  C   UNL     1     -12.165  14.921  71.232  1.00  0.00    -0.383 A  
HETATM    6  C   UNL     1     -11.599  14.322  70.100  1.00  0.00    -0.312 A  
HETATM    7  C   UNL     1     -11.800  12.964  69.838  1.00  0.00    -0.373 A  
HETATM    8  C   UNL     1     -13.100  12.812  71.880  1.00  0.00    -0.474 A  
HETATM    9  C   UNL     1     -12.534  12.208  70.753  1.00  0.00    -0.362 A  
BRANCH   7  10
HETATM   10  C   UNL     1     -11.347  12.412  68.557  1.00  0.00    -0.336 C  
HETATM   11  C   UNL     1     -11.843  12.725  67.349  1.00  0.00    -0.404 C  
BRANCH  11  12
HETATM   12  C   UNL     1     -11.274  12.203  66.096  1.00  0.00    -0.386 A  
HETATM   13  C   UNL     1     -11.429  12.880  64.884  1.00  0.00    -0.351 A  
HETATM   14  C   UNL     1     -10.927  12.347  63.698  1.00  0.00    -0.525 A  
HETATM   15  C   UNL     1     -10.240  11.133  63.695  1.00  0.00    -0.387 A  
HETATM   16  C   UNL     1     -10.547  11.005  66.102  1.00  0.00    -0.288 A  
HETATM   17  C   UNL     1     -10.040  10.471  64.908  1.00  0.00    -0.403 A  
BRANCH  15  18
HETATM   18  O   UNL     1      -9.735  10.517  62.576  1.00  0.00    -0.260 OA 
BRANCH  18  19
HETATM   19  C   UNL     1      -8.935   9.365  62.846  1.00  0.00    -0.169 C  
BRANCH  19  20
HETATM   20  C   UNL     1      -7.475   9.605  62.505  1.00  0.00    -0.110 C  
BRANCH  20  21
HETATM   21  O   UNL     1      -6.736   9.492  63.724  1.00  0.00    -0.097 OA 
BRANCH  21  22
HETATM   22  C   UNL     1      -6.796   8.178  64.269  1.00  0.00    -0.066 C  
BRANCH  22  23
HETATM   23  C   UNL     1      -5.777   7.293  63.559  1.00  0.00    -0.041 C  
BRANCH  23  24
HETATM   24  O   UNL     1      -6.237   5.943  63.589  1.00  0.00    -0.024 OA 
BRANCH  24  25
HETATM   25  C   UNL     1      -7.638   5.866  63.847  1.00  0.00    -0.085 C  
HETATM   26  C   UNL     1      -7.919   4.657  64.721  1.00  0.00    -0.096 C  
HETATM   27  F   UNL     1      -9.252   4.580  64.969  1.00  0.00    -0.138 F  
ENDBRANCH  24  25
ENDBRANCH  23  24
ENDBRANCH  22  23
ENDBRANCH  21  22
ENDBRANCH  20  21
ENDBRANCH  19  20
ENDBRANCH  18  19
ENDBRANCH  15  18
ENDBRANCH  11  12
ENDBRANCH   7  10
ENDBRANCH   2   4
TORSDOF 11
ENDMDL
MODEL       93
REMARK 921   NORMALIZED FREE ENERGY PREDICTED BY IDOCK:   -4.56 KCAL/MOL
REMARK 922        TOTAL FREE ENERGY PREDICTED BY IDOCK:   -8.57 KCAL/MOL
REMARK 923 INTER-LIGAND FREE ENERGY PREDICTED BY IDOCK:   -6.80 KCAL/MOL
REMARK 924 INTRA-LIGAND FREE ENERGY PREDICTED BY IDOCK:   -1.77 KCAL/MOL
REMARK 927      BINDING AFFINITY PREDICTED BY RF-SCORE:    0.00 PKD
ROOT
HETATM    1  C   UNL     1     -10.811   6.577  67.850  1.00  0.00    -0.304 C  
HETATM    2  N   UNL     1     -10.570   7.280  66.598  1.00  0.00    -0.518 NA 
HETATM    3  H   UNL     1     -10.569   6.792  65.702  1.00  0.00     0.000 HD 
ENDROOT
BRANCH   2   4
HETATM    4  C   UNL     1     -10.340   8.662  66.685  1.00  0.00    -0.232 A  
HETATM    5  C   UNL     1      -9.749   9.322  65.601  1.00  0.00    -0.302 A  
HETATM    6  C   UNL     1      -9.464  10.690  65.659  1.00  0.00    -0.257 A  
HETATM    7  C   UNL     1      -9.810  11.442  66.786  1.00  0.00    -0.232 A  
HETATM    8  C   UNL     1     -10.768   9.440  67.766  1.00  0.00    -0.290 A  
HETATM    9  C   UNL     1     -10.488  10.809  67.829  1.00  0.00    -0.243 A  
BRANCH   7  10
HETATM   10  C   UNL     1      -9.338  12.827  66.891  1.00  0.00    -0.234 C  
HETATM   11  C   UNL     1      -8.648  13.344  67.921  1.00  0.00    -0.184 C  
BRANCH  11  12
HETATM   12  C   UNL     1      -8.122  14.719  67.914  1.00  0.00    -0.146 A  
HETATM   13  C   UNL     1      -7.743  15.351  66.728  1.00  0.00    -0.045 A  
HETATM   14  C   UNL     1      -7.200  16.635  66.743  1.00  0.00    -0.272 A  
HETATM   15  C   UNL     1      -7.041  17.329  67.943  1.00  0.00    -0.167 A  
HETATM   16  C   UNL     1      -8.004  15.431  69.116  1.00  0.00    -0.222 A  
HETATM   17  C   UNL     1      -7.461  16.724  69.130  1.00  0.00    -0.196 A  
BRANCH  15  18
HETATM   18  O   UNL     1      -6.492  18.582  68.061  1.00  0.00    -0.207 OA 
BRANCH  18  19
HETATM   19  C   UNL     1      -6.798  19.464  66.980  1.00  0.00    -0.193 C  
BRANCH  19  20
HETATM   20  C   UNL     1      -8.081  20.236  67.232  1.00  0.00    -0.338 C  
BRANCH  20  21
HETATM   21  O   UNL     1      -9.022  19.822  66.238  1.00  0.00    -0.365 OA 
BRANCH  21  22
HETATM   22  C   UNL     1     -10.256  19.400  66.809  1.00  0.00    -0.420 C  
BRANCH  22  23
HETATM   23  C   UNL     1     -10.485  17.929  66.480  1.00  0.00    -0.313 C  
BRANCH  23  24
HETATM   24  O   UNL     1     -10.743  17.219  67.690  1.00  0.00    -0.359 OA 
BRANCH  24  25
HETATM   25  C   UNL     1     -11.354  15.954  67.442  1.00  0.00    -0.048 C  
HETATM   26  C   UNL     1     -11.741  15.319  68.765  1.00  0.00    -0.353 C  
HETATM   27  F   UNL     1     -12.324  14.113  68.533  1.00  0.00    -0.359 F  
ENDBRANCH  24  25
ENDBRANCH  23  24
ENDBRANCH  22  23
ENDBRANCH  21  22
ENDBRANCH  20  21
ENDBRANCH  19  20
ENDBRANCH  18  19
ENDBRANCH  15  18
ENDBRANCH  11  12
ENDBRANCH   7  10
ENDBRANCH   2   4
TORSDOF 11
ENDMDL
MODEL       94
REMARK 921   NORMALIZED FREE ENERGY PREDICTED BY IDOCK:   -4.56 KCAL/MOL
REMARK 922        TOTAL FREE ENERGY PREDICTED BY IDOCK:   -8.57 KCAL/MOL
REMARK 923 INTER-LIGAND FREE ENERGY PREDICTED BY IDOCK:   -7.47 KCAL/MOL
REMARK 924 INTRA-LIGAND FREE ENERGY PREDICTED BY IDOCK:   -1.09 KCAL/MOL
REMARK 927      BINDING AFFINITY PREDICTED BY RF-SCORE:    0.00 PKD
ROOT
HETATM    1  C   UNL     1      -9.241   2.931  70.010  1.00  0.00    -0.141 C  
HETATM    2  N   UNL     1      -9.900   3.920  70.851  1.00  0.00    -0.177 NA 
HETATM    3  H   UNL     1     -10.377   3.656  71.714  1.00  0.00     0.000 HD 
ENDROOT
BRANCH   2   4
HETATM    4  C   UNL     1      -9.847   5.254  70.417  1.00  0.00    -0.213 A  
HETATM    5  C   UNL     1     -11.023   5.871  69.974  1.00  0.00    -0.430 A  
HETATM    6  C   UNL     1     -11.010   7.185  69.494  1.00  0.00    -0.214 A  
HETATM    7  C   UNL     1      -9.826   7.930  69.493  1.00  0.00    -0.176 A  
HETATM    8  C   UNL     1      -8.692   6.038  70.500  1.00  0.00    -0.138 A  
HETATM    9  C   UNL     1      -8.673   7.353  70.024  1.00  0.00    -0.140 A  
BRANCH   7  10
HETATM   10  C   UNL     1      -9.807   9.233  68.819  1.00  0.00    -0.174 C  
HETATM   11  C   UNL     1     -10.884   9.899  68.368  1.00  0.00    -0.263 C  
BRANCH  11  12
HETATM   12  C   UNL     1     -10.797  11.249  67.787  1.00  0.00    -0.284 A  
HETATM   13  C   UNL     1      -9.653  11.682  67.113  1.00  0.00    -0.185 A  
HETATM   14  C   UNL     1      -9.567  12.980  66.612  1.00  0.00    -0.259 A  
HETATM   15  C   UNL     1     -10.630  13.873  66.755  1.00  0.00    -0.277 A  
HETATM   16  C   UNL     1     -11.882  12.129  67.894  1.00  0.00    -0.338 A  
HETATM   17  C   UNL     1     -11.796  13.434  67.388  1.00  0.00    -0.418 A  
BRANCH  15  18
HETATM   18  O   UNL     1     -10.627  15.176  66.321  1.00  0.00    -0.294 OA 
BRANCH  18  19
HETATM   19  C   UNL     1     -10.925  16.137  67.335  1.00  0.00    -0.210 C  
BRANCH  19  20
HETATM   20  C   UNL     1      -9.767  16.305  68.304  1.00  0.00    -0.222 C  
BRANCH  20  21
HETATM   21  O   UNL     1     -10.327  16.683  69.564  1.00  0.00    -0.287 OA 
BRANCH  21  22
HETATM   22  C   UNL     1     -10.875  15.570  70.263  1.00  0.00    -0.339 C  
BRANCH  22  23
HETATM   23  C   UNL     1     -11.695  16.075  71.446  1.00  0.00    -0.473 C  
BRANCH  23  24
HETATM   24  O   UNL     1     -13.038  15.614  71.308  1.00  0.00    -0.484 OA 
BRANCH  24  25
HETATM   25  C   UNL     1     -13.090  14.233  70.954  1.00  0.00    -0.304 C  
HETATM   26  C   UNL     1     -13.391  13.410  72.193  1.00  0.00    -0.520 C  
HETATM   27  F   UNL     1     -13.441  12.094  71.860  1.00  0.00    -0.513 F  
ENDBRANCH  24  25
ENDBRANCH  23  24
ENDBRANCH  22  23
ENDBRANCH  21  22
ENDBRANCH  20  21
ENDBRANCH  19  20
ENDBRANCH  18  19
ENDBRANCH  15  18
ENDBRANCH  11  12
ENDBRANCH   7  10
ENDBRANCH   2   4
TORSDOF 11
ENDMDL
MODEL       95
REMARK 921   NORMALIZED FREE ENERGY PREDICTED BY IDOCK:   -4.56 KCAL/MOL
REMARK 922        TOTAL FREE ENERGY PREDICTED BY IDOCK:   -8.56 KCAL/MOL
REMARK 923 INTER-LIGAND FREE ENERGY PREDICTED BY IDOCK:   -7.62 KCAL/MOL
REMARK 924 INTRA-LIGAND FREE ENERGY PREDICTED BY IDOCK:   -0.94 KCAL/MOL
REMARK 927      BINDING AFFINITY PREDICTED BY RF-SCORE:    0.00 PKD
ROOT
HETATM    1  C   UNL     1      -8.977   1.737  69.222  1.00  0.00    -0.091 C  
HETATM    2  N   UNL     1      -8.984   2.409  67.931  1.00  0.00    -0.136 NA 
HETATM    3  H   UNL     1      -8.631   1.954  67.089  1.00  0.00     0.000 HD 
ENDROOT
BRANCH   2   4
HETATM    4  C   UNL     1      -9.501   3.714  67.902  1.00  0.00    -0.169 A  
HETATM    5  C   UNL     1      -9.872   4.270  66.672  1.00  0.00    -0.236 A  
HETATM    6  C   UNL     1     -10.354   5.582  66.591  1.00  0.00    -0.322 A  
HETATM    7  C   UNL     1     -10.522   6.350  67.747  1.00  0.00    -0.281 A  
HETATM    8  C   UNL     1      -9.763   4.457  69.058  1.00  0.00    -0.223 A  
HETATM    9  C   UNL     1     -10.247   5.767  68.984  1.00  0.00    -0.282 A  
BRANCH   7  10
HETATM   10  C   UNL     1     -10.854   7.773  67.613  1.00  0.00    -0.149 C  
HETATM   11  C   UNL     1     -10.146   8.682  66.922  1.00  0.00    -0.355 C  
BRANCH  11  12
HETATM   12  C   UNL     1     -10.592  10.074  66.751  1.00  0.00    -0.229 A  
HETATM   13  C   UNL     1     -11.210  10.776  67.788  1.00  0.00    -0.385 A  
HETATM   14  C   UNL     1     -11.672  12.076  67.596  1.00  0.00    -0.365 A  
HETATM   15  C   UNL     1     -11.510  12.718  66.367  1.00  0.00    -0.357 A  
HETATM   16  C   UNL     1     -10.389  10.731  65.530  1.00  0.00    -0.308 A  
HETATM   17  C   UNL     1     -10.851  12.041  65.338  1.00  0.00    -0.336 A  
BRANCH  15  18
HETATM   18  O   UNL     1     -11.956  13.984  66.075  1.00  0.00    -0.376 OA 
BRANCH  18  19
HETATM   19  C   UNL     1     -11.522  14.485  64.810  1.00  0.00    -0.408 C  
BRANCH  19  20
HETATM   20  C   UNL     1     -10.729  15.772  64.959  1.00  0.00    -0.421 C  
BRANCH  20  21
HETATM   21  O   UNL     1     -10.865  16.193  66.319  1.00  0.00    -0.257 OA 
BRANCH  21  22
HETATM   22  C   UNL     1      -9.692  16.841  66.800  1.00  0.00    -0.264 C  
BRANCH  22  23
HETATM   23  C   UNL     1      -9.877  17.188  68.273  1.00  0.00    -0.288 C  
BRANCH  23  24
HETATM   24  O   UNL     1     -11.112  16.636  68.726  1.00  0.00    -0.325 OA 
BRANCH  24  25
HETATM   25  C   UNL     1     -10.944  15.870  69.918  1.00  0.00    -0.343 C  
HETATM   26  C   UNL     1     -12.248  15.167  70.248  1.00  0.00    -0.350 C  
HETATM   27  F   UNL     1     -12.092  14.436  71.383  1.00  0.00    -0.365 F  
ENDBRANCH  24  25
ENDBRANCH  23  24
ENDBRANCH  22  23
ENDBRANCH  21  22
ENDBRANCH  20  21
ENDBRANCH  19  20
ENDBRANCH  18  19
ENDBRANCH  15  18
ENDBRANCH  11  12
ENDBRANCH   7  10
ENDBRANCH   2   4
TORSDOF 11
ENDMDL
MODEL       96
REMARK 921   NORMALIZED FREE ENERGY PREDICTED BY IDOCK:   -4.54 KCAL/MOL
REMARK 922        TOTAL FREE ENERGY PREDICTED BY IDOCK:   -8.53 KCAL/MOL
REMARK 923 INTER-LIGAND FREE ENERGY PREDICTED BY IDOCK:   -7.00 KCAL/MOL
REMARK 924 INTRA-LIGAND FREE ENERGY PREDICTED BY IDOCK:   -1.54 KCAL/MOL
REMARK 927      BINDING AFFINITY PREDICTED BY RF-SCORE:    0.00 PKD
ROOT
HETATM    1  C   UNL     1     -12.314  13.388  63.470  1.00  0.00    -0.326 C  
HETATM    2  N   UNL     1     -10.970  12.847  63.612  1.00  0.00    -0.550 NA 
HETATM    3  H   UNL     1     -10.219  13.105  62.972  1.00  0.00     0.000 HD 
ENDROOT
BRANCH   2   4
HETATM    4  C   UNL     1     -10.760  11.951  64.672  1.00  0.00    -0.307 A  
HETATM    5  C   UNL     1      -9.875  10.882  64.493  1.00  0.00    -0.356 A  
HETATM    6  C   UNL     1      -9.666   9.942  65.508  1.00  0.00    -0.370 A  
HETATM    7  C   UNL     1     -10.300  10.079  66.746  1.00  0.00    -0.283 A  
HETATM    8  C   UNL     1     -11.314  12.131  65.944  1.00  0.00    -0.407 A  
HETATM    9  C   UNL     1     -11.107  11.197  66.964  1.00  0.00    -0.339 A  
BRANCH   7  10
HETATM   10  C   UNL     1     -10.203   8.987  67.720  1.00  0.00    -0.284 C  
HETATM   11  C   UNL     1      -9.362   7.941  67.645  1.00  0.00    -0.161 C  
BRANCH  11  12
HETATM   12  C   UNL     1      -9.253   6.931  68.710  1.00  0.00    -0.131 A  
HETATM   13  C   UNL     1      -8.375   7.093  69.784  1.00  0.00    -0.132 A  
HETATM   14  C   UNL     1      -8.246   6.105  70.758  1.00  0.00    -0.125 A  
HETATM   15  C   UNL     1      -9.007   4.936  70.695  1.00  0.00    -0.126 A  
HETATM   16  C   UNL     1     -10.049   5.779  68.668  1.00  0.00    -0.227 A  
HETATM   17  C   UNL     1      -9.921   4.786  69.650  1.00  0.00    -0.297 A  
BRANCH  15  18
HETATM   18  O   UNL     1      -8.929   3.897  71.590  1.00  0.00    -0.104 OA 
BRANCH  18  19
HETATM   19  C   UNL     1     -10.099   3.718  72.389  1.00  0.00    -0.167 C  
BRANCH  19  20
HETATM   20  C   UNL     1      -9.990   4.453  73.714  1.00  0.00    -0.138 C  
BRANCH  20  21
HETATM   21  O   UNL     1     -10.637   5.717  73.548  1.00  0.00    -0.234 OA 
BRANCH  21  22
HETATM   22  C   UNL     1     -11.827   5.612  72.773  1.00  0.00    -0.102 C  
BRANCH  22  23
HETATM   23  C   UNL     1     -11.952   6.839  71.875  1.00  0.00    -0.333 C  
BRANCH  23  24
HETATM   24  O   UNL     1     -11.576   7.997  72.620  1.00  0.00    -0.388 OA 
BRANCH  24  25
HETATM   25  C   UNL     1     -10.819   8.912  71.829  1.00  0.00    -0.365 C  
HETATM   26  C   UNL     1     -11.756   9.940  71.223  1.00  0.00    -0.392 C  
HETATM   27  F   UNL     1     -11.040  10.814  70.468  1.00  0.00    -0.353 F  
ENDBRANCH  24  25
ENDBRANCH  23  24
ENDBRANCH  22  23
ENDBRANCH  21  22
ENDBRANCH  20  21
ENDBRANCH  19  20
ENDBRANCH  18  19
ENDBRANCH  15  18
ENDBRANCH  11  12
ENDBRANCH   7  10
ENDBRANCH   2   4
TORSDOF 11
ENDMDL
MODEL       97
REMARK 921   NORMALIZED FREE ENERGY PREDICTED BY IDOCK:   -4.54 KCAL/MOL
REMARK 922        TOTAL FREE ENERGY PREDICTED BY IDOCK:   -8.53 KCAL/MOL
REMARK 923 INTER-LIGAND FREE ENERGY PREDICTED BY IDOCK:   -7.63 KCAL/MOL
REMARK 924 INTRA-LIGAND FREE ENERGY PREDICTED BY IDOCK:   -0.90 KCAL/MOL
REMARK 927      BINDING AFFINITY PREDICTED BY RF-SCORE:    0.00 PKD
ROOT
HETATM    1  C   UNL     1      -9.443   3.098  74.470  1.00  0.00    -0.093 C  
HETATM    2  N   UNL     1     -10.594   3.230  73.588  1.00  0.00    -0.171 NA 
HETATM    3  H   UNL     1     -11.350   2.545  73.588  1.00  0.00     0.000 HD 
ENDROOT
BRANCH   2   4
HETATM    4  C   UNL     1     -10.611   4.346  72.736  1.00  0.00    -0.182 A  
HETATM    5  C   UNL     1     -11.398   5.451  73.081  1.00  0.00    -0.325 A  
HETATM    6  C   UNL     1     -11.478   6.568  72.243  1.00  0.00    -0.326 A  
HETATM    7  C   UNL     1     -10.730   6.626  71.062  1.00  0.00    -0.278 A  
HETATM    8  C   UNL     1      -9.796   4.455  71.604  1.00  0.00    -0.255 A  
HETATM    9  C   UNL     1      -9.869   5.570  70.764  1.00  0.00    -0.247 A  
BRANCH   7  10
HETATM   10  C   UNL     1     -10.972   7.725  70.120  1.00  0.00    -0.246 C  
HETATM   11  C   UNL     1     -11.033   9.029  70.436  1.00  0.00    -0.283 C  
BRANCH  11  12
HETATM   12  C   UNL     1     -11.184  10.086  69.423  1.00  0.00    -0.235 A  
HETATM   13  C   UNL     1     -11.795  11.305  69.723  1.00  0.00    -0.437 A  
HETATM   14  C   UNL     1     -11.976  12.276  68.739  1.00  0.00    -0.281 A  
HETATM   15  C   UNL     1     -11.532  12.061  67.434  1.00  0.00    -0.336 A  
HETATM   16  C   UNL     1     -10.699   9.885  68.123  1.00  0.00    -0.279 A  
HETATM   17  C   UNL     1     -10.879  10.864  67.135  1.00  0.00    -0.337 A  
BRANCH  15  18
HETATM   18  O   UNL     1     -11.690  12.944  66.394  1.00  0.00    -0.355 OA 
BRANCH  18  19
HETATM   19  C   UNL     1     -11.525  14.317  66.754  1.00  0.00    -0.367 C  
BRANCH  19  20
HETATM   20  C   UNL     1     -10.073  14.750  66.660  1.00  0.00    -0.264 C  
BRANCH  20  21
HETATM   21  O   UNL     1      -9.816  15.602  67.779  1.00  0.00    -0.219 OA 
BRANCH  21  22
HETATM   22  C   UNL     1     -10.992  15.858  68.540  1.00  0.00    -0.324 C  
BRANCH  22  23
HETATM   23  C   UNL     1     -10.776  17.102  69.396  1.00  0.00    -0.086 C  
BRANCH  23  24
HETATM   24  O   UNL     1      -9.670  17.836  68.874  1.00  0.00    -0.308 OA 
BRANCH  24  25
HETATM   25  C   UNL     1      -9.943  19.235  68.816  1.00  0.00    -0.440 C  
HETATM   26  C   UNL     1      -9.453  19.784  67.489  1.00  0.00    -0.344 C  
HETATM   27  F   UNL     1      -9.711  21.117  67.429  1.00  0.00    -0.616 F  
ENDBRANCH  24  25
ENDBRANCH  23  24
ENDBRANCH  22  23
ENDBRANCH  21  22
ENDBRANCH  20  21
ENDBRANCH  19  20
ENDBRANCH  18  19
ENDBRANCH  15  18
ENDBRANCH  11  12
ENDBRANCH   7  10
ENDBRANCH   2   4
TORSDOF 11
ENDMDL
MODEL       98
REMARK 921   NORMALIZED FREE ENERGY PREDICTED BY IDOCK:   -4.54 KCAL/MOL
REMARK 922        TOTAL FREE ENERGY PREDICTED BY IDOCK:   -8.53 KCAL/MOL
REMARK 923 INTER-LIGAND FREE ENERGY PREDICTED BY IDOCK:   -7.02 KCAL/MOL
REMARK 924 INTRA-LIGAND FREE ENERGY PREDICTED BY IDOCK:   -1.51 KCAL/MOL
REMARK 927      BINDING AFFINITY PREDICTED BY RF-SCORE:    0.00 PKD
ROOT
HETATM    1  C   UNL     1      -9.305   3.405  69.898  1.00  0.00    -0.168 C  
HETATM    2  N   UNL     1     -10.118   4.495  70.419  1.00  0.00    -0.207 NA 
HETATM    3  H   UNL     1     -10.587   4.428  71.322  1.00  0.00     0.000 HD 
ENDROOT
BRANCH   2   4
HETATM    4  C   UNL     1     -10.225   5.642  69.616  1.00  0.00    -0.251 A  
HETATM    5  C   UNL     1      -9.747   6.862  70.109  1.00  0.00    -0.175 A  
HETATM    6  C   UNL     1      -9.869   8.038  69.360  1.00  0.00    -0.181 A  
HETATM    7  C   UNL     1     -10.428   8.010  68.078  1.00  0.00    -0.243 A  
HETATM    8  C   UNL     1     -10.693   5.610  68.299  1.00  0.00    -0.227 A  
HETATM    9  C   UNL     1     -10.815   6.781  67.544  1.00  0.00    -0.388 A  
BRANCH   7  10
HETATM   10  C   UNL     1     -10.706   9.279  67.397  1.00  0.00    -0.263 C  
HETATM   11  C   UNL     1     -11.222  10.380  67.968  1.00  0.00    -0.340 C  
BRANCH  11  12
HETATM   12  C   UNL     1     -11.385  11.650  67.242  1.00  0.00    -0.372 A  
HETATM   13  C   UNL     1     -11.180  11.736  65.864  1.00  0.00    -0.345 A  
HETATM   14  C   UNL     1     -11.289  12.956  65.199  1.00  0.00    -0.331 A  
HETATM   15  C   UNL     1     -11.626  14.119  65.892  1.00  0.00    -0.348 A  
HETATM   16  C   UNL     1     -11.766  12.809  67.933  1.00  0.00    -0.408 A  
HETATM   17  C   UNL     1     -11.879  14.035  67.263  1.00  0.00    -0.445 A  
BRANCH  15  18
HETATM   18  O   UNL     1     -11.729  15.368  65.329  1.00  0.00    -0.142 OA 
BRANCH  18  19
HETATM   19  C   UNL     1     -10.479  16.021  65.108  1.00  0.00    -0.303 C  
BRANCH  19  20
HETATM   20  C   UNL     1     -10.380  17.322  65.886  1.00  0.00    -0.278 C  
BRANCH  20  21
HETATM   21  O   UNL     1      -9.009  17.724  65.861  1.00  0.00    -0.511 OA 
BRANCH  21  22
HETATM   22  C   UNL     1      -8.139  16.692  66.315  1.00  0.00    -0.326 C  
BRANCH  22  23
HETATM   23  C   UNL     1      -8.129  16.678  67.840  1.00  0.00    -0.172 C  
BRANCH  23  24
HETATM   24  O   UNL     1      -7.556  15.451  68.288  1.00  0.00    -0.111 OA 
BRANCH  24  25
HETATM   25  C   UNL     1      -7.875  14.368  67.416  1.00  0.00    -0.190 C  
HETATM   26  C   UNL     1      -7.985  13.090  68.226  1.00  0.00    -0.151 C  
HETATM   27  F   UNL     1      -8.290  12.056  67.399  1.00  0.00    -0.140 F  
ENDBRANCH  24  25
ENDBRANCH  23  24
ENDBRANCH  22  23
ENDBRANCH  21  22
ENDBRANCH  20  21
ENDBRANCH  19  20
ENDBRANCH  18  19
ENDBRANCH  15  18
ENDBRANCH  11  12
ENDBRANCH   7  10
ENDBRANCH   2   4
TORSDOF 11
ENDMDL
MODEL       99
REMARK 921   NORMALIZED FREE ENERGY PREDICTED BY IDOCK:   -4.53 KCAL/MOL
REMARK 922        TOTAL FREE ENERGY PREDICTED BY IDOCK:   -8.52 KCAL/MOL
REMARK 923 INTER-LIGAND FREE ENERGY PREDICTED BY IDOCK:   -7.12 KCAL/MOL
REMARK 924 INTRA-LIGAND FREE ENERGY PREDICTED BY IDOCK:   -1.40 KCAL/MOL
REMARK 927      BINDING AFFINITY PREDICTED BY RF-SCORE:    0.00 PKD
ROOT
HETATM    1  C   UNL     1      -9.659   3.529  71.529  1.00  0.00    -0.162 C  
HETATM    2  N   UNL     1      -9.755   3.526  70.076  1.00  0.00    -0.147 NA 
HETATM    3  H   UNL     1      -9.784   2.657  69.544  1.00  0.00     0.000 HD 
ENDROOT
BRANCH   2   4
HETATM    4  C   UNL     1      -9.806   4.779  69.445  1.00  0.00    -0.212 A  
HETATM    5  C   UNL     1      -9.647   5.936  70.218  1.00  0.00    -0.199 A  
HETATM    6  C   UNL     1      -9.731   7.207  69.638  1.00  0.00    -0.158 A  
HETATM    7  C   UNL     1      -9.926   7.348  68.261  1.00  0.00    -0.182 A  
HETATM    8  C   UNL     1      -9.905   4.932  68.058  1.00  0.00    -0.197 A  
HETATM    9  C   UNL     1      -9.987   6.199  67.472  1.00  0.00    -0.159 A  
BRANCH   7  10
HETATM   10  C   UNL     1     -10.190   8.684  67.714  1.00  0.00    -0.282 C  
HETATM   11  C   UNL     1     -10.290   9.818  68.428  1.00  0.00    -0.230 C  
BRANCH  11  12
HETATM   12  C   UNL     1     -10.461  11.139  67.800  1.00  0.00    -0.225 A  
HETATM   13  C   UNL     1      -9.474  11.692  66.982  1.00  0.00    -0.191 A  
HETATM   14  C   UNL     1      -9.629  12.965  66.436  1.00  0.00    -0.252 A  
HETATM   15  C   UNL     1     -10.784  13.710  66.678  1.00  0.00    -0.280 A  
HETATM   16  C   UNL     1     -11.640  11.867  68.009  1.00  0.00    -0.401 A  
HETATM   17  C   UNL     1     -11.796  13.146  67.457  1.00  0.00    -0.409 A  
BRANCH  15  18
HETATM   18  O   UNL     1     -11.014  14.980  66.208  1.00  0.00    -0.332 OA 
BRANCH  18  19
HETATM   19  C   UNL     1     -11.124  15.073  64.787  1.00  0.00    -0.376 C  
BRANCH  19  20
HETATM   20  C   UNL     1     -12.499  14.648  64.303  1.00  0.00    -0.239 C  
BRANCH  20  21
HETATM   21  O   UNL     1     -12.300  13.681  63.268  1.00  0.00    -0.743 OA 
BRANCH  21  22
HETATM   22  C   UNL     1     -12.656  12.367  63.686  1.00  0.00    -0.443 C  
BRANCH  22  23
HETATM   23  C   UNL     1     -11.407  11.492  63.710  1.00  0.00    -0.329 C  
BRANCH  23  24
HETATM   24  O   UNL     1     -10.346  12.181  63.051  1.00  0.00    -0.297 OA 
BRANCH  24  25
HETATM   25  C   UNL     1      -9.197  11.352  62.889  1.00  0.00    -0.281 C  
HETATM   26  C   UNL     1      -9.410  10.051  63.640  1.00  0.00    -0.253 C  
HETATM   27  F   UNL     1      -8.317   9.258  63.489  1.00  0.00    -0.144 F  
ENDBRANCH  24  25
ENDBRANCH  23  24
ENDBRANCH  22  23
ENDBRANCH  21  22
ENDBRANCH  20  21
ENDBRANCH  19  20
ENDBRANCH  18  19
ENDBRANCH  15  18
ENDBRANCH  11  12
ENDBRANCH   7  10
ENDBRANCH   2   4
TORSDOF 11
ENDMDL
MODEL      100
REMARK 921   NORMALIZED FREE ENERGY PREDICTED BY IDOCK:   -4.52 KCAL/MOL
REMARK 922        TOTAL FREE ENERGY PREDICTED BY IDOCK:   -8.50 KCAL/MOL
REMARK 923 INTER-LIGAND FREE ENERGY PREDICTED BY IDOCK:   -7.64 KCAL/MOL
REMARK 924 INTRA-LIGAND FREE ENERGY PREDICTED BY IDOCK:   -0.86 KCAL/MOL
REMARK 927      BINDING AFFINITY PREDICTED BY RF-SCORE:    0.00 PKD
ROOT
HETATM    1  C   UNL     1      -8.579   2.323  68.822  1.00  0.00    -0.073 C  
HETATM    2  N   UNL     1      -8.137   3.644  69.247  1.00  0.00    -0.054 NA 
HETATM    3  H   UNL     1      -7.477   3.767  70.015  1.00  0.00     0.000 HD 
ENDROOT
BRANCH   2   4
HETATM    4  C   UNL     1      -8.665   4.741  68.547  1.00  0.00    -0.098 A  
HETATM    5  C   UNL     1      -8.083   6.002  68.721  1.00  0.00    -0.104 A  
HETATM    6  C   UNL     1      -8.602   7.130  68.076  1.00  0.00    -0.128 A  
HETATM    7  C   UNL     1      -9.686   7.013  67.201  1.00  0.00    -0.206 A  
HETATM    8  C   UNL     1      -9.687   4.620  67.599  1.00  0.00    -0.207 A  
HETATM    9  C   UNL     1     -10.207   5.743  66.948  1.00  0.00    -0.265 A  
BRANCH   7  10
HETATM   10  C   UNL     1     -10.317   8.232  66.683  1.00  0.00    -0.293 C  
HETATM   11  C   UNL     1      -9.673   9.346  66.299  1.00  0.00    -0.330 C  
BRANCH  11  12
HETATM   12  C   UNL     1     -10.366  10.498  65.699  1.00  0.00    -0.274 A  
HETATM   13  C   UNL     1     -11.148  11.362  66.468  1.00  0.00    -0.312 A  
HETATM   14  C   UNL     1     -11.839  12.419  65.877  1.00  0.00    -0.467 A  
HETATM   15  C   UNL     1     -11.750  12.651  64.504  1.00  0.00    -0.359 A  
HETATM   16  C   UNL     1     -10.241  10.755  64.327  1.00  0.00    -0.422 A  
HETATM   17  C   UNL     1     -10.933  11.820  63.734  1.00  0.00    -0.500 A  
BRANCH  15  18
HETATM   18  O   UNL     1     -12.414  13.647  63.830  1.00  0.00    -0.703 OA 
BRANCH  18  19
HETATM   19  C   UNL     1     -12.459  14.897  64.518  1.00  0.00    -0.206 C  
BRANCH  19  20
HETATM   20  C   UNL     1     -11.082  15.528  64.624  1.00  0.00    -0.359 C  
BRANCH  20  21
HETATM   21  O   UNL     1     -11.233  16.918  64.325  1.00  0.00    -1.204 OA 
BRANCH  21  22
HETATM   22  C   UNL     1     -10.835  17.748  65.412  1.00  0.00     0.151 C  
BRANCH  22  23
HETATM   23  C   UNL     1      -9.928  16.952  66.345  1.00  0.00    -0.309 C  
BRANCH  23  24
HETATM   24  O   UNL     1     -10.171  17.365  67.689  1.00  0.00    -0.314 OA 
BRANCH  24  25
HETATM   25  C   UNL     1     -10.062  16.277  68.605  1.00  0.00    -0.233 C  
HETATM   26  C   UNL     1      -9.224  15.178  67.977  1.00  0.00    -0.185 C  
HETATM   27  F   UNL     1      -9.118  14.139  68.847  1.00  0.00    -0.182 F  
ENDBRANCH  24  25
ENDBRANCH  23  24
ENDBRANCH  22  23
ENDBRANCH  21  22
ENDBRANCH  20  21
ENDBRANCH  19  20
ENDBRANCH  18  19
ENDBRANCH  15  18
ENDBRANCH  11  12
ENDBRANCH   7  10
ENDBRANCH   2   4
TORSDOF 11
ENDMDL
MODEL      101
REMARK 921   NORMALIZED FREE ENERGY PREDICTED BY IDOCK:   -4.49 KCAL/MOL
REMARK 922        TOTAL FREE ENERGY PREDICTED BY IDOCK:   -8.46 KCAL/MOL
REMARK 923 INTER-LIGAND FREE ENERGY PREDICTED BY IDOCK:   -7.37 KCAL/MOL
REMARK 924 INTRA-LIGAND FREE ENERGY PREDICTED BY IDOCK:   -1.08 KCAL/MOL
REMARK 927      BINDING AFFINITY PREDICTED BY RF-SCORE:    0.00 PKD
ROOT
HETATM    1  C   UNL     1      -6.522   5.521  64.255  1.00  0.00    -0.030 C  
HETATM    2  N   UNL     1      -6.906   5.061  65.582  1.00  0.00    -0.060 NA 
HETATM    3  H   UNL     1      -6.520   4.208  65.985  1.00  0.00     0.000 HD 
ENDROOT
BRANCH   2   4
HETATM    4  C   UNL     1      -7.837   5.850  66.277  1.00  0.00    -0.101 A  
HETATM    5  C   UNL     1      -8.289   7.039  65.694  1.00  0.00    -0.137 A  
HETATM    6  C   UNL     1      -9.185   7.876  66.368  1.00  0.00    -0.241 A  
HETATM    7  C   UNL     1      -9.688   7.517  67.623  1.00  0.00    -0.182 A  
HETATM    8  C   UNL     1      -8.418   5.455  67.487  1.00  0.00    -0.106 A  
HETATM    9  C   UNL     1      -9.316   6.287  68.164  1.00  0.00    -0.115 A  
BRANCH   7  10
HETATM   10  C   UNL     1     -10.478   8.495  68.379  1.00  0.00    -0.215 C  
HETATM   11  C   UNL     1     -10.879   8.361  69.654  1.00  0.00    -0.153 C  
BRANCH  11  12
HETATM   12  C   UNL     1     -11.589   9.427  70.379  1.00  0.00    -0.241 A  
HETATM   13  C   UNL     1     -12.377   9.150  71.498  1.00  0.00    -0.421 A  
HETATM   14  C   UNL     1     -13.084  10.164  72.144  1.00  0.00    -0.463 A  
HETATM   15  C   UNL     1     -13.004  11.484  71.700  1.00  0.00    -0.394 A  
HETATM   16  C   UNL     1     -11.474  10.759  69.958  1.00  0.00    -0.412 A  
HETATM   17  C   UNL     1     -12.182  11.778  70.610  1.00  0.00    -0.443 A  
BRANCH  15  18
HETATM   18  O   UNL     1     -13.684  12.542  72.253  1.00  0.00    -0.482 OA 
BRANCH  18  19
HETATM   19  C   UNL     1     -13.605  13.753  71.499  1.00  0.00    -0.249 C  
BRANCH  19  20
HETATM   20  C   UNL     1     -13.682  14.977  72.395  1.00  0.00    -0.480 C  
BRANCH  20  21
HETATM   21  O   UNL     1     -13.135  16.072  71.657  1.00  0.00    -0.392 OA 
BRANCH  21  22
HETATM   22  C   UNL     1     -11.711  16.047  71.636  1.00  0.00    -0.506 C  
BRANCH  22  23
HETATM   23  C   UNL     1     -11.227  16.164  70.194  1.00  0.00    -0.370 C  
BRANCH  23  24
HETATM   24  O   UNL     1     -10.637  14.925  69.803  1.00  0.00    -0.233 OA 
BRANCH  24  25
HETATM   25  C   UNL     1     -10.643  14.760  68.386  1.00  0.00    -0.242 C  
HETATM   26  C   UNL     1     -12.013  14.280  67.945  1.00  0.00    -0.329 C  
HETATM   27  F   UNL     1     -12.023  14.121  66.596  1.00  0.00    -0.375 F  
ENDBRANCH  24  25
ENDBRANCH  23  24
ENDBRANCH  22  23
ENDBRANCH  21  22
ENDBRANCH  20  21
ENDBRANCH  19  20
ENDBRANCH  18  19
ENDBRANCH  15  18
ENDBRANCH  11  12
ENDBRANCH   7  10
ENDBRANCH   2   4
TORSDOF 11
ENDMDL
MODEL      102
REMARK 921   NORMALIZED FREE ENERGY PREDICTED BY IDOCK:   -4.48 KCAL/MOL
REMARK 922        TOTAL FREE ENERGY PREDICTED BY IDOCK:   -8.44 KCAL/MOL
REMARK 923 INTER-LIGAND FREE ENERGY PREDICTED BY IDOCK:   -7.15 KCAL/MOL
REMARK 924 INTRA-LIGAND FREE ENERGY PREDICTED BY IDOCK:   -1.29 KCAL/MOL
REMARK 927      BINDING AFFINITY PREDICTED BY RF-SCORE:    0.00 PKD
ROOT
HETATM    1  C   UNL     1     -13.212  15.965  73.462  1.00  0.00    -0.504 C  
HETATM    2  N   UNL     1     -13.609  15.616  72.105  1.00  0.00    -0.479 NA 
HETATM    3  H   UNL     1     -14.164  16.250  71.530  1.00  0.00     0.000 HD 
ENDROOT
BRANCH   2   4
HETATM    4  C   UNL     1     -13.192  14.363  71.629  1.00  0.00    -0.350 A  
HETATM    5  C   UNL     1     -12.325  14.308  70.531  1.00  0.00    -0.430 A  
HETATM    6  C   UNL     1     -11.915  13.082  69.997  1.00  0.00    -0.383 A  
HETATM    7  C   UNL     1     -12.324  11.879  70.582  1.00  0.00    -0.405 A  
HETATM    8  C   UNL     1     -13.517  13.159  72.262  1.00  0.00    -0.665 A  
HETATM    9  C   UNL     1     -13.108  11.929  71.736  1.00  0.00    -0.465 A  
BRANCH   7  10
HETATM   10  C   UNL     1     -12.028  10.617  69.896  1.00  0.00    -0.385 C  
HETATM   11  C   UNL     1     -10.910   9.888  70.044  1.00  0.00    -0.339 C  
BRANCH  11  12
HETATM   12  C   UNL     1     -10.722   8.580  69.394  1.00  0.00    -0.166 A  
HETATM   13  C   UNL     1     -10.234   8.476  68.090  1.00  0.00    -0.254 A  
HETATM   14  C   UNL     1     -10.109   7.233  67.471  1.00  0.00    -0.250 A  
HETATM   15  C   UNL     1     -10.451   6.061  68.146  1.00  0.00    -0.236 A  
HETATM   16  C   UNL     1     -11.024   7.401  70.090  1.00  0.00    -0.272 A  
HETATM   17  C   UNL     1     -10.896   6.152  69.467  1.00  0.00    -0.428 A  
BRANCH  15  18
HETATM   18  O   UNL     1     -10.388   4.798  67.611  1.00  0.00    -0.086 OA 
BRANCH  18  19
HETATM   19  C   UNL     1      -9.082   4.395  67.197  1.00  0.00    -0.131 C  
BRANCH  19  20
HETATM   20  C   UNL     1      -8.433   3.471  68.213  1.00  0.00    -0.088 C  
BRANCH  20  21
HETATM   21  O   UNL     1      -9.477   2.688  68.795  1.00  0.00    -0.181 OA 
BRANCH  21  22
HETATM   22  C   UNL     1      -9.307   2.525  70.200  1.00  0.00    -0.117 C  
BRANCH  22  23
HETATM   23  C   UNL     1      -7.996   3.179  70.626  1.00  0.00    -0.046 C  
BRANCH  23  24
HETATM   24  O   UNL     1      -8.126   3.641  71.969  1.00  0.00    -0.069 OA 
BRANCH  24  25
HETATM   25  C   UNL     1      -8.359   5.047  72.026  1.00  0.00    -0.124 C  
HETATM   26  C   UNL     1      -9.535   5.322  72.944  1.00  0.00    -0.144 C  
HETATM   27  F   UNL     1      -9.761   6.661  73.001  1.00  0.00    -0.155 F  
ENDBRANCH  24  25
ENDBRANCH  23  24
ENDBRANCH  22  23
ENDBRANCH  21  22
ENDBRANCH  20  21
ENDBRANCH  19  20
ENDBRANCH  18  19
ENDBRANCH  15  18
ENDBRANCH  11  12
ENDBRANCH   7  10
ENDBRANCH   2   4
TORSDOF 11
ENDMDL
MODEL      103
REMARK 921   NORMALIZED FREE ENERGY PREDICTED BY IDOCK:   -4.48 KCAL/MOL
REMARK 922        TOTAL FREE ENERGY PREDICTED BY IDOCK:   -8.43 KCAL/MOL
REMARK 923 INTER-LIGAND FREE ENERGY PREDICTED BY IDOCK:   -7.38 KCAL/MOL
REMARK 924 INTRA-LIGAND FREE ENERGY PREDICTED BY IDOCK:   -1.05 KCAL/MOL
REMARK 927      BINDING AFFINITY PREDICTED BY RF-SCORE:    0.00 PKD
ROOT
HETATM    1  C   UNL     1     -10.778  17.055  65.090  1.00  0.00    -0.053 C  
HETATM    2  N   UNL     1     -11.107  15.872  64.307  1.00  0.00    -0.936 NA 
HETATM    3  H   UNL     1     -11.292  15.928  63.306  1.00  0.00     0.000 HD 
ENDROOT
BRANCH   2   4
HETATM    4  C   UNL     1     -11.159  14.652  65.000  1.00  0.00    -0.394 A  
HETATM    5  C   UNL     1     -11.856  14.588  66.212  1.00  0.00    -0.354 A  
HETATM    6  C   UNL     1     -11.900  13.404  66.956  1.00  0.00    -0.443 A  
HETATM    7  C   UNL     1     -11.287  12.241  66.479  1.00  0.00    -0.403 A  
HETATM    8  C   UNL     1     -10.632  13.462  64.488  1.00  0.00    -0.441 A  
HETATM    9  C   UNL     1     -10.675  12.274  65.225  1.00  0.00    -0.329 A  
BRANCH   7  10
HETATM   10  C   UNL     1     -11.195  11.072  67.361  1.00  0.00    -0.355 C  
HETATM   11  C   UNL     1     -11.163  11.104  68.703  1.00  0.00    -0.314 C  
BRANCH  11  12
HETATM   12  C   UNL     1     -11.167   9.884  69.527  1.00  0.00    -0.220 A  
HETATM   13  C   UNL     1     -10.519   8.719  69.110  1.00  0.00    -0.230 A  
HETATM   14  C   UNL     1     -10.574   7.556  69.878  1.00  0.00    -0.243 A  
HETATM   15  C   UNL     1     -11.262   7.534  71.092  1.00  0.00    -0.257 A  
HETATM   16  C   UNL     1     -11.822   9.876  70.766  1.00  0.00    -0.415 A  
HETATM   17  C   UNL     1     -11.874   8.707  71.539  1.00  0.00    -0.366 A  
BRANCH  15  18
HETATM   18  O   UNL     1     -11.395   6.432  71.901  1.00  0.00    -0.263 OA 
BRANCH  18  19
HETATM   19  C   UNL     1     -10.856   6.595  73.213  1.00  0.00    -0.261 C  
BRANCH  19  20
HETATM   20  C   UNL     1      -9.338   6.531  73.207  1.00  0.00    -0.131 C  
BRANCH  20  21
HETATM   21  O   UNL     1      -8.974   5.254  72.679  1.00  0.00    -0.132 OA 
BRANCH  21  22
HETATM   22  C   UNL     1      -8.028   5.360  71.620  1.00  0.00    -0.116 C  
BRANCH  22  23
HETATM   23  C   UNL     1      -7.927   4.020  70.899  1.00  0.00    -0.059 C  
BRANCH  23  24
HETATM   24  O   UNL     1      -9.233   3.616  70.490  1.00  0.00    -0.110 OA 
BRANCH  24  25
HETATM   25  C   UNL     1      -9.555   4.106  69.190  1.00  0.00    -0.172 C  
HETATM   26  C   UNL     1      -9.525   2.954  68.201  1.00  0.00    -0.161 C  
HETATM   27  F   UNL     1      -9.832   3.416  66.961  1.00  0.00    -0.217 F  
ENDBRANCH  24  25
ENDBRANCH  23  24
ENDBRANCH  22  23
ENDBRANCH  21  22
ENDBRANCH  20  21
ENDBRANCH  19  20
ENDBRANCH  18  19
ENDBRANCH  15  18
ENDBRANCH  11  12
ENDBRANCH   7  10
ENDBRANCH   2   4
TORSDOF 11
ENDMDL
MODEL      104
REMARK 921   NORMALIZED FREE ENERGY PREDICTED BY IDOCK:   -4.47 KCAL/MOL
REMARK 922        TOTAL FREE ENERGY PREDICTED BY IDOCK:   -8.42 KCAL/MOL
REMARK 923 INTER-LIGAND FREE ENERGY PREDICTED BY IDOCK:   -7.06 KCAL/MOL
REMARK 924 INTRA-LIGAND FREE ENERGY PREDICTED BY IDOCK:   -1.37 KCAL/MOL
REMARK 927      BINDING AFFINITY PREDICTED BY RF-SCORE:    0.00 PKD
ROOT
HETATM    1  C   UNL     1     -11.254  16.629  64.695  1.00  0.00    -0.015 C  
HETATM    2  N   UNL     1     -11.698  15.394  64.064  1.00  0.00    -0.894 NA 
HETATM    3  H   UNL     1     -12.069  15.382  63.114  1.00  0.00     0.000 HD 
ENDROOT
BRANCH   2   4
HETATM    4  C   UNL     1     -11.590  14.222  64.829  1.00  0.00    -0.401 A  
HETATM    5  C   UNL     1     -12.025  14.237  66.159  1.00  0.00    -0.422 A  
HETATM    6  C   UNL     1     -11.900  13.104  66.971  1.00  0.00    -0.435 A  
HETATM    7  C   UNL     1     -11.382  11.912  66.453  1.00  0.00    -0.400 A  
HETATM    8  C   UNL     1     -11.163  13.000  64.297  1.00  0.00    -0.411 A  
HETATM    9  C   UNL     1     -11.039  11.863  65.102  1.00  0.00    -0.360 A  
BRANCH   7  10
HETATM   10  C   UNL     1     -11.096  10.803  67.370  1.00  0.00    -0.363 C  
HETATM   11  C   UNL     1     -11.173  10.855  68.711  1.00  0.00    -0.329 C  
BRANCH  11  12
HETATM   12  C   UNL     1     -10.964   9.674  69.564  1.00  0.00    -0.233 A  
HETATM   13  C   UNL     1     -10.513   8.461  69.037  1.00  0.00    -0.216 A  
HETATM   14  C   UNL     1     -10.369   7.338  69.850  1.00  0.00    -0.226 A  
HETATM   15  C   UNL     1     -10.652   7.403  71.214  1.00  0.00    -0.216 A  
HETATM   16  C   UNL     1     -11.208   9.752  70.942  1.00  0.00    -0.429 A  
HETATM   17  C   UNL     1     -11.060   8.622  71.759  1.00  0.00    -0.396 A  
BRANCH  15  18
HETATM   18  O   UNL     1     -10.567   6.345  72.087  1.00  0.00    -0.211 OA 
BRANCH  18  19
HETATM   19  C   UNL     1     -10.942   6.656  73.430  1.00  0.00    -0.152 C  
BRANCH  19  20
HETATM   20  C   UNL     1      -9.858   6.263  74.418  1.00  0.00    -0.306 C  
BRANCH  20  21
HETATM   21  O   UNL     1      -8.613   6.313  73.717  1.00  0.00    -0.122 OA 
BRANCH  21  22
HETATM   22  C   UNL     1      -7.668   7.162  74.362  1.00  0.00    -0.125 C  
BRANCH  22  23
HETATM   23  C   UNL     1      -6.358   7.140  73.581  1.00  0.00    -0.065 C  
BRANCH  23  24
HETATM   24  O   UNL     1      -6.645   7.300  72.192  1.00  0.00    -0.051 OA 
BRANCH  24  25
HETATM   25  C   UNL     1      -7.188   8.589  71.909  1.00  0.00    -0.091 C  
HETATM   26  C   UNL     1      -6.975   8.908  70.441  1.00  0.00    -0.052 C  
HETATM   27  F   UNL     1      -7.491  10.135  70.167  1.00  0.00    -0.135 F  
ENDBRANCH  24  25
ENDBRANCH  23  24
ENDBRANCH  22  23
ENDBRANCH  21  22
ENDBRANCH  20  21
ENDBRANCH  19  20
ENDBRANCH  18  19
ENDBRANCH  15  18
ENDBRANCH  11  12
ENDBRANCH   7  10
ENDBRANCH   2   4
TORSDOF 11
ENDMDL
MODEL      105
REMARK 921   NORMALIZED FREE ENERGY PREDICTED BY IDOCK:   -4.47 KCAL/MOL
REMARK 922        TOTAL FREE ENERGY PREDICTED BY IDOCK:   -8.42 KCAL/MOL
REMARK 923 INTER-LIGAND FREE ENERGY PREDICTED BY IDOCK:   -7.25 KCAL/MOL
REMARK 924 INTRA-LIGAND FREE ENERGY PREDICTED BY IDOCK:   -1.16 KCAL/MOL
REMARK 927      BINDING AFFINITY PREDICTED BY RF-SCORE:    0.00 PKD
ROOT
HETATM    1  C   UNL     1     -13.512  15.959  73.064  1.00  0.00    -0.568 C  
HETATM    2  N   UNL     1     -14.262  15.066  72.192  1.00  0.00    -0.511 NA 
HETATM    3  H   UNL     1     -15.248  15.224  71.984  1.00  0.00     0.000 HD 
ENDROOT
BRANCH   2   4
HETATM    4  C   UNL     1     -13.560  13.976  71.651  1.00  0.00    -0.350 A  
HETATM    5  C   UNL     1     -12.656  14.202  70.607  1.00  0.00    -0.421 A  
HETATM    6  C   UNL     1     -11.965  13.141  70.011  1.00  0.00    -0.391 A  
HETATM    7  C   UNL     1     -12.126  11.834  70.481  1.00  0.00    -0.439 A  
HETATM    8  C   UNL     1     -13.641  12.681  72.175  1.00  0.00    -0.510 A  
HETATM    9  C   UNL     1     -12.951  11.617  71.585  1.00  0.00    -0.483 A  
BRANCH   7  10
HETATM   10  C   UNL     1     -11.532  10.727  69.723  1.00  0.00    -0.386 C  
HETATM   11  C   UNL     1     -11.312  10.713  68.398  1.00  0.00    -0.348 C  
BRANCH  11  12
HETATM   12  C   UNL     1     -10.622   9.604  67.719  1.00  0.00    -0.320 A  
HETATM   13  C   UNL     1     -10.620   8.311  68.247  1.00  0.00    -0.157 A  
HETATM   14  C   UNL     1      -9.920   7.283  67.619  1.00  0.00    -0.207 A  
HETATM   15  C   UNL     1      -9.221   7.515  66.434  1.00  0.00    -0.167 A  
HETATM   16  C   UNL     1      -9.956   9.830  66.506  1.00  0.00    -0.304 A  
HETATM   17  C   UNL     1      -9.255   8.794  65.873  1.00  0.00    -0.282 A  
BRANCH  15  18
HETATM   18  O   UNL     1      -8.482   6.574  65.759  1.00  0.00    -0.141 OA 
BRANCH  18  19
HETATM   19  C   UNL     1      -9.144   5.322  65.577  1.00  0.00    -0.139 C  
BRANCH  19  20
HETATM   20  C   UNL     1      -8.555   4.242  66.468  1.00  0.00    -0.112 C  
BRANCH  20  21
HETATM   21  O   UNL     1      -9.586   3.833  67.370  1.00  0.00    -0.198 OA 
BRANCH  21  22
HETATM   22  C   UNL     1      -9.075   3.075  68.461  1.00  0.00    -0.158 C  
BRANCH  22  23
HETATM   23  C   UNL     1      -9.568   3.683  69.770  1.00  0.00    -0.158 C  
BRANCH  23  24
HETATM   24  O   UNL     1      -8.441   4.023  70.576  1.00  0.00    -0.067 OA 
BRANCH  24  25
HETATM   25  C   UNL     1      -8.276   5.435  70.687  1.00  0.00    -0.114 C  
HETATM   26  C   UNL     1      -9.582   6.056  71.147  1.00  0.00    -0.172 C  
HETATM   27  F   UNL     1      -9.429   7.402  71.254  1.00  0.00    -0.153 F  
ENDBRANCH  24  25
ENDBRANCH  23  24
ENDBRANCH  22  23
ENDBRANCH  21  22
ENDBRANCH  20  21
ENDBRANCH  19  20
ENDBRANCH  18  19
ENDBRANCH  15  18
ENDBRANCH  11  12
ENDBRANCH   7  10
ENDBRANCH   2   4
TORSDOF 11
ENDMDL
MODEL      106
REMARK 921   NORMALIZED FREE ENERGY PREDICTED BY IDOCK:   -4.46 KCAL/MOL
REMARK 922        TOTAL FREE ENERGY PREDICTED BY IDOCK:   -8.39 KCAL/MOL
REMARK 923 INTER-LIGAND FREE ENERGY PREDICTED BY IDOCK:   -7.26 KCAL/MOL
REMARK 924 INTRA-LIGAND FREE ENERGY PREDICTED BY IDOCK:   -1.13 KCAL/MOL
REMARK 927      BINDING AFFINITY PREDICTED BY RF-SCORE:    0.00 PKD
ROOT
HETATM    1  C   UNL     1      -5.720  20.913  63.972  1.00  0.00    -0.269 C  
HETATM    2  N   UNL     1      -6.652  21.141  65.067  1.00  0.00    -0.493 NA 
HETATM    3  H   UNL     1      -6.867  22.081  65.400  1.00  0.00     0.000 HD 
ENDROOT
BRANCH   2   4
HETATM    4  C   UNL     1      -7.239  20.004  65.643  1.00  0.00    -0.308 A  
HETATM    5  C   UNL     1      -6.573  18.776  65.551  1.00  0.00    -0.307 A  
HETATM    6  C   UNL     1      -7.140  17.608  66.074  1.00  0.00    -0.318 A  
HETATM    7  C   UNL     1      -8.365  17.652  66.748  1.00  0.00    -0.276 A  
HETATM    8  C   UNL     1      -8.415  20.052  66.400  1.00  0.00    -0.341 A  
HETATM    9  C   UNL     1      -8.985  18.889  66.928  1.00  0.00    -0.306 A  
BRANCH   7  10
HETATM   10  C   UNL     1      -9.015  16.392  67.123  1.00  0.00    -0.218 C  
HETATM   11  C   UNL     1      -9.275  15.366  66.295  1.00  0.00    -0.354 C  
BRANCH  11  12
HETATM   12  C   UNL     1      -9.845  14.092  66.763  1.00  0.00    -0.275 A  
HETATM   13  C   UNL     1      -9.045  13.099  67.333  1.00  0.00    -0.208 A  
HETATM   14  C   UNL     1      -9.592  11.878  67.724  1.00  0.00    -0.190 A  
HETATM   15  C   UNL     1     -10.957  11.626  67.576  1.00  0.00    -0.259 A  
HETATM   16  C   UNL     1     -11.223  13.858  66.653  1.00  0.00    -0.328 A  
HETATM   17  C   UNL     1     -11.772  12.631  67.051  1.00  0.00    -0.438 A  
BRANCH  15  18
HETATM   18  O   UNL     1     -11.579  10.447  67.907  1.00  0.00    -0.406 OA 
BRANCH  18  19
HETATM   19  C   UNL     1     -10.742   9.504  68.577  1.00  0.00    -0.182 C  
BRANCH  19  20
HETATM   20  C   UNL     1     -10.435   8.304  67.699  1.00  0.00    -0.235 C  
BRANCH  20  21
HETATM   21  O   UNL     1      -9.153   8.531  67.109  1.00  0.00    -0.136 OA 
BRANCH  21  22
HETATM   22  C   UNL     1      -8.961   7.759  65.928  1.00  0.00    -0.113 C  
BRANCH  22  23
HETATM   23  C   UNL     1      -7.984   8.483  65.007  1.00  0.00    -0.131 C  
BRANCH  23  24
HETATM   24  O   UNL     1      -8.716   9.093  63.946  1.00  0.00    -0.197 OA 
BRANCH  24  25
HETATM   25  C   UNL     1      -9.061  10.444  64.249  1.00  0.00    -0.238 C  
HETATM   26  C   UNL     1      -9.796  11.049  63.066  1.00  0.00    -0.337 C  
HETATM   27  F   UNL     1     -10.126  12.336  63.350  1.00  0.00    -0.398 F  
ENDBRANCH  24  25
ENDBRANCH  23  24
ENDBRANCH  22  23
ENDBRANCH  21  22
ENDBRANCH  20  21
ENDBRANCH  19  20
ENDBRANCH  18  19
ENDBRANCH  15  18
ENDBRANCH  11  12
ENDBRANCH   7  10
ENDBRANCH   2   4
TORSDOF 11
ENDMDL
MODEL      107
REMARK 921   NORMALIZED FREE ENERGY PREDICTED BY IDOCK:   -4.45 KCAL/MOL
REMARK 922        TOTAL FREE ENERGY PREDICTED BY IDOCK:   -8.38 KCAL/MOL
REMARK 923 INTER-LIGAND FREE ENERGY PREDICTED BY IDOCK:   -6.83 KCAL/MOL
REMARK 924 INTRA-LIGAND FREE ENERGY PREDICTED BY IDOCK:   -1.56 KCAL/MOL
REMARK 927      BINDING AFFINITY PREDICTED BY RF-SCORE:    0.00 PKD
ROOT
HETATM    1  C   UNL     1     -11.397   6.249  69.916  1.00  0.00    -0.434 C  
HETATM    2  N   UNL     1     -11.284   6.838  68.589  1.00  0.00    -0.540 NA 
HETATM    3  H   UNL     1     -11.593   6.340  67.754  1.00  0.00     0.000 HD 
ENDROOT
BRANCH   2   4
HETATM    4  C   UNL     1     -10.727   8.125  68.516  1.00  0.00    -0.014 A  
HETATM    5  C   UNL     1     -10.450   8.674  67.259  1.00  0.00    -0.360 A  
HETATM    6  C   UNL     1      -9.858   9.936  67.139  1.00  0.00    -0.235 A  
HETATM    7  C   UNL     1      -9.576  10.700  68.276  1.00  0.00    -0.167 A  
HETATM    8  C   UNL     1     -10.529   8.935  69.639  1.00  0.00    -0.218 A  
HETATM    9  C   UNL     1      -9.940  10.199  69.526  1.00  0.00    -0.257 A  
BRANCH   7  10
HETATM   10  C   UNL     1      -8.795  11.933  68.128  1.00  0.00    -0.178 C  
HETATM   11  C   UNL     1      -9.243  13.178  68.359  1.00  0.00    -0.141 C  
BRANCH  11  12
HETATM   12  C   UNL     1      -8.373  14.363  68.283  1.00  0.00    -0.158 A  
HETATM   13  C   UNL     1      -7.759  14.894  69.419  1.00  0.00    -0.150 A  
HETATM   14  C   UNL     1      -6.979  16.046  69.338  1.00  0.00    -0.216 A  
HETATM   15  C   UNL     1      -6.776  16.686  68.115  1.00  0.00    -0.144 A  
HETATM   16  C   UNL     1      -8.135  14.979  67.047  1.00  0.00    -0.225 A  
HETATM   17  C   UNL     1      -7.348  16.137  66.966  1.00  0.00    -0.266 A  
BRANCH  15  18
HETATM   18  O   UNL     1      -6.048  17.839  67.942  1.00  0.00    -0.154 OA 
BRANCH  18  19
HETATM   19  C   UNL     1      -6.697  18.832  67.147  1.00  0.00    -0.197 C  
BRANCH  19  20
HETATM   20  C   UNL     1      -6.931  20.111  67.932  1.00  0.00    -0.281 C  
BRANCH  20  21
HETATM   21  O   UNL     1      -8.095  20.734  67.382  1.00  0.00    -0.314 OA 
BRANCH  21  22
HETATM   22  C   UNL     1      -8.779  19.881  66.469  1.00  0.00    -0.350 C  
BRANCH  22  23
HETATM   23  C   UNL     1     -10.279  19.964  66.731  1.00  0.00    -0.477 C  
BRANCH  23  24
HETATM   24  O   UNL     1     -10.777  18.652  66.986  1.00  0.00    -0.408 OA 
BRANCH  24  25
HETATM   25  C   UNL     1     -10.339  18.156  68.250  1.00  0.00    -0.363 C  
HETATM   26  C   UNL     1     -11.036  16.839  68.538  1.00  0.00    -0.312 C  
HETATM   27  F   UNL     1     -10.621  16.363  69.741  1.00  0.00    -0.269 F  
ENDBRANCH  24  25
ENDBRANCH  23  24
ENDBRANCH  22  23
ENDBRANCH  21  22
ENDBRANCH  20  21
ENDBRANCH  19  20
ENDBRANCH  18  19
ENDBRANCH  15  18
ENDBRANCH  11  12
ENDBRANCH   7  10
ENDBRANCH   2   4
TORSDOF 11
ENDMDL
MODEL      108
REMARK 921   NORMALIZED FREE ENERGY PREDICTED BY IDOCK:   -4.45 KCAL/MOL
REMARK 922        TOTAL FREE ENERGY PREDICTED BY IDOCK:   -8.38 KCAL/MOL
REMARK 923 INTER-LIGAND FREE ENERGY PREDICTED BY IDOCK:   -7.60 KCAL/MOL
REMARK 924 INTRA-LIGAND FREE ENERGY PREDICTED BY IDOCK:   -0.78 KCAL/MOL
REMARK 927      BINDING AFFINITY PREDICTED BY RF-SCORE:    0.00 PKD
ROOT
HETATM    1  C   UNL     1      -8.729   1.668  73.614  1.00  0.00    -0.058 C  
HETATM    2  N   UNL     1     -10.100   2.121  73.427  1.00  0.00    -0.097 NA 
HETATM    3  H   UNL     1     -10.896   1.540  73.689  1.00  0.00     0.000 HD 
ENDROOT
BRANCH   2   4
HETATM    4  C   UNL     1     -10.271   3.397  72.867  1.00  0.00    -0.164 A  
HETATM    5  C   UNL     1     -10.982   4.364  73.586  1.00  0.00    -0.374 A  
HETATM    6  C   UNL     1     -11.212   5.636  73.050  1.00  0.00    -0.319 A  
HETATM    7  C   UNL     1     -10.692   5.986  71.800  1.00  0.00    -0.294 A  
HETATM    8  C   UNL     1      -9.677   3.787  71.662  1.00  0.00    -0.239 A  
HETATM    9  C   UNL     1      -9.900   5.058  71.122  1.00  0.00    -0.254 A  
BRANCH   7  10
HETATM   10  C   UNL     1     -11.101   7.255  71.189  1.00  0.00    -0.275 C  
HETATM   11  C   UNL     1     -10.961   8.472  71.742  1.00  0.00    -0.376 C  
BRANCH  11  12
HETATM   12  C   UNL     1     -11.307   9.713  71.029  1.00  0.00    -0.444 A  
HETATM   13  C   UNL     1     -12.359  10.528  71.450  1.00  0.00    -0.477 A  
HETATM   14  C   UNL     1     -12.707  11.673  70.735  1.00  0.00    -0.291 A  
HETATM   15  C   UNL     1     -11.998  12.044  69.591  1.00  0.00    -0.293 A  
HETATM   16  C   UNL     1     -10.567  10.106  69.905  1.00  0.00    -0.331 A  
HETATM   17  C   UNL     1     -10.915  11.260  69.189  1.00  0.00    -0.292 A  
BRANCH  15  18
HETATM   18  O   UNL     1     -12.283  13.136  68.808  1.00  0.00    -0.255 OA 
BRANCH  18  19
HETATM   19  C   UNL     1     -11.340  13.375  67.763  1.00  0.00    -0.294 C  
BRANCH  19  20
HETATM   20  C   UNL     1     -12.029  13.649  66.438  1.00  0.00    -0.426 C  
BRANCH  20  21
HETATM   21  O   UNL     1     -12.260  12.383  65.815  1.00  0.00    -0.620 OA 
BRANCH  21  22
HETATM   22  C   UNL     1     -11.458  12.203  64.652  1.00  0.00    -0.328 C  
BRANCH  22  23
HETATM   23  C   UNL     1     -10.430  11.107  64.913  1.00  0.00    -0.308 C  
BRANCH  23  24
HETATM   24  O   UNL     1     -10.007  10.563  63.664  1.00  0.00    -0.320 OA 
BRANCH  24  25
HETATM   25  C   UNL     1      -8.798   9.817  63.795  1.00  0.00    -0.235 C  
HETATM   26  C   UNL     1      -7.855  10.194  62.667  1.00  0.00    -0.139 C  
HETATM   27  F   UNL     1      -6.702   9.486  62.786  1.00  0.00    -0.098 F  
ENDBRANCH  24  25
ENDBRANCH  23  24
ENDBRANCH  22  23
ENDBRANCH  21  22
ENDBRANCH  20  21
ENDBRANCH  19  20
ENDBRANCH  18  19
ENDBRANCH  15  18
ENDBRANCH  11  12
ENDBRANCH   7  10
ENDBRANCH   2   4
TORSDOF 11
ENDMDL
MODEL      109
REMARK 921   NORMALIZED FREE ENERGY PREDICTED BY IDOCK:   -4.44 KCAL/MOL
REMARK 922        TOTAL FREE ENERGY PREDICTED BY IDOCK:   -8.36 KCAL/MOL
REMARK 923 INTER-LIGAND FREE ENERGY PREDICTED BY IDOCK:   -7.56 KCAL/MOL
REMARK 924 INTRA-LIGAND FREE ENERGY PREDICTED BY IDOCK:   -0.81 KCAL/MOL
REMARK 927      BINDING AFFINITY PREDICTED BY RF-SCORE:    0.00 PKD
ROOT
HETATM    1  C   UNL     1      -5.739  20.877  64.387  1.00  0.00    -0.253 C  
HETATM    2  N   UNL     1      -6.840  21.058  65.321  1.00  0.00    -0.514 NA 
HETATM    3  H   UNL     1      -7.148  21.986  65.612  1.00  0.00     0.000 HD 
ENDROOT
BRANCH   2   4
HETATM    4  C   UNL     1      -7.457  19.893  65.802  1.00  0.00    -0.315 A  
HETATM    5  C   UNL     1      -6.714  18.708  65.868  1.00  0.00    -0.302 A  
HETATM    6  C   UNL     1      -7.299  17.514  66.302  1.00  0.00    -0.355 A  
HETATM    7  C   UNL     1      -8.630  17.488  66.728  1.00  0.00    -0.276 A  
HETATM    8  C   UNL     1      -8.757  19.875  66.320  1.00  0.00    -0.384 A  
HETATM    9  C   UNL     1      -9.346  18.685  66.758  1.00  0.00    -0.312 A  
BRANCH   7  10
HETATM   10  C   UNL     1      -9.264  16.194  67.004  1.00  0.00    -0.227 C  
HETATM   11  C   UNL     1      -9.019  15.046  66.350  1.00  0.00    -0.286 C  
BRANCH  11  12
HETATM   12  C   UNL     1      -9.622  13.762  66.744  1.00  0.00    -0.283 A  
HETATM   13  C   UNL     1      -9.437  13.229  68.021  1.00  0.00    -0.219 A  
HETATM   14  C   UNL     1      -9.973  11.989  68.363  1.00  0.00    -0.209 A  
HETATM   15  C   UNL     1     -10.726  11.258  67.443  1.00  0.00    -0.242 A  
HETATM   16  C   UNL     1     -10.415  13.050  65.833  1.00  0.00    -0.293 A  
HETATM   17  C   UNL     1     -10.956  11.804  66.179  1.00  0.00    -0.355 A  
BRANCH  15  18
HETATM   18  O   UNL     1     -11.269  10.019  67.679  1.00  0.00    -0.248 OA 
BRANCH  18  19
HETATM   19  C   UNL     1     -10.529   8.933  67.119  1.00  0.00    -0.274 C  
BRANCH  19  20
HETATM   20  C   UNL     1      -9.836   8.114  68.193  1.00  0.00    -0.168 C  
BRANCH  20  21
HETATM   21  O   UNL     1      -9.976   6.739  67.828  1.00  0.00    -0.129 OA 
BRANCH  21  22
HETATM   22  C   UNL     1     -10.798   6.021  68.743  1.00  0.00    -0.322 C  
BRANCH  22  23
HETATM   23  C   UNL     1     -10.910   6.811  70.044  1.00  0.00    -0.266 C  
BRANCH  23  24
HETATM   24  O   UNL     1     -12.226   6.650  70.570  1.00  0.00    -0.364 OA 
BRANCH  24  25
HETATM   25  C   UNL     1     -12.250   6.794  71.989  1.00  0.00    -0.291 C  
HETATM   26  C   UNL     1     -10.853   7.124  72.481  1.00  0.00    -0.264 C  
HETATM   27  F   UNL     1     -10.871   7.262  73.832  1.00  0.00    -0.407 F  
ENDBRANCH  24  25
ENDBRANCH  23  24
ENDBRANCH  22  23
ENDBRANCH  21  22
ENDBRANCH  20  21
ENDBRANCH  19  20
ENDBRANCH  18  19
ENDBRANCH  15  18
ENDBRANCH  11  12
ENDBRANCH   7  10
ENDBRANCH   2   4
TORSDOF 11
ENDMDL
MODEL      110
REMARK 921   NORMALIZED FREE ENERGY PREDICTED BY IDOCK:   -4.42 KCAL/MOL
REMARK 922        TOTAL FREE ENERGY PREDICTED BY IDOCK:   -8.33 KCAL/MOL
REMARK 923 INTER-LIGAND FREE ENERGY PREDICTED BY IDOCK:   -6.81 KCAL/MOL
REMARK 924 INTRA-LIGAND FREE ENERGY PREDICTED BY IDOCK:   -1.52 KCAL/MOL
REMARK 927      BINDING AFFINITY PREDICTED BY RF-SCORE:    0.00 PKD
ROOT
HETATM    1  C   UNL     1     -13.012  15.719  73.544  1.00  0.00    -0.575 C  
HETATM    2  N   UNL     1     -13.946  14.863  72.826  1.00  0.00    -0.466 NA 
HETATM    3  H   UNL     1     -14.955  14.999  72.892  1.00  0.00     0.000 HD 
ENDROOT
BRANCH   2   4
HETATM    4  C   UNL     1     -13.390  13.841  72.041  1.00  0.00    -0.447 A  
HETATM    5  C   UNL     1     -13.600  12.508  72.413  1.00  0.00    -0.353 A  
HETATM    6  C   UNL     1     -13.030  11.459  71.683  1.00  0.00    -0.523 A  
HETATM    7  C   UNL     1     -12.278  11.718  70.533  1.00  0.00    -0.438 A  
HETATM    8  C   UNL     1     -12.717  14.084  70.838  1.00  0.00    -0.420 A  
HETATM    9  C   UNL     1     -12.149  13.039  70.102  1.00  0.00    -0.377 A  
BRANCH   7  10
HETATM   10  C   UNL     1     -11.548  10.616  69.897  1.00  0.00    -0.396 C  
HETATM   11  C   UNL     1     -10.666   9.805  70.505  1.00  0.00    -0.381 C  
BRANCH  11  12
HETATM   12  C   UNL     1     -10.043   8.658  69.826  1.00  0.00    -0.199 A  
HETATM   13  C   UNL     1      -8.690   8.355  69.996  1.00  0.00    -0.133 A  
HETATM   14  C   UNL     1      -8.102   7.296  69.307  1.00  0.00    -0.124 A  
HETATM   15  C   UNL     1      -8.857   6.498  68.445  1.00  0.00    -0.123 A  
HETATM   16  C   UNL     1     -10.812   7.832  68.995  1.00  0.00    -0.042 A  
HETATM   17  C   UNL     1     -10.220   6.764  68.305  1.00  0.00    -0.194 A  
BRANCH  15  18
HETATM   18  O   UNL     1      -8.361   5.453  67.705  1.00  0.00    -0.100 OA 
BRANCH  18  19
HETATM   19  C   UNL     1      -7.327   5.816  66.789  1.00  0.00    -0.079 C  
BRANCH  19  20
HETATM   20  C   UNL     1      -7.895   6.326  65.476  1.00  0.00    -0.101 C  
BRANCH  20  21
HETATM   21  O   UNL     1      -7.463   7.680  65.329  1.00  0.00    -0.075 OA 
BRANCH  21  22
HETATM   22  C   UNL     1      -8.558   8.584  65.218  1.00  0.00    -0.165 C  
BRANCH  22  23
HETATM   23  C   UNL     1      -8.473   9.617  66.338  1.00  0.00    -0.123 C  
BRANCH  23  24
HETATM   24  O   UNL     1      -8.304  10.910  65.761  1.00  0.00    -0.166 OA 
BRANCH  24  25
HETATM   25  C   UNL     1      -9.215  11.859  66.314  1.00  0.00    -0.214 C  
HETATM   26  C   UNL     1     -10.602  11.244  66.370  1.00  0.00    -0.266 C  
HETATM   27  F   UNL     1     -11.473  12.145  66.896  1.00  0.00    -0.328 F  
ENDBRANCH  24  25
ENDBRANCH  23  24
ENDBRANCH  22  23
ENDBRANCH  21  22
ENDBRANCH  20  21
ENDBRANCH  19  20
ENDBRANCH  18  19
ENDBRANCH  15  18
ENDBRANCH  11  12
ENDBRANCH   7  10
ENDBRANCH   2   4
TORSDOF 11
ENDMDL
MODEL      111
REMARK 921   NORMALIZED FREE ENERGY PREDICTED BY IDOCK:   -4.41 KCAL/MOL
REMARK 922        TOTAL FREE ENERGY PREDICTED BY IDOCK:   -8.32 KCAL/MOL
REMARK 923 INTER-LIGAND FREE ENERGY PREDICTED BY IDOCK:   -7.45 KCAL/MOL
REMARK 924 INTRA-LIGAND FREE ENERGY PREDICTED BY IDOCK:   -0.87 KCAL/MOL
REMARK 927      BINDING AFFINITY PREDICTED BY RF-SCORE:    0.00 PKD
ROOT
HETATM    1  C   UNL     1      -8.686   4.249  71.868  1.00  0.00    -0.111 C  
HETATM    2  N   UNL     1      -9.112   4.222  70.476  1.00  0.00    -0.097 NA 
HETATM    3  H   UNL     1      -9.100   3.361  69.929  1.00  0.00     0.000 HD 
ENDROOT
BRANCH   2   4
HETATM    4  C   UNL     1      -9.539   5.440  69.923  1.00  0.00    -0.168 A  
HETATM    5  C   UNL     1     -10.358   5.420  68.788  1.00  0.00    -0.240 A  
HETATM    6  C   UNL     1     -10.774   6.610  68.180  1.00  0.00    -0.320 A  
HETATM    7  C   UNL     1     -10.421   7.848  68.724  1.00  0.00    -0.198 A  
HETATM    8  C   UNL     1      -9.272   6.681  70.512  1.00  0.00    -0.156 A  
HETATM    9  C   UNL     1      -9.688   7.873  69.910  1.00  0.00    -0.176 A  
BRANCH   7  10
HETATM   10  C   UNL     1     -10.718   9.069  67.966  1.00  0.00    -0.184 C  
HETATM   11  C   UNL     1     -10.138   9.436  66.811  1.00  0.00    -0.325 C  
BRANCH  11  12
HETATM   12  C   UNL     1     -10.555  10.628  66.056  1.00  0.00    -0.195 A  
HETATM   13  C   UNL     1     -10.098  10.869  64.759  1.00  0.00    -0.383 A  
HETATM   14  C   UNL     1     -10.462  12.028  64.076  1.00  0.00    -0.410 A  
HETATM   15  C   UNL     1     -11.310  12.968  64.665  1.00  0.00    -0.327 A  
HETATM   16  C   UNL     1     -11.440  11.549  66.633  1.00  0.00    -0.205 A  
HETATM   17  C   UNL     1     -11.809  12.714  65.944  1.00  0.00    -0.499 A  
BRANCH  15  18
HETATM   18  O   UNL     1     -11.700  14.149  64.083  1.00  0.00    -0.363 OA 
BRANCH  18  19
HETATM   19  C   UNL     1     -11.783  15.253  64.985  1.00  0.00    -0.174 C  
BRANCH  19  20
HETATM   20  C   UNL     1     -10.440  15.942  65.152  1.00  0.00    -0.335 C  
BRANCH  20  21
HETATM   21  O   UNL     1     -10.454  16.584  66.430  1.00  0.00    -0.304 OA 
BRANCH  21  22
HETATM   22  C   UNL     1     -10.472  15.646  67.501  1.00  0.00    -0.285 C  
BRANCH  22  23
HETATM   23  C   UNL     1     -10.907  16.352  68.781  1.00  0.00    -0.338 C  
BRANCH  23  24
HETATM   24  O   UNL     1     -12.062  15.696  69.302  1.00  0.00    -0.347 OA 
BRANCH  24  25
HETATM   25  C   UNL     1     -11.772  14.997  70.511  1.00  0.00    -0.297 C  
HETATM   26  C   UNL     1     -11.731  15.985  71.662  1.00  0.00    -0.506 C  
HETATM   27  F   UNL     1     -11.455  15.323  72.816  1.00  0.00    -0.511 F  
ENDBRANCH  24  25
ENDBRANCH  23  24
ENDBRANCH  22  23
ENDBRANCH  21  22
ENDBRANCH  20  21
ENDBRANCH  19  20
ENDBRANCH  18  19
ENDBRANCH  15  18
ENDBRANCH  11  12
ENDBRANCH   7  10
ENDBRANCH   2   4
TORSDOF 11
ENDMDL
MODEL      112
REMARK 921   NORMALIZED FREE ENERGY PREDICTED BY IDOCK:   -4.41 KCAL/MOL
REMARK 922        TOTAL FREE ENERGY PREDICTED BY IDOCK:   -8.31 KCAL/MOL
REMARK 923 INTER-LIGAND FREE ENERGY PREDICTED BY IDOCK:   -7.11 KCAL/MOL
REMARK 924 INTRA-LIGAND FREE ENERGY PREDICTED BY IDOCK:   -1.20 KCAL/MOL
REMARK 927      BINDING AFFINITY PREDICTED BY RF-SCORE:    0.00 PKD
ROOT
HETATM    1  C   UNL     1     -12.041  13.240  63.337  1.00  0.00    -0.439 C  
HETATM    2  N   UNL     1     -10.759  13.131  64.018  1.00  0.00    -0.516 NA 
HETATM    3  H   UNL     1      -9.946  13.671  63.721  1.00  0.00     0.000 HD 
ENDROOT
BRANCH   2   4
HETATM    4  C   UNL     1     -10.696  12.244  65.105  1.00  0.00    -0.293 A  
HETATM    5  C   UNL     1     -11.397  12.555  66.276  1.00  0.00    -0.386 A  
HETATM    6  C   UNL     1     -11.330  11.721  67.398  1.00  0.00    -0.376 A  
HETATM    7  C   UNL     1     -10.600  10.529  67.356  1.00  0.00    -0.313 A  
HETATM    8  C   UNL     1     -10.049  11.005  65.043  1.00  0.00    -0.354 A  
HETATM    9  C   UNL     1      -9.982  10.166  66.160  1.00  0.00    -0.310 A  
BRANCH   7  10
HETATM   10  C   UNL     1     -10.403   9.772  68.597  1.00  0.00    -0.224 C  
HETATM   11  C   UNL     1     -11.029  10.001  69.764  1.00  0.00    -0.317 C  
BRANCH  11  12
HETATM   12  C   UNL     1     -10.851   9.139  70.943  1.00  0.00    -0.345 A  
HETATM   13  C   UNL     1     -11.943   8.662  71.672  1.00  0.00    -0.388 A  
HETATM   14  C   UNL     1     -11.756   7.889  72.816  1.00  0.00    -0.338 A  
HETATM   15  C   UNL     1     -10.473   7.554  73.251  1.00  0.00    -0.371 A  
HETATM   16  C   UNL     1      -9.563   8.769  71.353  1.00  0.00    -0.337 A  
HETATM   17  C   UNL     1      -9.376   7.987  72.502  1.00  0.00    -0.289 A  
BRANCH  15  18
HETATM   18  O   UNL     1     -10.189   6.823  74.378  1.00  0.00    -0.355 OA 
BRANCH  18  19
HETATM   19  C   UNL     1      -9.064   5.952  74.250  1.00  0.00    -0.126 C  
BRANCH  19  20
HETATM   20  C   UNL     1      -9.470   4.493  74.354  1.00  0.00    -0.121 C  
BRANCH  20  21
HETATM   21  O   UNL     1     -10.040   4.125  73.096  1.00  0.00    -0.134 OA 
BRANCH  21  22
HETATM   22  C   UNL     1      -9.050   3.958  72.086  1.00  0.00    -0.115 C  
BRANCH  22  23
HETATM   23  C   UNL     1      -9.558   4.562  70.780  1.00  0.00    -0.183 C  
BRANCH  23  24
HETATM   24  O   UNL     1      -8.461   5.156  70.089  1.00  0.00    -0.097 OA 
BRANCH  24  25
HETATM   25  C   UNL     1      -8.816   5.537  68.761  1.00  0.00    -0.107 C  
HETATM   26  C   UNL     1      -9.851   4.566  68.223  1.00  0.00    -0.086 C  
HETATM   27  F   UNL     1     -10.192   4.926  66.958  1.00  0.00    -0.191 F  
ENDBRANCH  24  25
ENDBRANCH  23  24
ENDBRANCH  22  23
ENDBRANCH  21  22
ENDBRANCH  20  21
ENDBRANCH  19  20
ENDBRANCH  18  19
ENDBRANCH  15  18
ENDBRANCH  11  12
ENDBRANCH   7  10
ENDBRANCH   2   4
TORSDOF 11
ENDMDL
MODEL      113
REMARK 921   NORMALIZED FREE ENERGY PREDICTED BY IDOCK:   -4.39 KCAL/MOL
REMARK 922        TOTAL FREE ENERGY PREDICTED BY IDOCK:   -8.28 KCAL/MOL
REMARK 923 INTER-LIGAND FREE ENERGY PREDICTED BY IDOCK:   -7.46 KCAL/MOL
REMARK 924 INTRA-LIGAND FREE ENERGY PREDICTED BY IDOCK:   -0.83 KCAL/MOL
REMARK 927      BINDING AFFINITY PREDICTED BY RF-SCORE:    0.00 PKD
ROOT
HETATM    1  C   UNL     1      -8.759   2.912  65.196  1.00  0.00    -0.113 C  
HETATM    2  N   UNL     1      -9.483   3.442  66.343  1.00  0.00    -0.339 NA 
HETATM    3  H   UNL     1      -9.912   2.828  67.035  1.00  0.00     0.000 HD 
ENDROOT
BRANCH   2   4
HETATM    4  C   UNL     1      -9.563   4.840  66.448  1.00  0.00    -0.177 A  
HETATM    5  C   UNL     1      -8.491   5.617  65.993  1.00  0.00    -0.132 A  
HETATM    6  C   UNL     1      -8.510   7.011  66.115  1.00  0.00    -0.136 A  
HETATM    7  C   UNL     1      -9.625   7.663  66.649  1.00  0.00    -0.271 A  
HETATM    8  C   UNL     1     -10.710   5.508  66.891  1.00  0.00    -0.310 A  
HETATM    9  C   UNL     1     -10.735   6.901  67.012  1.00  0.00    -0.432 A  
BRANCH   7  10
HETATM   10  C   UNL     1      -9.541   9.101  66.929  1.00  0.00    -0.233 C  
HETATM   11  C   UNL     1      -8.531   9.911  66.574  1.00  0.00    -0.127 C  
BRANCH  11  12
HETATM   12  C   UNL     1      -8.559  11.365  66.805  1.00  0.00    -0.166 A  
HETATM   13  C   UNL     1      -7.598  11.998  67.596  1.00  0.00    -0.136 A  
HETATM   14  C   UNL     1      -7.668  13.367  67.847  1.00  0.00    -0.153 A  
HETATM   15  C   UNL     1      -8.689  14.143  67.296  1.00  0.00    -0.218 A  
HETATM   16  C   UNL     1      -9.560  12.149  66.216  1.00  0.00    -0.246 A  
HETATM   17  C   UNL     1      -9.627  13.527  66.466  1.00  0.00    -0.284 A  
BRANCH  15  18
HETATM   18  O   UNL     1      -8.855  15.490  67.509  1.00  0.00    -0.175 OA 
BRANCH  18  19
HETATM   19  C   UNL     1     -10.197  15.952  67.347  1.00  0.00    -0.270 C  
BRANCH  19  20
HETATM   20  C   UNL     1     -10.448  17.230  68.129  1.00  0.00    -0.382 C  
BRANCH  20  21
HETATM   21  O   UNL     1     -10.748  16.847  69.473  1.00  0.00    -0.326 OA 
BRANCH  21  22
HETATM   22  C   UNL     1     -11.707  15.796  69.530  1.00  0.00    -0.360 C  
BRANCH  22  23
HETATM   23  C   UNL     1     -12.202  15.644  70.965  1.00  0.00    -0.412 C  
BRANCH  23  24
HETATM   24  O   UNL     1     -13.623  15.768  70.979  1.00  0.00    -0.568 OA 
BRANCH  24  25
HETATM   25  C   UNL     1     -14.237  14.737  71.750  1.00  0.00    -0.541 C  
HETATM   26  C   UNL     1     -13.348  13.506  71.734  1.00  0.00    -0.397 C  
HETATM   27  F   UNL     1     -13.929  12.520  72.467  1.00  0.00    -0.550 F  
ENDBRANCH  24  25
ENDBRANCH  23  24
ENDBRANCH  22  23
ENDBRANCH  21  22
ENDBRANCH  20  21
ENDBRANCH  19  20
ENDBRANCH  18  19
ENDBRANCH  15  18
ENDBRANCH  11  12
ENDBRANCH   7  10
ENDBRANCH   2   4
TORSDOF 11
ENDMDL
MODEL      114
REMARK 921   NORMALIZED FREE ENERGY PREDICTED BY IDOCK:   -4.38 KCAL/MOL
REMARK 922        TOTAL FREE ENERGY PREDICTED BY IDOCK:   -8.27 KCAL/MOL
REMARK 923 INTER-LIGAND FREE ENERGY PREDICTED BY IDOCK:   -6.88 KCAL/MOL
REMARK 924 INTRA-LIGAND FREE ENERGY PREDICTED BY IDOCK:   -1.39 KCAL/MOL
REMARK 927      BINDING AFFINITY PREDICTED BY RF-SCORE:    0.00 PKD
ROOT
HETATM    1  C   UNL     1      -9.357   2.502  67.901  1.00  0.00    -0.191 C  
HETATM    2  N   UNL     1      -8.415   3.520  67.459  1.00  0.00    -0.094 NA 
HETATM    3  H   UNL     1      -7.453   3.288  67.212  1.00  0.00     0.000 HD 
ENDROOT
BRANCH   2   4
HETATM    4  C   UNL     1      -8.896   4.837  67.389  1.00  0.00    -0.104 A  
HETATM    5  C   UNL     1     -10.230   5.054  67.023  1.00  0.00    -0.253 A  
HETATM    6  C   UNL     1     -10.742   6.350  66.902  1.00  0.00    -0.408 A  
HETATM    7  C   UNL     1      -9.943   7.460  67.193  1.00  0.00    -0.281 A  
HETATM    8  C   UNL     1      -8.136   5.948  67.770  1.00  0.00    -0.105 A  
HETATM    9  C   UNL     1      -8.643   7.247  67.653  1.00  0.00    -0.126 A  
BRANCH   7  10
HETATM   10  C   UNL     1     -10.449   8.802  66.884  1.00  0.00    -0.319 C  
HETATM   11  C   UNL     1     -10.036   9.582  65.870  1.00  0.00    -0.342 C  
BRANCH  11  12
HETATM   12  C   UNL     1     -10.657  10.880  65.562  1.00  0.00    -0.240 A  
HETATM   13  C   UNL     1     -10.612  11.426  64.278  1.00  0.00    -0.416 A  
HETATM   14  C   UNL     1     -11.161  12.679  64.013  1.00  0.00    -0.459 A  
HETATM   15  C   UNL     1     -11.789  13.411  65.022  1.00  0.00    -0.352 A  
HETATM   16  C   UNL     1     -11.325  11.594  66.567  1.00  0.00    -0.331 A  
HETATM   17  C   UNL     1     -11.880  12.853  66.299  1.00  0.00    -0.477 A  
BRANCH  15  18
HETATM   18  O   UNL     1     -12.333  14.662  64.864  1.00  0.00    -0.394 OA 
BRANCH  18  19
HETATM   19  C   UNL     1     -11.393  15.673  64.495  1.00  0.00    -0.320 C  
BRANCH  19  20
HETATM   20  C   UNL     1     -10.167  15.651  65.392  1.00  0.00    -0.370 C  
BRANCH  20  21
HETATM   21  O   UNL     1     -10.479  16.433  66.547  1.00  0.00    -0.302 OA 
BRANCH  21  22
HETATM   22  C   UNL     1     -10.189  15.741  67.758  1.00  0.00    -0.251 C  
BRANCH  22  23
HETATM   23  C   UNL     1      -8.800  15.118  67.661  1.00  0.00    -0.173 C  
BRANCH  23  24
HETATM   24  O   UNL     1      -8.848  13.797  68.196  1.00  0.00    -0.172 OA 
BRANCH  24  25
HETATM   25  C   UNL     1      -8.072  12.884  67.421  1.00  0.00    -0.181 C  
HETATM   26  C   UNL     1      -7.874  11.603  68.211  1.00  0.00    -0.136 C  
HETATM   27  F   UNL     1      -7.135  10.730  67.477  1.00  0.00    -0.082 F  
ENDBRANCH  24  25
ENDBRANCH  23  24
ENDBRANCH  22  23
ENDBRANCH  21  22
ENDBRANCH  20  21
ENDBRANCH  19  20
ENDBRANCH  18  19
ENDBRANCH  15  18
ENDBRANCH  11  12
ENDBRANCH   7  10
ENDBRANCH   2   4
TORSDOF 11
ENDMDL
MODEL      115
REMARK 921   NORMALIZED FREE ENERGY PREDICTED BY IDOCK:   -4.38 KCAL/MOL
REMARK 922        TOTAL FREE ENERGY PREDICTED BY IDOCK:   -8.26 KCAL/MOL
REMARK 923 INTER-LIGAND FREE ENERGY PREDICTED BY IDOCK:   -6.89 KCAL/MOL
REMARK 924 INTRA-LIGAND FREE ENERGY PREDICTED BY IDOCK:   -1.38 KCAL/MOL
REMARK 927      BINDING AFFINITY PREDICTED BY RF-SCORE:    0.00 PKD
ROOT
HETATM    1  C   UNL     1      -9.773   3.799  65.445  1.00  0.00    -0.157 C  
HETATM    2  N   UNL     1     -10.314   4.631  66.510  1.00  0.00    -0.282 NA 
HETATM    3  H   UNL     1     -10.869   4.235  67.269  1.00  0.00     0.000 HD 
ENDROOT
BRANCH   2   4
HETATM    4  C   UNL     1     -10.033   6.005  66.441  1.00  0.00    -0.093 A  
HETATM    5  C   UNL     1     -10.973   6.915  66.937  1.00  0.00    -0.328 A  
HETATM    6  C   UNL     1     -10.754   8.295  66.852  1.00  0.00    -0.179 A  
HETATM    7  C   UNL     1      -9.564   8.794  66.313  1.00  0.00    -0.328 A  
HETATM    8  C   UNL     1      -8.809   6.512  65.991  1.00  0.00    -0.154 A  
HETATM    9  C   UNL     1      -8.583   7.889  65.907  1.00  0.00    -0.171 A  
BRANCH   7  10
HETATM   10  C   UNL     1      -9.443  10.236  66.073  1.00  0.00    -0.234 C  
HETATM   11  C   UNL     1     -10.417  11.145  66.245  1.00  0.00    -0.312 C  
BRANCH  11  12
HETATM   12  C   UNL     1     -10.194  12.590  66.076  1.00  0.00    -0.269 A  
HETATM   13  C   UNL     1     -10.926  13.339  65.152  1.00  0.00    -0.314 A  
HETATM   14  C   UNL     1     -10.669  14.697  64.968  1.00  0.00    -0.448 A  
HETATM   15  C   UNL     1      -9.686  15.345  65.717  1.00  0.00    -0.350 A  
HETATM   16  C   UNL     1      -9.237  13.249  66.860  1.00  0.00    -0.242 A  
HETATM   17  C   UNL     1      -8.981  14.615  66.676  1.00  0.00    -0.267 A  
BRANCH  15  18
HETATM   18  O   UNL     1      -9.343  16.669  65.587  1.00  0.00    -0.502 OA 
BRANCH  18  19
HETATM   19  C   UNL     1      -7.994  16.967  65.947  1.00  0.00     0.057 C  
BRANCH  19  20
HETATM   20  C   UNL     1      -7.752  18.465  66.021  1.00  0.00    -0.165 C  
BRANCH  20  21
HETATM   21  O   UNL     1      -8.993  19.106  65.718  1.00  0.00    -0.384 OA 
BRANCH  21  22
HETATM   22  C   UNL     1      -9.349  20.077  66.696  1.00  0.00    -0.391 C  
BRANCH  22  23
HETATM   23  C   UNL     1     -10.387  19.481  67.642  1.00  0.00    -0.451 C  
BRANCH  23  24
HETATM   24  O   UNL     1      -9.723  18.979  68.800  1.00  0.00    -0.382 OA 
BRANCH  24  25
HETATM   25  C   UNL     1     -10.072  17.622  69.064  1.00  0.00    -0.300 C  
HETATM   26  C   UNL     1     -11.266  17.238  68.208  1.00  0.00     0.098 C  
HETATM   27  F   UNL     1     -11.602  15.945  68.456  1.00  0.00    -0.339 F  
ENDBRANCH  24  25
ENDBRANCH  23  24
ENDBRANCH  22  23
ENDBRANCH  21  22
ENDBRANCH  20  21
ENDBRANCH  19  20
ENDBRANCH  18  19
ENDBRANCH  15  18
ENDBRANCH  11  12
ENDBRANCH   7  10
ENDBRANCH   2   4
TORSDOF 11
ENDMDL
MODEL      116
REMARK 921   NORMALIZED FREE ENERGY PREDICTED BY IDOCK:   -4.34 KCAL/MOL
REMARK 922        TOTAL FREE ENERGY PREDICTED BY IDOCK:   -8.21 KCAL/MOL
REMARK 923 INTER-LIGAND FREE ENERGY PREDICTED BY IDOCK:   -6.57 KCAL/MOL
REMARK 924 INTRA-LIGAND FREE ENERGY PREDICTED BY IDOCK:   -1.64 KCAL/MOL
REMARK 927      BINDING AFFINITY PREDICTED BY RF-SCORE:    0.00 PKD
ROOT
HETATM    1  C   UNL     1      -8.976   2.760  65.999  1.00  0.00    -0.142 C  
HETATM    2  N   UNL     1      -9.547   3.814  65.172  1.00  0.00    -0.168 NA 
HETATM    3  H   UNL     1      -9.868   3.634  64.221  1.00  0.00     0.000 HD 
ENDROOT
BRANCH   2   4
HETATM    4  C   UNL     1      -9.632   5.091  65.749  1.00  0.00    -0.148 A  
HETATM    5  C   UNL     1     -10.643   5.348  66.683  1.00  0.00    -0.359 A  
HETATM    6  C   UNL     1     -10.792   6.617  67.253  1.00  0.00    -0.456 A  
HETATM    7  C   UNL     1      -9.900   7.647  66.939  1.00  0.00    -0.304 A  
HETATM    8  C   UNL     1      -8.691   6.099  65.515  1.00  0.00    -0.105 A  
HETATM    9  C   UNL     1      -8.832   7.369  66.084  1.00  0.00    -0.185 A  
BRANCH   7  10
HETATM   10  C   UNL     1     -10.188   9.006  67.409  1.00  0.00    -0.308 C  
HETATM   11  C   UNL     1     -10.758   9.983  66.684  1.00  0.00    -0.128 C  
BRANCH  11  12
HETATM   12  C   UNL     1     -11.104  11.295  67.252  1.00  0.00    -0.367 A  
HETATM   13  C   UNL     1     -10.983  11.555  68.619  1.00  0.00    -0.270 A  
HETATM   14  C   UNL     1     -11.363  12.787  69.149  1.00  0.00    -0.337 A  
HETATM   15  C   UNL     1     -11.856  13.798  68.324  1.00  0.00    -0.378 A  
HETATM   16  C   UNL     1     -11.558  12.324  66.416  1.00  0.00    -0.445 A  
HETATM   17  C   UNL     1     -11.938  13.564  66.950  1.00  0.00    -0.447 A  
BRANCH  15  18
HETATM   18  O   UNL     1     -12.281  15.031  68.758  1.00  0.00    -0.208 OA 
BRANCH  18  19
HETATM   19  C   UNL     1     -11.238  15.876  69.247  1.00  0.00    -0.335 C  
BRANCH  19  20
HETATM   20  C   UNL     1     -10.822  16.907  68.213  1.00  0.00    -0.357 C  
BRANCH  20  21
HETATM   21  O   UNL     1      -9.396  16.852  68.116  1.00  0.00    -0.229 OA 
BRANCH  21  22
HETATM   22  C   UNL     1      -8.819  16.058  69.148  1.00  0.00    -0.245 C  
BRANCH  22  23
HETATM   23  C   UNL     1      -7.576  15.359  68.608  1.00  0.00    -0.129 C  
BRANCH  23  24
HETATM   24  O   UNL     1      -7.812  14.978  67.253  1.00  0.00    -0.186 OA 
BRANCH  24  25
HETATM   25  C   UNL     1      -8.166  13.600  67.145  1.00  0.00    -0.107 C  
HETATM   26  C   UNL     1      -7.503  12.824  68.269  1.00  0.00    -0.124 C  
HETATM   27  F   UNL     1      -7.837  11.511  68.169  1.00  0.00    -0.103 F  
ENDBRANCH  24  25
ENDBRANCH  23  24
ENDBRANCH  22  23
ENDBRANCH  21  22
ENDBRANCH  20  21
ENDBRANCH  19  20
ENDBRANCH  18  19
ENDBRANCH  15  18
ENDBRANCH  11  12
ENDBRANCH   7  10
ENDBRANCH   2   4
TORSDOF 11
ENDMDL
MODEL      117
REMARK 921   NORMALIZED FREE ENERGY PREDICTED BY IDOCK:   -4.34 KCAL/MOL
REMARK 922        TOTAL FREE ENERGY PREDICTED BY IDOCK:   -8.20 KCAL/MOL
REMARK 923 INTER-LIGAND FREE ENERGY PREDICTED BY IDOCK:   -7.09 KCAL/MOL
REMARK 924 INTRA-LIGAND FREE ENERGY PREDICTED BY IDOCK:   -1.11 KCAL/MOL
REMARK 927      BINDING AFFINITY PREDICTED BY RF-SCORE:    0.00 PKD
ROOT
HETATM    1  C   UNL     1     -10.489   5.206  72.029  1.00  0.00    -0.215 C  
HETATM    2  N   UNL     1     -11.488   6.234  71.775  1.00  0.00    -0.292 NA 
HETATM    3  H   UNL     1     -12.406   6.211  72.219  1.00  0.00     0.000 HD 
ENDROOT
BRANCH   2   4
HETATM    4  C   UNL     1     -11.125   7.260  70.887  1.00  0.00    -0.261 A  
HETATM    5  C   UNL     1     -11.086   8.579  71.353  1.00  0.00    -0.328 A  
HETATM    6  C   UNL     1     -10.769   9.637  70.494  1.00  0.00    -0.374 A  
HETATM    7  C   UNL     1     -10.435   9.393  69.158  1.00  0.00    -0.230 A  
HETATM    8  C   UNL     1     -10.696   7.019  69.577  1.00  0.00    -0.263 A  
HETATM    9  C   UNL     1     -10.376   8.072  68.714  1.00  0.00    -0.223 A  
BRANCH   7  10
HETATM   10  C   UNL     1     -10.285  10.530  68.243  1.00  0.00    -0.185 C  
HETATM   11  C   UNL     1     -11.240  11.427  67.945  1.00  0.00    -0.352 C  
BRANCH  11  12
HETATM   12  C   UNL     1     -10.990  12.600  67.091  1.00  0.00    -0.296 A  
HETATM   13  C   UNL     1      -9.695  13.066  66.850  1.00  0.00    -0.238 A  
HETATM   14  C   UNL     1      -9.478  14.207  66.080  1.00  0.00    -0.229 A  
HETATM   15  C   UNL     1     -10.548  14.901  65.514  1.00  0.00    -0.357 A  
HETATM   16  C   UNL     1     -12.063  13.270  66.488  1.00  0.00    -0.435 A  
HETATM   17  C   UNL     1     -11.843  14.416  65.711  1.00  0.00    -0.365 A  
BRANCH  15  18
HETATM   18  O   UNL     1     -10.435  16.047  64.766  1.00  0.00    -0.564 OA 
BRANCH  18  19
HETATM   19  C   UNL     1     -11.126  17.175  65.305  1.00  0.00     0.168 C  
BRANCH  19  20
HETATM   20  C   UNL     1     -10.251  17.962  66.265  1.00  0.00    -0.363 C  
BRANCH  20  21
HETATM   21  O   UNL     1     -10.788  17.772  67.576  1.00  0.00    -0.344 OA 
BRANCH  21  22
HETATM   22  C   UNL     1      -9.927  18.284  68.588  1.00  0.00    -0.389 C  
BRANCH  22  23
HETATM   23  C   UNL     1      -8.552  18.556  67.988  1.00  0.00    -0.291 C  
BRANCH  23  24
HETATM   24  O   UNL     1      -7.591  17.729  68.641  1.00  0.00    -0.264 OA 
BRANCH  24  25
HETATM   25  C   UNL     1      -6.853  16.938  67.710  1.00  0.00    -0.141 C  
HETATM   26  C   UNL     1      -6.963  15.476  68.100  1.00  0.00    -0.122 C  
HETATM   27  F   UNL     1      -6.262  14.719  67.216  1.00  0.00    -0.135 F  
ENDBRANCH  24  25
ENDBRANCH  23  24
ENDBRANCH  22  23
ENDBRANCH  21  22
ENDBRANCH  20  21
ENDBRANCH  19  20
ENDBRANCH  18  19
ENDBRANCH  15  18
ENDBRANCH  11  12
ENDBRANCH   7  10
ENDBRANCH   2   4
TORSDOF 11
ENDMDL
MODEL      118
REMARK 921   NORMALIZED FREE ENERGY PREDICTED BY IDOCK:   -4.33 KCAL/MOL
REMARK 922        TOTAL FREE ENERGY PREDICTED BY IDOCK:   -8.19 KCAL/MOL
REMARK 923 INTER-LIGAND FREE ENERGY PREDICTED BY IDOCK:   -6.81 KCAL/MOL
REMARK 924 INTRA-LIGAND FREE ENERGY PREDICTED BY IDOCK:   -1.38 KCAL/MOL
REMARK 927      BINDING AFFINITY PREDICTED BY RF-SCORE:    0.00 PKD
ROOT
HETATM    1  C   UNL     1      -8.892   4.646  67.530  1.00  0.00    -0.105 C  
HETATM    2  N   UNL     1      -9.326   5.606  66.524  1.00  0.00    -0.145 NA 
HETATM    3  H   UNL     1      -9.605   5.311  65.589  1.00  0.00     0.000 HD 
ENDROOT
BRANCH   2   4
HETATM    4  C   UNL     1      -9.341   6.956  66.907  1.00  0.00    -0.148 A  
HETATM    5  C   UNL     1     -10.565   7.633  66.962  1.00  0.00    -0.406 A  
HETATM    6  C   UNL     1     -10.623   8.990  67.299  1.00  0.00    -0.301 A  
HETATM    7  C   UNL     1      -9.461   9.689  67.637  1.00  0.00    -0.155 A  
HETATM    8  C   UNL     1      -8.199   7.640  67.339  1.00  0.00    -0.116 A  
HETATM    9  C   UNL     1      -8.251   8.995  67.679  1.00  0.00    -0.109 A  
BRANCH   7  10
HETATM   10  C   UNL     1      -9.530  11.145  67.807  1.00  0.00    -0.173 C  
HETATM   11  C   UNL     1     -10.597  11.832  68.249  1.00  0.00    -0.236 C  
BRANCH  11  12
HETATM   12  C   UNL     1     -10.563  13.285  68.486  1.00  0.00    -0.270 A  
HETATM   13  C   UNL     1      -9.357  13.981  68.589  1.00  0.00    -0.130 A  
HETATM   14  C   UNL     1      -9.341  15.347  68.864  1.00  0.00    -0.218 A  
HETATM   15  C   UNL     1     -10.531  16.058  69.023  1.00  0.00    -0.246 A  
HETATM   16  C   UNL     1     -11.760  14.005  68.602  1.00  0.00    -0.389 A  
HETATM   17  C   UNL     1     -11.743  15.380  68.875  1.00  0.00    -0.377 A  
BRANCH  15  18
HETATM   18  O   UNL     1     -10.615  17.396  69.322  1.00  0.00    -0.302 OA 
BRANCH  18  19
HETATM   19  C   UNL     1      -9.760  18.230  68.539  1.00  0.00    -0.362 C  
BRANCH  19  20
HETATM   20  C   UNL     1     -10.525  19.381  67.910  1.00  0.00    -0.421 C  
BRANCH  20  21
HETATM   21  O   UNL     1     -11.011  18.921  66.646  1.00  0.00    -0.256 OA 
BRANCH  21  22
HETATM   22  C   UNL     1     -10.149  17.950  66.061  1.00  0.00    -0.253 C  
BRANCH  22  23
HETATM   23  C   UNL     1     -10.989  16.816  65.483  1.00  0.00    -0.031 C  
BRANCH  23  24
HETATM   24  O   UNL     1     -10.121  15.861  64.875  1.00  0.00    -0.412 OA 
BRANCH  24  25
HETATM   25  C   UNL     1     -10.535  14.523  65.142  1.00  0.00    -0.416 C  
HETATM   26  C   UNL     1     -12.052  14.459  65.134  1.00  0.00    -0.395 C  
HETATM   27  F   UNL     1     -12.451  13.185  65.388  1.00  0.00    -0.434 F  
ENDBRANCH  24  25
ENDBRANCH  23  24
ENDBRANCH  22  23
ENDBRANCH  21  22
ENDBRANCH  20  21
ENDBRANCH  19  20
ENDBRANCH  18  19
ENDBRANCH  15  18
ENDBRANCH  11  12
ENDBRANCH   7  10
ENDBRANCH   2   4
TORSDOF 11
ENDMDL
MODEL      119
REMARK 921   NORMALIZED FREE ENERGY PREDICTED BY IDOCK:   -4.31 KCAL/MOL
REMARK 922        TOTAL FREE ENERGY PREDICTED BY IDOCK:   -8.16 KCAL/MOL
REMARK 923 INTER-LIGAND FREE ENERGY PREDICTED BY IDOCK:   -7.41 KCAL/MOL
REMARK 924 INTRA-LIGAND FREE ENERGY PREDICTED BY IDOCK:   -0.74 KCAL/MOL
REMARK 927      BINDING AFFINITY PREDICTED BY RF-SCORE:    0.00 PKD
ROOT
HETATM    1  C   UNL     1     -13.271  16.015  73.335  1.00  0.00    -0.543 C  
HETATM    2  N   UNL     1     -13.890  15.433  72.153  1.00  0.00    -0.495 NA 
HETATM    3  H   UNL     1     -14.678  15.880  71.686  1.00  0.00     0.000 HD 
ENDROOT
BRANCH   2   4
HETATM    4  C   UNL     1     -13.347  14.224  71.688  1.00  0.00    -0.365 A  
HETATM    5  C   UNL     1     -12.407  14.257  70.651  1.00  0.00    -0.431 A  
HETATM    6  C   UNL     1     -11.870  13.075  70.129  1.00  0.00    -0.324 A  
HETATM    7  C   UNL     1     -12.225  11.834  70.666  1.00  0.00    -0.443 A  
HETATM    8  C   UNL     1     -13.622  12.987  72.280  1.00  0.00    -0.643 A  
HETATM    9  C   UNL     1     -13.086  11.802  71.764  1.00  0.00    -0.480 A  
BRANCH   7  10
HETATM   10  C   UNL     1     -11.788  10.611  69.983  1.00  0.00    -0.403 C  
HETATM   11  C   UNL     1     -10.846   9.761  70.424  1.00  0.00    -0.370 C  
BRANCH  11  12
HETATM   12  C   UNL     1     -10.527   8.501  69.732  1.00  0.00    -0.220 A  
HETATM   13  C   UNL     1     -11.125   7.294  70.098  1.00  0.00    -0.281 A  
HETATM   14  C   UNL     1     -10.775   6.102  69.467  1.00  0.00    -0.386 A  
HETATM   15  C   UNL     1      -9.831   6.089  68.439  1.00  0.00    -0.130 A  
HETATM   16  C   UNL     1      -9.611   8.497  68.671  1.00  0.00    -0.153 A  
HETATM   17  C   UNL     1      -9.261   7.298  68.034  1.00  0.00    -0.131 A  
BRANCH  15  18
HETATM   18  O   UNL     1      -9.402   4.963  67.778  1.00  0.00    -0.120 OA 
BRANCH  18  19
HETATM   19  C   UNL     1     -10.049   4.731  66.526  1.00  0.00    -0.257 C  
BRANCH  19  20
HETATM   20  C   UNL     1      -9.065   4.784  65.370  1.00  0.00    -0.154 C  
BRANCH  20  21
HETATM   21  O   UNL     1      -7.853   5.349  65.876  1.00  0.00    -0.100 OA 
BRANCH  21  22
HETATM   22  C   UNL     1      -6.954   5.713  64.833  1.00  0.00    -0.056 C  
BRANCH  22  23
HETATM   23  C   UNL     1      -7.596   6.797  63.972  1.00  0.00    -0.108 C  
BRANCH  23  24
HETATM   24  O   UNL     1      -7.390   8.064  64.594  1.00  0.00    -0.075 OA 
BRANCH  24  25
HETATM   25  C   UNL     1      -8.624   8.698  64.925  1.00  0.00    -0.135 C  
HETATM   26  C   UNL     1      -9.007   9.656  63.811  1.00  0.00    -0.217 C  
HETATM   27  F   UNL     1     -10.183  10.263  64.121  1.00  0.00    -0.393 F  
ENDBRANCH  24  25
ENDBRANCH  23  24
ENDBRANCH  22  23
ENDBRANCH  21  22
ENDBRANCH  20  21
ENDBRANCH  19  20
ENDBRANCH  18  19
ENDBRANCH  15  18
ENDBRANCH  11  12
ENDBRANCH   7  10
ENDBRANCH   2   4
TORSDOF 11
ENDMDL
MODEL      120
REMARK 921   NORMALIZED FREE ENERGY PREDICTED BY IDOCK:   -4.31 KCAL/MOL
REMARK 922        TOTAL FREE ENERGY PREDICTED BY IDOCK:   -8.16 KCAL/MOL
REMARK 923 INTER-LIGAND FREE ENERGY PREDICTED BY IDOCK:   -7.57 KCAL/MOL
REMARK 924 INTRA-LIGAND FREE ENERGY PREDICTED BY IDOCK:   -0.59 KCAL/MOL
REMARK 927      BINDING AFFINITY PREDICTED BY RF-SCORE:    0.00 PKD
ROOT
HETATM    1  C   UNL     1      -6.170  20.908  63.804  1.00  0.00    -0.291 C  
HETATM    2  N   UNL     1      -6.638  21.131  65.165  1.00  0.00    -0.493 NA 
HETATM    3  H   UNL     1      -6.578  22.047  65.608  1.00  0.00     0.000 HD 
ENDROOT
BRANCH   2   4
HETATM    4  C   UNL     1      -7.174  20.021  65.837  1.00  0.00    -0.309 A  
HETATM    5  C   UNL     1      -6.691  18.743  65.531  1.00  0.00    -0.285 A  
HETATM    6  C   UNL     1      -7.224  17.605  66.146  1.00  0.00    -0.352 A  
HETATM    7  C   UNL     1      -8.220  17.724  67.120  1.00  0.00    -0.233 A  
HETATM    8  C   UNL     1      -8.101  20.134  66.878  1.00  0.00    -0.360 A  
HETATM    9  C   UNL     1      -8.635  19.001  67.499  1.00  0.00    -0.311 A  
BRANCH   7  10
HETATM   10  C   UNL     1      -8.882  16.511  67.612  1.00  0.00    -0.195 C  
HETATM   11  C   UNL     1     -10.043  16.010  67.154  1.00  0.00    -0.270 C  
BRANCH  11  12
HETATM   12  C   UNL     1     -10.600  14.734  67.631  1.00  0.00    -0.262 A  
HETATM   13  C   UNL     1     -10.915  13.699  66.748  1.00  0.00    -0.297 A  
HETATM   14  C   UNL     1     -11.489  12.515  67.210  1.00  0.00    -0.416 A  
HETATM   15  C   UNL     1     -11.744  12.328  68.569  1.00  0.00    -0.331 A  
HETATM   16  C   UNL     1     -10.815  14.531  69.001  1.00  0.00    -0.265 A  
HETATM   17  C   UNL     1     -11.390  13.339  69.465  1.00  0.00    -0.236 A  
BRANCH  15  18
HETATM   18  O   UNL     1     -12.331  11.211  69.112  1.00  0.00    -0.438 OA 
BRANCH  18  19
HETATM   19  C   UNL     1     -11.426  10.344  69.798  1.00  0.00    -0.280 C  
BRANCH  19  20
HETATM   20  C   UNL     1     -10.297   9.883  68.893  1.00  0.00    -0.205 C  
BRANCH  20  21
HETATM   21  O   UNL     1     -10.437   8.469  68.735  1.00  0.00    -0.217 OA 
BRANCH  21  22
HETATM   22  C   UNL     1     -10.761   7.821  69.961  1.00  0.00    -0.244 C  
BRANCH  22  23
HETATM   23  C   UNL     1     -11.329   6.437  69.664  1.00  0.00    -0.412 C  
BRANCH  23  24
HETATM   24  O   UNL     1     -11.275   6.208  68.257  1.00  0.00    -0.323 OA 
BRANCH  24  25
HETATM   25  C   UNL     1     -10.403   5.127  67.930  1.00  0.00    -0.085 C  
HETATM   26  C   UNL     1     -10.493   4.846  66.441  1.00  0.00    -0.280 C  
HETATM   27  F   UNL     1      -9.664   3.817  66.125  1.00  0.00    -0.180 F  
ENDBRANCH  24  25
ENDBRANCH  23  24
ENDBRANCH  22  23
ENDBRANCH  21  22
ENDBRANCH  20  21
ENDBRANCH  19  20
ENDBRANCH  18  19
ENDBRANCH  15  18
ENDBRANCH  11  12
ENDBRANCH   7  10
ENDBRANCH   2   4
TORSDOF 11
ENDMDL
MODEL      121
REMARK 921   NORMALIZED FREE ENERGY PREDICTED BY IDOCK:   -4.29 KCAL/MOL
REMARK 922        TOTAL FREE ENERGY PREDICTED BY IDOCK:   -8.13 KCAL/MOL
REMARK 923 INTER-LIGAND FREE ENERGY PREDICTED BY IDOCK:   -6.61 KCAL/MOL
REMARK 924 INTRA-LIGAND FREE ENERGY PREDICTED BY IDOCK:   -1.52 KCAL/MOL
REMARK 927      BINDING AFFINITY PREDICTED BY RF-SCORE:    0.00 PKD
ROOT
HETATM    1  C   UNL     1     -11.928  15.715  64.207  1.00  0.00    -0.115 C  
HETATM    2  N   UNL     1     -12.322  14.381  63.776  1.00  0.00    -1.079 NA 
HETATM    3  H   UNL     1     -13.002  14.239  63.030  1.00  0.00     0.000 HD 
ENDROOT
BRANCH   2   4
HETATM    4  C   UNL     1     -11.718  13.300  64.439  1.00  0.00    -0.388 A  
HETATM    5  C   UNL     1     -10.947  12.396  63.699  1.00  0.00    -0.525 A  
HETATM    6  C   UNL     1     -10.360  11.282  64.310  1.00  0.00    -0.399 A  
HETATM    7  C   UNL     1     -10.490  11.075  65.687  1.00  0.00    -0.293 A  
HETATM    8  C   UNL     1     -11.761  13.136  65.827  1.00  0.00    -0.415 A  
HETATM    9  C   UNL     1     -11.174  12.027  66.444  1.00  0.00    -0.389 A  
BRANCH   7  10
HETATM   10  C   UNL     1     -10.020   9.811  66.264  1.00  0.00    -0.331 C  
HETATM   11  C   UNL     1     -10.718   9.023  67.099  1.00  0.00    -0.206 C  
BRANCH  11  12
HETATM   12  C   UNL     1     -10.219   7.718  67.563  1.00  0.00    -0.301 A  
HETATM   13  C   UNL     1     -11.005   6.871  68.346  1.00  0.00    -0.198 A  
HETATM   14  C   UNL     1     -10.500   5.661  68.820  1.00  0.00    -0.289 A  
HETATM   15  C   UNL     1      -9.201   5.258  68.506  1.00  0.00    -0.113 A  
HETATM   16  C   UNL     1      -8.930   7.295  67.210  1.00  0.00    -0.126 A  
HETATM   17  C   UNL     1      -8.423   6.077  67.685  1.00  0.00    -0.107 A  
BRANCH  15  18
HETATM   18  O   UNL     1      -8.609   4.100  68.949  1.00  0.00    -0.081 OA 
BRANCH  18  19
HETATM   19  C   UNL     1      -7.217   4.226  69.247  1.00  0.00    -0.051 C  
BRANCH  19  20
HETATM   20  C   UNL     1      -6.990   4.684  70.677  1.00  0.00    -0.037 C  
BRANCH  20  21
HETATM   21  O   UNL     1      -7.995   4.060  71.481  1.00  0.00    -0.073 OA 
BRANCH  21  22
HETATM   22  C   UNL     1      -8.318   4.834  72.632  1.00  0.00    -0.112 C  
BRANCH  22  23
HETATM   23  C   UNL     1      -9.330   5.908  72.247  1.00  0.00    -0.144 C  
BRANCH  23  24
HETATM   24  O   UNL     1      -8.694   7.184  72.305  1.00  0.00    -0.120 OA 
BRANCH  24  25
HETATM   25  C   UNL     1      -8.972   7.966  71.144  1.00  0.00    -0.138 C  
HETATM   26  C   UNL     1     -10.077   8.956  71.463  1.00  0.00    -0.324 C  
HETATM   27  F   UNL     1     -10.345   9.703  70.360  1.00  0.00    -0.253 F  
ENDBRANCH  24  25
ENDBRANCH  23  24
ENDBRANCH  22  23
ENDBRANCH  21  22
ENDBRANCH  20  21
ENDBRANCH  19  20
ENDBRANCH  18  19
ENDBRANCH  15  18
ENDBRANCH  11  12
ENDBRANCH   7  10
ENDBRANCH   2   4
TORSDOF 11
ENDMDL
MODEL      122
REMARK 921   NORMALIZED FREE ENERGY PREDICTED BY IDOCK:   -4.26 KCAL/MOL
REMARK 922        TOTAL FREE ENERGY PREDICTED BY IDOCK:   -8.07 KCAL/MOL
REMARK 923 INTER-LIGAND FREE ENERGY PREDICTED BY IDOCK:   -6.92 KCAL/MOL
REMARK 924 INTRA-LIGAND FREE ENERGY PREDICTED BY IDOCK:   -1.15 KCAL/MOL
REMARK 927      BINDING AFFINITY PREDICTED BY RF-SCORE:    0.00 PKD
ROOT
HETATM    1  C   UNL     1     -10.480  17.578  68.263  1.00  0.00    -0.383 C  
HETATM    2  N   UNL     1     -11.017  16.590  67.338  1.00  0.00    -0.192 NA 
HETATM    3  H   UNL     1     -11.181  16.810  66.356  1.00  0.00     0.000 HD 
ENDROOT
BRANCH   2   4
HETATM    4  C   UNL     1     -11.299  15.320  67.866  1.00  0.00    -0.334 A  
HETATM    5  C   UNL     1     -11.863  15.226  69.143  1.00  0.00    -0.345 A  
HETATM    6  C   UNL     1     -12.123  13.981  69.726  1.00  0.00    -0.405 A  
HETATM    7  C   UNL     1     -11.870  12.800  69.021  1.00  0.00    -0.344 A  
HETATM    8  C   UNL     1     -11.139  14.138  67.136  1.00  0.00    -0.315 A  
HETATM    9  C   UNL     1     -11.400  12.890  67.711  1.00  0.00    -0.343 A  
BRANCH   7  10
HETATM   10  C   UNL     1     -11.982  11.516  69.722  1.00  0.00    -0.415 C  
HETATM   11  C   UNL     1     -11.203  10.440  69.518  1.00  0.00    -0.325 C  
BRANCH  11  12
HETATM   12  C   UNL     1     -11.312   9.215  70.327  1.00  0.00    -0.217 A  
HETATM   13  C   UNL     1     -11.013   7.959  69.796  1.00  0.00    -0.148 A  
HETATM   14  C   UNL     1     -11.170   6.804  70.559  1.00  0.00    -0.370 A  
HETATM   15  C   UNL     1     -11.610   6.876  71.882  1.00  0.00    -0.286 A  
HETATM   16  C   UNL     1     -11.713   9.294  71.668  1.00  0.00    -0.462 A  
HETATM   17  C   UNL     1     -11.867   8.131  72.437  1.00  0.00    -0.448 A  
BRANCH  15  18
HETATM   18  O   UNL     1     -11.820   5.794  72.701  1.00  0.00    -0.278 OA 
BRANCH  18  19
HETATM   19  C   UNL     1     -10.925   5.711  73.811  1.00  0.00    -0.062 C  
BRANCH  19  20
HETATM   20  C   UNL     1      -9.475   5.685  73.361  1.00  0.00    -0.138 C  
BRANCH  20  21
HETATM   21  O   UNL     1      -8.708   6.337  74.376  1.00  0.00    -0.127 OA 
BRANCH  21  22
HETATM   22  C   UNL     1      -8.657   7.748  74.188  1.00  0.00    -0.254 C  
BRANCH  22  23
HETATM   23  C   UNL     1      -7.345   8.117  73.504  1.00  0.00    -0.145 C  
BRANCH  23  24
HETATM   24  O   UNL     1      -7.632   8.878  72.332  1.00  0.00    -0.351 OA 
BRANCH  24  25
HETATM   25  C   UNL     1      -7.436   8.114  71.143  1.00  0.00    -0.074 C  
HETATM   26  C   UNL     1      -7.692   8.997  69.935  1.00  0.00    -0.076 C  
HETATM   27  F   UNL     1      -7.506   8.273  68.800  1.00  0.00    -0.086 F  
ENDBRANCH  24  25
ENDBRANCH  23  24
ENDBRANCH  22  23
ENDBRANCH  21  22
ENDBRANCH  20  21
ENDBRANCH  19  20
ENDBRANCH  18  19
ENDBRANCH  15  18
ENDBRANCH  11  12
ENDBRANCH   7  10
ENDBRANCH   2   4
TORSDOF 11
ENDMDL
MODEL      123
REMARK 921   NORMALIZED FREE ENERGY PREDICTED BY IDOCK:   -4.24 KCAL/MOL
REMARK 922        TOTAL FREE ENERGY PREDICTED BY IDOCK:   -8.04 KCAL/MOL
REMARK 923 INTER-LIGAND FREE ENERGY PREDICTED BY IDOCK:   -7.00 KCAL/MOL
REMARK 924 INTRA-LIGAND FREE ENERGY PREDICTED BY IDOCK:   -1.03 KCAL/MOL
REMARK 927      BINDING AFFINITY PREDICTED BY RF-SCORE:    0.00 PKD
ROOT
HETATM    1  C   UNL     1     -10.204  17.535  68.691  1.00  0.00    -0.373 C  
HETATM    2  N   UNL     1     -11.055  16.700  67.855  1.00  0.00    -0.273 NA 
HETATM    3  H   UNL     1     -11.433  17.039  66.971  1.00  0.00     0.000 HD 
ENDROOT
BRANCH   2   4
HETATM    4  C   UNL     1     -11.329  15.407  68.328  1.00  0.00    -0.348 A  
HETATM    5  C   UNL     1     -11.839  15.251  69.622  1.00  0.00    -0.363 A  
HETATM    6  C   UNL     1     -12.088  13.979  70.149  1.00  0.00    -0.419 A  
HETATM    7  C   UNL     1     -11.880  12.834  69.373  1.00  0.00    -0.359 A  
HETATM    8  C   UNL     1     -11.215  14.263  67.530  1.00  0.00    -0.322 A  
HETATM    9  C   UNL     1     -11.466  12.989  68.050  1.00  0.00    -0.348 A  
BRANCH   7  10
HETATM   10  C   UNL     1     -11.977  11.516  70.010  1.00  0.00    -0.435 C  
HETATM   11  C   UNL     1     -11.224  10.444  69.712  1.00  0.00    -0.353 C  
BRANCH  11  12
HETATM   12  C   UNL     1     -11.312   9.179  70.460  1.00  0.00    -0.300 A  
HETATM   13  C   UNL     1     -11.067   7.949  69.846  1.00  0.00    -0.123 A  
HETATM   14  C   UNL     1     -11.204   6.757  70.555  1.00  0.00    -0.370 A  
HETATM   15  C   UNL     1     -11.569   6.764  71.902  1.00  0.00    -0.292 A  
HETATM   16  C   UNL     1     -11.637   9.192  71.823  1.00  0.00    -0.457 A  
HETATM   17  C   UNL     1     -11.771   7.992  72.536  1.00  0.00    -0.446 A  
BRANCH  15  18
HETATM   18  O   UNL     1     -11.755   5.643  72.673  1.00  0.00    -0.303 OA 
BRANCH  18  19
HETATM   19  C   UNL     1     -10.615   5.261  73.444  1.00  0.00    -0.257 C  
BRANCH  19  20
HETATM   20  C   UNL     1      -9.754   4.250  72.708  1.00  0.00    -0.135 C  
BRANCH  20  21
HETATM   21  O   UNL     1      -8.467   4.847  72.526  1.00  0.00    -0.117 OA 
BRANCH  21  22
HETATM   22  C   UNL     1      -8.081   4.884  71.156  1.00  0.00    -0.101 C  
BRANCH  22  23
HETATM   23  C   UNL     1      -8.811   3.779  70.398  1.00  0.00    -0.086 C  
BRANCH  23  24
HETATM   24  O   UNL     1      -8.412   3.816  69.029  1.00  0.00    -0.071 OA 
BRANCH  24  25
HETATM   25  C   UNL     1      -9.051   4.877  68.320  1.00  0.00    -0.114 C  
HETATM   26  C   UNL     1      -8.471   4.962  66.920  1.00  0.00    -0.106 C  
HETATM   27  F   UNL     1      -9.077   5.971  66.241  1.00  0.00    -0.135 F  
ENDBRANCH  24  25
ENDBRANCH  23  24
ENDBRANCH  22  23
ENDBRANCH  21  22
ENDBRANCH  20  21
ENDBRANCH  19  20
ENDBRANCH  18  19
ENDBRANCH  15  18
ENDBRANCH  11  12
ENDBRANCH   7  10
ENDBRANCH   2   4
TORSDOF 11
ENDMDL
MODEL      124
REMARK 921   NORMALIZED FREE ENERGY PREDICTED BY IDOCK:   -4.19 KCAL/MOL
REMARK 922        TOTAL FREE ENERGY PREDICTED BY IDOCK:   -7.96 KCAL/MOL
REMARK 923 INTER-LIGAND FREE ENERGY PREDICTED BY IDOCK:   -6.50 KCAL/MOL
REMARK 924 INTRA-LIGAND FREE ENERGY PREDICTED BY IDOCK:   -1.46 KCAL/MOL
REMARK 927      BINDING AFFINITY PREDICTED BY RF-SCORE:    0.00 PKD
ROOT
HETATM    1  C   UNL     1      -9.012   1.669  66.374  1.00  0.00    -0.087 C  
HETATM    2  N   UNL     1      -7.943   2.657  66.412  1.00  0.00    -0.080 NA 
HETATM    3  H   UNL     1      -6.963   2.383  66.484  1.00  0.00     0.000 HD 
ENDROOT
BRANCH   2   4
HETATM    4  C   UNL     1      -8.327   4.006  66.344  1.00  0.00    -0.105 A  
HETATM    5  C   UNL     1      -7.352   4.978  66.090  1.00  0.00    -0.078 A  
HETATM    6  C   UNL     1      -7.683   6.337  66.055  1.00  0.00    -0.092 A  
HETATM    7  C   UNL     1      -9.008   6.751  66.222  1.00  0.00    -0.170 A  
HETATM    8  C   UNL     1      -9.661   4.423  66.415  1.00  0.00    -0.205 A  
HETATM    9  C   UNL     1      -9.998   5.780  66.377  1.00  0.00    -0.173 A  
BRANCH   7  10
HETATM   10  C   UNL     1      -9.293   8.183  66.359  1.00  0.00    -0.269 C  
HETATM   11  C   UNL     1     -10.053   8.744  67.316  1.00  0.00    -0.301 C  
BRANCH  11  12
HETATM   12  C   UNL     1     -10.218  10.200  67.448  1.00  0.00    -0.267 A  
HETATM   13  C   UNL     1      -9.212  11.088  67.058  1.00  0.00    -0.164 A  
HETATM   14  C   UNL     1      -9.363  12.462  67.237  1.00  0.00    -0.184 A  
HETATM   15  C   UNL     1     -10.531  12.986  67.791  1.00  0.00    -0.228 A  
HETATM   16  C   UNL     1     -11.409  10.728  67.964  1.00  0.00    -0.378 A  
HETATM   17  C   UNL     1     -11.561  12.110  68.140  1.00  0.00    -0.397 A  
BRANCH  15  18
HETATM   18  O   UNL     1     -10.759  14.320  68.030  1.00  0.00    -0.233 OA 
BRANCH  18  19
HETATM   19  C   UNL     1     -11.498  14.986  67.005  1.00  0.00    -0.284 C  
BRANCH  19  20
HETATM   20  C   UNL     1     -10.583  15.736  66.053  1.00  0.00    -0.326 C  
BRANCH  20  21
HETATM   21  O   UNL     1     -10.953  15.352  64.726  1.00  0.00    -0.420 OA 
BRANCH  21  22
HETATM   22  C   UNL     1     -12.274  14.823  64.669  1.00  0.00    -0.393 C  
BRANCH  22  23
HETATM   23  C   UNL     1     -12.275  13.566  63.805  1.00  0.00    -0.388 C  
BRANCH  23  24
HETATM   24  O   UNL     1     -11.955  12.442  64.623  1.00  0.00    -0.369 OA 
BRANCH  24  25
HETATM   25  C   UNL     1     -11.177  11.477  63.917  1.00  0.00    -0.355 C  
HETATM   26  C   UNL     1      -9.915  12.139  63.396  1.00  0.00    -0.275 C  
HETATM   27  F   UNL     1      -9.171  11.223  62.721  1.00  0.00    -0.281 F  
ENDBRANCH  24  25
ENDBRANCH  23  24
ENDBRANCH  22  23
ENDBRANCH  21  22
ENDBRANCH  20  21
ENDBRANCH  19  20
ENDBRANCH  18  19
ENDBRANCH  15  18
ENDBRANCH  11  12
ENDBRANCH   7  10
ENDBRANCH   2   4
TORSDOF 11
ENDMDL
MODEL      125
REMARK 921   NORMALIZED FREE ENERGY PREDICTED BY IDOCK:   -4.18 KCAL/MOL
REMARK 922        TOTAL FREE ENERGY PREDICTED BY IDOCK:   -7.94 KCAL/MOL
REMARK 923 INTER-LIGAND FREE ENERGY PREDICTED BY IDOCK:   -6.48 KCAL/MOL
REMARK 924 INTRA-LIGAND FREE ENERGY PREDICTED BY IDOCK:   -1.46 KCAL/MOL
REMARK 927      BINDING AFFINITY PREDICTED BY RF-SCORE:    0.00 PKD
ROOT
HETATM    1  C   UNL     1      -6.662  19.463  68.994  1.00  0.00    -0.324 C  
HETATM    2  N   UNL     1      -7.393  19.002  67.822  1.00  0.00    -0.235 NA 
HETATM    3  H   UNL     1      -7.618  19.629  67.050  1.00  0.00     0.000 HD 
ENDROOT
BRANCH   2   4
HETATM    4  C   UNL     1      -7.773  17.650  67.809  1.00  0.00    -0.208 A  
HETATM    5  C   UNL     1      -7.853  16.955  69.021  1.00  0.00    -0.184 A  
HETATM    6  C   UNL     1      -8.188  15.597  69.052  1.00  0.00    -0.233 A  
HETATM    7  C   UNL     1      -8.499  14.914  67.872  1.00  0.00    -0.154 A  
HETATM    8  C   UNL     1      -8.178  16.983  66.648  1.00  0.00    -0.295 A  
HETATM    9  C   UNL     1      -8.517  15.626  66.672  1.00  0.00    -0.323 A  
BRANCH   7  10
HETATM   10  C   UNL     1      -8.668  13.458  67.916  1.00  0.00    -0.187 C  
HETATM   11  C   UNL     1      -9.468  12.736  67.113  1.00  0.00    -0.223 C  
BRANCH  11  12
HETATM   12  C   UNL     1      -9.514  11.265  67.152  1.00  0.00    -0.183 A  
HETATM   13  C   UNL     1     -10.462  10.544  66.421  1.00  0.00    -0.258 A  
HETATM   14  C   UNL     1     -10.525   9.155  66.508  1.00  0.00    -0.197 A  
HETATM   15  C   UNL     1      -9.629   8.448  67.311  1.00  0.00    -0.165 A  
HETATM   16  C   UNL     1      -8.587  10.555  67.925  1.00  0.00    -0.123 A  
HETATM   17  C   UNL     1      -8.649   9.156  68.009  1.00  0.00    -0.125 A  
BRANCH  15  18
HETATM   18  O   UNL     1      -9.632   7.085  67.481  1.00  0.00    -0.127 OA 
BRANCH  18  19
HETATM   19  C   UNL     1     -10.826   6.565  68.068  1.00  0.00    -0.295 C  
BRANCH  19  20
HETATM   20  C   UNL     1     -10.627   6.226  69.535  1.00  0.00    -0.271 C  
BRANCH  20  21
HETATM   21  O   UNL     1     -11.807   6.644  70.226  1.00  0.00    -0.395 OA 
BRANCH  21  22
HETATM   22  C   UNL     1     -11.601   6.737  71.632  1.00  0.00    -0.295 C  
BRANCH  22  23
HETATM   23  C   UNL     1     -12.451   7.874  72.190  1.00  0.00    -0.267 C  
BRANCH  23  24
HETATM   24  O   UNL     1     -11.689   9.079  72.160  1.00  0.00    -0.356 OA 
BRANCH  24  25
HETATM   25  C   UNL     1     -12.315  10.080  71.359  1.00  0.00    -0.415 C  
HETATM   26  C   UNL     1     -11.455  10.353  70.138  1.00  0.00    -0.319 C  
HETATM   27  F   UNL     1     -12.047  11.307  69.372  1.00  0.00    -0.327 F  
ENDBRANCH  24  25
ENDBRANCH  23  24
ENDBRANCH  22  23
ENDBRANCH  21  22
ENDBRANCH  20  21
ENDBRANCH  19  20
ENDBRANCH  18  19
ENDBRANCH  15  18
ENDBRANCH  11  12
ENDBRANCH   7  10
ENDBRANCH   2   4
TORSDOF 11
ENDMDL
MODEL      126
REMARK 921   NORMALIZED FREE ENERGY PREDICTED BY IDOCK:   -4.17 KCAL/MOL
REMARK 922        TOTAL FREE ENERGY PREDICTED BY IDOCK:   -7.93 KCAL/MOL
REMARK 923 INTER-LIGAND FREE ENERGY PREDICTED BY IDOCK:   -6.93 KCAL/MOL
REMARK 924 INTRA-LIGAND FREE ENERGY PREDICTED BY IDOCK:   -1.00 KCAL/MOL
REMARK 927      BINDING AFFINITY PREDICTED BY RF-SCORE:    0.00 PKD
ROOT
HETATM    1  C   UNL     1      -7.012  20.976  67.232  1.00  0.00    -0.364 C  
HETATM    2  N   UNL     1      -8.448  20.804  67.064  1.00  0.00    -0.566 NA 
HETATM    3  H   UNL     1      -9.061  21.592  66.857  1.00  0.00     0.000 HD 
ENDROOT
BRANCH   2   4
HETATM    4  C   UNL     1      -8.947  19.499  67.200  1.00  0.00    -0.303 A  
HETATM    5  C   UNL     1      -8.523  18.719  68.283  1.00  0.00    -0.357 A  
HETATM    6  C   UNL     1      -8.962  17.400  68.436  1.00  0.00    -0.277 A  
HETATM    7  C   UNL     1      -9.876  16.845  67.534  1.00  0.00    -0.260 A  
HETATM    8  C   UNL     1      -9.932  18.966  66.360  1.00  0.00    -0.435 A  
HETATM    9  C   UNL     1     -10.376  17.649  66.510  1.00  0.00    -0.337 A  
BRANCH   7  10
HETATM   10  C   UNL     1     -10.175  15.411  67.617  1.00  0.00    -0.246 C  
HETATM   11  C   UNL     1      -9.549  14.439  66.933  1.00  0.00    -0.263 C  
BRANCH  11  12
HETATM   12  C   UNL     1      -9.839  13.010  67.138  1.00  0.00    -0.230 A  
HETATM   13  C   UNL     1      -8.994  12.014  66.643  1.00  0.00    -0.204 A  
HETATM   14  C   UNL     1      -9.308  10.666  66.801  1.00  0.00    -0.179 A  
HETATM   15  C   UNL     1     -10.465  10.277  67.477  1.00  0.00    -0.244 A  
HETATM   16  C   UNL     1     -10.979  12.622  67.854  1.00  0.00    -0.262 A  
HETATM   17  C   UNL     1     -11.292  11.265  68.016  1.00  0.00    -0.372 A  
BRANCH  15  18
HETATM   18  O   UNL     1     -10.871   8.977  67.659  1.00  0.00    -0.219 OA 
BRANCH  18  19
HETATM   19  C   UNL     1     -10.699   8.485  68.989  1.00  0.00    -0.092 C  
BRANCH  19  20
HETATM   20  C   UNL     1     -10.156   7.067  68.995  1.00  0.00    -0.180 C  
BRANCH  20  21
HETATM   21  O   UNL     1      -8.729   7.164  68.997  1.00  0.00    -0.132 OA 
BRANCH  21  22
HETATM   22  C   UNL     1      -8.150   6.519  70.127  1.00  0.00    -0.121 C  
BRANCH  22  23
HETATM   23  C   UNL     1      -7.945   7.542  71.240  1.00  0.00    -0.095 C  
BRANCH  23  24
HETATM   24  O   UNL     1      -8.744   7.171  72.362  1.00  0.00    -0.123 OA 
BRANCH  24  25
HETATM   25  C   UNL     1      -9.771   8.127  72.621  1.00  0.00    -0.290 C  
HETATM   26  C   UNL     1     -11.112   7.420  72.666  1.00  0.00    -0.331 C  
HETATM   27  F   UNL     1     -12.093   8.327  72.912  1.00  0.00    -0.448 F  
ENDBRANCH  24  25
ENDBRANCH  23  24
ENDBRANCH  22  23
ENDBRANCH  21  22
ENDBRANCH  20  21
ENDBRANCH  19  20
ENDBRANCH  18  19
ENDBRANCH  15  18
ENDBRANCH  11  12
ENDBRANCH   7  10
ENDBRANCH   2   4
TORSDOF 11
ENDMDL
MODEL      127
REMARK 921   NORMALIZED FREE ENERGY PREDICTED BY IDOCK:   -4.15 KCAL/MOL
REMARK 922        TOTAL FREE ENERGY PREDICTED BY IDOCK:   -7.89 KCAL/MOL
REMARK 923 INTER-LIGAND FREE ENERGY PREDICTED BY IDOCK:   -6.89 KCAL/MOL
REMARK 924 INTRA-LIGAND FREE ENERGY PREDICTED BY IDOCK:   -1.00 KCAL/MOL
REMARK 927      BINDING AFFINITY PREDICTED BY RF-SCORE:    0.00 PKD
ROOT
HETATM    1  C   UNL     1     -12.221  13.214  63.353  1.00  0.00    -0.444 C  
HETATM    2  N   UNL     1     -11.069  12.328  63.448  1.00  0.00    -0.623 NA 
HETATM    3  H   UNL     1     -10.452  12.165  62.652  1.00  0.00     0.000 HD 
ENDROOT
BRANCH   2   4
HETATM    4  C   UNL     1     -10.850  11.710  64.689  1.00  0.00    -0.314 A  
HETATM    5  C   UNL     1     -10.172  10.486  64.728  1.00  0.00    -0.373 A  
HETATM    6  C   UNL     1      -9.967   9.814  65.938  1.00  0.00    -0.345 A  
HETATM    7  C   UNL     1     -10.393  10.377  67.145  1.00  0.00    -0.290 A  
HETATM    8  C   UNL     1     -11.186  12.307  65.909  1.00  0.00    -0.381 A  
HETATM    9  C   UNL     1     -10.981  11.642  67.122  1.00  0.00    -0.330 A  
BRANCH   7  10
HETATM   10  C   UNL     1     -10.327   9.571  68.369  1.00  0.00    -0.237 C  
HETATM   11  C   UNL     1     -10.591  10.008  69.612  1.00  0.00    -0.278 C  
BRANCH  11  12
HETATM   12  C   UNL     1     -10.597   9.117  70.783  1.00  0.00    -0.324 A  
HETATM   13  C   UNL     1     -11.739   8.404  71.154  1.00  0.00    -0.315 A  
HETATM   14  C   UNL     1     -11.744   7.603  72.294  1.00  0.00    -0.371 A  
HETATM   15  C   UNL     1     -10.600   7.478  73.083  1.00  0.00    -0.388 A  
HETATM   16  C   UNL     1      -9.434   8.958  71.550  1.00  0.00    -0.347 A  
HETATM   17  C   UNL     1      -9.439   8.150  72.695  1.00  0.00    -0.346 A  
BRANCH  15  18
HETATM   18  O   UNL     1     -10.517   6.737  74.237  1.00  0.00    -0.338 OA 
BRANCH  18  19
HETATM   19  C   UNL     1      -9.696   5.572  74.133  1.00  0.00    -0.168 C  
BRANCH  19  20
HETATM   20  C   UNL     1     -10.381   4.474  73.339  1.00  0.00    -0.183 C  
BRANCH  20  21
HETATM   21  O   UNL     1      -9.539   4.174  72.224  1.00  0.00    -0.130 OA 
BRANCH  21  22
HETATM   22  C   UNL     1      -8.158   4.320  72.540  1.00  0.00    -0.096 C  
BRANCH  22  23
HETATM   23  C   UNL     1      -7.457   5.055  71.402  1.00  0.00    -0.086 C  
BRANCH  23  24
HETATM   24  O   UNL     1      -8.176   4.827  70.192  1.00  0.00    -0.068 OA 
BRANCH  24  25
HETATM   25  C   UNL     1      -7.307   4.771  69.062  1.00  0.00    -0.053 C  
HETATM   26  C   UNL     1      -6.715   3.377  68.957  1.00  0.00    -0.037 C  
HETATM   27  F   UNL     1      -5.886   3.318  67.882  1.00  0.00    -0.022 F  
ENDBRANCH  24  25
ENDBRANCH  23  24
ENDBRANCH  22  23
ENDBRANCH  21  22
ENDBRANCH  20  21
ENDBRANCH  19  20
ENDBRANCH  18  19
ENDBRANCH  15  18
ENDBRANCH  11  12
ENDBRANCH   7  10
ENDBRANCH   2   4
TORSDOF 11
ENDMDL
MODEL      128
REMARK 921   NORMALIZED FREE ENERGY PREDICTED BY IDOCK:   -4.15 KCAL/MOL
REMARK 922        TOTAL FREE ENERGY PREDICTED BY IDOCK:   -7.89 KCAL/MOL
REMARK 923 INTER-LIGAND FREE ENERGY PREDICTED BY IDOCK:   -7.27 KCAL/MOL
REMARK 924 INTRA-LIGAND FREE ENERGY PREDICTED BY IDOCK:   -0.62 KCAL/MOL
REMARK 927      BINDING AFFINITY PREDICTED BY RF-SCORE:    0.00 PKD
ROOT
HETATM    1  C   UNL     1      -9.027   2.013  66.467  1.00  0.00    -0.096 C  
HETATM    2  N   UNL     1      -9.337   3.007  65.449  1.00  0.00    -0.243 NA 
HETATM    3  H   UNL     1      -9.472   2.748  64.472  1.00  0.00     0.000 HD 
ENDROOT
BRANCH   2   4
HETATM    4  C   UNL     1      -9.439   4.339  65.880  1.00  0.00    -0.176 A  
HETATM    5  C   UNL     1     -10.561   4.729  66.620  1.00  0.00    -0.109 A  
HETATM    6  C   UNL     1     -10.725   6.055  67.035  1.00  0.00    -0.412 A  
HETATM    7  C   UNL     1      -9.744   7.012  66.761  1.00  0.00    -0.241 A  
HETATM    8  C   UNL     1      -8.422   5.281  65.694  1.00  0.00    -0.135 A  
HETATM    9  C   UNL     1      -8.578   6.607  66.109  1.00  0.00    -0.148 A  
BRANCH   7  10
HETATM   10  C   UNL     1     -10.026   8.423  67.048  1.00  0.00    -0.323 C  
HETATM   11  C   UNL     1     -10.301   9.370  66.135  1.00  0.00    -0.162 C  
BRANCH  11  12
HETATM   12  C   UNL     1     -10.669  10.746  66.504  1.00  0.00    -0.245 A  
HETATM   13  C   UNL     1     -10.924  11.104  67.829  1.00  0.00    -0.315 A  
HETATM   14  C   UNL     1     -11.321  12.400  68.156  1.00  0.00    -0.341 A  
HETATM   15  C   UNL     1     -11.454  13.377  67.169  1.00  0.00    -0.339 A  
HETATM   16  C   UNL     1     -10.760  11.736  65.516  1.00  0.00    -0.329 A  
HETATM   17  C   UNL     1     -11.156  13.040  65.846  1.00  0.00    -0.303 A  
BRANCH  15  18
HETATM   18  O   UNL     1     -11.865  14.669  67.390  1.00  0.00    -0.385 OA 
BRANCH  18  19
HETATM   19  C   UNL     1     -12.023  15.010  68.768  1.00  0.00    -0.249 C  
BRANCH  19  20
HETATM   20  C   UNL     1     -11.533  16.419  69.056  1.00  0.00    -0.205 C  
BRANCH  20  21
HETATM   21  O   UNL     1     -10.108  16.355  69.156  1.00  0.00    -0.250 OA 
BRANCH  21  22
HETATM   22  C   UNL     1      -9.464  17.066  68.104  1.00  0.00    -0.262 C  
BRANCH  22  23
HETATM   23  C   UNL     1      -8.552  18.132  68.702  1.00  0.00    -0.267 C  
BRANCH  23  24
HETATM   24  O   UNL     1      -9.082  19.420  68.394  1.00  0.00    -0.336 OA 
BRANCH  24  25
HETATM   25  C   UNL     1     -10.268  19.330  67.606  1.00  0.00    -0.407 C  
HETATM   26  C   UNL     1     -10.029  19.998  66.265  1.00  0.00    -0.481 C  
HETATM   27  F   UNL     1     -11.156  19.915  65.511  1.00  0.00    -0.512 F  
ENDBRANCH  24  25
ENDBRANCH  23  24
ENDBRANCH  22  23
ENDBRANCH  21  22
ENDBRANCH  20  21
ENDBRANCH  19  20
ENDBRANCH  18  19
ENDBRANCH  15  18
ENDBRANCH  11  12
ENDBRANCH   7  10
ENDBRANCH   2   4
TORSDOF 11
ENDMDL
MODEL      129
REMARK 921   NORMALIZED FREE ENERGY PREDICTED BY IDOCK:   -4.14 KCAL/MOL
REMARK 922        TOTAL FREE ENERGY PREDICTED BY IDOCK:   -7.87 KCAL/MOL
REMARK 923 INTER-LIGAND FREE ENERGY PREDICTED BY IDOCK:   -6.98 KCAL/MOL
REMARK 924 INTRA-LIGAND FREE ENERGY PREDICTED BY IDOCK:   -0.89 KCAL/MOL
REMARK 927      BINDING AFFINITY PREDICTED BY RF-SCORE:    0.00 PKD
ROOT
HETATM    1  C   UNL     1      -8.502   3.141  70.768  1.00  0.00    -0.064 C  
HETATM    2  N   UNL     1      -9.846   3.671  70.587  1.00  0.00    -0.137 NA 
HETATM    3  H   UNL     1     -10.674   3.100  70.756  1.00  0.00     0.000 HD 
ENDROOT
BRANCH   2   4
HETATM    4  C   UNL     1      -9.946   5.008  70.169  1.00  0.00    -0.258 A  
HETATM    5  C   UNL     1     -10.330   5.983  71.097  1.00  0.00    -0.267 A  
HETATM    6  C   UNL     1     -10.482   7.320  70.715  1.00  0.00    -0.224 A  
HETATM    7  C   UNL     1     -10.204   7.722  69.405  1.00  0.00    -0.208 A  
HETATM    8  C   UNL     1      -9.579   5.436  68.888  1.00  0.00    -0.188 A  
HETATM    9  C   UNL     1      -9.726   6.772  68.501  1.00  0.00    -0.133 A  
BRANCH   7  10
HETATM   10  C   UNL     1     -10.544   9.088  68.992  1.00  0.00    -0.209 C  
HETATM   11  C   UNL     1     -10.974  10.068  69.804  1.00  0.00    -0.317 C  
BRANCH  11  12
HETATM   12  C   UNL     1     -11.206  11.444  69.334  1.00  0.00    -0.333 A  
HETATM   13  C   UNL     1     -11.845  12.392  70.136  1.00  0.00    -0.341 A  
HETATM   14  C   UNL     1     -12.102  13.676  69.658  1.00  0.00    -0.378 A  
HETATM   15  C   UNL     1     -11.709  14.052  68.373  1.00  0.00    -0.354 A  
HETATM   16  C   UNL     1     -10.772  11.832  68.059  1.00  0.00    -0.244 A  
HETATM   17  C   UNL     1     -11.028  13.125  67.581  1.00  0.00    -0.282 A  
BRANCH  15  18
HETATM   18  O   UNL     1     -11.942  15.282  67.807  1.00  0.00    -0.213 OA 
BRANCH  18  19
HETATM   19  C   UNL     1     -10.769  15.947  67.335  1.00  0.00    -0.313 C  
BRANCH  19  20
HETATM   20  C   UNL     1     -10.888  16.319  65.868  1.00  0.00    -0.139 C  
BRANCH  20  21
HETATM   21  O   UNL     1      -9.607  16.797  65.451  1.00  0.00    -0.461 OA 
BRANCH  21  22
HETATM   22  C   UNL     1      -8.557  16.309  66.280  1.00  0.00    -0.339 C  
BRANCH  22  23
HETATM   23  C   UNL     1      -7.567  17.437  66.553  1.00  0.00    -0.282 C  
BRANCH  23  24
HETATM   24  O   UNL     1      -8.213  18.687  66.316  1.00  0.00    -0.326 OA 
BRANCH  24  25
HETATM   25  C   UNL     1      -8.441  19.404  67.528  1.00  0.00    -0.292 C  
HETATM   26  C   UNL     1      -7.309  19.116  68.497  1.00  0.00    -0.313 C  
HETATM   27  F   UNL     1      -7.522  19.797  69.654  1.00  0.00    -0.367 F  
ENDBRANCH  24  25
ENDBRANCH  23  24
ENDBRANCH  22  23
ENDBRANCH  21  22
ENDBRANCH  20  21
ENDBRANCH  19  20
ENDBRANCH  18  19
ENDBRANCH  15  18
ENDBRANCH  11  12
ENDBRANCH   7  10
ENDBRANCH   2   4
TORSDOF 11
ENDMDL
MODEL      130
REMARK 921   NORMALIZED FREE ENERGY PREDICTED BY IDOCK:   -4.13 KCAL/MOL
REMARK 922        TOTAL FREE ENERGY PREDICTED BY IDOCK:   -7.86 KCAL/MOL
REMARK 923 INTER-LIGAND FREE ENERGY PREDICTED BY IDOCK:   -7.00 KCAL/MOL
REMARK 924 INTRA-LIGAND FREE ENERGY PREDICTED BY IDOCK:   -0.86 KCAL/MOL
REMARK 927      BINDING AFFINITY PREDICTED BY RF-SCORE:    0.00 PKD
ROOT
HETATM    1  C   UNL     1      -9.246   2.836  73.112  1.00  0.00    -0.089 C  
HETATM    2  N   UNL     1      -8.970   2.959  71.687  1.00  0.00    -0.080 NA 
HETATM    3  H   UNL     1      -8.503   2.216  71.167  1.00  0.00     0.000 HD 
ENDROOT
BRANCH   2   4
HETATM    4  C   UNL     1      -9.377   4.150  71.067  1.00  0.00    -0.149 A  
HETATM    5  C   UNL     1      -9.357   4.229  69.669  1.00  0.00    -0.235 A  
HETATM    6  C   UNL     1      -9.716   5.409  69.009  1.00  0.00    -0.208 A  
HETATM    7  C   UNL     1     -10.151   6.524  69.732  1.00  0.00    -0.207 A  
HETATM    8  C   UNL     1      -9.904   5.237  71.773  1.00  0.00    -0.222 A  
HETATM    9  C   UNL     1     -10.267   6.419  71.119  1.00  0.00    -0.224 A  
BRANCH   7  10
HETATM   10  C   UNL     1     -10.345   7.797  69.029  1.00  0.00    -0.219 C  
HETATM   11  C   UNL     1      -9.881   8.094  67.803  1.00  0.00    -0.209 C  
BRANCH  11  12
HETATM   12  C   UNL     1     -10.197   9.359  67.120  1.00  0.00    -0.319 A  
HETATM   13  C   UNL     1     -10.855  10.401  67.777  1.00  0.00    -0.351 A  
HETATM   14  C   UNL     1     -11.192  11.572  67.102  1.00  0.00    -0.365 A  
HETATM   15  C   UNL     1     -10.861  11.742  65.756  1.00  0.00    -0.291 A  
HETATM   16  C   UNL     1      -9.825   9.544  65.781  1.00  0.00    -0.363 A  
HETATM   17  C   UNL     1     -10.161  10.725  65.103  1.00  0.00    -0.365 A  
BRANCH  15  18
HETATM   18  O   UNL     1     -11.174  12.846  65.002  1.00  0.00    -0.284 OA 
BRANCH  18  19
HETATM   19  C   UNL     1     -12.098  13.742  65.622  1.00  0.00    -0.418 C  
BRANCH  19  20
HETATM   20  C   UNL     1     -11.425  15.036  66.045  1.00  0.00    -0.221 C  
BRANCH  20  21
HETATM   21  O   UNL     1     -11.837  15.304  67.388  1.00  0.00    -0.215 OA 
BRANCH  21  22
HETATM   22  C   UNL     1     -10.737  15.628  68.232  1.00  0.00    -0.283 C  
BRANCH  22  23
HETATM   23  C   UNL     1     -10.618  14.576  69.329  1.00  0.00    -0.212 C  
BRANCH  23  24
HETATM   24  O   UNL     1     -11.672  14.768  70.271  1.00  0.00    -0.268 OA 
BRANCH  24  25
HETATM   25  C   UNL     1     -11.172  15.111  71.562  1.00  0.00    -0.262 C  
HETATM   26  C   UNL     1     -12.083  16.149  72.191  1.00  0.00    -0.512 C  
HETATM   27  F   UNL     1     -11.611  16.479  73.421  1.00  0.00    -0.428 F  
ENDBRANCH  24  25
ENDBRANCH  23  24
ENDBRANCH  22  23
ENDBRANCH  21  22
ENDBRANCH  20  21
ENDBRANCH  19  20
ENDBRANCH  18  19
ENDBRANCH  15  18
ENDBRANCH  11  12
ENDBRANCH   7  10
ENDBRANCH   2   4
TORSDOF 11
ENDMDL
MODEL      131
REMARK 921   NORMALIZED FREE ENERGY PREDICTED BY IDOCK:   -4.12 KCAL/MOL
REMARK 922        TOTAL FREE ENERGY PREDICTED BY IDOCK:   -7.83 KCAL/MOL
REMARK 923 INTER-LIGAND FREE ENERGY PREDICTED BY IDOCK:   -7.07 KCAL/MOL
REMARK 924 INTRA-LIGAND FREE ENERGY PREDICTED BY IDOCK:   -0.77 KCAL/MOL
REMARK 927      BINDING AFFINITY PREDICTED BY RF-SCORE:    0.00 PKD
ROOT
HETATM    1  C   UNL     1      -8.812   1.712  72.809  1.00  0.00    -0.062 C  
HETATM    2  N   UNL     1      -9.510   1.998  71.564  1.00  0.00    -0.114 NA 
HETATM    3  H   UNL     1      -9.826   1.252  70.945  1.00  0.00     0.000 HD 
ENDROOT
BRANCH   2   4
HETATM    4  C   UNL     1      -9.725   3.351  71.258  1.00  0.00    -0.157 A  
HETATM    5  C   UNL     1      -9.900   4.264  72.304  1.00  0.00    -0.227 A  
HETATM    6  C   UNL     1     -10.158   5.615  72.046  1.00  0.00    -0.230 A  
HETATM    7  C   UNL     1     -10.197   6.093  70.732  1.00  0.00    -0.249 A  
HETATM    8  C   UNL     1      -9.672   3.856  69.955  1.00  0.00    -0.235 A  
HETATM    9  C   UNL     1      -9.926   5.206  69.690  1.00  0.00    -0.313 A  
BRANCH   7  10
HETATM   10  C   UNL     1     -10.646   7.468  70.489  1.00  0.00    -0.232 C  
HETATM   11  C   UNL     1     -11.523   8.152  71.243  1.00  0.00    -0.299 C  
BRANCH  11  12
HETATM   12  C   UNL     1     -11.854   9.564  70.993  1.00  0.00    -0.408 A  
HETATM   13  C   UNL     1     -11.269  10.277  69.944  1.00  0.00    -0.360 A  
HETATM   14  C   UNL     1     -11.556  11.627  69.751  1.00  0.00    -0.389 A  
HETATM   15  C   UNL     1     -12.450  12.295  70.588  1.00  0.00    -0.236 A  
HETATM   16  C   UNL     1     -12.786  10.221  71.808  1.00  0.00    -0.535 A  
HETATM   17  C   UNL     1     -13.076  11.578  71.611  1.00  0.00    -0.478 A  
BRANCH  15  18
HETATM   18  O   UNL     1     -12.773  13.627  70.493  1.00  0.00    -0.277 OA 
BRANCH  18  19
HETATM   19  C   UNL     1     -11.761  14.438  69.895  1.00  0.00    -0.303 C  
BRANCH  19  20
HETATM   20  C   UNL     1     -12.357  15.494  68.980  1.00  0.00     0.016 C  
BRANCH  20  21
HETATM   21  O   UNL     1     -11.335  15.871  68.054  1.00  0.00    -0.342 OA 
BRANCH  21  22
HETATM   22  C   UNL     1     -10.701  14.740  67.465  1.00  0.00    -0.269 C  
BRANCH  22  23
HETATM   23  C   UNL     1     -10.090  15.147  66.127  1.00  0.00    -0.295 C  
BRANCH  23  24
HETATM   24  O   UNL     1     -10.989  14.786  65.080  1.00  0.00    -0.344 OA 
BRANCH  24  25
HETATM   25  C   UNL     1     -11.256  13.385  65.071  1.00  0.00    -0.317 C  
HETATM   26  C   UNL     1      -9.950  12.629  64.913  1.00  0.00    -0.146 C  
HETATM   27  F   UNL     1     -10.200  11.293  64.904  1.00  0.00    -0.268 F  
ENDBRANCH  24  25
ENDBRANCH  23  24
ENDBRANCH  22  23
ENDBRANCH  21  22
ENDBRANCH  20  21
ENDBRANCH  19  20
ENDBRANCH  18  19
ENDBRANCH  15  18
ENDBRANCH  11  12
ENDBRANCH   7  10
ENDBRANCH   2   4
TORSDOF 11
ENDMDL
MODEL      132
REMARK 921   NORMALIZED FREE ENERGY PREDICTED BY IDOCK:   -4.11 KCAL/MOL
REMARK 922        TOTAL FREE ENERGY PREDICTED BY IDOCK:   -7.83 KCAL/MOL
REMARK 923 INTER-LIGAND FREE ENERGY PREDICTED BY IDOCK:   -6.81 KCAL/MOL
REMARK 924 INTRA-LIGAND FREE ENERGY PREDICTED BY IDOCK:   -1.02 KCAL/MOL
REMARK 927      BINDING AFFINITY PREDICTED BY RF-SCORE:    0.00 PKD
ROOT
HETATM    1  C   UNL     1     -10.852   5.683  67.206  1.00  0.00    -0.124 C  
HETATM    2  N   UNL     1     -11.196   6.854  68.000  1.00  0.00    -0.545 NA 
HETATM    3  H   UNL     1     -11.900   6.813  68.737  1.00  0.00     0.000 HD 
ENDROOT
BRANCH   2   4
HETATM    4  C   UNL     1     -10.511   8.042  67.702  1.00  0.00    -0.232 A  
HETATM    5  C   UNL     1     -10.262   8.960  68.730  1.00  0.00    -0.224 A  
HETATM    6  C   UNL     1      -9.619  10.175  68.470  1.00  0.00    -0.158 A  
HETATM    7  C   UNL     1      -9.164  10.478  67.183  1.00  0.00    -0.158 A  
HETATM    8  C   UNL     1      -9.968   8.314  66.441  1.00  0.00    -0.264 A  
HETATM    9  C   UNL     1      -9.321   9.526  66.176  1.00  0.00    -0.254 A  
BRANCH   7  10
HETATM   10  C   UNL     1      -8.659  11.828  66.908  1.00  0.00    -0.177 C  
HETATM   11  C   UNL     1      -9.359  12.968  67.034  1.00  0.00    -0.236 C  
BRANCH  11  12
HETATM   12  C   UNL     1      -8.757  14.296  66.831  1.00  0.00    -0.202 A  
HETATM   13  C   UNL     1      -7.553  14.654  67.442  1.00  0.00    -0.218 A  
HETATM   14  C   UNL     1      -7.022  15.932  67.281  1.00  0.00    -0.241 A  
HETATM   15  C   UNL     1      -7.670  16.880  66.488  1.00  0.00    -0.291 A  
HETATM   16  C   UNL     1      -9.387  15.232  66.000  1.00  0.00    -0.346 A  
HETATM   17  C   UNL     1      -8.850  16.517  65.836  1.00  0.00    -0.148 A  
BRANCH  15  18
HETATM   18  O   UNL     1      -7.239  18.170  66.293  1.00  0.00    -0.226 OA 
BRANCH  18  19
HETATM   19  C   UNL     1      -7.071  18.924  67.494  1.00  0.00    -0.206 C  
BRANCH  19  20
HETATM   20  C   UNL     1      -8.278  18.802  68.406  1.00  0.00    -0.341 C  
BRANCH  20  21
HETATM   21  O   UNL     1      -9.307  19.626  67.854  1.00  0.00    -0.319 OA 
BRANCH  21  22
HETATM   22  C   UNL     1     -10.599  19.045  68.004  1.00  0.00    -0.305 C  
BRANCH  22  23
HETATM   23  C   UNL     1     -10.486  17.779  68.847  1.00  0.00    -0.211 C  
BRANCH  23  24
HETATM   24  O   UNL     1     -11.264  16.749  68.240  1.00  0.00    -0.333 OA 
BRANCH  24  25
HETATM   25  C   UNL     1     -11.614  15.730  69.175  1.00  0.00    -0.392 C  
HETATM   26  C   UNL     1     -10.985  16.048  70.519  1.00  0.00    -0.306 C  
HETATM   27  F   UNL     1     -11.316  15.080  71.413  1.00  0.00    -0.355 F  
ENDBRANCH  24  25
ENDBRANCH  23  24
ENDBRANCH  22  23
ENDBRANCH  21  22
ENDBRANCH  20  21
ENDBRANCH  19  20
ENDBRANCH  18  19
ENDBRANCH  15  18
ENDBRANCH  11  12
ENDBRANCH   7  10
ENDBRANCH   2   4
TORSDOF 11
ENDMDL
MODEL      133
REMARK 921   NORMALIZED FREE ENERGY PREDICTED BY IDOCK:   -4.10 KCAL/MOL
REMARK 922        TOTAL FREE ENERGY PREDICTED BY IDOCK:   -7.82 KCAL/MOL
REMARK 923 INTER-LIGAND FREE ENERGY PREDICTED BY IDOCK:   -7.54 KCAL/MOL
REMARK 924 INTRA-LIGAND FREE ENERGY PREDICTED BY IDOCK:   -0.27 KCAL/MOL
REMARK 927      BINDING AFFINITY PREDICTED BY RF-SCORE:    0.00 PKD
ROOT
HETATM    1  C   UNL     1      -6.063   4.497  69.141  1.00  0.00    -0.026 C  
HETATM    2  N   UNL     1      -6.804   4.364  67.895  1.00  0.00    -0.054 NA 
HETATM    3  H   UNL     1      -6.858   3.476  67.396  1.00  0.00     0.000 HD 
ENDROOT
BRANCH   2   4
HETATM    4  C   UNL     1      -7.442   5.519  67.415  1.00  0.00    -0.084 A  
HETATM    5  C   UNL     1      -8.821   5.664  67.609  1.00  0.00    -0.105 A  
HETATM    6  C   UNL     1      -9.504   6.779  67.112  1.00  0.00    -0.167 A  
HETATM    7  C   UNL     1      -8.814   7.801  66.451  1.00  0.00    -0.180 A  
HETATM    8  C   UNL     1      -6.749   6.589  66.838  1.00  0.00    -0.060 A  
HETATM    9  C   UNL     1      -7.426   7.708  66.342  1.00  0.00    -0.084 A  
BRANCH   7  10
HETATM   10  C   UNL     1      -9.579   8.861  65.787  1.00  0.00    -0.245 C  
HETATM   11  C   UNL     1     -10.079   9.958  66.381  1.00  0.00    -0.308 C  
BRANCH  11  12
HETATM   12  C   UNL     1     -10.755  11.030  65.632  1.00  0.00    -0.217 A  
HETATM   13  C   UNL     1     -10.570  11.189  64.257  1.00  0.00    -0.425 A  
HETATM   14  C   UNL     1     -11.177  12.239  63.571  1.00  0.00    -0.535 A  
HETATM   15  C   UNL     1     -12.002  13.146  64.238  1.00  0.00    -0.411 A  
HETATM   16  C   UNL     1     -11.617  11.913  66.296  1.00  0.00    -0.317 A  
HETATM   17  C   UNL     1     -12.231  12.967  65.604  1.00  0.00    -0.521 A  
BRANCH  15  18
HETATM   18  O   UNL     1     -12.620  14.225  63.654  1.00  0.00    -0.831 OA 
BRANCH  18  19
HETATM   19  C   UNL     1     -12.286  15.484  64.239  1.00  0.00     0.004 C  
BRANCH  19  20
HETATM   20  C   UNL     1     -10.855  15.504  64.748  1.00  0.00    -0.363 C  
BRANCH  20  21
HETATM   21  O   UNL     1     -10.562  16.852  65.124  1.00  0.00    -0.679 OA 
BRANCH  21  22
HETATM   22  C   UNL     1      -9.924  16.927  66.395  1.00  0.00    -0.309 C  
BRANCH  22  23
HETATM   23  C   UNL     1     -10.777  16.203  67.430  1.00  0.00    -0.291 C  
BRANCH  23  24
HETATM   24  O   UNL     1     -10.896  17.026  68.589  1.00  0.00    -0.338 OA 
BRANCH  24  25
HETATM   25  C   UNL     1     -10.965  16.250  69.785  1.00  0.00    -0.354 C  
HETATM   26  C   UNL     1     -11.611  14.912  69.474  1.00  0.00    -0.303 C  
HETATM   27  F   UNL     1     -11.680  14.170  70.611  1.00  0.00    -0.339 F  
ENDBRANCH  24  25
ENDBRANCH  23  24
ENDBRANCH  22  23
ENDBRANCH  21  22
ENDBRANCH  20  21
ENDBRANCH  19  20
ENDBRANCH  18  19
ENDBRANCH  15  18
ENDBRANCH  11  12
ENDBRANCH   7  10
ENDBRANCH   2   4
TORSDOF 11
ENDMDL
MODEL      134
REMARK 921   NORMALIZED FREE ENERGY PREDICTED BY IDOCK:   -4.06 KCAL/MOL
REMARK 922        TOTAL FREE ENERGY PREDICTED BY IDOCK:   -7.75 KCAL/MOL
REMARK 923 INTER-LIGAND FREE ENERGY PREDICTED BY IDOCK:   -6.71 KCAL/MOL
REMARK 924 INTRA-LIGAND FREE ENERGY PREDICTED BY IDOCK:   -1.03 KCAL/MOL
REMARK 927      BINDING AFFINITY PREDICTED BY RF-SCORE:    0.00 PKD
ROOT
HETATM    1  C   UNL     1     -10.074  20.040  66.360  1.00  0.00    -0.487 C  
HETATM    2  N   UNL     1     -10.774  19.202  67.324  1.00  0.00    -0.482 NA 
HETATM    3  H   UNL     1     -11.426  19.597  68.002  1.00  0.00     0.000 HD 
ENDROOT
BRANCH   2   4
HETATM    4  C   UNL     1     -10.507  17.825  67.273  1.00  0.00    -0.353 A  
HETATM    5  C   UNL     1      -9.949  17.284  66.109  1.00  0.00    -0.288 A  
HETATM    6  C   UNL     1      -9.704  15.911  65.999  1.00  0.00    -0.375 A  
HETATM    7  C   UNL     1      -9.966  15.053  67.072  1.00  0.00    -0.242 A  
HETATM    8  C   UNL     1     -10.676  16.974  68.371  1.00  0.00    -0.361 A  
HETATM    9  C   UNL     1     -10.430  15.601  68.268  1.00  0.00    -0.252 A  
BRANCH   7  10
HETATM   10  C   UNL     1      -9.870  13.604  66.864  1.00  0.00    -0.261 C  
HETATM   11  C   UNL     1     -10.193  12.660  67.763  1.00  0.00    -0.222 C  
BRANCH  11  12
HETATM   12  C   UNL     1     -10.161  11.222  67.451  1.00  0.00    -0.217 A  
HETATM   13  C   UNL     1      -9.669  10.749  66.233  1.00  0.00    -0.248 A  
HETATM   14  C   UNL     1      -9.693   9.388  65.932  1.00  0.00    -0.355 A  
HETATM   15  C   UNL     1     -10.191   8.462  66.850  1.00  0.00    -0.313 A  
HETATM   16  C   UNL     1     -10.621  10.290  68.392  1.00  0.00    -0.247 A  
HETATM   17  C   UNL     1     -10.642   8.921  68.089  1.00  0.00    -0.211 A  
BRANCH  15  18
HETATM   18  O   UNL     1     -10.280   7.109  66.632  1.00  0.00    -0.217 OA 
BRANCH  18  19
HETATM   19  C   UNL     1      -9.914   6.305  67.755  1.00  0.00    -0.127 C  
BRANCH  19  20
HETATM   20  C   UNL     1      -8.483   5.809  67.646  1.00  0.00    -0.103 C  
BRANCH  20  21
HETATM   21  O   UNL     1      -8.001   5.624  68.979  1.00  0.00    -0.094 OA 
BRANCH  21  22
HETATM   22  C   UNL     1      -8.003   6.837  69.725  1.00  0.00    -0.124 C  
BRANCH  22  23
HETATM   23  C   UNL     1      -8.307   6.529  71.187  1.00  0.00    -0.122 C  
BRANCH  23  24
HETATM   24  O   UNL     1      -9.213   7.510  71.688  1.00  0.00    -0.134 OA 
BRANCH  24  25
HETATM   25  C   UNL     1     -10.349   6.912  72.312  1.00  0.00    -0.196 C  
HETATM   26  C   UNL     1     -11.498   6.871  71.321  1.00  0.00    -0.296 C  
HETATM   27  F   UNL     1     -12.582   6.302  71.912  1.00  0.00    -0.386 F  
ENDBRANCH  24  25
ENDBRANCH  23  24
ENDBRANCH  22  23
ENDBRANCH  21  22
ENDBRANCH  20  21
ENDBRANCH  19  20
ENDBRANCH  18  19
ENDBRANCH  15  18
ENDBRANCH  11  12
ENDBRANCH   7  10
ENDBRANCH   2   4
TORSDOF 11
ENDMDL
MODEL      135
REMARK 921   NORMALIZED FREE ENERGY PREDICTED BY IDOCK:   -4.05 KCAL/MOL
REMARK 922        TOTAL FREE ENERGY PREDICTED BY IDOCK:   -7.73 KCAL/MOL
REMARK 923 INTER-LIGAND FREE ENERGY PREDICTED BY IDOCK:   -6.75 KCAL/MOL
REMARK 924 INTRA-LIGAND FREE ENERGY PREDICTED BY IDOCK:   -0.98 KCAL/MOL
REMARK 927      BINDING AFFINITY PREDICTED BY RF-SCORE:    0.00 PKD
ROOT
HETATM    1  C   UNL     1     -13.083  15.822  73.180  1.00  0.00    -0.564 C  
HETATM    2  N   UNL     1     -13.916  15.049  72.270  1.00  0.00    -0.473 NA 
HETATM    3  H   UNL     1     -14.864  15.342  72.033  1.00  0.00     0.000 HD 
ENDROOT
BRANCH   2   4
HETATM    4  C   UNL     1     -13.350  13.881  71.735  1.00  0.00    -0.381 A  
HETATM    5  C   UNL     1     -12.491  13.986  70.634  1.00  0.00    -0.435 A  
HETATM    6  C   UNL     1     -11.936  12.845  70.043  1.00  0.00    -0.380 A  
HETATM    7  C   UNL     1     -12.189  11.575  70.572  1.00  0.00    -0.469 A  
HETATM    8  C   UNL     1     -13.519  12.618  72.312  1.00  0.00    -0.541 A  
HETATM    9  C   UNL     1     -12.965  11.474  71.727  1.00  0.00    -0.500 A  
BRANCH   7  10
HETATM   10  C   UNL     1     -11.744  10.393  69.826  1.00  0.00    -0.310 C  
HETATM   11  C   UNL     1     -10.916  10.399  68.768  1.00  0.00    -0.287 C  
BRANCH  11  12
HETATM   12  C   UNL     1     -10.436   9.164  68.128  1.00  0.00    -0.260 A  
HETATM   13  C   UNL     1      -9.939   9.162  66.822  1.00  0.00    -0.322 A  
HETATM   14  C   UNL     1      -9.534   7.976  66.213  1.00  0.00    -0.241 A  
HETATM   15  C   UNL     1      -9.597   6.763  66.899  1.00  0.00    -0.160 A  
HETATM   16  C   UNL     1     -10.459   7.953  68.834  1.00  0.00    -0.205 A  
HETATM   17  C   UNL     1     -10.049   6.761  68.221  1.00  0.00    -0.173 A  
BRANCH  15  18
HETATM   18  O   UNL     1      -9.249   5.542  66.374  1.00  0.00    -0.140 OA 
BRANCH  18  19
HETATM   19  C   UNL     1      -9.427   4.442  67.267  1.00  0.00    -0.171 C  
BRANCH  19  20
HETATM   20  C   UNL     1      -8.112   3.745  67.566  1.00  0.00    -0.090 C  
BRANCH  20  21
HETATM   21  O   UNL     1      -7.129   4.314  66.698  1.00  0.00    -0.061 OA 
BRANCH  21  22
HETATM   22  C   UNL     1      -6.519   3.334  65.863  1.00  0.00    -0.033 C  
BRANCH  22  23
HETATM   23  C   UNL     1      -7.108   3.433  64.460  1.00  0.00    -0.057 C  
BRANCH  23  24
HETATM   24  O   UNL     1      -7.668   2.171  64.103  1.00  0.00    -0.062 OA 
BRANCH  24  25
HETATM   25  C   UNL     1      -9.076   2.133  64.329  1.00  0.00    -0.116 C  
HETATM   26  C   UNL     1      -9.797   2.552  63.061  1.00  0.00    -0.096 C  
HETATM   27  F   UNL     1     -11.139   2.518  63.272  1.00  0.00    -0.220 F  
ENDBRANCH  24  25
ENDBRANCH  23  24
ENDBRANCH  22  23
ENDBRANCH  21  22
ENDBRANCH  20  21
ENDBRANCH  19  20
ENDBRANCH  18  19
ENDBRANCH  15  18
ENDBRANCH  11  12
ENDBRANCH   7  10
ENDBRANCH   2   4
TORSDOF 11
ENDMDL
MODEL      136
REMARK 921   NORMALIZED FREE ENERGY PREDICTED BY IDOCK:   -4.05 KCAL/MOL
REMARK 922        TOTAL FREE ENERGY PREDICTED BY IDOCK:   -7.72 KCAL/MOL
REMARK 923 INTER-LIGAND FREE ENERGY PREDICTED BY IDOCK:   -6.80 KCAL/MOL
REMARK 924 INTRA-LIGAND FREE ENERGY PREDICTED BY IDOCK:   -0.92 KCAL/MOL
REMARK 927      BINDING AFFINITY PREDICTED BY RF-SCORE:    0.00 PKD
ROOT
HETATM    1  C   UNL     1     -10.900  20.085  65.480  1.00  0.00    -0.074 C  
HETATM    2  N   UNL     1     -10.141  19.679  66.654  1.00  0.00    -0.406 NA 
HETATM    3  H   UNL     1      -9.569  20.342  67.177  1.00  0.00     0.000 HD 
ENDROOT
BRANCH   2   4
HETATM    4  C   UNL     1     -10.233  18.330  67.029  1.00  0.00    -0.378 A  
HETATM    5  C   UNL     1     -10.286  18.005  68.390  1.00  0.00    -0.377 A  
HETATM    6  C   UNL     1     -10.338  16.672  68.811  1.00  0.00    -0.301 A  
HETATM    7  C   UNL     1     -10.388  15.633  67.877  1.00  0.00    -0.259 A  
HETATM    8  C   UNL     1     -10.380  17.289  66.106  1.00  0.00    -0.320 A  
HETATM    9  C   UNL     1     -10.435  15.954  66.521  1.00  0.00    -0.305 A  
BRANCH   7  10
HETATM   10  C   UNL     1     -10.259  14.249  68.346  1.00  0.00    -0.245 C  
HETATM   11  C   UNL     1     -10.987  13.204  67.916  1.00  0.00    -0.271 C  
BRANCH  11  12
HETATM   12  C   UNL     1     -10.737  11.824  68.363  1.00  0.00    -0.249 A  
HETATM   13  C   UNL     1     -11.249  11.342  69.570  1.00  0.00    -0.337 A  
HETATM   14  C   UNL     1     -10.961  10.049  70.003  1.00  0.00    -0.352 A  
HETATM   15  C   UNL     1     -10.170   9.197  69.232  1.00  0.00    -0.210 A  
HETATM   16  C   UNL     1      -9.978  10.956  67.567  1.00  0.00    -0.201 A  
HETATM   17  C   UNL     1      -9.691   9.654  68.002  1.00  0.00    -0.167 A  
BRANCH  15  18
HETATM   18  O   UNL     1      -9.811   7.920  69.588  1.00  0.00    -0.176 OA 
BRANCH  18  19
HETATM   19  C   UNL     1     -10.457   6.893  68.834  1.00  0.00    -0.208 C  
BRANCH  19  20
HETATM   20  C   UNL     1     -11.160   5.894  69.737  1.00  0.00    -0.352 C  
BRANCH  20  21
HETATM   21  O   UNL     1     -12.265   6.576  70.336  1.00  0.00    -0.306 OA 
BRANCH  21  22
HETATM   22  C   UNL     1     -12.179   6.593  71.757  1.00  0.00    -0.353 C  
BRANCH  22  23
HETATM   23  C   UNL     1     -11.106   5.606  72.207  1.00  0.00    -0.261 C  
BRANCH  23  24
HETATM   24  O   UNL     1     -11.680   4.693  73.141  1.00  0.00    -0.257 OA 
BRANCH  24  25
HETATM   25  C   UNL     1     -10.871   3.530  73.310  1.00  0.00    -0.189 C  
HETATM   26  C   UNL     1      -9.877   3.443  72.167  1.00  0.00    -0.166 C  
HETATM   27  F   UNL     1      -9.104   2.337  72.325  1.00  0.00    -0.086 F  
ENDBRANCH  24  25
ENDBRANCH  23  24
ENDBRANCH  22  23
ENDBRANCH  21  22
ENDBRANCH  20  21
ENDBRANCH  19  20
ENDBRANCH  18  19
ENDBRANCH  15  18
ENDBRANCH  11  12
ENDBRANCH   7  10
ENDBRANCH   2   4
TORSDOF 11
ENDMDL
MODEL      137
REMARK 921   NORMALIZED FREE ENERGY PREDICTED BY IDOCK:   -4.04 KCAL/MOL
REMARK 922        TOTAL FREE ENERGY PREDICTED BY IDOCK:   -7.72 KCAL/MOL
REMARK 923 INTER-LIGAND FREE ENERGY PREDICTED BY IDOCK:   -6.97 KCAL/MOL
REMARK 924 INTRA-LIGAND FREE ENERGY PREDICTED BY IDOCK:   -0.75 KCAL/MOL
REMARK 927      BINDING AFFINITY PREDICTED BY RF-SCORE:    0.00 PKD
ROOT
HETATM    1  C   UNL     1      -9.133   1.934  73.231  1.00  0.00    -0.066 C  
HETATM    2  N   UNL     1      -9.169   1.893  71.776  1.00  0.00    -0.083 NA 
HETATM    3  H   UNL     1      -8.940   1.045  71.259  1.00  0.00     0.000 HD 
ENDROOT
BRANCH   2   4
HETATM    4  C   UNL     1      -9.535   3.080  71.122  1.00  0.00    -0.152 A  
HETATM    5  C   UNL     1      -9.368   3.170  69.735  1.00  0.00    -0.223 A  
HETATM    6  C   UNL     1      -9.681   4.347  69.046  1.00  0.00    -0.223 A  
HETATM    7  C   UNL     1     -10.215   5.447  69.724  1.00  0.00    -0.348 A  
HETATM    8  C   UNL     1     -10.157   4.150  71.773  1.00  0.00    -0.212 A  
HETATM    9  C   UNL     1     -10.475   5.329  71.090  1.00  0.00    -0.275 A  
BRANCH   7  10
HETATM   10  C   UNL     1     -10.362   6.720  69.011  1.00  0.00    -0.212 C  
HETATM   11  C   UNL     1      -9.538   7.182  68.054  1.00  0.00    -0.140 C  
BRANCH  11  12
HETATM   12  C   UNL     1      -9.801   8.426  67.313  1.00  0.00    -0.264 A  
HETATM   13  C   UNL     1     -10.645   9.416  67.822  1.00  0.00    -0.317 A  
HETATM   14  C   UNL     1     -10.924  10.566  67.085  1.00  0.00    -0.294 A  
HETATM   15  C   UNL     1     -10.350  10.766  65.829  1.00  0.00    -0.230 A  
HETATM   16  C   UNL     1      -9.190   8.645  66.071  1.00  0.00    -0.276 A  
HETATM   17  C   UNL     1      -9.469   9.804  65.332  1.00  0.00    -0.333 A  
BRANCH  15  18
HETATM   18  O   UNL     1     -10.587  11.851  65.020  1.00  0.00    -0.267 OA 
BRANCH  18  19
HETATM   19  C   UNL     1     -11.839  12.497  65.250  1.00  0.00    -0.413 C  
BRANCH  19  20
HETATM   20  C   UNL     1     -11.754  13.991  64.991  1.00  0.00    -0.364 C  
BRANCH  20  21
HETATM   21  O   UNL     1     -11.997  14.648  66.238  1.00  0.00    -0.348 OA 
BRANCH  21  22
HETATM   22  C   UNL     1     -11.090  14.226  67.251  1.00  0.00    -0.306 C  
BRANCH  22  23
HETATM   23  C   UNL     1     -11.492  14.857  68.580  1.00  0.00    -0.306 C  
BRANCH  23  24
HETATM   24  O   UNL     1     -11.478  16.277  68.441  1.00  0.00    -0.357 OA 
BRANCH  24  25
HETATM   25  C   UNL     1     -10.153  16.779  68.274  1.00  0.00    -0.274 C  
HETATM   26  C   UNL     1     -10.166  18.287  68.443  1.00  0.00    -0.380 C  
HETATM   27  F   UNL     1      -8.906  18.770  68.285  1.00  0.00    -0.308 F  
ENDBRANCH  24  25
ENDBRANCH  23  24
ENDBRANCH  22  23
ENDBRANCH  21  22
ENDBRANCH  20  21
ENDBRANCH  19  20
ENDBRANCH  18  19
ENDBRANCH  15  18
ENDBRANCH  11  12
ENDBRANCH   7  10
ENDBRANCH   2   4
TORSDOF 11
ENDMDL
MODEL      138
REMARK 921   NORMALIZED FREE ENERGY PREDICTED BY IDOCK:   -4.02 KCAL/MOL
REMARK 922        TOTAL FREE ENERGY PREDICTED BY IDOCK:   -7.68 KCAL/MOL
REMARK 923 INTER-LIGAND FREE ENERGY PREDICTED BY IDOCK:   -7.00 KCAL/MOL
REMARK 924 INTRA-LIGAND FREE ENERGY PREDICTED BY IDOCK:   -0.68 KCAL/MOL
REMARK 927      BINDING AFFINITY PREDICTED BY RF-SCORE:    0.00 PKD
ROOT
HETATM    1  C   UNL     1      -9.313  20.977  67.411  1.00  0.00    -0.075 C  
HETATM    2  N   UNL     1      -9.021  20.105  66.282  1.00  0.00    -0.557 NA 
HETATM    3  H   UNL     1      -8.623  20.468  65.415  1.00  0.00     0.000 HD 
ENDROOT
BRANCH   2   4
HETATM    4  C   UNL     1      -9.314  18.742  66.444  1.00  0.00    -0.312 A  
HETATM    5  C   UNL     1      -8.327  17.795  66.146  1.00  0.00    -0.171 A  
HETATM    6  C   UNL     1      -8.588  16.425  66.254  1.00  0.00    -0.375 A  
HETATM    7  C   UNL     1      -9.829  15.971  66.713  1.00  0.00    -0.260 A  
HETATM    8  C   UNL     1     -10.516  18.280  66.992  1.00  0.00    -0.407 A  
HETATM    9  C   UNL     1     -10.781  16.912  67.106  1.00  0.00    -0.180 A  
BRANCH   7  10
HETATM   10  C   UNL     1     -10.132  14.537  66.644  1.00  0.00    -0.275 C  
HETATM   11  C   UNL     1      -9.228  13.543  66.656  1.00  0.00    -0.221 C  
BRANCH  11  12
HETATM   12  C   UNL     1      -9.610  12.122  66.680  1.00  0.00    -0.226 A  
HETATM   13  C   UNL     1     -10.589  11.643  67.553  1.00  0.00    -0.245 A  
HETATM   14  C   UNL     1     -10.904  10.286  67.599  1.00  0.00    -0.363 A  
HETATM   15  C   UNL     1     -10.263   9.375  66.759  1.00  0.00    -0.250 A  
HETATM   16  C   UNL     1      -8.996  11.215  65.805  1.00  0.00    -0.207 A  
HETATM   17  C   UNL     1      -9.316   9.851  65.850  1.00  0.00    -0.245 A  
BRANCH  15  18
HETATM   18  O   UNL     1     -10.486   8.020  66.752  1.00  0.00    -0.330 OA 
BRANCH  18  19
HETATM   19  C   UNL     1     -10.204   7.368  67.991  1.00  0.00    -0.191 C  
BRANCH  19  20
HETATM   20  C   UNL     1     -11.158   6.215  68.248  1.00  0.00    -0.239 C  
BRANCH  20  21
HETATM   21  O   UNL     1     -11.054   5.885  69.635  1.00  0.00    -0.378 OA 
BRANCH  21  22
HETATM   22  C   UNL     1     -10.521   6.959  70.403  1.00  0.00    -0.206 C  
BRANCH  22  23
HETATM   23  C   UNL     1     -11.546   7.385  71.450  1.00  0.00    -0.275 C  
BRANCH  23  24
HETATM   24  O   UNL     1     -11.005   7.152  72.749  1.00  0.00    -0.266 OA 
BRANCH  24  25
HETATM   25  C   UNL     1     -10.372   5.876  72.837  1.00  0.00    -0.200 C  
HETATM   26  C   UNL     1     -11.383   4.850  73.314  1.00  0.00    -0.327 C  
HETATM   27  F   UNL     1     -10.785   3.633  73.400  1.00  0.00    -0.215 F  
ENDBRANCH  24  25
ENDBRANCH  23  24
ENDBRANCH  22  23
ENDBRANCH  21  22
ENDBRANCH  20  21
ENDBRANCH  19  20
ENDBRANCH  18  19
ENDBRANCH  15  18
ENDBRANCH  11  12
ENDBRANCH   7  10
ENDBRANCH   2   4
TORSDOF 11
ENDMDL
MODEL      139
REMARK 921   NORMALIZED FREE ENERGY PREDICTED BY IDOCK:   -4.00 KCAL/MOL
REMARK 922        TOTAL FREE ENERGY PREDICTED BY IDOCK:   -7.65 KCAL/MOL
REMARK 923 INTER-LIGAND FREE ENERGY PREDICTED BY IDOCK:   -6.69 KCAL/MOL
REMARK 924 INTRA-LIGAND FREE ENERGY PREDICTED BY IDOCK:   -0.96 KCAL/MOL
REMARK 927      BINDING AFFINITY PREDICTED BY RF-SCORE:    0.00 PKD
ROOT
HETATM    1  C   UNL     1     -13.749   8.817  72.354  1.00  0.00    -0.415 C  
HETATM    2  N   UNL     1     -12.987   8.336  71.211  1.00  0.00    -0.486 NA 
HETATM    3  H   UNL     1     -13.019   7.359  70.920  1.00  0.00     0.000 HD 
ENDROOT
BRANCH   2   4
HETATM    4  C   UNL     1     -12.206   9.282  70.530  1.00  0.00     0.050 A  
HETATM    5  C   UNL     1     -11.118   8.843  69.767  1.00  0.00    -0.099 A  
HETATM    6  C   UNL     1     -10.287   9.753  69.104  1.00  0.00    -0.225 A  
HETATM    7  C   UNL     1     -10.558  11.125  69.149  1.00  0.00    -0.238 A  
HETATM    8  C   UNL     1     -12.521  10.645  70.489  1.00  0.00    -0.445 A  
HETATM    9  C   UNL     1     -11.697  11.560  69.826  1.00  0.00    -0.426 A  
BRANCH   7  10
HETATM   10  C   UNL     1      -9.572  12.062  68.599  1.00  0.00    -0.087 C  
HETATM   11  C   UNL     1      -9.715  13.396  68.525  1.00  0.00    -0.156 C  
BRANCH  11  12
HETATM   12  C   UNL     1      -8.643  14.284  68.048  1.00  0.00    -0.169 A  
HETATM   13  C   UNL     1      -8.916  15.394  67.244  1.00  0.00    -0.213 A  
HETATM   14  C   UNL     1      -7.885  16.196  66.759  1.00  0.00    -0.296 A  
HETATM   15  C   UNL     1      -6.555  15.922  67.080  1.00  0.00    -0.097 A  
HETATM   16  C   UNL     1      -7.311  14.033  68.407  1.00  0.00    -0.113 A  
HETATM   17  C   UNL     1      -6.275  14.843  67.921  1.00  0.00    -0.175 A  
BRANCH  15  18
HETATM   18  O   UNL     1      -5.473  16.637  66.628  1.00  0.00    -0.343 OA 
BRANCH  18  19
HETATM   19  C   UNL     1      -5.556  18.044  66.861  1.00  0.00    -0.138 C  
BRANCH  19  20
HETATM   20  C   UNL     1      -5.333  18.383  68.324  1.00  0.00    -0.168 C  
BRANCH  20  21
HETATM   21  O   UNL     1      -6.255  19.423  68.659  1.00  0.00    -0.229 OA 
BRANCH  21  22
HETATM   22  C   UNL     1      -5.974  20.634  67.963  1.00  0.00    -0.284 C  
BRANCH  22  23
HETATM   23  C   UNL     1      -7.262  21.168  67.344  1.00  0.00    -0.207 C  
BRANCH  23  24
HETATM   24  O   UNL     1      -8.323  20.257  67.625  1.00  0.00    -0.315 OA 
BRANCH  24  25
HETATM   25  C   UNL     1      -8.881  19.710  66.432  1.00  0.00    -0.376 C  
HETATM   26  C   UNL     1     -10.395  19.779  66.512  1.00  0.00    -0.506 C  
HETATM   27  F   UNL     1     -10.931  19.258  65.377  1.00  0.00    -0.529 F  
ENDBRANCH  24  25
ENDBRANCH  23  24
ENDBRANCH  22  23
ENDBRANCH  21  22
ENDBRANCH  20  21
ENDBRANCH  19  20
ENDBRANCH  18  19
ENDBRANCH  15  18
ENDBRANCH  11  12
ENDBRANCH   7  10
ENDBRANCH   2   4
TORSDOF 11
ENDMDL
MODEL      140
REMARK 921   NORMALIZED FREE ENERGY PREDICTED BY IDOCK:   -3.99 KCAL/MOL
REMARK 922        TOTAL FREE ENERGY PREDICTED BY IDOCK:   -7.63 KCAL/MOL
REMARK 923 INTER-LIGAND FREE ENERGY PREDICTED BY IDOCK:   -6.75 KCAL/MOL
REMARK 924 INTRA-LIGAND FREE ENERGY PREDICTED BY IDOCK:   -0.88 KCAL/MOL
REMARK 927      BINDING AFFINITY PREDICTED BY RF-SCORE:    0.00 PKD
ROOT
HETATM    1  C   UNL     1      -6.956   4.312  63.166  1.00  0.00    -0.043 C  
HETATM    2  N   UNL     1      -7.393   4.549  64.535  1.00  0.00    -0.069 NA 
HETATM    3  H   UNL     1      -7.345   3.819  65.245  1.00  0.00     0.000 HD 
ENDROOT
BRANCH   2   4
HETATM    4  C   UNL     1      -7.883   5.831  64.828  1.00  0.00    -0.114 A  
HETATM    5  C   UNL     1      -7.756   6.842  63.868  1.00  0.00    -0.115 A  
HETATM    6  C   UNL     1      -8.194   8.145  64.131  1.00  0.00    -0.083 A  
HETATM    7  C   UNL     1      -8.815   8.454  65.345  1.00  0.00    -0.146 A  
HETATM    8  C   UNL     1      -8.590   6.129  65.998  1.00  0.00    -0.145 A  
HETATM    9  C   UNL     1      -9.033   7.429  66.266  1.00  0.00    -0.192 A  
BRANCH   7  10
HETATM   10  C   UNL     1      -9.097   9.859  65.662  1.00  0.00    -0.220 C  
HETATM   11  C   UNL     1      -9.612  10.766  64.815  1.00  0.00    -0.314 C  
BRANCH  11  12
HETATM   12  C   UNL     1      -9.958  12.135  65.231  1.00  0.00    -0.260 A  
HETATM   13  C   UNL     1     -10.804  12.940  64.466  1.00  0.00    -0.385 A  
HETATM   14  C   UNL     1     -11.082  14.251  64.847  1.00  0.00    -0.396 A  
HETATM   15  C   UNL     1     -10.537  14.786  66.015  1.00  0.00    -0.312 A  
HETATM   16  C   UNL     1      -9.444  12.655  66.427  1.00  0.00    -0.231 A  
HETATM   17  C   UNL     1      -9.726  13.974  66.811  1.00  0.00    -0.283 A  
BRANCH  15  18
HETATM   18  O   UNL     1     -10.730  16.072  66.457  1.00  0.00    -0.306 OA 
BRANCH  18  19
HETATM   19  C   UNL     1      -9.626  16.621  67.179  1.00  0.00    -0.241 C  
BRANCH  19  20
HETATM   20  C   UNL     1     -10.045  17.111  68.554  1.00  0.00    -0.329 C  
BRANCH  20  21
HETATM   21  O   UNL     1     -10.303  15.953  69.351  1.00  0.00    -0.227 OA 
BRANCH  21  22
HETATM   22  C   UNL     1     -11.650  15.907  69.812  1.00  0.00    -0.338 C  
BRANCH  22  23
HETATM   23  C   UNL     1     -12.171  14.478  69.701  1.00  0.00    -0.292 C  
BRANCH  23  24
HETATM   24  O   UNL     1     -12.837  14.134  70.914  1.00  0.00    -0.329 OA 
BRANCH  24  25
HETATM   25  C   UNL     1     -12.304  14.844  72.031  1.00  0.00    -0.344 C  
HETATM   26  C   UNL     1     -13.418  15.121  73.024  1.00  0.00    -0.452 C  
HETATM   27  F   UNL     1     -12.915  15.798  74.090  1.00  0.00    -0.587 F  
ENDBRANCH  24  25
ENDBRANCH  23  24
ENDBRANCH  22  23
ENDBRANCH  21  22
ENDBRANCH  20  21
ENDBRANCH  19  20
ENDBRANCH  18  19
ENDBRANCH  15  18
ENDBRANCH  11  12
ENDBRANCH   7  10
ENDBRANCH   2   4
TORSDOF 11
ENDMDL
MODEL      141
REMARK 921   NORMALIZED FREE ENERGY PREDICTED BY IDOCK:   -3.98 KCAL/MOL
REMARK 922        TOTAL FREE ENERGY PREDICTED BY IDOCK:   -7.61 KCAL/MOL
REMARK 923 INTER-LIGAND FREE ENERGY PREDICTED BY IDOCK:   -6.34 KCAL/MOL
REMARK 924 INTRA-LIGAND FREE ENERGY PREDICTED BY IDOCK:   -1.27 KCAL/MOL
REMARK 927      BINDING AFFINITY PREDICTED BY RF-SCORE:    0.00 PKD
ROOT
HETATM    1  C   UNL     1     -12.157  13.224  63.346  1.00  0.00    -0.439 C  
HETATM    2  N   UNL     1     -10.995  12.348  63.306  1.00  0.00    -0.658 NA 
HETATM    3  H   UNL     1     -10.384  12.304  62.490  1.00  0.00     0.000 HD 
ENDROOT
BRANCH   2   4
HETATM    4  C   UNL     1     -10.757  11.565  64.447  1.00  0.00    -0.344 A  
HETATM    5  C   UNL     1      -9.956  10.423  64.332  1.00  0.00    -0.388 A  
HETATM    6  C   UNL     1      -9.725   9.591  65.433  1.00  0.00    -0.314 A  
HETATM    7  C   UNL     1     -10.250   9.911  66.689  1.00  0.00    -0.293 A  
HETATM    8  C   UNL     1     -11.196  11.926  65.726  1.00  0.00    -0.365 A  
HETATM    9  C   UNL     1     -10.966  11.100  66.831  1.00  0.00    -0.333 A  
BRANCH   7  10
HETATM   10  C   UNL     1     -10.143   8.932  67.776  1.00  0.00    -0.263 C  
HETATM   11  C   UNL     1     -10.561   7.656  67.725  1.00  0.00    -0.265 C  
BRANCH  11  12
HETATM   12  C   UNL     1     -10.334   6.701  68.822  1.00  0.00    -0.214 A  
HETATM   13  C   UNL     1      -9.191   5.900  68.870  1.00  0.00    -0.126 A  
HETATM   14  C   UNL     1      -9.015   4.966  69.888  1.00  0.00    -0.138 A  
HETATM   15  C   UNL     1      -9.967   4.821  70.898  1.00  0.00    -0.213 A  
HETATM   16  C   UNL     1     -11.271   6.588  69.859  1.00  0.00    -0.456 A  
HETATM   17  C   UNL     1     -11.091   5.650  70.885  1.00  0.00    -0.200 A  
BRANCH  15  18
HETATM   18  O   UNL     1      -9.894   3.911  71.924  1.00  0.00    -0.163 OA 
BRANCH  18  19
HETATM   19  C   UNL     1      -9.809   4.494  73.225  1.00  0.00    -0.138 C  
BRANCH  19  20
HETATM   20  C   UNL     1      -8.428   4.312  73.831  1.00  0.00    -0.095 C  
BRANCH  20  21
HETATM   21  O   UNL     1      -7.921   5.618  74.118  1.00  0.00    -0.105 OA 
BRANCH  21  22
HETATM   22  C   UNL     1      -8.960   6.585  74.232  1.00  0.00    -0.171 C  
BRANCH  22  23
HETATM   23  C   UNL     1      -8.529   7.870  73.533  1.00  0.00    -0.228 C  
BRANCH  23  24
HETATM   24  O   UNL     1      -7.673   7.538  72.442  1.00  0.00    -0.087 OA 
BRANCH  24  25
HETATM   25  C   UNL     1      -7.020   8.691  71.912  1.00  0.00    -0.075 C  
HETATM   26  C   UNL     1      -7.799   9.198  70.712  1.00  0.00    -0.149 C  
HETATM   27  F   UNL     1      -7.180  10.296  70.204  1.00  0.00    -0.123 F  
ENDBRANCH  24  25
ENDBRANCH  23  24
ENDBRANCH  22  23
ENDBRANCH  21  22
ENDBRANCH  20  21
ENDBRANCH  19  20
ENDBRANCH  18  19
ENDBRANCH  15  18
ENDBRANCH  11  12
ENDBRANCH   7  10
ENDBRANCH   2   4
TORSDOF 11
ENDMDL
MODEL      142
REMARK 921   NORMALIZED FREE ENERGY PREDICTED BY IDOCK:   -3.97 KCAL/MOL
REMARK 922        TOTAL FREE ENERGY PREDICTED BY IDOCK:   -7.59 KCAL/MOL
REMARK 923 INTER-LIGAND FREE ENERGY PREDICTED BY IDOCK:   -6.65 KCAL/MOL
REMARK 924 INTRA-LIGAND FREE ENERGY PREDICTED BY IDOCK:   -0.94 KCAL/MOL
REMARK 927      BINDING AFFINITY PREDICTED BY RF-SCORE:    0.00 PKD
ROOT
HETATM    1  C   UNL     1     -10.749  19.814  66.678  1.00  0.00    -0.404 C  
HETATM    2  N   UNL     1      -9.454  19.172  66.498  1.00  0.00    -0.343 NA 
HETATM    3  H   UNL     1      -8.635  19.696  66.193  1.00  0.00     0.000 HD 
ENDROOT
BRANCH   2   4
HETATM    4  C   UNL     1      -9.391  17.795  66.766  1.00  0.00    -0.280 A  
HETATM    5  C   UNL     1      -8.196  17.109  66.517  1.00  0.00    -0.308 A  
HETATM    6  C   UNL     1      -8.100  15.730  66.730  1.00  0.00    -0.297 A  
HETATM    7  C   UNL     1      -9.184  15.012  67.245  1.00  0.00    -0.210 A  
HETATM    8  C   UNL     1     -10.435  17.086  67.369  1.00  0.00    -0.322 A  
HETATM    9  C   UNL     1     -10.344  15.708  67.588  1.00  0.00    -0.275 A  
BRANCH   7  10
HETATM   10  C   UNL     1      -9.112  13.548  67.286  1.00  0.00    -0.225 C  
HETATM   11  C   UNL     1      -9.591  12.766  68.269  1.00  0.00    -0.211 C  
BRANCH  11  12
HETATM   12  C   UNL     1      -9.569  11.296  68.197  1.00  0.00    -0.186 A  
HETATM   13  C   UNL     1      -8.733  10.537  69.020  1.00  0.00    -0.160 A  
HETATM   14  C   UNL     1      -8.687   9.149  68.905  1.00  0.00    -0.132 A  
HETATM   15  C   UNL     1      -9.489   8.481  67.978  1.00  0.00    -0.140 A  
HETATM   16  C   UNL     1     -10.407  10.625  67.296  1.00  0.00    -0.265 A  
HETATM   17  C   UNL     1     -10.361   9.228  67.183  1.00  0.00    -0.330 A  
BRANCH  15  18
HETATM   18  O   UNL     1      -9.492   7.123  67.773  1.00  0.00    -0.126 OA 
BRANCH  18  19
HETATM   19  C   UNL     1     -10.786   6.520  67.830  1.00  0.00    -0.287 C  
BRANCH  19  20
HETATM   20  C   UNL     1     -11.036   5.856  69.173  1.00  0.00    -0.312 C  
BRANCH  20  21
HETATM   21  O   UNL     1      -9.785   5.326  69.618  1.00  0.00    -0.151 OA 
BRANCH  21  22
HETATM   22  C   UNL     1      -9.685   5.307  71.039  1.00  0.00    -0.182 C  
BRANCH  22  23
HETATM   23  C   UNL     1     -10.060   6.680  71.587  1.00  0.00    -0.184 C  
BRANCH  23  24
HETATM   24  O   UNL     1     -11.270   6.564  72.334  1.00  0.00    -0.253 OA 
BRANCH  24  25
HETATM   25  C   UNL     1     -12.065   7.745  72.239  1.00  0.00    -0.287 C  
HETATM   26  C   UNL     1     -13.437   7.383  71.703  1.00  0.00    -0.366 C  
HETATM   27  F   UNL     1     -14.197   8.505  71.611  1.00  0.00    -0.407 F  
ENDBRANCH  24  25
ENDBRANCH  23  24
ENDBRANCH  22  23
ENDBRANCH  21  22
ENDBRANCH  20  21
ENDBRANCH  19  20
ENDBRANCH  18  19
ENDBRANCH  15  18
ENDBRANCH  11  12
ENDBRANCH   7  10
ENDBRANCH   2   4
TORSDOF 11
ENDMDL
MODEL      143
REMARK 921   NORMALIZED FREE ENERGY PREDICTED BY IDOCK:   -3.94 KCAL/MOL
REMARK 922        TOTAL FREE ENERGY PREDICTED BY IDOCK:   -7.54 KCAL/MOL
REMARK 923 INTER-LIGAND FREE ENERGY PREDICTED BY IDOCK:   -6.35 KCAL/MOL
REMARK 924 INTRA-LIGAND FREE ENERGY PREDICTED BY IDOCK:   -1.19 KCAL/MOL
REMARK 927      BINDING AFFINITY PREDICTED BY RF-SCORE:    0.00 PKD
ROOT
HETATM    1  C   UNL     1      -9.901  18.054  68.518  1.00  0.00    -0.378 C  
HETATM    2  N   UNL     1     -11.152  17.546  69.065  1.00  0.00    -0.070 NA 
HETATM    3  H   UNL     1     -11.929  18.167  69.288  1.00  0.00     0.000 HD 
ENDROOT
BRANCH   2   4
HETATM    4  C   UNL     1     -11.233  16.160  69.271  1.00  0.00    -0.337 A  
HETATM    5  C   UNL     1     -10.245  15.333  68.723  1.00  0.00    -0.227 A  
HETATM    6  C   UNL     1     -10.307  13.943  68.868  1.00  0.00    -0.163 A  
HETATM    7  C   UNL     1     -11.335  13.351  69.609  1.00  0.00    -0.206 A  
HETATM    8  C   UNL     1     -12.200  15.565  70.088  1.00  0.00    -0.404 A  
HETATM    9  C   UNL     1     -12.266  14.177  70.240  1.00  0.00    -0.416 A  
BRANCH   7  10
HETATM   10  C   UNL     1     -11.474  11.891  69.591  1.00  0.00    -0.337 C  
HETATM   11  C   UNL     1     -10.495  11.013  69.314  1.00  0.00    -0.210 C  
BRANCH  11  12
HETATM   12  C   UNL     1     -10.684   9.556  69.409  1.00  0.00    -0.244 A  
HETATM   13  C   UNL     1     -11.181   8.957  70.569  1.00  0.00    -0.287 A  
HETATM   14  C   UNL     1     -11.306   7.572  70.661  1.00  0.00    -0.301 A  
HETATM   15  C   UNL     1     -10.958   6.751  69.588  1.00  0.00    -0.288 A  
HETATM   16  C   UNL     1     -10.375   8.736  68.315  1.00  0.00    -0.252 A  
HETATM   17  C   UNL     1     -10.505   7.343  68.408  1.00  0.00    -0.220 A  
BRANCH  15  18
HETATM   18  O   UNL     1     -11.021   5.378  69.595  1.00  0.00    -0.232 OA 
BRANCH  18  19
HETATM   19  C   UNL     1      -9.797   4.730  69.247  1.00  0.00    -0.199 C  
BRANCH  19  20
HETATM   20  C   UNL     1      -8.942   4.452  70.471  1.00  0.00    -0.102 C  
BRANCH  20  21
HETATM   21  O   UNL     1      -8.852   3.031  70.606  1.00  0.00    -0.071 OA 
BRANCH  21  22
HETATM   22  C   UNL     1      -9.705   2.535  71.633  1.00  0.00    -0.152 C  
BRANCH  22  23
HETATM   23  C   UNL     1      -9.713   3.518  72.799  1.00  0.00    -0.136 C  
BRANCH  23  24
HETATM   24  O   UNL     1     -11.058   3.712  73.232  1.00  0.00    -0.196 OA 
BRANCH  24  25
HETATM   25  C   UNL     1     -11.421   5.091  73.230  1.00  0.00    -0.259 C  
HETATM   26  C   UNL     1     -10.306   5.902  73.864  1.00  0.00    -0.277 C  
HETATM   27  F   UNL     1     -10.648   7.217  73.865  1.00  0.00    -0.385 F  
ENDBRANCH  24  25
ENDBRANCH  23  24
ENDBRANCH  22  23
ENDBRANCH  21  22
ENDBRANCH  20  21
ENDBRANCH  19  20
ENDBRANCH  18  19
ENDBRANCH  15  18
ENDBRANCH  11  12
ENDBRANCH   7  10
ENDBRANCH   2   4
TORSDOF 11
ENDMDL
MODEL      144
REMARK 921   NORMALIZED FREE ENERGY PREDICTED BY IDOCK:   -3.93 KCAL/MOL
REMARK 922        TOTAL FREE ENERGY PREDICTED BY IDOCK:   -7.54 KCAL/MOL
REMARK 923 INTER-LIGAND FREE ENERGY PREDICTED BY IDOCK:   -6.16 KCAL/MOL
REMARK 924 INTRA-LIGAND FREE ENERGY PREDICTED BY IDOCK:   -1.38 KCAL/MOL
REMARK 927      BINDING AFFINITY PREDICTED BY RF-SCORE:    0.00 PKD
ROOT
HETATM    1  C   UNL     1     -11.404  16.056  69.023  1.00  0.00    -0.363 C  
HETATM    2  N   UNL     1     -11.149  15.622  67.657  1.00  0.00    -0.323 NA 
HETATM    3  H   UNL     1     -11.035  16.291  66.896  1.00  0.00     0.000 HD 
ENDROOT
BRANCH   2   4
HETATM    4  C   UNL     1     -11.068  14.238  67.440  1.00  0.00    -0.304 A  
HETATM    5  C   UNL     1     -11.915  13.387  68.159  1.00  0.00    -0.356 A  
HETATM    6  C   UNL     1     -11.842  11.998  68.005  1.00  0.00    -0.338 A  
HETATM    7  C   UNL     1     -10.951  11.431  67.088  1.00  0.00    -0.340 A  
HETATM    8  C   UNL     1     -10.251  13.666  66.459  1.00  0.00    -0.284 A  
HETATM    9  C   UNL     1     -10.175  12.279  66.298  1.00  0.00    -0.251 A  
BRANCH   7  10
HETATM   10  C   UNL     1     -10.770   9.975  67.080  1.00  0.00    -0.279 C  
HETATM   11  C   UNL     1      -9.959   9.290  66.257  1.00  0.00    -0.357 C  
BRANCH  11  12
HETATM   12  C   UNL     1      -9.755   7.837  66.370  1.00  0.00    -0.219 A  
HETATM   13  C   UNL     1      -8.701   7.193  65.719  1.00  0.00    -0.125 A  
HETATM   14  C   UNL     1      -8.551   5.810  65.795  1.00  0.00    -0.149 A  
HETATM   15  C   UNL     1      -9.440   5.035  66.541  1.00  0.00    -0.149 A  
HETATM   16  C   UNL     1     -10.624   7.066  67.156  1.00  0.00    -0.412 A  
HETATM   17  C   UNL     1     -10.470   5.674  67.234  1.00  0.00    -0.322 A  
BRANCH  15  18
HETATM   18  O   UNL     1      -9.390   3.667  66.653  1.00  0.00    -0.171 OA 
BRANCH  18  19
HETATM   19  C   UNL     1      -8.139   3.158  67.118  1.00  0.00    -0.082 C  
BRANCH  19  20
HETATM   20  C   UNL     1      -7.837   3.620  68.533  1.00  0.00    -0.059 C  
BRANCH  20  21
HETATM   21  O   UNL     1      -8.530   2.737  69.419  1.00  0.00    -0.057 OA 
BRANCH  21  22
HETATM   22  C   UNL     1      -9.594   3.390  70.104  1.00  0.00    -0.140 C  
BRANCH  22  23
HETATM   23  C   UNL     1      -9.130   4.773  70.550  1.00  0.00    -0.120 C  
BRANCH  23  24
HETATM   24  O   UNL     1     -10.079   5.304  71.473  1.00  0.00    -0.178 OA 
BRANCH  24  25
HETATM   25  C   UNL     1     -11.037   6.140  70.826  1.00  0.00    -0.309 C  
HETATM   26  C   UNL     1     -10.501   7.559  70.767  1.00  0.00    -0.213 C  
HETATM   27  F   UNL     1     -11.410   8.359  70.151  1.00  0.00    -0.256 F  
ENDBRANCH  24  25
ENDBRANCH  23  24
ENDBRANCH  22  23
ENDBRANCH  21  22
ENDBRANCH  20  21
ENDBRANCH  19  20
ENDBRANCH  18  19
ENDBRANCH  15  18
ENDBRANCH  11  12
ENDBRANCH   7  10
ENDBRANCH   2   4
TORSDOF 11
ENDMDL
MODEL      145
REMARK 921   NORMALIZED FREE ENERGY PREDICTED BY IDOCK:   -3.93 KCAL/MOL
REMARK 922        TOTAL FREE ENERGY PREDICTED BY IDOCK:   -7.54 KCAL/MOL
REMARK 923 INTER-LIGAND FREE ENERGY PREDICTED BY IDOCK:   -6.20 KCAL/MOL
REMARK 924 INTRA-LIGAND FREE ENERGY PREDICTED BY IDOCK:   -1.34 KCAL/MOL
REMARK 927      BINDING AFFINITY PREDICTED BY RF-SCORE:    0.00 PKD
ROOT
HETATM    1  C   UNL     1      -9.139   3.012  65.000  1.00  0.00    -0.146 C  
HETATM    2  N   UNL     1     -10.272   3.725  65.573  1.00  0.00    -0.426 NA 
HETATM    3  H   UNL     1     -11.181   3.278  65.692  1.00  0.00     0.000 HD 
ENDROOT
BRANCH   2   4
HETATM    4  C   UNL     1     -10.050   5.058  65.953  1.00  0.00    -0.168 A  
HETATM    5  C   UNL     1     -11.020   5.716  66.719  1.00  0.00    -0.180 A  
HETATM    6  C   UNL     1     -10.861   7.057  67.086  1.00  0.00    -0.427 A  
HETATM    7  C   UNL     1      -9.702   7.757  66.736  1.00  0.00    -0.296 A  
HETATM    8  C   UNL     1      -8.856   5.738  65.691  1.00  0.00    -0.141 A  
HETATM    9  C   UNL     1      -8.689   7.077  66.058  1.00  0.00    -0.156 A  
BRANCH   7  10
HETATM   10  C   UNL     1      -9.644   9.203  66.977  1.00  0.00    -0.223 C  
HETATM   11  C   UNL     1      -8.818   9.823  67.836  1.00  0.00    -0.122 C  
BRANCH  11  12
HETATM   12  C   UNL     1      -8.750  11.288  67.955  1.00  0.00    -0.144 A  
HETATM   13  C   UNL     1      -9.900  12.079  67.912  1.00  0.00    -0.196 A  
HETATM   14  C   UNL     1      -9.815  13.469  67.975  1.00  0.00    -0.238 A  
HETATM   15  C   UNL     1      -8.578  14.104  68.104  1.00  0.00    -0.175 A  
HETATM   16  C   UNL     1      -7.511  11.921  68.129  1.00  0.00    -0.100 A  
HETATM   17  C   UNL     1      -7.427  13.319  68.196  1.00  0.00    -0.128 A  
BRANCH  15  18
HETATM   18  O   UNL     1      -8.393  15.464  68.147  1.00  0.00    -0.141 OA 
BRANCH  18  19
HETATM   19  C   UNL     1      -8.628  16.131  66.906  1.00  0.00    -0.221 C  
BRANCH  19  20
HETATM   20  C   UNL     1      -9.927  16.917  66.930  1.00  0.00    -0.279 C  
BRANCH  20  21
HETATM   21  O   UNL     1     -10.493  16.831  65.620  1.00  0.00    -0.470 OA 
BRANCH  21  22
HETATM   22  C   UNL     1     -10.318  15.541  65.042  1.00  0.00    -0.293 C  
BRANCH  22  23
HETATM   23  C   UNL     1     -11.675  14.995  64.612  1.00  0.00    -0.382 C  
BRANCH  23  24
HETATM   24  O   UNL     1     -11.473  13.819  63.830  1.00  0.00    -0.200 OA 
BRANCH  24  25
HETATM   25  C   UNL     1     -10.353  13.064  64.289  1.00  0.00    -0.362 C  
HETATM   26  C   UNL     1     -10.639  11.585  64.104  1.00  0.00    -0.363 C  
HETATM   27  F   UNL     1      -9.575  10.861  64.540  1.00  0.00    -0.221 F  
ENDBRANCH  24  25
ENDBRANCH  23  24
ENDBRANCH  22  23
ENDBRANCH  21  22
ENDBRANCH  20  21
ENDBRANCH  19  20
ENDBRANCH  18  19
ENDBRANCH  15  18
ENDBRANCH  11  12
ENDBRANCH   7  10
ENDBRANCH   2   4
TORSDOF 11
ENDMDL
MODEL      146
REMARK 921   NORMALIZED FREE ENERGY PREDICTED BY IDOCK:   -3.91 KCAL/MOL
REMARK 922        TOTAL FREE ENERGY PREDICTED BY IDOCK:   -7.50 KCAL/MOL
REMARK 923 INTER-LIGAND FREE ENERGY PREDICTED BY IDOCK:   -6.80 KCAL/MOL
REMARK 924 INTRA-LIGAND FREE ENERGY PREDICTED BY IDOCK:   -0.69 KCAL/MOL
REMARK 927      BINDING AFFINITY PREDICTED BY RF-SCORE:    0.00 PKD
ROOT
HETATM    1  C   UNL     1     -10.423  19.967  66.107  1.00  0.00    -0.473 C  
HETATM    2  N   UNL     1      -9.165  19.244  65.982  1.00  0.00    -0.446 NA 
HETATM    3  H   UNL     1      -8.348  19.665  65.538  1.00  0.00     0.000 HD 
ENDROOT
BRANCH   2   4
HETATM    4  C   UNL     1      -9.132  17.941  66.501  1.00  0.00    -0.261 A  
HETATM    5  C   UNL     1     -10.181  17.064  66.202  1.00  0.00    -0.346 A  
HETATM    6  C   UNL     1     -10.210  15.768  66.731  1.00  0.00    -0.284 A  
HETATM    7  C   UNL     1      -9.163  15.304  67.532  1.00  0.00    -0.202 A  
HETATM    8  C   UNL     1      -8.046  17.434  67.224  1.00  0.00    -0.218 A  
HETATM    9  C   UNL     1      -8.068  16.140  67.752  1.00  0.00    -0.157 A  
BRANCH   7  10
HETATM   10  C   UNL     1      -9.309  14.014  68.215  1.00  0.00    -0.208 C  
HETATM   11  C   UNL     1     -10.403  13.233  68.192  1.00  0.00    -0.246 C  
BRANCH  11  12
HETATM   12  C   UNL     1     -10.443  11.904  68.824  1.00  0.00    -0.207 A  
HETATM   13  C   UNL     1     -11.511  11.513  69.635  1.00  0.00    -0.373 A  
HETATM   14  C   UNL     1     -11.511  10.271  70.267  1.00  0.00    -0.395 A  
HETATM   15  C   UNL     1     -10.453   9.378  70.087  1.00  0.00    -0.240 A  
HETATM   16  C   UNL     1      -9.401  10.993  68.607  1.00  0.00    -0.196 A  
HETATM   17  C   UNL     1      -9.403   9.742  69.241  1.00  0.00    -0.198 A  
BRANCH  15  18
HETATM   18  O   UNL     1     -10.352   8.147  70.688  1.00  0.00    -0.196 OA 
BRANCH  18  19
HETATM   19  C   UNL     1     -11.586   7.434  70.785  1.00  0.00    -0.290 C  
BRANCH  19  20
HETATM   20  C   UNL     1     -11.630   6.258  69.826  1.00  0.00    -0.260 C  
BRANCH  20  21
HETATM   21  O   UNL     1     -10.473   6.354  68.991  1.00  0.00    -0.183 OA 
BRANCH  21  22
HETATM   22  C   UNL     1     -10.803   6.284  67.607  1.00  0.00    -0.346 C  
BRANCH  22  23
HETATM   23  C   UNL     1     -10.088   5.092  66.979  1.00  0.00    -0.214 C  
BRANCH  23  24
HETATM   24  O   UNL     1     -10.691   4.802  65.719  1.00  0.00    -0.305 OA 
BRANCH  24  25
HETATM   25  C   UNL     1      -9.787   4.134  64.841  1.00  0.00    -0.197 C  
HETATM   26  C   UNL     1     -10.562   3.555  63.672  1.00  0.00    -0.272 C  
HETATM   27  F   UNL     1      -9.705   2.917  62.833  1.00  0.00    -0.093 F  
ENDBRANCH  24  25
ENDBRANCH  23  24
ENDBRANCH  22  23
ENDBRANCH  21  22
ENDBRANCH  20  21
ENDBRANCH  19  20
ENDBRANCH  18  19
ENDBRANCH  15  18
ENDBRANCH  11  12
ENDBRANCH   7  10
ENDBRANCH   2   4
TORSDOF 11
ENDMDL
MODEL      147
REMARK 921   NORMALIZED FREE ENERGY PREDICTED BY IDOCK:   -3.91 KCAL/MOL
REMARK 922        TOTAL FREE ENERGY PREDICTED BY IDOCK:   -7.50 KCAL/MOL
REMARK 923 INTER-LIGAND FREE ENERGY PREDICTED BY IDOCK:   -6.71 KCAL/MOL
REMARK 924 INTRA-LIGAND FREE ENERGY PREDICTED BY IDOCK:   -0.79 KCAL/MOL
REMARK 927      BINDING AFFINITY PREDICTED BY RF-SCORE:    0.00 PKD
ROOT
HETATM    1  C   UNL     1     -11.415  16.175  69.182  1.00  0.00    -0.311 C  
HETATM    2  N   UNL     1     -12.586  15.371  69.503  1.00  0.00    -0.614 NA 
HETATM    3  H   UNL     1     -13.531  15.746  69.423  1.00  0.00     0.000 HD 
ENDROOT
BRANCH   2   4
HETATM    4  C   UNL     1     -12.349  14.055  69.930  1.00  0.00    -0.310 A  
HETATM    5  C   UNL     1     -11.568  13.212  69.131  1.00  0.00    -0.368 A  
HETATM    6  C   UNL     1     -11.339  11.881  69.497  1.00  0.00    -0.306 A  
HETATM    7  C   UNL     1     -11.847  11.376  70.698  1.00  0.00    -0.327 A  
HETATM    8  C   UNL     1     -12.770  13.568  71.172  1.00  0.00    -0.425 A  
HETATM    9  C   UNL     1     -12.543  12.239  71.545  1.00  0.00    -0.258 A  
BRANCH   7  10
HETATM   10  C   UNL     1     -11.745   9.937  70.964  1.00  0.00    -0.466 C  
HETATM   11  C   UNL     1     -10.691   9.315  71.519  1.00  0.00    -0.425 C  
BRANCH  11  12
HETATM   12  C   UNL     1     -10.697   7.880  71.845  1.00  0.00    -0.290 A  
HETATM   13  C   UNL     1     -10.652   7.429  73.166  1.00  0.00    -0.424 A  
HETATM   14  C   UNL     1     -10.607   6.067  73.456  1.00  0.00    -0.284 A  
HETATM   15  C   UNL     1     -10.627   5.118  72.433  1.00  0.00    -0.221 A  
HETATM   16  C   UNL     1     -10.760   6.928  70.818  1.00  0.00    -0.262 A  
HETATM   17  C   UNL     1     -10.718   5.557  71.111  1.00  0.00    -0.280 A  
BRANCH  15  18
HETATM   18  O   UNL     1     -10.558   3.759  72.620  1.00  0.00    -0.154 OA 
BRANCH  18  19
HETATM   19  C   UNL     1      -9.429   3.135  72.006  1.00  0.00    -0.134 C  
BRANCH  19  20
HETATM   20  C   UNL     1      -9.851   2.113  70.965  1.00  0.00    -0.008 C  
BRANCH  20  21
HETATM   21  O   UNL     1      -8.699   1.826  70.168  1.00  0.00    -0.048 OA 
BRANCH  21  22
HETATM   22  C   UNL     1      -8.220   2.978  69.481  1.00  0.00    -0.051 C  
BRANCH  22  23
HETATM   23  C   UNL     1      -9.206   3.350  68.378  1.00  0.00    -0.173 C  
BRANCH  23  24
HETATM   24  O   UNL     1      -9.180   2.337  67.374  1.00  0.00    -0.157 OA 
BRANCH  24  25
HETATM   25  C   UNL     1      -8.596   2.809  66.161  1.00  0.00    -0.117 C  
HETATM   26  C   UNL     1      -9.501   3.862  65.547  1.00  0.00    -0.171 C  
HETATM   27  F   UNL     1      -8.948   4.314  64.391  1.00  0.00    -0.125 F  
ENDBRANCH  24  25
ENDBRANCH  23  24
ENDBRANCH  22  23
ENDBRANCH  21  22
ENDBRANCH  20  21
ENDBRANCH  19  20
ENDBRANCH  18  19
ENDBRANCH  15  18
ENDBRANCH  11  12
ENDBRANCH   7  10
ENDBRANCH   2   4
TORSDOF 11
ENDMDL
MODEL      148
REMARK 921   NORMALIZED FREE ENERGY PREDICTED BY IDOCK:   -3.91 KCAL/MOL
REMARK 922        TOTAL FREE ENERGY PREDICTED BY IDOCK:   -7.49 KCAL/MOL
REMARK 923 INTER-LIGAND FREE ENERGY PREDICTED BY IDOCK:   -6.81 KCAL/MOL
REMARK 924 INTRA-LIGAND FREE ENERGY PREDICTED BY IDOCK:   -0.68 KCAL/MOL
REMARK 927      BINDING AFFINITY PREDICTED BY RF-SCORE:    0.00 PKD
ROOT
HETATM    1  C   UNL     1      -9.353   1.615  68.329  1.00  0.00    -0.192 C  
HETATM    2  N   UNL     1      -8.823   2.630  67.429  1.00  0.00    -0.126 NA 
HETATM    3  H   UNL     1      -8.065   2.424  66.778  1.00  0.00     0.000 HD 
ENDROOT
BRANCH   2   4
HETATM    4  C   UNL     1      -9.405   3.905  67.504  1.00  0.00    -0.191 A  
HETATM    5  C   UNL     1      -9.822   4.531  66.324  1.00  0.00    -0.244 A  
HETATM    6  C   UNL     1     -10.370   5.819  66.346  1.00  0.00    -0.207 A  
HETATM    7  C   UNL     1     -10.559   6.490  67.558  1.00  0.00    -0.345 A  
HETATM    8  C   UNL     1      -9.686   4.545  68.716  1.00  0.00    -0.213 A  
HETATM    9  C   UNL     1     -10.236   5.831  68.745  1.00  0.00    -0.255 A  
BRANCH   7  10
HETATM   10  C   UNL     1     -10.964   7.900  67.535  1.00  0.00    -0.005 C  
HETATM   11  C   UNL     1     -10.619   8.830  68.441  1.00  0.00    -0.185 C  
BRANCH  11  12
HETATM   12  C   UNL     1     -10.985  10.249  68.301  1.00  0.00    -0.315 A  
HETATM   13  C   UNL     1     -11.140  10.844  67.047  1.00  0.00    -0.271 A  
HETATM   14  C   UNL     1     -11.437  12.200  66.931  1.00  0.00    -0.414 A  
HETATM   15  C   UNL     1     -11.606  12.994  68.067  1.00  0.00    -0.343 A  
HETATM   16  C   UNL     1     -11.197  11.034  69.443  1.00  0.00    -0.332 A  
HETATM   17  C   UNL     1     -11.498  12.398  69.325  1.00  0.00    -0.349 A  
BRANCH  15  18
HETATM   18  O   UNL     1     -11.872  14.342  68.052  1.00  0.00    -0.332 OA 
BRANCH  18  19
HETATM   19  C   UNL     1     -10.711  15.173  68.113  1.00  0.00    -0.254 C  
BRANCH  19  20
HETATM   20  C   UNL     1     -10.970  16.438  68.913  1.00  0.00    -0.332 C  
BRANCH  20  21
HETATM   21  O   UNL     1     -11.008  17.522  67.982  1.00  0.00    -0.328 OA 
BRANCH  21  22
HETATM   22  C   UNL     1      -9.703  17.966  67.622  1.00  0.00    -0.280 C  
BRANCH  22  23
HETATM   23  C   UNL     1      -9.653  18.212  66.118  1.00  0.00    -0.170 C  
BRANCH  23  24
HETATM   24  O   UNL     1      -8.333  17.944  65.650  1.00  0.00    -0.434 OA 
BRANCH  24  25
HETATM   25  C   UNL     1      -7.378  18.839  66.217  1.00  0.00    -0.256 C  
HETATM   26  C   UNL     1      -6.275  19.098  65.207  1.00  0.00    -0.274 C  
HETATM   27  F   UNL     1      -5.363  19.950  65.744  1.00  0.00    -0.160 F  
ENDBRANCH  24  25
ENDBRANCH  23  24
ENDBRANCH  22  23
ENDBRANCH  21  22
ENDBRANCH  20  21
ENDBRANCH  19  20
ENDBRANCH  18  19
ENDBRANCH  15  18
ENDBRANCH  11  12
ENDBRANCH   7  10
ENDBRANCH   2   4
TORSDOF 11
ENDMDL
MODEL      149
REMARK 921   NORMALIZED FREE ENERGY PREDICTED BY IDOCK:   -3.88 KCAL/MOL
REMARK 922        TOTAL FREE ENERGY PREDICTED BY IDOCK:   -7.44 KCAL/MOL
REMARK 923 INTER-LIGAND FREE ENERGY PREDICTED BY IDOCK:   -6.28 KCAL/MOL
REMARK 924 INTRA-LIGAND FREE ENERGY PREDICTED BY IDOCK:   -1.17 KCAL/MOL
REMARK 927      BINDING AFFINITY PREDICTED BY RF-SCORE:    0.00 PKD
ROOT
HETATM    1  C   UNL     1      -7.000   5.059  63.366  1.00  0.00    -0.046 C  
HETATM    2  N   UNL     1      -7.573   5.512  64.626  1.00  0.00    -0.075 NA 
HETATM    3  H   UNL     1      -7.601   4.909  65.448  1.00  0.00     0.000 HD 
ENDROOT
BRANCH   2   4
HETATM    4  C   UNL     1      -8.085   6.818  64.652  1.00  0.00    -0.086 A  
HETATM    5  C   UNL     1      -8.013   7.600  63.493  1.00  0.00    -0.091 A  
HETATM    6  C   UNL     1      -8.474   8.921  63.485  1.00  0.00    -0.146 A  
HETATM    7  C   UNL     1      -9.064   9.475  64.625  1.00  0.00    -0.263 A  
HETATM    8  C   UNL     1      -8.762   7.350  65.755  1.00  0.00    -0.132 A  
HETATM    9  C   UNL     1      -9.228   8.669  65.752  1.00  0.00    -0.245 A  
BRANCH   7  10
HETATM   10  C   UNL     1      -9.370  10.909  64.642  1.00  0.00    -0.256 C  
HETATM   11  C   UNL     1     -10.573  11.458  64.400  1.00  0.00    -0.403 C  
BRANCH  11  12
HETATM   12  C   UNL     1     -10.828  12.902  64.528  1.00  0.00    -0.385 A  
HETATM   13  C   UNL     1     -12.031  13.472  64.107  1.00  0.00    -0.498 A  
HETATM   14  C   UNL     1     -12.238  14.848  64.189  1.00  0.00    -0.280 A  
HETATM   15  C   UNL     1     -11.255  15.688  64.713  1.00  0.00    -0.382 A  
HETATM   16  C   UNL     1      -9.856  13.738  65.095  1.00  0.00    -0.125 A  
HETATM   17  C   UNL     1     -10.066  15.121  65.180  1.00  0.00    -0.331 A  
BRANCH  15  18
HETATM   18  O   UNL     1     -11.356  17.054  64.809  1.00  0.00    -0.706 OA 
BRANCH  18  19
HETATM   19  C   UNL     1     -10.273  17.680  65.498  1.00  0.00     0.105 C  
BRANCH  19  20
HETATM   20  C   UNL     1     -10.755  18.455  66.712  1.00  0.00    -0.237 C  
BRANCH  20  21
HETATM   21  O   UNL     1      -9.654  18.538  67.621  1.00  0.00    -0.278 OA 
BRANCH  21  22
HETATM   22  C   UNL     1      -9.983  18.033  68.911  1.00  0.00    -0.341 C  
BRANCH  22  23
HETATM   23  C   UNL     1     -10.193  16.525  68.821  1.00  0.00    -0.267 C  
BRANCH  23  24
HETATM   24  O   UNL     1      -8.926  15.890  68.658  1.00  0.00    -0.184 OA 
BRANCH  24  25
HETATM   25  C   UNL     1      -9.029  14.470  68.749  1.00  0.00    -0.157 C  
HETATM   26  C   UNL     1     -10.484  14.065  68.597  1.00  0.00    -0.247 C  
HETATM   27  F   UNL     1     -10.587  12.713  68.684  1.00  0.00    -0.223 F  
ENDBRANCH  24  25
ENDBRANCH  23  24
ENDBRANCH  22  23
ENDBRANCH  21  22
ENDBRANCH  20  21
ENDBRANCH  19  20
ENDBRANCH  18  19
ENDBRANCH  15  18
ENDBRANCH  11  12
ENDBRANCH   7  10
ENDBRANCH   2   4
TORSDOF 11
ENDMDL
MODEL      150
REMARK 921   NORMALIZED FREE ENERGY PREDICTED BY IDOCK:   -3.88 KCAL/MOL
REMARK 922        TOTAL FREE ENERGY PREDICTED BY IDOCK:   -7.44 KCAL/MOL
REMARK 923 INTER-LIGAND FREE ENERGY PREDICTED BY IDOCK:   -6.53 KCAL/MOL
REMARK 924 INTRA-LIGAND FREE ENERGY PREDICTED BY IDOCK:   -0.92 KCAL/MOL
REMARK 927      BINDING AFFINITY PREDICTED BY RF-SCORE:    0.00 PKD
ROOT
HETATM    1  C   UNL     1     -14.388   8.203  71.902  1.00  0.00    -0.472 C  
HETATM    2  N   UNL     1     -12.990   8.475  72.206  1.00  0.00    -0.472 NA 
HETATM    3  H   UNL     1     -12.519   8.035  72.996  1.00  0.00     0.000 HD 
ENDROOT
BRANCH   2   4
HETATM    4  C   UNL     1     -12.324   9.374  71.358  1.00  0.00    -0.357 A  
HETATM    5  C   UNL     1     -11.049   9.043  70.884  1.00  0.00    -0.343 A  
HETATM    6  C   UNL     1     -10.332   9.926  70.070  1.00  0.00    -0.320 A  
HETATM    7  C   UNL     1     -10.895  11.142  69.670  1.00  0.00    -0.200 A  
HETATM    8  C   UNL     1     -12.914  10.548  70.875  1.00  0.00    -0.455 A  
HETATM    9  C   UNL     1     -12.203  11.433  70.059  1.00  0.00    -0.377 A  
BRANCH   7  10
HETATM   10  C   UNL     1     -10.054  12.120  68.971  1.00  0.00     0.094 C  
HETATM   11  C   UNL     1     -10.452  13.326  68.533  1.00  0.00    -0.259 C  
BRANCH  11  12
HETATM   12  C   UNL     1      -9.527  14.295  67.924  1.00  0.00    -0.212 A  
HETATM   13  C   UNL     1      -9.871  15.013  66.776  1.00  0.00    -0.252 A  
HETATM   14  C   UNL     1      -8.965  15.890  66.183  1.00  0.00    -0.376 A  
HETATM   15  C   UNL     1      -7.697  16.087  66.732  1.00  0.00    -0.235 A  
HETATM   16  C   UNL     1      -8.270  14.524  68.501  1.00  0.00    -0.154 A  
HETATM   17  C   UNL     1      -7.361  15.408  67.905  1.00  0.00    -0.155 A  
BRANCH  15  18
HETATM   18  O   UNL     1      -6.730  16.907  66.204  1.00  0.00    -0.135 OA 
BRANCH  18  19
HETATM   19  C   UNL     1      -7.157  18.249  65.970  1.00  0.00    -0.271 C  
BRANCH  19  20
HETATM   20  C   UNL     1      -6.354  18.907  64.861  1.00  0.00    -0.168 C  
BRANCH  20  21
HETATM   21  O   UNL     1      -5.276  19.611  65.483  1.00  0.00    -0.157 OA 
BRANCH  21  22
HETATM   22  C   UNL     1      -5.659  20.916  65.904  1.00  0.00    -0.222 C  
BRANCH  22  23
HETATM   23  C   UNL     1      -5.446  21.042  67.409  1.00  0.00    -0.253 C  
BRANCH  23  24
HETATM   24  O   UNL     1      -6.699  21.323  68.031  1.00  0.00    -0.252 OA 
BRANCH  24  25
HETATM   25  C   UNL     1      -7.052  20.324  68.986  1.00  0.00    -0.039 C  
HETATM   26  C   UNL     1      -5.808  19.547  69.378  1.00  0.00    -0.244 C  
HETATM   27  F   UNL     1      -6.140  18.594  70.288  1.00  0.00    -0.239 F  
ENDBRANCH  24  25
ENDBRANCH  23  24
ENDBRANCH  22  23
ENDBRANCH  21  22
ENDBRANCH  20  21
ENDBRANCH  19  20
ENDBRANCH  18  19
ENDBRANCH  15  18
ENDBRANCH  11  12
ENDBRANCH   7  10
ENDBRANCH   2   4
TORSDOF 11
ENDMDL
MODEL      151
REMARK 921   NORMALIZED FREE ENERGY PREDICTED BY IDOCK:   -3.87 KCAL/MOL
REMARK 922        TOTAL FREE ENERGY PREDICTED BY IDOCK:   -7.43 KCAL/MOL
REMARK 923 INTER-LIGAND FREE ENERGY PREDICTED BY IDOCK:   -6.64 KCAL/MOL
REMARK 924 INTRA-LIGAND FREE ENERGY PREDICTED BY IDOCK:   -0.80 KCAL/MOL
REMARK 927      BINDING AFFINITY PREDICTED BY RF-SCORE:    0.00 PKD
ROOT
HETATM    1  C   UNL     1      -6.148   2.118  63.668  1.00  0.00    -0.013 C  
HETATM    2  N   UNL     1      -6.763   2.008  64.983  1.00  0.00    -0.027 NA 
HETATM    3  H   UNL     1      -6.654   1.172  65.557  1.00  0.00     0.000 HD 
ENDROOT
BRANCH   2   4
HETATM    4  C   UNL     1      -7.515   3.109  65.421  1.00  0.00    -0.076 A  
HETATM    5  C   UNL     1      -8.604   3.537  64.653  1.00  0.00    -0.101 A  
HETATM    6  C   UNL     1      -9.356   4.655  65.030  1.00  0.00    -0.142 A  
HETATM    7  C   UNL     1      -9.067   5.342  66.213  1.00  0.00    -0.139 A  
HETATM    8  C   UNL     1      -7.295   3.744  66.649  1.00  0.00    -0.069 A  
HETATM    9  C   UNL     1      -8.045   4.860  67.032  1.00  0.00    -0.107 A  
BRANCH   7  10
HETATM   10  C   UNL     1      -9.753   6.609  66.486  1.00  0.00    -0.176 C  
HETATM   11  C   UNL     1      -9.162   7.756  66.863  1.00  0.00    -0.187 C  
BRANCH  11  12
HETATM   12  C   UNL     1      -9.905   9.016  67.027  1.00  0.00    -0.270 A  
HETATM   13  C   UNL     1     -10.530   9.344  68.232  1.00  0.00    -0.260 A  
HETATM   14  C   UNL     1     -11.272  10.517  68.356  1.00  0.00    -0.339 A  
HETATM   15  C   UNL     1     -11.392  11.403  67.285  1.00  0.00    -0.275 A  
HETATM   16  C   UNL     1      -9.988   9.924  65.963  1.00  0.00    -0.338 A  
HETATM   17  C   UNL     1     -10.732  11.106  66.090  1.00  0.00    -0.285 A  
BRANCH  15  18
HETATM   18  O   UNL     1     -12.122  12.566  67.303  1.00  0.00    -0.490 OA 
BRANCH  18  19
HETATM   19  C   UNL     1     -11.726  13.528  66.324  1.00  0.00    -0.367 C  
BRANCH  19  20
HETATM   20  C   UNL     1     -11.466  14.888  66.948  1.00  0.00    -0.313 C  
BRANCH  20  21
HETATM   21  O   UNL     1     -11.838  14.795  68.326  1.00  0.00    -0.320 OA 
BRANCH  21  22
HETATM   22  C   UNL     1     -11.509  15.976  69.051  1.00  0.00    -0.360 C  
BRANCH  22  23
HETATM   23  C   UNL     1     -10.893  16.996  68.099  1.00  0.00    -0.338 C  
BRANCH  23  24
HETATM   24  O   UNL     1      -9.754  17.584  68.725  1.00  0.00    -0.296 OA 
BRANCH  24  25
HETATM   25  C   UNL     1      -9.268  18.707  67.992  1.00  0.00    -0.304 C  
HETATM   26  C   UNL     1     -10.422  19.646  67.695  1.00  0.00    -0.446 C  
HETATM   27  F   UNL     1      -9.963  20.718  66.997  1.00  0.00    -0.598 F  
ENDBRANCH  24  25
ENDBRANCH  23  24
ENDBRANCH  22  23
ENDBRANCH  21  22
ENDBRANCH  20  21
ENDBRANCH  19  20
ENDBRANCH  18  19
ENDBRANCH  15  18
ENDBRANCH  11  12
ENDBRANCH   7  10
ENDBRANCH   2   4
TORSDOF 11
ENDMDL
MODEL      152
REMARK 921   NORMALIZED FREE ENERGY PREDICTED BY IDOCK:   -3.84 KCAL/MOL
REMARK 922        TOTAL FREE ENERGY PREDICTED BY IDOCK:   -7.39 KCAL/MOL
REMARK 923 INTER-LIGAND FREE ENERGY PREDICTED BY IDOCK:   -6.50 KCAL/MOL
REMARK 924 INTRA-LIGAND FREE ENERGY PREDICTED BY IDOCK:   -0.89 KCAL/MOL
REMARK 927      BINDING AFFINITY PREDICTED BY RF-SCORE:    0.00 PKD
ROOT
HETATM    1  C   UNL     1     -10.754  18.484  65.482  1.00  0.00     0.074 C  
HETATM    2  N   UNL     1     -11.099  17.273  64.751  1.00  0.00    -0.920 NA 
HETATM    3  H   UNL     1     -11.608  17.308  63.868  1.00  0.00     0.000 HD 
ENDROOT
BRANCH   2   4
HETATM    4  C   UNL     1     -10.695  16.056  65.321  1.00  0.00    -0.399 A  
HETATM    5  C   UNL     1     -11.451  14.905  65.071  1.00  0.00    -0.379 A  
HETATM    6  C   UNL     1     -11.109  13.678  65.651  1.00  0.00    -0.300 A  
HETATM    7  C   UNL     1      -9.972  13.565  66.456  1.00  0.00    -0.287 A  
HETATM    8  C   UNL     1      -9.509  15.910  66.049  1.00  0.00    -0.389 A  
HETATM    9  C   UNL     1      -9.160  14.686  66.629  1.00  0.00    -0.285 A  
BRANCH   7  10
HETATM   10  C   UNL     1      -9.743  12.317  67.192  1.00  0.00    -0.203 C  
HETATM   11  C   UNL     1     -10.668  11.376  67.448  1.00  0.00    -0.274 C  
BRANCH  11  12
HETATM   12  C   UNL     1     -10.344  10.102  68.110  1.00  0.00    -0.217 A  
HETATM   13  C   UNL     1     -10.419   8.885  67.430  1.00  0.00    -0.347 A  
HETATM   14  C   UNL     1     -10.158   7.682  68.085  1.00  0.00    -0.220 A  
HETATM   15  C   UNL     1      -9.794   7.667  69.432  1.00  0.00    -0.171 A  
HETATM   16  C   UNL     1      -9.937  10.093  69.451  1.00  0.00    -0.247 A  
HETATM   17  C   UNL     1      -9.671   8.883  70.108  1.00  0.00    -0.199 A  
BRANCH  15  18
HETATM   18  O   UNL     1      -9.546   6.534  70.168  1.00  0.00    -0.160 OA 
BRANCH  18  19
HETATM   19  C   UNL     1     -10.421   5.442  69.883  1.00  0.00    -0.308 C  
BRANCH  19  20
HETATM   20  C   UNL     1      -9.651   4.203  69.460  1.00  0.00    -0.204 C  
BRANCH  20  21
HETATM   21  O   UNL     1      -8.455   4.651  68.818  1.00  0.00    -0.084 OA 
BRANCH  21  22
HETATM   22  C   UNL     1      -8.178   3.919  67.628  1.00  0.00    -0.093 C  
BRANCH  22  23
HETATM   23  C   UNL     1      -9.414   3.925  66.735  1.00  0.00    -0.202 C  
BRANCH  23  24
HETATM   24  O   UNL     1      -9.283   4.970  65.772  1.00  0.00    -0.149 OA 
BRANCH  24  25
HETATM   25  C   UNL     1      -9.186   4.457  64.445  1.00  0.00    -0.149 C  
HETATM   26  C   UNL     1     -10.508   3.819  64.059  1.00  0.00    -0.261 C  
HETATM   27  F   UNL     1     -10.420   3.329  62.794  1.00  0.00    -0.124 F  
ENDBRANCH  24  25
ENDBRANCH  23  24
ENDBRANCH  22  23
ENDBRANCH  21  22
ENDBRANCH  20  21
ENDBRANCH  19  20
ENDBRANCH  18  19
ENDBRANCH  15  18
ENDBRANCH  11  12
ENDBRANCH   7  10
ENDBRANCH   2   4
TORSDOF 11
ENDMDL
MODEL      153
REMARK 921   NORMALIZED FREE ENERGY PREDICTED BY IDOCK:   -3.84 KCAL/MOL
REMARK 922        TOTAL FREE ENERGY PREDICTED BY IDOCK:   -7.38 KCAL/MOL
REMARK 923 INTER-LIGAND FREE ENERGY PREDICTED BY IDOCK:   -6.42 KCAL/MOL
REMARK 924 INTRA-LIGAND FREE ENERGY PREDICTED BY IDOCK:   -0.96 KCAL/MOL
REMARK 927      BINDING AFFINITY PREDICTED BY RF-SCORE:    0.00 PKD
ROOT
HETATM    1  C   UNL     1     -13.984  14.932  72.358  1.00  0.00    -0.481 C  
HETATM    2  N   UNL     1     -13.478  15.698  71.228  1.00  0.00    -0.561 NA 
HETATM    3  H   UNL     1     -13.697  16.687  71.110  1.00  0.00     0.000 HD 
ENDROOT
BRANCH   2   4
HETATM    4  C   UNL     1     -12.673  15.007  70.308  1.00  0.00    -0.275 A  
HETATM    5  C   UNL     1     -11.980  15.733  69.332  1.00  0.00    -0.321 A  
HETATM    6  C   UNL     1     -11.198  15.083  68.371  1.00  0.00    -0.303 A  
HETATM    7  C   UNL     1     -11.052  13.693  68.394  1.00  0.00    -0.289 A  
HETATM    8  C   UNL     1     -12.443  13.629  70.380  1.00  0.00    -0.364 A  
HETATM    9  C   UNL     1     -11.660  12.974  69.423  1.00  0.00    -0.360 A  
BRANCH   7  10
HETATM   10  C   UNL     1     -10.378  13.030  67.273  1.00  0.00    -0.238 C  
HETATM   11  C   UNL     1     -10.290  11.702  67.084  1.00  0.00    -0.247 C  
BRANCH  11  12
HETATM   12  C   UNL     1      -9.681  11.109  65.883  1.00  0.00    -0.268 A  
HETATM   13  C   UNL     1     -10.349  11.091  64.657  1.00  0.00    -0.410 A  
HETATM   14  C   UNL     1      -9.779  10.480  63.541  1.00  0.00    -0.374 A  
HETATM   15  C   UNL     1      -8.517   9.889  63.617  1.00  0.00    -0.181 A  
HETATM   16  C   UNL     1      -8.395  10.554  65.951  1.00  0.00    -0.161 A  
HETATM   17  C   UNL     1      -7.822   9.942  64.827  1.00  0.00    -0.141 A  
BRANCH  15  18
HETATM   18  O   UNL     1      -7.888   9.241  62.582  1.00  0.00    -0.116 OA 
BRANCH  18  19
HETATM   19  C   UNL     1      -8.006   7.818  62.618  1.00  0.00    -0.132 C  
BRANCH  19  20
HETATM   20  C   UNL     1      -6.695   7.158  63.010  1.00  0.00    -0.052 C  
BRANCH  20  21
HETATM   21  O   UNL     1      -6.914   6.503  64.262  1.00  0.00    -0.047 OA 
BRANCH  21  22
HETATM   22  C   UNL     1      -8.267   6.087  64.421  1.00  0.00    -0.082 C  
BRANCH  22  23
HETATM   23  C   UNL     1      -8.706   6.342  65.859  1.00  0.00    -0.149 C  
BRANCH  23  24
HETATM   24  O   UNL     1      -8.566   5.135  66.606  1.00  0.00    -0.111 OA 
BRANCH  24  25
HETATM   25  C   UNL     1      -9.297   5.181  67.830  1.00  0.00    -0.120 C  
HETATM   26  C   UNL     1     -10.659   5.798  67.574  1.00  0.00    -0.253 C  
HETATM   27  F   UNL     1     -11.359   5.845  68.738  1.00  0.00    -0.387 F  
ENDBRANCH  24  25
ENDBRANCH  23  24
ENDBRANCH  22  23
ENDBRANCH  21  22
ENDBRANCH  20  21
ENDBRANCH  19  20
ENDBRANCH  18  19
ENDBRANCH  15  18
ENDBRANCH  11  12
ENDBRANCH   7  10
ENDBRANCH   2   4
TORSDOF 11
ENDMDL
MODEL      154
REMARK 921   NORMALIZED FREE ENERGY PREDICTED BY IDOCK:   -3.83 KCAL/MOL
REMARK 922        TOTAL FREE ENERGY PREDICTED BY IDOCK:   -7.37 KCAL/MOL
REMARK 923 INTER-LIGAND FREE ENERGY PREDICTED BY IDOCK:   -6.47 KCAL/MOL
REMARK 924 INTRA-LIGAND FREE ENERGY PREDICTED BY IDOCK:   -0.90 KCAL/MOL
REMARK 927      BINDING AFFINITY PREDICTED BY RF-SCORE:    0.00 PKD
ROOT
HETATM    1  C   UNL     1      -9.114  19.687  68.069  1.00  0.00    -0.326 C  
HETATM    2  N   UNL     1     -10.310  18.927  67.734  1.00  0.00    -0.400 NA 
HETATM    3  H   UNL     1     -11.186  19.389  67.488  1.00  0.00     0.000 HD 
ENDROOT
BRANCH   2   4
HETATM    4  C   UNL     1     -10.199  17.528  67.768  1.00  0.00    -0.349 A  
HETATM    5  C   UNL     1      -9.279  16.899  66.921  1.00  0.00    -0.253 A  
HETATM    6  C   UNL     1      -9.163  15.505  66.892  1.00  0.00    -0.257 A  
HETATM    7  C   UNL     1      -9.932  14.710  67.748  1.00  0.00    -0.224 A  
HETATM    8  C   UNL     1     -10.892  16.730  68.685  1.00  0.00    -0.336 A  
HETATM    9  C   UNL     1     -10.778  15.336  68.663  1.00  0.00    -0.245 A  
BRANCH   7  10
HETATM   10  C   UNL     1      -9.920  13.254  67.568  1.00  0.00    -0.223 C  
HETATM   11  C   UNL     1      -9.027  12.561  66.841  1.00  0.00    -0.212 C  
BRANCH  11  12
HETATM   12  C   UNL     1      -9.020  11.090  66.783  1.00  0.00    -0.163 A  
HETATM   13  C   UNL     1     -10.009  10.381  66.097  1.00  0.00    -0.290 A  
HETATM   14  C   UNL     1     -10.017   8.987  66.094  1.00  0.00    -0.311 A  
HETATM   15  C   UNL     1      -9.024   8.266  66.759  1.00  0.00    -0.147 A  
HETATM   16  C   UNL     1      -7.998  10.368  67.415  1.00  0.00    -0.107 A  
HETATM   17  C   UNL     1      -8.005   8.966  67.408  1.00  0.00    -0.101 A  
BRANCH  15  18
HETATM   18  O   UNL     1      -8.965   6.896  66.835  1.00  0.00    -0.115 OA 
BRANCH  18  19
HETATM   19  C   UNL     1      -8.229   6.398  67.953  1.00  0.00    -0.115 C  
BRANCH  19  20
HETATM   20  C   UNL     1      -8.962   5.262  68.645  1.00  0.00    -0.107 C  
BRANCH  20  21
HETATM   21  O   UNL     1     -10.349   5.402  68.327  1.00  0.00    -0.180 OA 
BRANCH  21  22
HETATM   22  C   UNL     1     -11.044   6.184  69.294  1.00  0.00    -0.393 C  
BRANCH  22  23
HETATM   23  C   UNL     1     -10.663   5.709  70.692  1.00  0.00    -0.263 C  
BRANCH  23  24
HETATM   24  O   UNL     1     -10.518   6.845  71.543  1.00  0.00    -0.211 OA 
BRANCH  24  25
HETATM   25  C   UNL     1     -11.740   7.170  72.204  1.00  0.00    -0.284 C  
HETATM   26  C   UNL     1     -11.991   8.662  72.085  1.00  0.00    -0.379 C  
HETATM   27  F   UNL     1     -13.154   8.976  72.714  1.00  0.00    -0.477 F  
ENDBRANCH  24  25
ENDBRANCH  23  24
ENDBRANCH  22  23
ENDBRANCH  21  22
ENDBRANCH  20  21
ENDBRANCH  19  20
ENDBRANCH  18  19
ENDBRANCH  15  18
ENDBRANCH  11  12
ENDBRANCH   7  10
ENDBRANCH   2   4
TORSDOF 11
ENDMDL
MODEL      155
REMARK 921   NORMALIZED FREE ENERGY PREDICTED BY IDOCK:   -3.81 KCAL/MOL
REMARK 922        TOTAL FREE ENERGY PREDICTED BY IDOCK:   -7.34 KCAL/MOL
REMARK 923 INTER-LIGAND FREE ENERGY PREDICTED BY IDOCK:   -5.91 KCAL/MOL
REMARK 924 INTRA-LIGAND FREE ENERGY PREDICTED BY IDOCK:   -1.43 KCAL/MOL
REMARK 927      BINDING AFFINITY PREDICTED BY RF-SCORE:    0.00 PKD
ROOT
HETATM    1  C   UNL     1     -12.444  15.130  64.285  1.00  0.00    -0.052 C  
HETATM    2  N   UNL     1     -11.020  14.961  64.538  1.00  0.00    -0.638 NA 
HETATM    3  H   UNL     1     -10.380  15.755  64.544  1.00  0.00     0.000 HD 
ENDROOT
BRANCH   2   4
HETATM    4  C   UNL     1     -10.572  13.652  64.773  1.00  0.00    -0.422 A  
HETATM    5  C   UNL     1     -10.827  12.664  63.814  1.00  0.00    -0.466 A  
HETATM    6  C   UNL     1     -10.435  11.338  64.025  1.00  0.00    -0.440 A  
HETATM    7  C   UNL     1      -9.733  10.978  65.180  1.00  0.00    -0.302 A  
HETATM    8  C   UNL     1      -9.788  13.300  65.877  1.00  0.00    -0.241 A  
HETATM    9  C   UNL     1      -9.390  11.976  66.092  1.00  0.00    -0.217 A  
BRANCH   7  10
HETATM   10  C   UNL     1      -9.497   9.556  65.454  1.00  0.00    -0.336 C  
HETATM   11  C   UNL     1      -9.798   8.919  66.598  1.00  0.00    -0.332 C  
BRANCH  11  12
HETATM   12  C   UNL     1      -9.620   7.467  66.769  1.00  0.00    -0.265 A  
HETATM   13  C   UNL     1      -8.366   6.865  66.646  1.00  0.00    -0.118 A  
HETATM   14  C   UNL     1      -8.222   5.483  66.760  1.00  0.00    -0.105 A  
HETATM   15  C   UNL     1      -9.325   4.669  67.020  1.00  0.00    -0.141 A  
HETATM   16  C   UNL     1     -10.722   6.657  67.073  1.00  0.00    -0.437 A  
HETATM   17  C   UNL     1     -10.576   5.267  67.191  1.00  0.00    -0.227 A  
BRANCH  15  18
HETATM   18  O   UNL     1      -9.286   3.300  67.122  1.00  0.00    -0.187 OA 
BRANCH  18  19
HETATM   19  C   UNL     1      -8.401   2.808  68.129  1.00  0.00    -0.074 C  
BRANCH  19  20
HETATM   20  C   UNL     1      -9.126   1.923  69.128  1.00  0.00    -0.116 C  
BRANCH  20  21
HETATM   21  O   UNL     1      -9.419   2.732  70.270  1.00  0.00    -0.145 OA 
BRANCH  21  22
HETATM   22  C   UNL     1      -8.595   2.405  71.385  1.00  0.00    -0.063 C  
BRANCH  22  23
HETATM   23  C   UNL     1      -7.869   3.660  71.858  1.00  0.00    -0.062 C  
BRANCH  23  24
HETATM   24  O   UNL     1      -8.835   4.632  72.253  1.00  0.00    -0.120 OA 
BRANCH  24  25
HETATM   25  C   UNL     1      -8.463   5.946  71.840  1.00  0.00    -0.126 C  
HETATM   26  C   UNL     1      -8.871   6.148  70.392  1.00  0.00    -0.149 C  
HETATM   27  F   UNL     1      -8.518   7.399  69.995  1.00  0.00    -0.129 F  
ENDBRANCH  24  25
ENDBRANCH  23  24
ENDBRANCH  22  23
ENDBRANCH  21  22
ENDBRANCH  20  21
ENDBRANCH  19  20
ENDBRANCH  18  19
ENDBRANCH  15  18
ENDBRANCH  11  12
ENDBRANCH   7  10
ENDBRANCH   2   4
TORSDOF 11
ENDMDL
MODEL      156
REMARK 921   NORMALIZED FREE ENERGY PREDICTED BY IDOCK:   -3.81 KCAL/MOL
REMARK 922        TOTAL FREE ENERGY PREDICTED BY IDOCK:   -7.33 KCAL/MOL
REMARK 923 INTER-LIGAND FREE ENERGY PREDICTED BY IDOCK:   -6.65 KCAL/MOL
REMARK 924 INTRA-LIGAND FREE ENERGY PREDICTED BY IDOCK:   -0.68 KCAL/MOL
REMARK 927      BINDING AFFINITY PREDICTED BY RF-SCORE:    0.00 PKD
ROOT
HETATM    1  C   UNL     1      -6.536  21.211  67.291  1.00  0.00    -0.359 C  
HETATM    2  N   UNL     1      -7.990  21.131  67.323  1.00  0.00    -0.610 NA 
HETATM    3  H   UNL     1      -8.574  21.962  67.237  1.00  0.00     0.000 HD 
ENDROOT
BRANCH   2   4
HETATM    4  C   UNL     1      -8.547  19.852  67.480  1.00  0.00    -0.337 A  
HETATM    5  C   UNL     1      -7.788  18.852  68.100  1.00  0.00    -0.327 A  
HETATM    6  C   UNL     1      -8.287  17.552  68.240  1.00  0.00    -0.265 A  
HETATM    7  C   UNL     1      -9.579  17.235  67.808  1.00  0.00    -0.262 A  
HETATM    8  C   UNL     1      -9.869  19.548  67.138  1.00  0.00    -0.465 A  
HETATM    9  C   UNL     1     -10.375  18.252  67.279  1.00  0.00    -0.407 A  
BRANCH   7  10
HETATM   10  C   UNL     1     -10.003  15.831  67.804  1.00  0.00    -0.227 C  
HETATM   11  C   UNL     1      -9.187  14.765  67.862  1.00  0.00    -0.191 C  
BRANCH  11  12
HETATM   12  C   UNL     1      -9.690  13.384  67.951  1.00  0.00    -0.226 A  
HETATM   13  C   UNL     1      -8.858  12.327  68.326  1.00  0.00    -0.178 A  
HETATM   14  C   UNL     1      -9.336  11.018  68.357  1.00  0.00    -0.179 A  
HETATM   15  C   UNL     1     -10.663  10.734  68.032  1.00  0.00    -0.228 A  
HETATM   16  C   UNL     1     -11.034  13.107  67.666  1.00  0.00    -0.282 A  
HETATM   17  C   UNL     1     -11.514  11.791  67.700  1.00  0.00    -0.370 A  
BRANCH  15  18
HETATM   18  O   UNL     1     -11.216   9.477  68.006  1.00  0.00    -0.090 OA 
BRANCH  18  19
HETATM   19  C   UNL     1     -10.571   8.567  67.114  1.00  0.00    -0.243 C  
BRANCH  19  20
HETATM   20  C   UNL     1     -10.805   7.123  67.521  1.00  0.00    -0.241 C  
BRANCH  20  21
HETATM   21  O   UNL     1     -10.056   6.305  66.618  1.00  0.00    -0.175 OA 
BRANCH  21  22
HETATM   22  C   UNL     1      -9.565   5.124  67.244  1.00  0.00    -0.142 C  
BRANCH  22  23
HETATM   23  C   UNL     1      -9.778   3.936  66.313  1.00  0.00    -0.160 C  
BRANCH  23  24
HETATM   24  O   UNL     1      -9.861   4.410  64.970  1.00  0.00    -0.177 OA 
BRANCH  24  25
HETATM   25  C   UNL     1     -10.910   3.769  64.246  1.00  0.00    -0.133 C  
HETATM   26  C   UNL     1     -10.390   2.470  63.658  1.00  0.00    -0.160 C  
HETATM   27  F   UNL     1     -11.386   1.856  62.967  1.00  0.00    -0.220 F  
ENDBRANCH  24  25
ENDBRANCH  23  24
ENDBRANCH  22  23
ENDBRANCH  21  22
ENDBRANCH  20  21
ENDBRANCH  19  20
ENDBRANCH  18  19
ENDBRANCH  15  18
ENDBRANCH  11  12
ENDBRANCH   7  10
ENDBRANCH   2   4
TORSDOF 11
ENDMDL
MODEL      157
REMARK 921   NORMALIZED FREE ENERGY PREDICTED BY IDOCK:   -3.80 KCAL/MOL
REMARK 922        TOTAL FREE ENERGY PREDICTED BY IDOCK:   -7.32 KCAL/MOL
REMARK 923 INTER-LIGAND FREE ENERGY PREDICTED BY IDOCK:   -6.46 KCAL/MOL
REMARK 924 INTRA-LIGAND FREE ENERGY PREDICTED BY IDOCK:   -0.86 KCAL/MOL
REMARK 927      BINDING AFFINITY PREDICTED BY RF-SCORE:    0.00 PKD
ROOT
HETATM    1  C   UNL     1      -7.077  21.080  67.185  1.00  0.00    -0.317 C  
HETATM    2  N   UNL     1      -8.481  20.782  66.938  1.00  0.00    -0.571 NA 
HETATM    3  H   UNL     1      -9.133  21.500  66.622  1.00  0.00     0.000 HD 
ENDROOT
BRANCH   2   4
HETATM    4  C   UNL     1      -8.893  19.458  67.159  1.00  0.00    -0.295 A  
HETATM    5  C   UNL     1      -8.418  18.778  68.287  1.00  0.00    -0.357 A  
HETATM    6  C   UNL     1      -8.769  17.445  68.525  1.00  0.00    -0.277 A  
HETATM    7  C   UNL     1      -9.645  16.775  67.664  1.00  0.00    -0.244 A  
HETATM    8  C   UNL     1      -9.841  18.810  66.359  1.00  0.00    -0.403 A  
HETATM    9  C   UNL     1     -10.198  17.478  66.594  1.00  0.00    -0.332 A  
BRANCH   7  10
HETATM   10  C   UNL     1      -9.849  15.333  67.839  1.00  0.00    -0.216 C  
HETATM   11  C   UNL     1     -10.286  14.483  66.894  1.00  0.00    -0.264 C  
BRANCH  11  12
HETATM   12  C   UNL     1     -10.376  13.031  67.113  1.00  0.00    -0.243 A  
HETATM   13  C   UNL     1     -10.475  12.135  66.046  1.00  0.00    -0.281 A  
HETATM   14  C   UNL     1     -10.610  10.767  66.271  1.00  0.00    -0.257 A  
HETATM   15  C   UNL     1     -10.629  10.255  67.569  1.00  0.00    -0.268 A  
HETATM   16  C   UNL     1     -10.351  12.515  68.416  1.00  0.00    -0.237 A  
HETATM   17  C   UNL     1     -10.484  11.137  68.641  1.00  0.00    -0.220 A  
BRANCH  15  18
HETATM   18  O   UNL     1     -10.786   8.928  67.889  1.00  0.00    -0.210 OA 
BRANCH  18  19
HETATM   19  C   UNL     1     -10.441   8.022  66.840  1.00  0.00    -0.317 C  
BRANCH  19  20
HETATM   20  C   UNL     1      -9.183   7.237  67.169  1.00  0.00    -0.135 C  
BRANCH  20  21
HETATM   21  O   UNL     1      -9.372   6.668  68.467  1.00  0.00    -0.127 OA 
BRANCH  21  22
HETATM   22  C   UNL     1      -8.985   5.298  68.514  1.00  0.00    -0.108 C  
BRANCH  22  23
HETATM   23  C   UNL     1      -9.906   4.484  67.610  1.00  0.00    -0.127 C  
BRANCH  23  24
HETATM   24  O   UNL     1      -9.173   3.386  67.071  1.00  0.00    -0.161 OA 
BRANCH  24  25
HETATM   25  C   UNL     1      -8.889   3.569  65.685  1.00  0.00    -0.129 C  
HETATM   26  C   UNL     1     -10.113   4.145  64.997  1.00  0.00    -0.208 C  
HETATM   27  F   UNL     1      -9.847   4.320  63.676  1.00  0.00    -0.157 F  
ENDBRANCH  24  25
ENDBRANCH  23  24
ENDBRANCH  22  23
ENDBRANCH  21  22
ENDBRANCH  20  21
ENDBRANCH  19  20
ENDBRANCH  18  19
ENDBRANCH  15  18
ENDBRANCH  11  12
ENDBRANCH   7  10
ENDBRANCH   2   4
TORSDOF 11
ENDMDL
MODEL      158
REMARK 921   NORMALIZED FREE ENERGY PREDICTED BY IDOCK:   -3.79 KCAL/MOL
REMARK 922        TOTAL FREE ENERGY PREDICTED BY IDOCK:   -7.30 KCAL/MOL
REMARK 923 INTER-LIGAND FREE ENERGY PREDICTED BY IDOCK:   -6.43 KCAL/MOL
REMARK 924 INTRA-LIGAND FREE ENERGY PREDICTED BY IDOCK:   -0.87 KCAL/MOL
REMARK 927      BINDING AFFINITY PREDICTED BY RF-SCORE:    0.00 PKD
ROOT
HETATM    1  C   UNL     1     -10.254  19.967  66.236  1.00  0.00    -0.478 C  
HETATM    2  N   UNL     1      -9.193  19.054  65.834  1.00  0.00    -0.411 NA 
HETATM    3  H   UNL     1      -8.436  19.351  65.219  1.00  0.00     0.000 HD 
ENDROOT
BRANCH   2   4
HETATM    4  C   UNL     1      -9.266  17.745  66.335  1.00  0.00    -0.240 A  
HETATM    5  C   UNL     1     -10.520  17.202  66.638  1.00  0.00    -0.259 A  
HETATM    6  C   UNL     1     -10.637  15.916  67.177  1.00  0.00    -0.316 A  
HETATM    7  C   UNL     1      -9.502  15.123  67.379  1.00  0.00    -0.204 A  
HETATM    8  C   UNL     1      -8.149  16.910  66.451  1.00  0.00    -0.350 A  
HETATM    9  C   UNL     1      -8.260  15.622  66.987  1.00  0.00    -0.268 A  
BRANCH   7  10
HETATM   10  C   UNL     1      -9.639  13.859  68.109  1.00  0.00    -0.218 C  
HETATM   11  C   UNL     1     -10.796  13.305  68.509  1.00  0.00    -0.286 C  
BRANCH  11  12
HETATM   12  C   UNL     1     -10.864  11.984  69.155  1.00  0.00    -0.175 A  
HETATM   13  C   UNL     1     -11.896  11.652  70.035  1.00  0.00    -0.435 A  
HETATM   14  C   UNL     1     -11.918  10.416  70.678  1.00  0.00    -0.448 A  
HETATM   15  C   UNL     1     -10.920   9.470  70.441  1.00  0.00    -0.278 A  
HETATM   16  C   UNL     1      -9.883  11.020  68.883  1.00  0.00    -0.189 A  
HETATM   17  C   UNL     1      -9.909   9.775  69.527  1.00  0.00    -0.230 A  
BRANCH  15  18
HETATM   18  O   UNL     1     -10.842   8.239  71.046  1.00  0.00    -0.224 OA 
BRANCH  18  19
HETATM   19  C   UNL     1     -12.000   7.421  70.870  1.00  0.00    -0.277 C  
BRANCH  19  20
HETATM   20  C   UNL     1     -11.716   6.238  69.961  1.00  0.00    -0.178 C  
BRANCH  20  21
HETATM   21  O   UNL     1     -10.363   6.365  69.518  1.00  0.00    -0.183 OA 
BRANCH  21  22
HETATM   22  C   UNL     1     -10.259   6.351  68.097  1.00  0.00    -0.167 C  
BRANCH  22  23
HETATM   23  C   UNL     1      -8.924   6.962  67.684  1.00  0.00    -0.116 C  
BRANCH  23  24
HETATM   24  O   UNL     1      -8.864   7.021  66.260  1.00  0.00    -0.140 OA 
BRANCH  24  25
HETATM   25  C   UNL     1      -7.752   7.793  65.809  1.00  0.00    -0.099 C  
HETATM   26  C   UNL     1      -8.231   8.809  64.788  1.00  0.00    -0.162 C  
HETATM   27  F   UNL     1      -7.174   9.546  64.356  1.00  0.00    -0.097 F  
ENDBRANCH  24  25
ENDBRANCH  23  24
ENDBRANCH  22  23
ENDBRANCH  21  22
ENDBRANCH  20  21
ENDBRANCH  19  20
ENDBRANCH  18  19
ENDBRANCH  15  18
ENDBRANCH  11  12
ENDBRANCH   7  10
ENDBRANCH   2   4
TORSDOF 11
ENDMDL
MODEL      159
REMARK 921   NORMALIZED FREE ENERGY PREDICTED BY IDOCK:   -3.79 KCAL/MOL
REMARK 922        TOTAL FREE ENERGY PREDICTED BY IDOCK:   -7.29 KCAL/MOL
REMARK 923 INTER-LIGAND FREE ENERGY PREDICTED BY IDOCK:   -6.78 KCAL/MOL
REMARK 924 INTRA-LIGAND FREE ENERGY PREDICTED BY IDOCK:   -0.51 KCAL/MOL
REMARK 927      BINDING AFFINITY PREDICTED BY RF-SCORE:    0.00 PKD
ROOT
HETATM    1  C   UNL     1      -8.539   3.873  71.153  1.00  0.00    -0.076 C  
HETATM    2  N   UNL     1      -8.649   3.731  69.708  1.00  0.00    -0.063 NA 
HETATM    3  H   UNL     1      -8.345   2.883  69.230  1.00  0.00     0.000 HD 
ENDROOT
BRANCH   2   4
HETATM    4  C   UNL     1      -9.194   4.818  69.008  1.00  0.00    -0.123 A  
HETATM    5  C   UNL     1      -8.540   5.284  67.861  1.00  0.00    -0.103 A  
HETATM    6  C   UNL     1      -9.024   6.390  67.155  1.00  0.00    -0.109 A  
HETATM    7  C   UNL     1     -10.205   7.026  67.551  1.00  0.00    -0.257 A  
HETATM    8  C   UNL     1     -10.423   5.401  69.338  1.00  0.00    -0.331 A  
HETATM    9  C   UNL     1     -10.914   6.505  68.634  1.00  0.00    -0.363 A  
BRANCH   7  10
HETATM   10  C   UNL     1     -10.587   8.285  66.903  1.00  0.00    -0.302 C  
HETATM   11  C   UNL     1      -9.775   9.070  66.174  1.00  0.00    -0.354 C  
BRANCH  11  12
HETATM   12  C   UNL     1     -10.253  10.273  65.473  1.00  0.00    -0.308 A  
HETATM   13  C   UNL     1      -9.866  10.556  64.161  1.00  0.00    -0.401 A  
HETATM   14  C   UNL     1     -10.286  11.724  63.528  1.00  0.00    -0.490 A  
HETATM   15  C   UNL     1     -11.121  12.631  64.183  1.00  0.00    -0.382 A  
HETATM   16  C   UNL     1     -11.126  11.160  66.117  1.00  0.00    -0.152 A  
HETATM   17  C   UNL     1     -11.550  12.334  65.478  1.00  0.00    -0.422 A  
BRANCH  15  18
HETATM   18  O   UNL     1     -11.563  13.818  63.652  1.00  0.00    -0.188 OA 
BRANCH  18  19
HETATM   19  C   UNL     1     -11.933  14.797  64.624  1.00  0.00    -0.440 C  
BRANCH  19  20
HETATM   20  C   UNL     1     -10.837  15.829  64.826  1.00  0.00    -0.344 C  
BRANCH  20  21
HETATM   21  O   UNL     1     -10.734  16.061  66.233  1.00  0.00    -0.301 OA 
BRANCH  21  22
HETATM   22  C   UNL     1      -9.408  16.403  66.624  1.00  0.00    -0.259 C  
BRANCH  22  23
HETATM   23  C   UNL     1      -9.420  16.885  68.071  1.00  0.00    -0.243 C  
BRANCH  23  24
HETATM   24  O   UNL     1      -8.879  15.862  68.905  1.00  0.00    -0.195 OA 
BRANCH  24  25
HETATM   25  C   UNL     1      -7.587  16.210  69.401  1.00  0.00    -0.161 C  
HETATM   26  C   UNL     1      -7.085  17.438  68.664  1.00  0.00    -0.237 C  
HETATM   27  F   UNL     1      -5.854  17.774  69.134  1.00  0.00    -0.177 F  
ENDBRANCH  24  25
ENDBRANCH  23  24
ENDBRANCH  22  23
ENDBRANCH  21  22
ENDBRANCH  20  21
ENDBRANCH  19  20
ENDBRANCH  18  19
ENDBRANCH  15  18
ENDBRANCH  11  12
ENDBRANCH   7  10
ENDBRANCH   2   4
TORSDOF 11
ENDMDL
MODEL      160
REMARK 921   NORMALIZED FREE ENERGY PREDICTED BY IDOCK:   -3.78 KCAL/MOL
REMARK 922        TOTAL FREE ENERGY PREDICTED BY IDOCK:   -7.28 KCAL/MOL
REMARK 923 INTER-LIGAND FREE ENERGY PREDICTED BY IDOCK:   -6.53 KCAL/MOL
REMARK 924 INTRA-LIGAND FREE ENERGY PREDICTED BY IDOCK:   -0.75 KCAL/MOL
REMARK 927      BINDING AFFINITY PREDICTED BY RF-SCORE:    0.00 PKD
ROOT
HETATM    1  C   UNL     1      -8.695   3.979  66.468  1.00  0.00    -0.116 C  
HETATM    2  N   UNL     1      -9.289   4.861  67.464  1.00  0.00    -0.127 NA 
HETATM    3  H   UNL     1      -9.646   4.503  68.350  1.00  0.00     0.000 HD 
ENDROOT
BRANCH   2   4
HETATM    4  C   UNL     1      -9.345   6.226  67.143  1.00  0.00    -0.123 A  
HETATM    5  C   UNL     1     -10.113   7.080  67.943  1.00  0.00    -0.204 A  
HETATM    6  C   UNL     1     -10.230   8.441  67.638  1.00  0.00    -0.298 A  
HETATM    7  C   UNL     1      -9.540   8.988  66.552  1.00  0.00    -0.286 A  
HETATM    8  C   UNL     1      -8.585   6.802  66.119  1.00  0.00    -0.146 A  
HETATM    9  C   UNL     1      -8.696   8.161  65.811  1.00  0.00    -0.183 A  
BRANCH   7  10
HETATM   10  C   UNL     1      -9.825  10.371  66.152  1.00  0.00    -0.278 C  
HETATM   11  C   UNL     1     -10.172  11.371  66.980  1.00  0.00    -0.246 C  
BRANCH  11  12
HETATM   12  C   UNL     1     -10.349  12.758  66.519  1.00  0.00    -0.262 A  
HETATM   13  C   UNL     1     -11.549  13.191  65.951  1.00  0.00    -0.391 A  
HETATM   14  C   UNL     1     -11.685  14.493  65.474  1.00  0.00    -0.343 A  
HETATM   15  C   UNL     1     -10.631  15.403  65.570  1.00  0.00    -0.383 A  
HETATM   16  C   UNL     1      -9.304  13.681  66.656  1.00  0.00    -0.265 A  
HETATM   17  C   UNL     1      -9.443  14.992  66.178  1.00  0.00    -0.347 A  
BRANCH  15  18
HETATM   18  O   UNL     1     -10.661  16.695  65.104  1.00  0.00    -0.645 OA 
BRANCH  18  19
HETATM   19  C   UNL     1     -10.884  17.681  66.113  1.00  0.00     0.052 C  
BRANCH  19  20
HETATM   20  C   UNL     1      -9.605  18.422  66.463  1.00  0.00    -0.327 C  
BRANCH  20  21
HETATM   21  O   UNL     1      -9.866  19.169  67.654  1.00  0.00    -0.311 OA 
BRANCH  21  22
HETATM   22  C   UNL     1      -8.698  19.335  68.451  1.00  0.00    -0.357 C  
BRANCH  22  23
HETATM   23  C   UNL     1      -7.941  18.012  68.514  1.00  0.00    -0.303 C  
BRANCH  23  24
HETATM   24  O   UNL     1      -6.566  18.252  68.219  1.00  0.00    -0.201 OA 
BRANCH  24  25
HETATM   25  C   UNL     1      -5.725  17.224  68.740  1.00  0.00    -0.158 C  
HETATM   26  C   UNL     1      -6.515  16.389  69.732  1.00  0.00    -0.153 C  
HETATM   27  F   UNL     1      -5.718  15.408  70.231  1.00  0.00    -0.128 F  
ENDBRANCH  24  25
ENDBRANCH  23  24
ENDBRANCH  22  23
ENDBRANCH  21  22
ENDBRANCH  20  21
ENDBRANCH  19  20
ENDBRANCH  18  19
ENDBRANCH  15  18
ENDBRANCH  11  12
ENDBRANCH   7  10
ENDBRANCH   2   4
TORSDOF 11
ENDMDL
MODEL      161
REMARK 921   NORMALIZED FREE ENERGY PREDICTED BY IDOCK:   -3.76 KCAL/MOL
REMARK 922        TOTAL FREE ENERGY PREDICTED BY IDOCK:   -7.25 KCAL/MOL
REMARK 923 INTER-LIGAND FREE ENERGY PREDICTED BY IDOCK:   -6.19 KCAL/MOL
REMARK 924 INTRA-LIGAND FREE ENERGY PREDICTED BY IDOCK:   -1.06 KCAL/MOL
REMARK 927      BINDING AFFINITY PREDICTED BY RF-SCORE:    0.00 PKD
ROOT
HETATM    1  C   UNL     1     -11.911  15.807  69.361  1.00  0.00    -0.349 C  
HETATM    2  N   UNL     1     -12.994  15.087  70.016  1.00  0.00    -0.620 NA 
HETATM    3  H   UNL     1     -13.903  15.520  70.177  1.00  0.00     0.000 HD 
ENDROOT
BRANCH   2   4
HETATM    4  C   UNL     1     -12.724  13.768  70.414  1.00  0.00    -0.178 A  
HETATM    5  C   UNL     1     -11.813  13.008  69.672  1.00  0.00    -0.385 A  
HETATM    6  C   UNL     1     -11.544  11.676  70.009  1.00  0.00    -0.338 A  
HETATM    7  C   UNL     1     -12.144  11.090  71.127  1.00  0.00    -0.349 A  
HETATM    8  C   UNL     1     -13.245  13.203  71.583  1.00  0.00    -0.435 A  
HETATM    9  C   UNL     1     -12.977  11.874  71.927  1.00  0.00    -0.434 A  
BRANCH   7  10
HETATM   10  C   UNL     1     -11.984   9.649  71.347  1.00  0.00    -0.480 C  
HETATM   11  C   UNL     1     -10.931   9.057  71.936  1.00  0.00    -0.423 C  
BRANCH  11  12
HETATM   12  C   UNL     1     -10.882   7.612  72.210  1.00  0.00    -0.318 A  
HETATM   13  C   UNL     1     -10.728   7.118  73.507  1.00  0.00    -0.375 A  
HETATM   14  C   UNL     1     -10.633   5.748  73.744  1.00  0.00    -0.285 A  
HETATM   15  C   UNL     1     -10.708   4.834  72.692  1.00  0.00    -0.199 A  
HETATM   16  C   UNL     1     -11.001   6.695  71.156  1.00  0.00    -0.302 A  
HETATM   17  C   UNL     1     -10.908   5.316  71.396  1.00  0.00    -0.152 A  
BRANCH  15  18
HETATM   18  O   UNL     1     -10.596   3.471  72.823  1.00  0.00    -0.156 OA 
BRANCH  18  19
HETATM   19  C   UNL     1      -9.455   3.042  73.566  1.00  0.00    -0.095 C  
BRANCH  19  20
HETATM   20  C   UNL     1      -9.035   1.634  73.182  1.00  0.00    -0.062 C  
BRANCH  20  21
HETATM   21  O   UNL     1      -8.030   1.756  72.173  1.00  0.00    -0.044 OA 
BRANCH  21  22
HETATM   22  C   UNL     1      -7.199   2.894  72.378  1.00  0.00    -0.039 C  
BRANCH  22  23
HETATM   23  C   UNL     1      -6.692   3.397  71.030  1.00  0.00    -0.032 C  
BRANCH  23  24
HETATM   24  O   UNL     1      -7.754   4.074  70.360  1.00  0.00    -0.045 OA 
BRANCH  24  25
HETATM   25  C   UNL     1      -7.390   5.405  70.001  1.00  0.00    -0.068 C  
HETATM   26  C   UNL     1      -5.877   5.512  69.947  1.00  0.00    -0.017 C  
HETATM   27  F   UNL     1      -5.526   6.779  69.606  1.00  0.00    -0.013 F  
ENDBRANCH  24  25
ENDBRANCH  23  24
ENDBRANCH  22  23
ENDBRANCH  21  22
ENDBRANCH  20  21
ENDBRANCH  19  20
ENDBRANCH  18  19
ENDBRANCH  15  18
ENDBRANCH  11  12
ENDBRANCH   7  10
ENDBRANCH   2   4
TORSDOF 11
ENDMDL
MODEL      162
REMARK 921   NORMALIZED FREE ENERGY PREDICTED BY IDOCK:   -3.76 KCAL/MOL
REMARK 922        TOTAL FREE ENERGY PREDICTED BY IDOCK:   -7.25 KCAL/MOL
REMARK 923 INTER-LIGAND FREE ENERGY PREDICTED BY IDOCK:   -5.70 KCAL/MOL
REMARK 924 INTRA-LIGAND FREE ENERGY PREDICTED BY IDOCK:   -1.55 KCAL/MOL
REMARK 927      BINDING AFFINITY PREDICTED BY RF-SCORE:    0.00 PKD
ROOT
HETATM    1  C   UNL     1      -9.576  18.239  67.563  1.00  0.00    -0.280 C  
HETATM    2  N   UNL     1     -10.835  17.692  68.049  1.00  0.00    -0.320 NA 
HETATM    3  H   UNL     1     -11.637  18.290  68.246  1.00  0.00     0.000 HD 
ENDROOT
BRANCH   2   4
HETATM    4  C   UNL     1     -10.888  16.301  68.233  1.00  0.00    -0.340 A  
HETATM    5  C   UNL     1     -10.046  15.483  67.471  1.00  0.00    -0.241 A  
HETATM    6  C   UNL     1     -10.094  14.089  67.592  1.00  0.00    -0.241 A  
HETATM    7  C   UNL     1     -10.952  13.485  68.516  1.00  0.00    -0.291 A  
HETATM    8  C   UNL     1     -11.672  15.692  69.219  1.00  0.00    -0.388 A  
HETATM    9  C   UNL     1     -11.722  14.300  69.346  1.00  0.00    -0.363 A  
BRANCH   7  10
HETATM   10  C   UNL     1     -11.110  12.027  68.491  1.00  0.00    -0.289 C  
HETATM   11  C   UNL     1     -10.213  11.149  68.012  1.00  0.00    -0.201 C  
BRANCH  11  12
HETATM   12  C   UNL     1     -10.398   9.691  68.108  1.00  0.00    -0.250 A  
HETATM   13  C   UNL     1     -10.597   9.059  69.337  1.00  0.00    -0.231 A  
HETATM   14  C   UNL     1     -10.721   7.673  69.416  1.00  0.00    -0.188 A  
HETATM   15  C   UNL     1     -10.668   6.884  68.266  1.00  0.00    -0.214 A  
HETATM   16  C   UNL     1     -10.389   8.906  66.947  1.00  0.00    -0.332 A  
HETATM   17  C   UNL     1     -10.516   7.512  67.028  1.00  0.00    -0.409 A  
BRANCH  15  18
HETATM   18  O   UNL     1     -10.752   5.513  68.248  1.00  0.00    -0.179 OA 
BRANCH  18  19
HETATM   19  C   UNL     1     -10.227   4.906  67.066  1.00  0.00    -0.187 C  
BRANCH  19  20
HETATM   20  C   UNL     1      -9.127   3.910  67.390  1.00  0.00    -0.156 C  
BRANCH  20  21
HETATM   21  O   UNL     1      -9.513   3.234  68.589  1.00  0.00    -0.173 OA 
BRANCH  21  22
HETATM   22  C   UNL     1      -8.547   3.384  69.625  1.00  0.00    -0.064 C  
BRANCH  22  23
HETATM   23  C   UNL     1      -7.406   4.263  69.124  1.00  0.00    -0.055 C  
BRANCH  23  24
HETATM   24  O   UNL     1      -6.954   5.089  70.196  1.00  0.00    -0.049 OA 
BRANCH  24  25
HETATM   25  C   UNL     1      -7.307   6.457  69.995  1.00  0.00    -0.086 C  
HETATM   26  C   UNL     1      -7.098   6.817  68.535  1.00  0.00    -0.083 C  
HETATM   27  F   UNL     1      -7.433   8.119  68.339  1.00  0.00    -0.089 F  
ENDBRANCH  24  25
ENDBRANCH  23  24
ENDBRANCH  22  23
ENDBRANCH  21  22
ENDBRANCH  20  21
ENDBRANCH  19  20
ENDBRANCH  18  19
ENDBRANCH  15  18
ENDBRANCH  11  12
ENDBRANCH   7  10
ENDBRANCH   2   4
TORSDOF 11
ENDMDL
MODEL      163
REMARK 921   NORMALIZED FREE ENERGY PREDICTED BY IDOCK:   -3.75 KCAL/MOL
REMARK 922        TOTAL FREE ENERGY PREDICTED BY IDOCK:   -7.23 KCAL/MOL
REMARK 923 INTER-LIGAND FREE ENERGY PREDICTED BY IDOCK:   -6.33 KCAL/MOL
REMARK 924 INTRA-LIGAND FREE ENERGY PREDICTED BY IDOCK:   -0.91 KCAL/MOL
REMARK 927      BINDING AFFINITY PREDICTED BY RF-SCORE:    0.00 PKD
ROOT
HETATM    1  C   UNL     1     -13.038  15.372  73.424  1.00  0.00    -0.509 C  
HETATM    2  N   UNL     1     -13.629  14.164  72.865  1.00  0.00    -0.657 NA 
HETATM    3  H   UNL     1     -14.440  13.719  73.293  1.00  0.00     0.000 HD 
ENDROOT
BRANCH   2   4
HETATM    4  C   UNL     1     -13.026  13.644  71.710  1.00  0.00    -0.353 A  
HETATM    5  C   UNL     1     -12.801  12.265  71.623  1.00  0.00    -0.378 A  
HETATM    6  C   UNL     1     -12.166  11.707  70.508  1.00  0.00    -0.451 A  
HETATM    7  C   UNL     1     -11.786  12.512  69.430  1.00  0.00    -0.383 A  
HETATM    8  C   UNL     1     -12.728  14.424  70.587  1.00  0.00    -0.421 A  
HETATM    9  C   UNL     1     -12.096  13.872  69.468  1.00  0.00    -0.393 A  
BRANCH   7  10
HETATM   10  C   UNL     1     -10.965  11.930  68.362  1.00  0.00    -0.273 C  
HETATM   11  C   UNL     1     -10.221  10.816  68.465  1.00  0.00    -0.192 C  
BRANCH  11  12
HETATM   12  C   UNL     1      -9.497  10.236  67.321  1.00  0.00    -0.174 A  
HETATM   13  C   UNL     1     -10.098  10.100  66.068  1.00  0.00    -0.317 A  
HETATM   14  C   UNL     1      -9.417   9.503  65.009  1.00  0.00    -0.273 A  
HETATM   15  C   UNL     1      -8.109   9.045  65.169  1.00  0.00    -0.130 A  
HETATM   16  C   UNL     1      -8.168   9.816  67.473  1.00  0.00    -0.114 A  
HETATM   17  C   UNL     1      -7.483   9.218  66.406  1.00  0.00    -0.093 A  
BRANCH  15  18
HETATM   18  O   UNL     1      -7.369   8.420  64.195  1.00  0.00    -0.092 OA 
BRANCH  18  19
HETATM   19  C   UNL     1      -7.826   7.110  63.856  1.00  0.00    -0.109 C  
BRANCH  19  20
HETATM   20  C   UNL     1      -6.669   6.178  63.540  1.00  0.00    -0.037 C  
BRANCH  20  21
HETATM   21  O   UNL     1      -7.158   5.199  62.619  1.00  0.00    -0.036 OA 
BRANCH  21  22
HETATM   22  C   UNL     1      -6.858   3.872  63.038  1.00  0.00    -0.036 C  
BRANCH  22  23
HETATM   23  C   UNL     1      -8.154   3.158  63.410  1.00  0.00    -0.084 C  
BRANCH  23  24
HETATM   24  O   UNL     1      -9.122   3.396  62.390  1.00  0.00    -0.087 OA 
BRANCH  24  25
HETATM   25  C   UNL     1     -10.414   3.654  62.937  1.00  0.00    -0.209 C  
HETATM   26  C   UNL     1     -10.276   3.976  64.414  1.00  0.00    -0.198 C  
HETATM   27  F   UNL     1     -11.505   4.223  64.939  1.00  0.00    -0.328 F  
ENDBRANCH  24  25
ENDBRANCH  23  24
ENDBRANCH  22  23
ENDBRANCH  21  22
ENDBRANCH  20  21
ENDBRANCH  19  20
ENDBRANCH  18  19
ENDBRANCH  15  18
ENDBRANCH  11  12
ENDBRANCH   7  10
ENDBRANCH   2   4
TORSDOF 11
ENDMDL
MODEL      164
REMARK 921   NORMALIZED FREE ENERGY PREDICTED BY IDOCK:   -3.75 KCAL/MOL
REMARK 922        TOTAL FREE ENERGY PREDICTED BY IDOCK:   -7.23 KCAL/MOL
REMARK 923 INTER-LIGAND FREE ENERGY PREDICTED BY IDOCK:   -6.31 KCAL/MOL
REMARK 924 INTRA-LIGAND FREE ENERGY PREDICTED BY IDOCK:   -0.92 KCAL/MOL
REMARK 927      BINDING AFFINITY PREDICTED BY RF-SCORE:    0.00 PKD
ROOT
HETATM    1  C   UNL     1      -7.012  20.979  67.229  1.00  0.00    -0.364 C  
HETATM    2  N   UNL     1      -8.445  20.811  67.033  1.00  0.00    -0.566 NA 
HETATM    3  H   UNL     1      -9.052  21.601  66.814  1.00  0.00     0.000 HD 
ENDROOT
BRANCH   2   4
HETATM    4  C   UNL     1      -8.951  19.508  67.161  1.00  0.00    -0.303 A  
HETATM    5  C   UNL     1      -8.565  18.735  68.263  1.00  0.00    -0.357 A  
HETATM    6  C   UNL     1      -9.011  17.417  68.410  1.00  0.00    -0.277 A  
HETATM    7  C   UNL     1      -9.895  16.858  67.482  1.00  0.00    -0.260 A  
HETATM    8  C   UNL     1      -9.908  18.971  66.293  1.00  0.00    -0.417 A  
HETATM    9  C   UNL     1     -10.360  17.656  66.436  1.00  0.00    -0.345 A  
BRANCH   7  10
HETATM   10  C   UNL     1     -10.199  15.425  67.564  1.00  0.00    -0.244 C  
HETATM   11  C   UNL     1      -9.543  14.446  66.919  1.00  0.00    -0.263 C  
BRANCH  11  12
HETATM   12  C   UNL     1      -9.844  13.020  67.124  1.00  0.00    -0.230 A  
HETATM   13  C   UNL     1      -8.971  12.019  66.692  1.00  0.00    -0.204 A  
HETATM   14  C   UNL     1      -9.293  10.672  66.848  1.00  0.00    -0.180 A  
HETATM   15  C   UNL     1     -10.488  10.290  67.459  1.00  0.00    -0.244 A  
HETATM   16  C   UNL     1     -11.025  12.638  67.776  1.00  0.00    -0.266 A  
HETATM   17  C   UNL     1     -11.347  11.283  67.936  1.00  0.00    -0.367 A  
BRANCH  15  18
HETATM   18  O   UNL     1     -10.904   8.992  67.632  1.00  0.00    -0.219 OA 
BRANCH  18  19
HETATM   19  C   UNL     1     -10.601   8.441  68.914  1.00  0.00    -0.140 C  
BRANCH  19  20
HETATM   20  C   UNL     1     -10.100   7.012  68.806  1.00  0.00    -0.170 C  
BRANCH  20  21
HETATM   21  O   UNL     1     -10.914   6.354  67.832  1.00  0.00    -0.301 OA 
BRANCH  21  22
HETATM   22  C   UNL     1     -10.283   5.194  67.299  1.00  0.00    -0.190 C  
BRANCH  22  23
HETATM   23  C   UNL     1      -9.524   5.573  66.032  1.00  0.00    -0.130 C  
BRANCH  23  24
HETATM   24  O   UNL     1      -8.132   5.342  66.240  1.00  0.00    -0.107 OA 
BRANCH  24  25
HETATM   25  C   UNL     1      -7.358   6.514  65.993  1.00  0.00    -0.080 C  
HETATM   26  C   UNL     1      -6.497   6.809  67.208  1.00  0.00    -0.049 C  
HETATM   27  F   UNL     1      -5.758   7.926  66.978  1.00  0.00    -0.032 F  
ENDBRANCH  24  25
ENDBRANCH  23  24
ENDBRANCH  22  23
ENDBRANCH  21  22
ENDBRANCH  20  21
ENDBRANCH  19  20
ENDBRANCH  18  19
ENDBRANCH  15  18
ENDBRANCH  11  12
ENDBRANCH   7  10
ENDBRANCH   2   4
TORSDOF 11
ENDMDL
MODEL      165
REMARK 921   NORMALIZED FREE ENERGY PREDICTED BY IDOCK:   -3.74 KCAL/MOL
REMARK 922        TOTAL FREE ENERGY PREDICTED BY IDOCK:   -7.22 KCAL/MOL
REMARK 923 INTER-LIGAND FREE ENERGY PREDICTED BY IDOCK:   -6.39 KCAL/MOL
REMARK 924 INTRA-LIGAND FREE ENERGY PREDICTED BY IDOCK:   -0.83 KCAL/MOL
REMARK 927      BINDING AFFINITY PREDICTED BY RF-SCORE:    0.00 PKD
ROOT
HETATM    1  C   UNL     1     -10.541  19.041  67.471  1.00  0.00    -0.461 C  
HETATM    2  N   UNL     1     -10.341  17.989  66.484  1.00  0.00    -0.376 NA 
HETATM    3  H   UNL     1     -10.176  18.202  65.501  1.00  0.00     0.000 HD 
ENDROOT
BRANCH   2   4
HETATM    4  C   UNL     1     -10.388  16.667  66.954  1.00  0.00    -0.299 A  
HETATM    5  C   UNL     1      -9.528  15.716  66.392  1.00  0.00    -0.321 A  
HETATM    6  C   UNL     1      -9.568  14.378  66.800  1.00  0.00    -0.279 A  
HETATM    7  C   UNL     1     -10.437  13.971  67.817  1.00  0.00    -0.236 A  
HETATM    8  C   UNL     1     -11.183  16.268  68.033  1.00  0.00    -0.260 A  
HETATM    9  C   UNL     1     -11.226  14.933  68.448  1.00  0.00    -0.304 A  
BRANCH   7  10
HETATM   10  C   UNL     1     -10.584  12.538  68.095  1.00  0.00    -0.239 C  
HETATM   11  C   UNL     1     -10.159  11.538  67.305  1.00  0.00    -0.223 C  
BRANCH  11  12
HETATM   12  C   UNL     1     -10.255  10.122  67.694  1.00  0.00    -0.246 A  
HETATM   13  C   UNL     1     -10.449   9.114  66.746  1.00  0.00    -0.266 A  
HETATM   14  C   UNL     1     -10.589   7.784  67.136  1.00  0.00    -0.401 A  
HETATM   15  C   UNL     1     -10.519   7.422  68.482  1.00  0.00    -0.186 A  
HETATM   16  C   UNL     1     -10.141   9.756  69.043  1.00  0.00    -0.195 A  
HETATM   17  C   UNL     1     -10.279   8.416  69.433  1.00  0.00    -0.208 A  
BRANCH  15  18
HETATM   18  O   UNL     1     -10.672   6.144  68.962  1.00  0.00    -0.243 OA 
BRANCH  18  19
HETATM   19  C   UNL     1      -9.567   5.665  69.729  1.00  0.00    -0.159 C  
BRANCH  19  20
HETATM   20  C   UNL     1      -9.651   4.166  69.957  1.00  0.00    -0.203 C  
BRANCH  20  21
HETATM   21  O   UNL     1     -10.151   3.971  71.282  1.00  0.00    -0.163 OA 
BRANCH  21  22
HETATM   22  C   UNL     1      -9.117   3.628  72.200  1.00  0.00    -0.107 C  
BRANCH  22  23
HETATM   23  C   UNL     1      -9.295   4.437  73.482  1.00  0.00    -0.114 C  
BRANCH  23  24
HETATM   24  O   UNL     1      -9.879   5.697  73.156  1.00  0.00    -0.163 OA 
BRANCH  24  25
HETATM   25  C   UNL     1      -9.580   6.688  74.137  1.00  0.00    -0.255 C  
HETATM   26  C   UNL     1      -8.659   7.730  73.529  1.00  0.00    -0.225 C  
HETATM   27  F   UNL     1      -8.371   8.677  74.461  1.00  0.00    -0.256 F  
ENDBRANCH  24  25
ENDBRANCH  23  24
ENDBRANCH  22  23
ENDBRANCH  21  22
ENDBRANCH  20  21
ENDBRANCH  19  20
ENDBRANCH  18  19
ENDBRANCH  15  18
ENDBRANCH  11  12
ENDBRANCH   7  10
ENDBRANCH   2   4
TORSDOF 11
ENDMDL
MODEL      166
REMARK 921   NORMALIZED FREE ENERGY PREDICTED BY IDOCK:   -3.74 KCAL/MOL
REMARK 922        TOTAL FREE ENERGY PREDICTED BY IDOCK:   -7.22 KCAL/MOL
REMARK 923 INTER-LIGAND FREE ENERGY PREDICTED BY IDOCK:   -6.44 KCAL/MOL
REMARK 924 INTRA-LIGAND FREE ENERGY PREDICTED BY IDOCK:   -0.78 KCAL/MOL
REMARK 927      BINDING AFFINITY PREDICTED BY RF-SCORE:    0.00 PKD
ROOT
HETATM    1  C   UNL     1     -12.120   5.343  72.661  1.00  0.00     0.098 C  
HETATM    2  N   UNL     1     -10.716   5.510  72.313  1.00  0.00    -0.223 NA 
HETATM    3  H   UNL     1     -10.024   4.788  72.517  1.00  0.00     0.000 HD 
ENDROOT
BRANCH   2   4
HETATM    4  C   UNL     1     -10.361   6.713  71.683  1.00  0.00    -0.205 A  
HETATM    5  C   UNL     1     -10.911   7.912  72.150  1.00  0.00    -0.339 A  
HETATM    6  C   UNL     1     -10.618   9.130  71.527  1.00  0.00    -0.428 A  
HETATM    7  C   UNL     1      -9.726   9.182  70.451  1.00  0.00    -0.266 A  
HETATM    8  C   UNL     1      -9.399   6.789  70.669  1.00  0.00    -0.162 A  
HETATM    9  C   UNL     1      -9.099   8.004  70.045  1.00  0.00    -0.152 A  
BRANCH   7  10
HETATM   10  C   UNL     1      -9.580  10.439  69.709  1.00  0.00    -0.067 C  
HETATM   11  C   UNL     1      -9.257  10.549  68.409  1.00  0.00    -0.154 C  
BRANCH  11  12
HETATM   12  C   UNL     1      -9.222  11.842  67.706  1.00  0.00    -0.181 A  
HETATM   13  C   UNL     1      -8.145  12.720  67.844  1.00  0.00    -0.159 A  
HETATM   14  C   UNL     1      -8.150  13.962  67.211  1.00  0.00    -0.162 A  
HETATM   15  C   UNL     1      -9.223  14.350  66.408  1.00  0.00    -0.213 A  
HETATM   16  C   UNL     1     -10.281  12.211  66.865  1.00  0.00    -0.228 A  
HETATM   17  C   UNL     1     -10.283  13.460  66.226  1.00  0.00    -0.298 A  
BRANCH  15  18
HETATM   18  O   UNL     1      -9.329  15.562  65.769  1.00  0.00    -0.332 OA 
BRANCH  18  19
HETATM   19  C   UNL     1     -10.426  16.365  66.206  1.00  0.00    -0.293 C  
BRANCH  19  20
HETATM   20  C   UNL     1     -10.008  17.340  67.293  1.00  0.00    -0.283 C  
BRANCH  20  21
HETATM   21  O   UNL     1     -10.774  18.532  67.105  1.00  0.00    -0.409 OA 
BRANCH  21  22
HETATM   22  C   UNL     1     -10.354  19.266  65.959  1.00  0.00    -0.475 C  
BRANCH  22  23
HETATM   23  C   UNL     1      -8.880  19.629  66.108  1.00  0.00    -0.332 C  
BRANCH  23  24
HETATM   24  O   UNL     1      -8.722  20.455  67.261  1.00  0.00    -0.345 OA 
BRANCH  24  25
HETATM   25  C   UNL     1      -7.509  20.167  67.955  1.00  0.00    -0.261 C  
HETATM   26  C   UNL     1      -6.409  21.072  67.434  1.00  0.00    -0.350 C  
HETATM   27  F   UNL     1      -5.252  20.801  68.093  1.00  0.00    -0.215 F  
ENDBRANCH  24  25
ENDBRANCH  23  24
ENDBRANCH  22  23
ENDBRANCH  21  22
ENDBRANCH  20  21
ENDBRANCH  19  20
ENDBRANCH  18  19
ENDBRANCH  15  18
ENDBRANCH  11  12
ENDBRANCH   7  10
ENDBRANCH   2   4
TORSDOF 11
ENDMDL
MODEL      167
REMARK 921   NORMALIZED FREE ENERGY PREDICTED BY IDOCK:   -3.73 KCAL/MOL
REMARK 922        TOTAL FREE ENERGY PREDICTED BY IDOCK:   -7.20 KCAL/MOL
REMARK 923 INTER-LIGAND FREE ENERGY PREDICTED BY IDOCK:   -6.32 KCAL/MOL
REMARK 924 INTRA-LIGAND FREE ENERGY PREDICTED BY IDOCK:   -0.89 KCAL/MOL
REMARK 927      BINDING AFFINITY PREDICTED BY RF-SCORE:    0.00 PKD
ROOT
HETATM    1  C   UNL     1     -10.778  19.722  66.616  1.00  0.00    -0.404 C  
HETATM    2  N   UNL     1     -10.259  18.590  65.862  1.00  0.00    -0.580 NA 
HETATM    3  H   UNL     1      -9.911  18.695  64.909  1.00  0.00     0.000 HD 
ENDROOT
BRANCH   2   4
HETATM    4  C   UNL     1     -10.264  17.345  66.511  1.00  0.00    -0.329 A  
HETATM    5  C   UNL     1      -9.849  16.209  65.805  1.00  0.00    -0.354 A  
HETATM    6  C   UNL     1      -9.876  14.943  66.399  1.00  0.00    -0.292 A  
HETATM    7  C   UNL     1     -10.271  14.790  67.732  1.00  0.00    -0.232 A  
HETATM    8  C   UNL     1     -10.566  17.194  67.869  1.00  0.00    -0.376 A  
HETATM    9  C   UNL     1     -10.591  15.931  68.469  1.00  0.00    -0.263 A  
BRANCH   7  10
HETATM   10  C   UNL     1     -10.461  13.438  68.267  1.00  0.00    -0.256 C  
HETATM   11  C   UNL     1     -10.239  12.292  67.601  1.00  0.00    -0.208 C  
BRANCH  11  12
HETATM   12  C   UNL     1     -10.360  10.969  68.233  1.00  0.00    -0.197 A  
HETATM   13  C   UNL     1      -9.727   9.843  67.701  1.00  0.00    -0.183 A  
HETATM   14  C   UNL     1      -9.892   8.588  68.283  1.00  0.00    -0.190 A  
HETATM   15  C   UNL     1     -10.677   8.428  69.425  1.00  0.00    -0.152 A  
HETATM   16  C   UNL     1     -11.114  10.818  69.405  1.00  0.00    -0.324 A  
HETATM   17  C   UNL     1     -11.276   9.555  69.992  1.00  0.00    -0.243 A  
BRANCH  15  18
HETATM   18  O   UNL     1     -10.920   7.229  70.051  1.00  0.00    -0.253 OA 
BRANCH  18  19
HETATM   19  C   UNL     1     -10.683   7.241  71.460  1.00  0.00    -0.219 C  
BRANCH  19  20
HETATM   20  C   UNL     1      -9.200   7.181  71.778  1.00  0.00    -0.139 C  
BRANCH  20  21
HETATM   21  O   UNL     1      -9.080   7.051  73.197  1.00  0.00    -0.129 OA 
BRANCH  21  22
HETATM   22  C   UNL     1     -10.309   6.667  73.806  1.00  0.00    -0.349 C  
BRANCH  22  23
HETATM   23  C   UNL     1     -10.175   5.253  74.361  1.00  0.00    -0.274 C  
BRANCH  23  24
HETATM   24  O   UNL     1     -10.373   4.320  73.300  1.00  0.00    -0.146 OA 
BRANCH  24  25
HETATM   25  C   UNL     1      -9.283   3.406  73.188  1.00  0.00    -0.097 C  
HETATM   26  C   UNL     1      -8.697   3.498  71.791  1.00  0.00    -0.089 C  
HETATM   27  F   UNL     1      -7.658   2.629  71.680  1.00  0.00    -0.038 F  
ENDBRANCH  24  25
ENDBRANCH  23  24
ENDBRANCH  22  23
ENDBRANCH  21  22
ENDBRANCH  20  21
ENDBRANCH  19  20
ENDBRANCH  18  19
ENDBRANCH  15  18
ENDBRANCH  11  12
ENDBRANCH   7  10
ENDBRANCH   2   4
TORSDOF 11
ENDMDL
MODEL      168
REMARK 921   NORMALIZED FREE ENERGY PREDICTED BY IDOCK:   -3.73 KCAL/MOL
REMARK 922        TOTAL FREE ENERGY PREDICTED BY IDOCK:   -7.20 KCAL/MOL
REMARK 923 INTER-LIGAND FREE ENERGY PREDICTED BY IDOCK:   -6.44 KCAL/MOL
REMARK 924 INTRA-LIGAND FREE ENERGY PREDICTED BY IDOCK:   -0.77 KCAL/MOL
REMARK 927      BINDING AFFINITY PREDICTED BY RF-SCORE:    0.00 PKD
ROOT
HETATM    1  C   UNL     1      -7.077  21.080  67.185  1.00  0.00    -0.317 C  
HETATM    2  N   UNL     1      -8.481  20.782  66.938  1.00  0.00    -0.571 NA 
HETATM    3  H   UNL     1      -9.133  21.500  66.622  1.00  0.00     0.000 HD 
ENDROOT
BRANCH   2   4
HETATM    4  C   UNL     1      -8.893  19.458  67.159  1.00  0.00    -0.295 A  
HETATM    5  C   UNL     1      -8.418  18.778  68.287  1.00  0.00    -0.357 A  
HETATM    6  C   UNL     1      -8.769  17.445  68.525  1.00  0.00    -0.277 A  
HETATM    7  C   UNL     1      -9.645  16.775  67.664  1.00  0.00    -0.244 A  
HETATM    8  C   UNL     1      -9.841  18.810  66.359  1.00  0.00    -0.403 A  
HETATM    9  C   UNL     1     -10.198  17.478  66.594  1.00  0.00    -0.332 A  
BRANCH   7  10
HETATM   10  C   UNL     1      -9.849  15.333  67.839  1.00  0.00    -0.216 C  
HETATM   11  C   UNL     1     -10.286  14.483  66.894  1.00  0.00    -0.264 C  
BRANCH  11  12
HETATM   12  C   UNL     1     -10.376  13.031  67.113  1.00  0.00    -0.243 A  
HETATM   13  C   UNL     1     -10.475  12.135  66.046  1.00  0.00    -0.281 A  
HETATM   14  C   UNL     1     -10.610  10.767  66.271  1.00  0.00    -0.257 A  
HETATM   15  C   UNL     1     -10.629  10.255  67.569  1.00  0.00    -0.268 A  
HETATM   16  C   UNL     1     -10.351  12.515  68.416  1.00  0.00    -0.237 A  
HETATM   17  C   UNL     1     -10.484  11.137  68.641  1.00  0.00    -0.220 A  
BRANCH  15  18
HETATM   18  O   UNL     1     -10.786   8.928  67.889  1.00  0.00    -0.210 OA 
BRANCH  18  19
HETATM   19  C   UNL     1      -9.631   8.321  68.471  1.00  0.00    -0.149 C  
BRANCH  19  20
HETATM   20  C   UNL     1      -9.853   7.984  69.935  1.00  0.00    -0.186 C  
BRANCH  20  21
HETATM   21  O   UNL     1     -11.073   7.242  70.015  1.00  0.00    -0.262 OA 
BRANCH  21  22
HETATM   22  C   UNL     1     -10.949   6.093  70.847  1.00  0.00    -0.297 C  
BRANCH  22  23
HETATM   23  C   UNL     1      -9.959   5.120  70.216  1.00  0.00    -0.250 C  
BRANCH  23  24
HETATM   24  O   UNL     1      -9.284   4.410  71.252  1.00  0.00    -0.124 OA 
BRANCH  24  25
HETATM   25  C   UNL     1      -7.929   4.834  71.390  1.00  0.00    -0.101 C  
HETATM   26  C   UNL     1      -7.324   5.028  70.011  1.00  0.00    -0.059 C  
HETATM   27  F   UNL     1      -6.033   5.432  70.137  1.00  0.00    -0.017 F  
ENDBRANCH  24  25
ENDBRANCH  23  24
ENDBRANCH  22  23
ENDBRANCH  21  22
ENDBRANCH  20  21
ENDBRANCH  19  20
ENDBRANCH  18  19
ENDBRANCH  15  18
ENDBRANCH  11  12
ENDBRANCH   7  10
ENDBRANCH   2   4
TORSDOF 11
ENDMDL
MODEL      169
REMARK 921   NORMALIZED FREE ENERGY PREDICTED BY IDOCK:   -3.72 KCAL/MOL
REMARK 922        TOTAL FREE ENERGY PREDICTED BY IDOCK:   -7.18 KCAL/MOL
REMARK 923 INTER-LIGAND FREE ENERGY PREDICTED BY IDOCK:   -6.32 KCAL/MOL
REMARK 924 INTRA-LIGAND FREE ENERGY PREDICTED BY IDOCK:   -0.86 KCAL/MOL
REMARK 927      BINDING AFFINITY PREDICTED BY RF-SCORE:    0.00 PKD
ROOT
HETATM    1  C   UNL     1      -9.479   1.613  68.636  1.00  0.00    -0.163 C  
HETATM    2  N   UNL     1      -8.641   2.624  68.006  1.00  0.00    -0.084 NA 
HETATM    3  H   UNL     1      -7.686   2.420  67.712  1.00  0.00     0.000 HD 
ENDROOT
BRANCH   2   4
HETATM    4  C   UNL     1      -9.214   3.892  67.822  1.00  0.00    -0.166 A  
HETATM    5  C   UNL     1      -9.571   4.296  66.530  1.00  0.00    -0.214 A  
HETATM    6  C   UNL     1     -10.107   5.567  66.295  1.00  0.00    -0.185 A  
HETATM    7  C   UNL     1     -10.345   6.446  67.357  1.00  0.00    -0.257 A  
HETATM    8  C   UNL     1      -9.545   4.741  68.885  1.00  0.00    -0.229 A  
HETATM    9  C   UNL     1     -10.083   6.011  68.656  1.00  0.00    -0.208 A  
BRANCH   7  10
HETATM   10  C   UNL     1     -10.735   7.829  67.061  1.00  0.00    -0.316 C  
HETATM   11  C   UNL     1     -10.575   8.881  67.881  1.00  0.00    -0.244 C  
BRANCH  11  12
HETATM   12  C   UNL     1     -10.903  10.259  67.479  1.00  0.00    -0.355 A  
HETATM   13  C   UNL     1     -10.529  10.765  66.233  1.00  0.00    -0.287 A  
HETATM   14  C   UNL     1     -10.803  12.087  65.887  1.00  0.00    -0.329 A  
HETATM   15  C   UNL     1     -11.476  12.932  66.770  1.00  0.00    -0.340 A  
HETATM   16  C   UNL     1     -11.618  11.092  68.350  1.00  0.00    -0.372 A  
HETATM   17  C   UNL     1     -11.896  12.421  68.000  1.00  0.00    -0.376 A  
BRANCH  15  18
HETATM   18  O   UNL     1     -11.766  14.253  66.529  1.00  0.00    -0.363 OA 
BRANCH  18  19
HETATM   19  C   UNL     1     -10.803  15.172  67.049  1.00  0.00    -0.314 C  
BRANCH  19  20
HETATM   20  C   UNL     1      -9.820  15.617  65.980  1.00  0.00    -0.333 C  
BRANCH  20  21
HETATM   21  O   UNL     1      -8.539  15.722  66.606  1.00  0.00    -0.235 OA 
BRANCH  21  22
HETATM   22  C   UNL     1      -8.227  17.063  66.969  1.00  0.00    -0.204 C  
BRANCH  22  23
HETATM   23  C   UNL     1      -7.787  17.099  68.429  1.00  0.00    -0.244 C  
BRANCH  23  24
HETATM   24  O   UNL     1      -6.379  16.882  68.493  1.00  0.00    -0.144 OA 
BRANCH  24  25
HETATM   25  C   UNL     1      -6.024  16.028  69.580  1.00  0.00    -0.162 C  
HETATM   26  C   UNL     1      -5.922  14.599  69.080  1.00  0.00    -0.100 C  
HETATM   27  F   UNL     1      -5.584  13.783  70.113  1.00  0.00    -0.095 F  
ENDBRANCH  24  25
ENDBRANCH  23  24
ENDBRANCH  22  23
ENDBRANCH  21  22
ENDBRANCH  20  21
ENDBRANCH  19  20
ENDBRANCH  18  19
ENDBRANCH  15  18
ENDBRANCH  11  12
ENDBRANCH   7  10
ENDBRANCH   2   4
TORSDOF 11
ENDMDL
MODEL      170
REMARK 921   NORMALIZED FREE ENERGY PREDICTED BY IDOCK:   -3.71 KCAL/MOL
REMARK 922        TOTAL FREE ENERGY PREDICTED BY IDOCK:   -7.17 KCAL/MOL
REMARK 923 INTER-LIGAND FREE ENERGY PREDICTED BY IDOCK:   -6.47 KCAL/MOL
REMARK 924 INTRA-LIGAND FREE ENERGY PREDICTED BY IDOCK:   -0.70 KCAL/MOL
REMARK 927      BINDING AFFINITY PREDICTED BY RF-SCORE:    0.00 PKD
ROOT
HETATM    1  C   UNL     1     -11.900   6.336  72.178  1.00  0.00    -0.315 C  
HETATM    2  N   UNL     1     -11.733   6.380  70.732  1.00  0.00    -0.357 NA 
HETATM    3  H   UNL     1     -11.969   5.583  70.141  1.00  0.00     0.000 HD 
ENDROOT
BRANCH   2   4
HETATM    4  C   UNL     1     -11.230   7.575  70.192  1.00  0.00    -0.196 A  
HETATM    5  C   UNL     1     -10.760   7.578  68.874  1.00  0.00    -0.135 A  
HETATM    6  C   UNL     1     -10.213   8.735  68.308  1.00  0.00    -0.240 A  
HETATM    7  C   UNL     1     -10.170   9.930  69.033  1.00  0.00    -0.213 A  
HETATM    8  C   UNL     1     -11.269   8.796  70.873  1.00  0.00    -0.320 A  
HETATM    9  C   UNL     1     -10.727   9.956  70.312  1.00  0.00    -0.367 A  
BRANCH   7  10
HETATM   10  C   UNL     1      -9.430  11.070  68.481  1.00  0.00    -0.188 C  
HETATM   11  C   UNL     1      -9.910  12.316  68.326  1.00  0.00    -0.217 C  
BRANCH  11  12
HETATM   12  C   UNL     1      -9.079  13.435  67.854  1.00  0.00    -0.208 A  
HETATM   13  C   UNL     1      -7.701  13.468  68.079  1.00  0.00    -0.143 A  
HETATM   14  C   UNL     1      -6.935  14.558  67.670  1.00  0.00    -0.204 A  
HETATM   15  C   UNL     1      -7.524  15.636  67.007  1.00  0.00    -0.193 A  
HETATM   16  C   UNL     1      -9.665  14.496  67.151  1.00  0.00    -0.240 A  
HETATM   17  C   UNL     1      -8.894  15.591  66.737  1.00  0.00    -0.297 A  
BRANCH  15  18
HETATM   18  O   UNL     1      -6.858  16.763  66.592  1.00  0.00    -0.215 OA 
BRANCH  18  19
HETATM   19  C   UNL     1      -7.625  17.625  65.750  1.00  0.00     0.030 C  
BRANCH  19  20
HETATM   20  C   UNL     1      -7.003  19.007  65.647  1.00  0.00    -0.246 C  
BRANCH  20  21
HETATM   21  O   UNL     1      -8.066  19.955  65.765  1.00  0.00    -0.335 OA 
BRANCH  21  22
HETATM   22  C   UNL     1      -9.257  19.367  66.278  1.00  0.00    -0.348 C  
BRANCH  22  23
HETATM   23  C   UNL     1     -10.027  20.409  67.082  1.00  0.00    -0.428 C  
BRANCH  23  24
HETATM   24  O   UNL     1     -10.342  19.865  68.362  1.00  0.00    -0.450 OA 
BRANCH  24  25
HETATM   25  C   UNL     1      -9.341  18.953  68.811  1.00  0.00    -0.336 C  
HETATM   26  C   UNL     1      -8.077  19.724  69.145  1.00  0.00    -0.020 C  
HETATM   27  F   UNL     1      -7.121  18.859  69.572  1.00  0.00    -0.292 F  
ENDBRANCH  24  25
ENDBRANCH  23  24
ENDBRANCH  22  23
ENDBRANCH  21  22
ENDBRANCH  20  21
ENDBRANCH  19  20
ENDBRANCH  18  19
ENDBRANCH  15  18
ENDBRANCH  11  12
ENDBRANCH   7  10
ENDBRANCH   2   4
TORSDOF 11
ENDMDL
MODEL      171
REMARK 921   NORMALIZED FREE ENERGY PREDICTED BY IDOCK:   -3.68 KCAL/MOL
REMARK 922        TOTAL FREE ENERGY PREDICTED BY IDOCK:   -7.12 KCAL/MOL
REMARK 923 INTER-LIGAND FREE ENERGY PREDICTED BY IDOCK:   -6.13 KCAL/MOL
REMARK 924 INTRA-LIGAND FREE ENERGY PREDICTED BY IDOCK:   -0.99 KCAL/MOL
REMARK 927      BINDING AFFINITY PREDICTED BY RF-SCORE:    0.00 PKD
ROOT
HETATM    1  C   UNL     1      -5.228   4.247  63.306  1.00  0.00    -0.009 C  
HETATM    2  N   UNL     1      -5.797   4.596  64.601  1.00  0.00    -0.017 NA 
HETATM    3  H   UNL     1      -5.609   4.040  65.435  1.00  0.00     0.000 HD 
ENDROOT
BRANCH   2   4
HETATM    4  C   UNL     1      -6.617   5.734  64.643  1.00  0.00    -0.042 A  
HETATM    5  C   UNL     1      -6.966   6.364  63.442  1.00  0.00    -0.047 A  
HETATM    6  C   UNL     1      -7.748   7.525  63.439  1.00  0.00    -0.129 A  
HETATM    7  C   UNL     1      -8.241   8.053  64.636  1.00  0.00    -0.109 A  
HETATM    8  C   UNL     1      -7.194   6.216  65.823  1.00  0.00    -0.075 A  
HETATM    9  C   UNL     1      -7.978   7.374  65.826  1.00  0.00    -0.118 A  
BRANCH   7  10
HETATM   10  C   UNL     1      -8.901   9.363  64.616  1.00  0.00    -0.238 C  
HETATM   11  C   UNL     1      -9.790   9.807  65.520  1.00  0.00    -0.378 C  
BRANCH  11  12
HETATM   12  C   UNL     1     -10.341  11.172  65.489  1.00  0.00    -0.326 A  
HETATM   13  C   UNL     1     -11.186  11.642  66.497  1.00  0.00    -0.356 A  
HETATM   14  C   UNL     1     -11.739  12.920  66.427  1.00  0.00    -0.454 A  
HETATM   15  C   UNL     1     -11.445  13.768  65.359  1.00  0.00    -0.311 A  
HETATM   16  C   UNL     1     -10.010  12.038  64.438  1.00  0.00    -0.254 A  
HETATM   17  C   UNL     1     -10.564  13.324  64.371  1.00  0.00    -0.438 A  
BRANCH  15  18
HETATM   18  O   UNL     1     -11.963  15.030  65.191  1.00  0.00    -0.260 OA 
BRANCH  18  19
HETATM   19  C   UNL     1     -11.065  15.960  64.584  1.00  0.00    -0.354 C  
BRANCH  19  20
HETATM   20  C   UNL     1     -10.634  17.041  65.560  1.00  0.00    -0.173 C  
BRANCH  20  21
HETATM   21  O   UNL     1      -9.244  16.838  65.824  1.00  0.00    -0.520 OA 
BRANCH  21  22
HETATM   22  C   UNL     1      -8.894  17.191  67.159  1.00  0.00    -0.220 C  
BRANCH  22  23
HETATM   23  C   UNL     1      -9.185  16.013  68.082  1.00  0.00    -0.195 C  
BRANCH  23  24
HETATM   24  O   UNL     1      -9.349  16.498  69.413  1.00  0.00    -0.182 OA 
BRANCH  24  25
HETATM   25  C   UNL     1     -10.293  15.721  70.148  1.00  0.00    -0.220 C  
HETATM   26  C   UNL     1     -11.650  15.816  69.474  1.00  0.00    -0.363 C  
HETATM   27  F   UNL     1     -12.553  15.077  70.171  1.00  0.00    -0.348 F  
ENDBRANCH  24  25
ENDBRANCH  23  24
ENDBRANCH  22  23
ENDBRANCH  21  22
ENDBRANCH  20  21
ENDBRANCH  19  20
ENDBRANCH  18  19
ENDBRANCH  15  18
ENDBRANCH  11  12
ENDBRANCH   7  10
ENDBRANCH   2   4
TORSDOF 11
ENDMDL
MODEL      172
REMARK 921   NORMALIZED FREE ENERGY PREDICTED BY IDOCK:   -3.67 KCAL/MOL
REMARK 922        TOTAL FREE ENERGY PREDICTED BY IDOCK:   -7.11 KCAL/MOL
REMARK 923 INTER-LIGAND FREE ENERGY PREDICTED BY IDOCK:   -6.03 KCAL/MOL
REMARK 924 INTRA-LIGAND FREE ENERGY PREDICTED BY IDOCK:   -1.08 KCAL/MOL
REMARK 927      BINDING AFFINITY PREDICTED BY RF-SCORE:    0.00 PKD
ROOT
HETATM    1  C   UNL     1      -9.888   3.177  64.946  1.00  0.00    -0.023 C  
HETATM    2  N   UNL     1      -9.714   3.749  66.274  1.00  0.00    -0.358 NA 
HETATM    3  H   UNL     1      -9.664   3.163  67.107  1.00  0.00     0.000 HD 
ENDROOT
BRANCH   2   4
HETATM    4  C   UNL     1      -9.621   5.148  66.350  1.00  0.00    -0.161 A  
HETATM    5  C   UNL     1     -10.644   5.863  66.984  1.00  0.00    -0.376 A  
HETATM    6  C   UNL     1     -10.613   7.260  67.048  1.00  0.00    -0.415 A  
HETATM    7  C   UNL     1      -9.531   7.973  66.522  1.00  0.00    -0.278 A  
HETATM    8  C   UNL     1      -8.501   5.863  65.913  1.00  0.00    -0.141 A  
HETATM    9  C   UNL     1      -8.463   7.260  65.977  1.00  0.00    -0.148 A  
BRANCH   7  10
HETATM   10  C   UNL     1      -9.613   9.435  66.443  1.00  0.00    -0.285 C  
HETATM   11  C   UNL     1     -10.722  10.145  66.177  1.00  0.00    -0.008 C  
BRANCH  11  12
HETATM   12  C   UNL     1     -10.750  11.617  66.208  1.00  0.00    -0.317 A  
HETATM   13  C   UNL     1     -10.471  12.378  65.071  1.00  0.00    -0.324 A  
HETATM   14  C   UNL     1     -10.452  13.770  65.130  1.00  0.00    -0.399 A  
HETATM   15  C   UNL     1     -10.732  14.439  66.322  1.00  0.00    -0.307 A  
HETATM   16  C   UNL     1     -11.074  12.287  67.396  1.00  0.00    -0.333 A  
HETATM   17  C   UNL     1     -11.058  13.687  67.453  1.00  0.00    -0.299 A  
BRANCH  15  18
HETATM   18  O   UNL     1     -10.710  15.803  66.483  1.00  0.00    -0.313 OA 
BRANCH  18  19
HETATM   19  C   UNL     1      -9.443  16.408  66.221  1.00  0.00    -0.317 C  
BRANCH  19  20
HETATM   20  C   UNL     1      -8.325  15.721  66.985  1.00  0.00    -0.226 C  
BRANCH  20  21
HETATM   21  O   UNL     1      -8.234  16.361  68.260  1.00  0.00    -0.166 OA 
BRANCH  21  22
HETATM   22  C   UNL     1      -8.019  15.428  69.314  1.00  0.00    -0.229 C  
BRANCH  22  23
HETATM   23  C   UNL     1      -6.539  15.421  69.685  1.00  0.00    -0.178 C  
BRANCH  23  24
HETATM   24  O   UNL     1      -5.906  14.317  69.041  1.00  0.00    -0.086 OA 
BRANCH  24  25
HETATM   25  C   UNL     1      -6.768  13.183  68.966  1.00  0.00    -0.103 C  
HETATM   26  C   UNL     1      -6.686  12.585  67.573  1.00  0.00    -0.151 C  
HETATM   27  F   UNL     1      -7.506  11.504  67.497  1.00  0.00    -0.094 F  
ENDBRANCH  24  25
ENDBRANCH  23  24
ENDBRANCH  22  23
ENDBRANCH  21  22
ENDBRANCH  20  21
ENDBRANCH  19  20
ENDBRANCH  18  19
ENDBRANCH  15  18
ENDBRANCH  11  12
ENDBRANCH   7  10
ENDBRANCH   2   4
TORSDOF 11
ENDMDL
MODEL      173
REMARK 921   NORMALIZED FREE ENERGY PREDICTED BY IDOCK:   -3.66 KCAL/MOL
REMARK 922        TOTAL FREE ENERGY PREDICTED BY IDOCK:   -7.08 KCAL/MOL
REMARK 923 INTER-LIGAND FREE ENERGY PREDICTED BY IDOCK:   -5.99 KCAL/MOL
REMARK 924 INTRA-LIGAND FREE ENERGY PREDICTED BY IDOCK:   -1.10 KCAL/MOL
REMARK 927      BINDING AFFINITY PREDICTED BY RF-SCORE:    0.00 PKD
ROOT
HETATM    1  C   UNL     1      -8.975   7.325  70.140  1.00  0.00    -0.148 C  
HETATM    2  N   UNL     1      -7.745   7.840  69.555  1.00  0.00    -0.103 NA 
HETATM    3  H   UNL     1      -6.931   7.243  69.409  1.00  0.00     0.000 HD 
ENDROOT
BRANCH   2   4
HETATM    4  C   UNL     1      -7.734   9.199  69.204  1.00  0.00    -0.081 A  
HETATM    5  C   UNL     1      -6.740  10.030  69.733  1.00  0.00    -0.086 A  
HETATM    6  C   UNL     1      -6.715  11.398  69.442  1.00  0.00    -0.122 A  
HETATM    7  C   UNL     1      -7.657  11.958  68.574  1.00  0.00    -0.127 A  
HETATM    8  C   UNL     1      -8.611   9.751  68.263  1.00  0.00    -0.119 A  
HETATM    9  C   UNL     1      -8.589  11.117  67.966  1.00  0.00    -0.140 A  
BRANCH   7  10
HETATM   10  C   UNL     1      -7.715  13.417  68.432  1.00  0.00    -0.138 C  
HETATM   11  C   UNL     1      -6.660  14.250  68.450  1.00  0.00    -0.105 C  
BRANCH  11  12
HETATM   12  C   UNL     1      -6.785  15.696  68.206  1.00  0.00    -0.124 A  
HETATM   13  C   UNL     1      -6.482  16.257  66.963  1.00  0.00    -0.161 A  
HETATM   14  C   UNL     1      -6.557  17.634  66.763  1.00  0.00    -0.226 A  
HETATM   15  C   UNL     1      -6.957  18.485  67.794  1.00  0.00    -0.214 A  
HETATM   16  C   UNL     1      -7.228  16.544  69.230  1.00  0.00    -0.213 A  
HETATM   17  C   UNL     1      -7.307  17.929  69.027  1.00  0.00    -0.194 A  
BRANCH  15  18
HETATM   18  O   UNL     1      -7.034  19.853  67.700  1.00  0.00    -0.232 OA 
BRANCH  18  19
HETATM   19  C   UNL     1      -7.751  20.327  66.559  1.00  0.00    -0.241 C  
BRANCH  19  20
HETATM   20  C   UNL     1      -9.244  20.085  66.696  1.00  0.00    -0.376 C  
BRANCH  20  21
HETATM   21  O   UNL     1      -9.599  19.095  65.728  1.00  0.00    -0.404 OA 
BRANCH  21  22
HETATM   22  C   UNL     1     -10.554  18.168  66.234  1.00  0.00    -0.274 C  
BRANCH  22  23
HETATM   23  C   UNL     1     -10.071  16.748  65.958  1.00  0.00    -0.332 C  
BRANCH  23  24
HETATM   24  O   UNL     1     -10.718  16.259  64.784  1.00  0.00    -0.680 OA 
BRANCH  24  25
HETATM   25  C   UNL     1     -10.754  14.834  64.753  1.00  0.00    -0.358 C  
HETATM   26  C   UNL     1     -12.181  14.365  64.967  1.00  0.00    -0.414 C  
HETATM   27  F   UNL     1     -12.219  13.007  64.939  1.00  0.00    -0.377 F  
ENDBRANCH  24  25
ENDBRANCH  23  24
ENDBRANCH  22  23
ENDBRANCH  21  22
ENDBRANCH  20  21
ENDBRANCH  19  20
ENDBRANCH  18  19
ENDBRANCH  15  18
ENDBRANCH  11  12
ENDBRANCH   7  10
ENDBRANCH   2   4
TORSDOF 11
ENDMDL
MODEL      174
REMARK 921   NORMALIZED FREE ENERGY PREDICTED BY IDOCK:   -3.66 KCAL/MOL
REMARK 922        TOTAL FREE ENERGY PREDICTED BY IDOCK:   -7.08 KCAL/MOL
REMARK 923 INTER-LIGAND FREE ENERGY PREDICTED BY IDOCK:   -6.65 KCAL/MOL
REMARK 924 INTRA-LIGAND FREE ENERGY PREDICTED BY IDOCK:   -0.43 KCAL/MOL
REMARK 927      BINDING AFFINITY PREDICTED BY RF-SCORE:    0.00 PKD
ROOT
HETATM    1  C   UNL     1     -10.727   3.112  73.796  1.00  0.00    -0.206 C  
HETATM    2  N   UNL     1     -10.777   4.370  74.526  1.00  0.00    -0.302 NA 
HETATM    3  H   UNL     1     -10.802   4.398  75.545  1.00  0.00     0.000 HD 
ENDROOT
BRANCH   2   4
HETATM    4  C   UNL     1     -10.792   5.545  73.757  1.00  0.00    -0.202 A  
HETATM    5  C   UNL     1     -11.624   5.610  72.633  1.00  0.00    -0.307 A  
HETATM    6  C   UNL     1     -11.640   6.745  71.814  1.00  0.00    -0.336 A  
HETATM    7  C   UNL     1     -10.861   7.862  72.130  1.00  0.00    -0.327 A  
HETATM    8  C   UNL     1     -10.090   6.701  74.116  1.00  0.00    -0.390 A  
HETATM    9  C   UNL     1     -10.105   7.839  73.303  1.00  0.00    -0.374 A  
BRANCH   7  10
HETATM   10  C   UNL     1     -10.762   8.958  71.161  1.00  0.00    -0.333 C  
HETATM   11  C   UNL     1      -9.935   8.997  70.103  1.00  0.00    -0.216 C  
BRANCH  11  12
HETATM   12  C   UNL     1      -9.959  10.089  69.116  1.00  0.00    -0.213 A  
HETATM   13  C   UNL     1      -9.922   9.835  67.743  1.00  0.00    -0.206 A  
HETATM   14  C   UNL     1      -9.895  10.881  66.823  1.00  0.00    -0.231 A  
HETATM   15  C   UNL     1      -9.923  12.210  67.250  1.00  0.00    -0.203 A  
HETATM   16  C   UNL     1     -10.031  11.421  69.546  1.00  0.00     0.371 A  
HETATM   17  C   UNL     1     -10.006  12.473  68.619  1.00  0.00    -0.111 A  
BRANCH  15  18
HETATM   18  O   UNL     1      -9.871  13.304  66.422  1.00  0.00    -0.269 OA 
BRANCH  18  19
HETATM   19  C   UNL     1      -8.959  14.320  66.842  1.00  0.00    -0.236 C  
BRANCH  19  20
HETATM   20  C   UNL     1      -9.168  15.613  66.074  1.00  0.00    -0.339 C  
BRANCH  20  21
HETATM   21  O   UNL     1     -10.579  15.787  65.920  1.00  0.00    -0.316 OA 
BRANCH  21  22
HETATM   22  C   UNL     1     -11.074  15.150  64.747  1.00  0.00    -0.382 C  
BRANCH  22  23
HETATM   23  C   UNL     1     -12.560  14.856  64.923  1.00  0.00     0.002 C  
BRANCH  23  24
HETATM   24  O   UNL     1     -12.900  13.709  64.146  1.00  0.00    -0.611 OA 
BRANCH  24  25
HETATM   25  C   UNL     1     -11.750  13.121  63.539  1.00  0.00    -0.415 C  
HETATM   26  C   UNL     1     -11.935  11.616  63.471  1.00  0.00    -0.254 C  
HETATM   27  F   UNL     1     -10.842  11.053  62.894  1.00  0.00    -0.244 F  
ENDBRANCH  24  25
ENDBRANCH  23  24
ENDBRANCH  22  23
ENDBRANCH  21  22
ENDBRANCH  20  21
ENDBRANCH  19  20
ENDBRANCH  18  19
ENDBRANCH  15  18
ENDBRANCH  11  12
ENDBRANCH   7  10
ENDBRANCH   2   4
TORSDOF 11
ENDMDL
MODEL      175
REMARK 921   NORMALIZED FREE ENERGY PREDICTED BY IDOCK:   -3.65 KCAL/MOL
REMARK 922        TOTAL FREE ENERGY PREDICTED BY IDOCK:   -7.06 KCAL/MOL
REMARK 923 INTER-LIGAND FREE ENERGY PREDICTED BY IDOCK:   -6.31 KCAL/MOL
REMARK 924 INTRA-LIGAND FREE ENERGY PREDICTED BY IDOCK:   -0.75 KCAL/MOL
REMARK 927      BINDING AFFINITY PREDICTED BY RF-SCORE:    0.00 PKD
ROOT
HETATM    1  C   UNL     1     -12.725  15.620  73.384  1.00  0.00    -0.542 C  
HETATM    2  N   UNL     1     -13.633  14.591  72.897  1.00  0.00    -0.590 NA 
HETATM    3  H   UNL     1     -14.600  14.535  73.218  1.00  0.00     0.000 HD 
ENDROOT
BRANCH   2   4
HETATM    4  C   UNL     1     -13.112  13.680  71.965  1.00  0.00    -0.393 A  
HETATM    5  C   UNL     1     -13.370  12.314  72.134  1.00  0.00    -0.473 A  
HETATM    6  C   UNL     1     -12.837  11.367  71.252  1.00  0.00    -0.481 A  
HETATM    7  C   UNL     1     -12.074  11.769  70.152  1.00  0.00    -0.398 A  
HETATM    8  C   UNL     1     -12.429  14.076  70.810  1.00  0.00    -0.442 A  
HETATM    9  C   UNL     1     -11.897  13.134  69.924  1.00  0.00    -0.378 A  
BRANCH   7  10
HETATM   10  C   UNL     1     -11.382  10.750  69.355  1.00  0.00    -0.351 C  
HETATM   11  C   UNL     1     -10.764   9.661  69.841  1.00  0.00    -0.283 C  
BRANCH  11  12
HETATM   12  C   UNL     1     -10.172   8.629  68.974  1.00  0.00    -0.218 A  
HETATM   13  C   UNL     1     -10.888   8.067  67.914  1.00  0.00    -0.045 A  
HETATM   14  C   UNL     1     -10.332   7.056  67.133  1.00  0.00    -0.351 A  
HETATM   15  C   UNL     1      -9.038   6.593  67.378  1.00  0.00    -0.120 A  
HETATM   16  C   UNL     1      -8.857   8.197  69.194  1.00  0.00    -0.144 A  
HETATM   17  C   UNL     1      -8.298   7.181  68.406  1.00  0.00    -0.125 A  
BRANCH  15  18
HETATM   18  O   UNL     1      -8.418   5.584  66.682  1.00  0.00    -0.112 OA 
BRANCH  18  19
HETATM   19  C   UNL     1      -8.701   4.271  67.167  1.00  0.00    -0.106 C  
BRANCH  19  20
HETATM   20  C   UNL     1      -7.513   3.679  67.905  1.00  0.00    -0.062 C  
BRANCH  20  21
HETATM   21  O   UNL     1      -8.036   2.871  68.962  1.00  0.00    -0.055 OA 
BRANCH  21  22
HETATM   22  C   UNL     1      -7.599   3.313  70.243  1.00  0.00    -0.044 C  
BRANCH  22  23
HETATM   23  C   UNL     1      -8.814   3.647  71.101  1.00  0.00    -0.082 C  
BRANCH  23  24
HETATM   24  O   UNL     1      -9.517   2.441  71.396  1.00  0.00    -0.119 OA 
BRANCH  24  25
HETATM   25  C   UNL     1      -9.792   2.315  72.790  1.00  0.00    -0.120 C  
HETATM   26  C   UNL     1     -11.249   1.935  72.980  1.00  0.00    -0.074 C  
HETATM   27  F   UNL     1     -11.514   1.814  74.307  1.00  0.00    -0.201 F  
ENDBRANCH  24  25
ENDBRANCH  23  24
ENDBRANCH  22  23
ENDBRANCH  21  22
ENDBRANCH  20  21
ENDBRANCH  19  20
ENDBRANCH  18  19
ENDBRANCH  15  18
ENDBRANCH  11  12
ENDBRANCH   7  10
ENDBRANCH   2   4
TORSDOF 11
ENDMDL
MODEL      176
REMARK 921   NORMALIZED FREE ENERGY PREDICTED BY IDOCK:   -3.64 KCAL/MOL
REMARK 922        TOTAL FREE ENERGY PREDICTED BY IDOCK:   -7.05 KCAL/MOL
REMARK 923 INTER-LIGAND FREE ENERGY PREDICTED BY IDOCK:   -6.27 KCAL/MOL
REMARK 924 INTRA-LIGAND FREE ENERGY PREDICTED BY IDOCK:   -0.78 KCAL/MOL
REMARK 927      BINDING AFFINITY PREDICTED BY RF-SCORE:    0.00 PKD
ROOT
HETATM    1  C   UNL     1     -10.687  19.709  65.597  1.00  0.00    -0.329 C  
HETATM    2  N   UNL     1     -10.595  19.235  66.970  1.00  0.00    -0.448 NA 
HETATM    3  H   UNL     1     -10.678  19.872  67.763  1.00  0.00     0.000 HD 
ENDROOT
BRANCH   2   4
HETATM    4  C   UNL     1     -10.386  17.858  67.150  1.00  0.00    -0.367 A  
HETATM    5  C   UNL     1      -9.775  17.125  66.126  1.00  0.00    -0.263 A  
HETATM    6  C   UNL     1      -9.583  15.744  66.245  1.00  0.00    -0.343 A  
HETATM    7  C   UNL     1      -9.954  15.073  67.414  1.00  0.00    -0.226 A  
HETATM    8  C   UNL     1     -10.665  17.194  68.350  1.00  0.00    -0.347 A  
HETATM    9  C   UNL     1     -10.473  15.815  68.476  1.00  0.00    -0.236 A  
BRANCH   7  10
HETATM   10  C   UNL     1      -9.908  13.607  67.437  1.00  0.00    -0.234 C  
HETATM   11  C   UNL     1      -9.353  12.824  66.496  1.00  0.00    -0.221 C  
BRANCH  11  12
HETATM   12  C   UNL     1      -9.259  11.362  66.633  1.00  0.00    -0.191 A  
HETATM   13  C   UNL     1      -8.614  10.769  67.721  1.00  0.00    -0.127 A  
HETATM   14  C   UNL     1      -8.489   9.384  67.810  1.00  0.00    -0.116 A  
HETATM   15  C   UNL     1      -9.024   8.554  66.825  1.00  0.00    -0.146 A  
HETATM   16  C   UNL     1      -9.835  10.528  65.664  1.00  0.00    -0.311 A  
HETATM   17  C   UNL     1      -9.712   9.135  65.757  1.00  0.00    -0.299 A  
BRANCH  15  18
HETATM   18  O   UNL     1      -8.927   7.183  66.813  1.00  0.00    -0.126 OA 
BRANCH  18  19
HETATM   19  C   UNL     1     -10.139   6.509  66.469  1.00  0.00    -0.079 C  
BRANCH  19  20
HETATM   20  C   UNL     1     -10.629   5.625  67.603  1.00  0.00    -0.204 C  
BRANCH  20  21
HETATM   21  O   UNL     1     -10.766   6.459  68.756  1.00  0.00    -0.227 OA 
BRANCH  21  22
HETATM   22  C   UNL     1     -10.414   5.778  69.956  1.00  0.00    -0.283 C  
BRANCH  22  23
HETATM   23  C   UNL     1     -11.166   6.402  71.127  1.00  0.00    -0.302 C  
BRANCH  23  24
HETATM   24  O   UNL     1     -10.857   5.675  72.315  1.00  0.00    -0.223 OA 
BRANCH  24  25
HETATM   25  C   UNL     1     -10.467   6.542  73.379  1.00  0.00    -0.274 C  
HETATM   26  C   UNL     1      -8.982   6.834  73.266  1.00  0.00    -0.124 C  
HETATM   27  F   UNL     1      -8.606   7.659  74.278  1.00  0.00    -0.222 F  
ENDBRANCH  24  25
ENDBRANCH  23  24
ENDBRANCH  22  23
ENDBRANCH  21  22
ENDBRANCH  20  21
ENDBRANCH  19  20
ENDBRANCH  18  19
ENDBRANCH  15  18
ENDBRANCH  11  12
ENDBRANCH   7  10
ENDBRANCH   2   4
TORSDOF 11
ENDMDL
MODEL      177
REMARK 921   NORMALIZED FREE ENERGY PREDICTED BY IDOCK:   -3.60 KCAL/MOL
REMARK 922        TOTAL FREE ENERGY PREDICTED BY IDOCK:   -6.99 KCAL/MOL
REMARK 923 INTER-LIGAND FREE ENERGY PREDICTED BY IDOCK:   -6.26 KCAL/MOL
REMARK 924 INTRA-LIGAND FREE ENERGY PREDICTED BY IDOCK:   -0.73 KCAL/MOL
REMARK 927      BINDING AFFINITY PREDICTED BY RF-SCORE:    0.00 PKD
ROOT
HETATM    1  C   UNL     1      -5.582   2.317  63.108  1.00  0.00    -0.008 C  
HETATM    2  N   UNL     1      -5.657   2.485  64.552  1.00  0.00    -0.009 NA 
HETATM    3  H   UNL     1      -5.145   1.875  65.189  1.00  0.00     0.000 HD 
ENDROOT
BRANCH   2   4
HETATM    4  C   UNL     1      -6.470   3.528  65.024  1.00  0.00    -0.035 A  
HETATM    5  C   UNL     1      -7.801   3.598  64.596  1.00  0.00    -0.085 A  
HETATM    6  C   UNL     1      -8.636   4.643  65.008  1.00  0.00    -0.138 A  
HETATM    7  C   UNL     1      -8.171   5.615  65.899  1.00  0.00    -0.119 A  
HETATM    8  C   UNL     1      -6.046   4.450  65.987  1.00  0.00    -0.031 A  
HETATM    9  C   UNL     1      -6.877   5.495  66.405  1.00  0.00    -0.059 A  
BRANCH   7  10
HETATM   10  C   UNL     1      -9.007   6.791  66.168  1.00  0.00    -0.157 C  
HETATM   11  C   UNL     1      -8.612   8.072  66.075  1.00  0.00    -0.162 C  
BRANCH  11  12
HETATM   12  C   UNL     1      -9.534   9.203  66.268  1.00  0.00    -0.299 A  
HETATM   13  C   UNL     1     -10.064   9.508  67.523  1.00  0.00    -0.257 A  
HETATM   14  C   UNL     1     -10.975  10.551  67.680  1.00  0.00    -0.375 A  
HETATM   15  C   UNL     1     -11.365  11.330  66.589  1.00  0.00    -0.079 A  
HETATM   16  C   UNL     1      -9.890  10.010  65.179  1.00  0.00    -0.388 A  
HETATM   17  C   UNL     1     -10.804  11.062  65.339  1.00  0.00    -0.168 A  
BRANCH  15  18
HETATM   18  O   UNL     1     -12.275  12.358  66.641  1.00  0.00    -0.562 OA 
BRANCH  18  19
HETATM   19  C   UNL     1     -11.789  13.602  66.135  1.00  0.00    -0.392 C  
BRANCH  19  20
HETATM   20  C   UNL     1     -11.660  14.642  67.234  1.00  0.00    -0.387 C  
BRANCH  20  21
HETATM   21  O   UNL     1     -10.372  14.464  67.830  1.00  0.00    -0.235 OA 
BRANCH  21  22
HETATM   22  C   UNL     1     -10.200  15.277  68.987  1.00  0.00    -0.239 C  
BRANCH  22  23
HETATM   23  C   UNL     1     -11.209  14.857  70.051  1.00  0.00    -0.259 C  
BRANCH  23  24
HETATM   24  O   UNL     1     -12.113  15.936  70.281  1.00  0.00    -0.353 OA 
BRANCH  24  25
HETATM   25  C   UNL     1     -13.012  15.653  71.353  1.00  0.00    -0.487 C  
HETATM   26  C   UNL     1     -12.252  15.693  72.666  1.00  0.00    -0.439 C  
HETATM   27  F   UNL     1     -13.104  15.424  73.689  1.00  0.00    -0.536 F  
ENDBRANCH  24  25
ENDBRANCH  23  24
ENDBRANCH  22  23
ENDBRANCH  21  22
ENDBRANCH  20  21
ENDBRANCH  19  20
ENDBRANCH  18  19
ENDBRANCH  15  18
ENDBRANCH  11  12
ENDBRANCH   7  10
ENDBRANCH   2   4
TORSDOF 11
ENDMDL
MODEL      178
REMARK 921   NORMALIZED FREE ENERGY PREDICTED BY IDOCK:   -3.59 KCAL/MOL
REMARK 922        TOTAL FREE ENERGY PREDICTED BY IDOCK:   -6.98 KCAL/MOL
REMARK 923 INTER-LIGAND FREE ENERGY PREDICTED BY IDOCK:   -5.81 KCAL/MOL
REMARK 924 INTRA-LIGAND FREE ENERGY PREDICTED BY IDOCK:   -1.16 KCAL/MOL
REMARK 927      BINDING AFFINITY PREDICTED BY RF-SCORE:    0.00 PKD
ROOT
HETATM    1  C   UNL     1     -13.284  14.909  72.883  1.00  0.00    -0.492 C  
HETATM    2  N   UNL     1     -13.999  13.900  72.114  1.00  0.00    -0.511 NA 
HETATM    3  H   UNL     1     -15.014  13.917  72.022  1.00  0.00     0.000 HD 
ENDROOT
BRANCH   2   4
HETATM    4  C   UNL     1     -13.221  12.902  71.505  1.00  0.00    -0.257 A  
HETATM    5  C   UNL     1     -12.338  13.261  70.479  1.00  0.00    -0.389 A  
HETATM    6  C   UNL     1     -11.573  12.295  69.817  1.00  0.00    -0.314 A  
HETATM    7  C   UNL     1     -11.637  10.951  70.200  1.00  0.00    -0.425 A  
HETATM    8  C   UNL     1     -13.205  11.573  71.942  1.00  0.00    -0.479 A  
HETATM    9  C   UNL     1     -12.441  10.603  71.286  1.00  0.00    -0.515 A  
BRANCH   7  10
HETATM   10  C   UNL     1     -10.965   9.943  69.373  1.00  0.00    -0.263 C  
HETATM   11  C   UNL     1     -10.204  10.194  68.294  1.00  0.00    -0.192 C  
BRANCH  11  12
HETATM   12  C   UNL     1      -9.482   9.136  67.569  1.00  0.00    -0.169 A  
HETATM   13  C   UNL     1      -9.390   7.836  68.071  1.00  0.00    -0.146 A  
HETATM   14  C   UNL     1      -8.660   6.859  67.397  1.00  0.00    -0.121 A  
HETATM   15  C   UNL     1      -8.019   7.150  66.192  1.00  0.00    -0.112 A  
HETATM   16  C   UNL     1      -8.875   9.420  66.337  1.00  0.00    -0.167 A  
HETATM   17  C   UNL     1      -8.143   8.435  65.659  1.00  0.00    -0.125 A  
BRANCH  15  18
HETATM   18  O   UNL     1      -7.256   6.264  65.473  1.00  0.00    -0.067 OA 
BRANCH  18  19
HETATM   19  C   UNL     1      -7.266   6.486  64.062  1.00  0.00    -0.067 C  
BRANCH  19  20
HETATM   20  C   UNL     1      -7.535   5.203  63.295  1.00  0.00    -0.052 C  
BRANCH  20  21
HETATM   21  O   UNL     1      -8.937   5.164  63.020  1.00  0.00    -0.066 OA 
BRANCH  21  22
HETATM   22  C   UNL     1      -9.488   3.865  63.221  1.00  0.00    -0.136 C  
BRANCH  22  23
HETATM   23  C   UNL     1     -10.034   3.766  64.642  1.00  0.00    -0.199 C  
BRANCH  23  24
HETATM   24  O   UNL     1      -9.359   2.710  65.324  1.00  0.00    -0.146 OA 
BRANCH  24  25
HETATM   25  C   UNL     1      -8.569   3.200  66.406  1.00  0.00    -0.119 C  
HETATM   26  C   UNL     1      -9.308   2.961  67.710  1.00  0.00    -0.199 C  
HETATM   27  F   UNL     1      -8.559   3.426  68.745  1.00  0.00    -0.085 F  
ENDBRANCH  24  25
ENDBRANCH  23  24
ENDBRANCH  22  23
ENDBRANCH  21  22
ENDBRANCH  20  21
ENDBRANCH  19  20
ENDBRANCH  18  19
ENDBRANCH  15  18
ENDBRANCH  11  12
ENDBRANCH   7  10
ENDBRANCH   2   4
TORSDOF 11
ENDMDL
MODEL      179
REMARK 921   NORMALIZED FREE ENERGY PREDICTED BY IDOCK:   -3.56 KCAL/MOL
REMARK 922        TOTAL FREE ENERGY PREDICTED BY IDOCK:   -6.93 KCAL/MOL
REMARK 923 INTER-LIGAND FREE ENERGY PREDICTED BY IDOCK:   -5.89 KCAL/MOL
REMARK 924 INTRA-LIGAND FREE ENERGY PREDICTED BY IDOCK:   -1.04 KCAL/MOL
REMARK 927      BINDING AFFINITY PREDICTED BY RF-SCORE:    0.00 PKD
ROOT
HETATM    1  C   UNL     1     -12.932  12.026  62.966  1.00  0.00     0.321 C  
HETATM    2  N   UNL     1     -12.895  11.719  64.389  1.00  0.00    -0.243 NA 
HETATM    3  H   UNL     1     -13.458  10.968  64.789  1.00  0.00     0.000 HD 
ENDROOT
BRANCH   2   4
HETATM    4  C   UNL     1     -12.046  12.506  65.183  1.00  0.00    -0.446 A  
HETATM    5  C   UNL     1     -12.534  13.705  65.716  1.00  0.00    -0.524 A  
HETATM    6  C   UNL     1     -11.712  14.542  66.479  1.00  0.00    -0.380 A  
HETATM    7  C   UNL     1     -10.394  14.173  66.767  1.00  0.00    -0.274 A  
HETATM    8  C   UNL     1     -10.759  12.104  65.556  1.00  0.00    -0.321 A  
HETATM    9  C   UNL     1      -9.933  12.934  66.321  1.00  0.00    -0.271 A  
BRANCH   7  10
HETATM   10  C   UNL     1      -9.507  15.148  67.411  1.00  0.00    -0.204 C  
HETATM   11  C   UNL     1      -8.213  15.350  67.110  1.00  0.00    -0.250 C  
BRANCH  11  12
HETATM   12  C   UNL     1      -7.409  16.414  67.733  1.00  0.00    -0.153 A  
HETATM   13  C   UNL     1      -7.647  16.839  69.042  1.00  0.00    -0.218 A  
HETATM   14  C   UNL     1      -6.911  17.882  69.600  1.00  0.00     0.069 A  
HETATM   15  C   UNL     1      -5.903  18.515  68.871  1.00  0.00    -0.210 A  
HETATM   16  C   UNL     1      -6.369  17.019  67.014  1.00  0.00    -0.231 A  
HETATM   17  C   UNL     1      -5.627  18.066  67.578  1.00  0.00    -0.146 A  
BRANCH  15  18
HETATM   18  O   UNL     1      -5.145  19.567  69.325  1.00  0.00    -0.179 OA 
BRANCH  18  19
HETATM   19  C   UNL     1      -5.757  20.847  69.165  1.00  0.00    -0.321 C  
BRANCH  19  20
HETATM   20  C   UNL     1      -5.919  21.211  67.699  1.00  0.00    -0.350 C  
BRANCH  20  21
HETATM   21  O   UNL     1      -7.322  21.309  67.444  1.00  0.00    -0.484 OA 
BRANCH  21  22
HETATM   22  C   UNL     1      -7.722  20.510  66.334  1.00  0.00    -0.074 C  
BRANCH  22  23
HETATM   23  C   UNL     1      -9.159  20.044  66.543  1.00  0.00    -0.356 C  
BRANCH  23  24
HETATM   24  O   UNL     1      -9.328  18.772  65.920  1.00  0.00    -0.466 OA 
BRANCH  24  25
HETATM   25  C   UNL     1     -10.528  18.129  66.344  1.00  0.00    -0.350 C  
HETATM   26  C   UNL     1     -10.698  18.326  67.839  1.00  0.00    -0.311 C  
HETATM   27  F   UNL     1     -11.841  17.715  68.248  1.00  0.00     0.483 F  
ENDBRANCH  24  25
ENDBRANCH  23  24
ENDBRANCH  22  23
ENDBRANCH  21  22
ENDBRANCH  20  21
ENDBRANCH  19  20
ENDBRANCH  18  19
ENDBRANCH  15  18
ENDBRANCH  11  12
ENDBRANCH   7  10
ENDBRANCH   2   4
TORSDOF 11
ENDMDL
MODEL      180
REMARK 921   NORMALIZED FREE ENERGY PREDICTED BY IDOCK:   -3.56 KCAL/MOL
REMARK 922        TOTAL FREE ENERGY PREDICTED BY IDOCK:   -6.93 KCAL/MOL
REMARK 923 INTER-LIGAND FREE ENERGY PREDICTED BY IDOCK:   -5.73 KCAL/MOL
REMARK 924 INTRA-LIGAND FREE ENERGY PREDICTED BY IDOCK:   -1.20 KCAL/MOL
REMARK 927      BINDING AFFINITY PREDICTED BY RF-SCORE:    0.00 PKD
ROOT
HETATM    1  C   UNL     1      -6.920  20.912  66.863  1.00  0.00    -0.287 C  
HETATM    2  N   UNL     1      -8.311  20.634  66.537  1.00  0.00    -0.532 NA 
HETATM    3  H   UNL     1      -8.874  21.286  65.991  1.00  0.00     0.000 HD 
ENDROOT
BRANCH   2   4
HETATM    4  C   UNL     1      -8.841  19.424  67.014  1.00  0.00    -0.300 A  
HETATM    5  C   UNL     1      -8.225  18.795  68.102  1.00  0.00    -0.332 A  
HETATM    6  C   UNL     1      -8.693  17.568  68.585  1.00  0.00    -0.258 A  
HETATM    7  C   UNL     1      -9.822  16.966  68.020  1.00  0.00    -0.264 A  
HETATM    8  C   UNL     1     -10.023  18.861  66.520  1.00  0.00    -0.426 A  
HETATM    9  C   UNL     1     -10.498  17.636  67.000  1.00  0.00    -0.305 A  
BRANCH   7  10
HETATM   10  C   UNL     1     -10.178  15.602  68.425  1.00  0.00    -0.222 C  
HETATM   11  C   UNL     1      -9.849  14.477  67.767  1.00  0.00    -0.220 C  
BRANCH  11  12
HETATM   12  C   UNL     1     -10.159  13.134  68.284  1.00  0.00    -0.247 A  
HETATM   13  C   UNL     1     -11.474  12.671  68.375  1.00  0.00    -0.350 A  
HETATM   14  C   UNL     1     -11.754  11.417  68.914  1.00  0.00    -0.409 A  
HETATM   15  C   UNL     1     -10.727  10.584  69.359  1.00  0.00    -0.241 A  
HETATM   16  C   UNL     1      -9.123  12.283  68.690  1.00  0.00     0.013 A  
HETATM   17  C   UNL     1      -9.406  11.020  69.230  1.00  0.00     0.044 A  
BRANCH  15  18
HETATM   18  O   UNL     1     -10.907   9.348  69.928  1.00  0.00    -0.224 OA 
BRANCH  18  19
HETATM   19  C   UNL     1     -10.015   8.341  69.447  1.00  0.00    -0.188 C  
BRANCH  19  20
HETATM   20  C   UNL     1     -10.491   7.755  68.129  1.00  0.00    -0.176 C  
BRANCH  20  21
HETATM   21  O   UNL     1      -9.356   7.696  67.262  1.00  0.00    -0.137 OA 
BRANCH  21  22
HETATM   22  C   UNL     1      -9.537   8.480  66.087  1.00  0.00    -0.206 C  
BRANCH  22  23
HETATM   23  C   UNL     1      -8.178   8.756  65.452  1.00  0.00    -0.136 C  
BRANCH  23  24
HETATM   24  O   UNL     1      -8.024  10.164  65.282  1.00  0.00    -0.135 OA 
BRANCH  24  25
HETATM   25  C   UNL     1      -9.203  10.874  65.658  1.00  0.00    -0.203 C  
HETATM   26  C   UNL     1      -9.308  12.141  64.829  1.00  0.00     0.292 C  
HETATM   27  F   UNL     1     -10.430  12.821  65.184  1.00  0.00    -0.280 F  
ENDBRANCH  24  25
ENDBRANCH  23  24
ENDBRANCH  22  23
ENDBRANCH  21  22
ENDBRANCH  20  21
ENDBRANCH  19  20
ENDBRANCH  18  19
ENDBRANCH  15  18
ENDBRANCH  11  12
ENDBRANCH   7  10
ENDBRANCH   2   4
TORSDOF 11
ENDMDL
MODEL      181
REMARK 921   NORMALIZED FREE ENERGY PREDICTED BY IDOCK:   -3.56 KCAL/MOL
REMARK 922        TOTAL FREE ENERGY PREDICTED BY IDOCK:   -6.92 KCAL/MOL
REMARK 923 INTER-LIGAND FREE ENERGY PREDICTED BY IDOCK:   -5.66 KCAL/MOL
REMARK 924 INTRA-LIGAND FREE ENERGY PREDICTED BY IDOCK:   -1.25 KCAL/MOL
REMARK 927      BINDING AFFINITY PREDICTED BY RF-SCORE:    0.00 PKD
ROOT
HETATM    1  C   UNL     1     -10.422  19.801  66.828  1.00  0.00    -0.489 C  
HETATM    2  N   UNL     1      -9.241  19.011  67.144  1.00  0.00    -0.288 NA 
HETATM    3  H   UNL     1      -8.304  19.413  67.113  1.00  0.00     0.000 HD 
ENDROOT
BRANCH   2   4
HETATM    4  C   UNL     1      -9.456  17.668  67.492  1.00  0.00    -0.256 A  
HETATM    5  C   UNL     1      -8.547  17.036  68.350  1.00  0.00    -0.243 A  
HETATM    6  C   UNL     1      -8.699  15.687  68.691  1.00  0.00    -0.193 A  
HETATM    7  C   UNL     1      -9.793  14.953  68.222  1.00  0.00    -0.218 A  
HETATM    8  C   UNL     1     -10.594  16.952  67.107  1.00  0.00    -0.249 A  
HETATM    9  C   UNL     1     -10.753  15.605  67.448  1.00  0.00    -0.309 A  
BRANCH   7  10
HETATM   10  C   UNL     1      -9.826  13.504  68.448  1.00  0.00    -0.225 C  
HETATM   11  C   UNL     1     -10.541  12.616  67.737  1.00  0.00    -0.233 C  
BRANCH  11  12
HETATM   12  C   UNL     1     -10.452  11.164  67.960  1.00  0.00    -0.217 A  
HETATM   13  C   UNL     1     -10.181  10.633  69.223  1.00  0.00    -0.235 A  
HETATM   14  C   UNL     1     -10.049   9.258  69.408  1.00  0.00    -0.200 A  
HETATM   15  C   UNL     1     -10.205   8.375  68.339  1.00  0.00    -0.206 A  
HETATM   16  C   UNL     1     -10.652  10.277  66.893  1.00  0.00    -0.282 A  
HETATM   17  C   UNL     1     -10.522   8.893  67.081  1.00  0.00    -0.344 A  
BRANCH  15  18
HETATM   18  O   UNL     1     -10.067   7.011  68.418  1.00  0.00    -0.153 OA 
BRANCH  18  19
HETATM   19  C   UNL     1      -9.837   6.367  67.164  1.00  0.00    -0.146 C  
BRANCH  19  20
HETATM   20  C   UNL     1      -8.466   5.717  67.111  1.00  0.00    -0.110 C  
BRANCH  20  21
HETATM   21  O   UNL     1      -7.926   5.980  65.814  1.00  0.00    -0.103 OA 
BRANCH  21  22
HETATM   22  C   UNL     1      -7.462   7.320  65.687  1.00  0.00    -0.085 C  
BRANCH  22  23
HETATM   23  C   UNL     1      -7.821   7.847  64.301  1.00  0.00    -0.136 C  
BRANCH  23  24
HETATM   24  O   UNL     1      -7.038   9.009  64.032  1.00  0.00    -0.093 OA 
BRANCH  24  25
HETATM   25  C   UNL     1      -7.819  10.201  64.104  1.00  0.00    -0.145 C  
HETATM   26  C   UNL     1      -9.157   9.963  63.427  1.00  0.00    -0.261 C  
HETATM   27  F   UNL     1      -9.904  11.096  63.493  1.00  0.00    -0.244 F  
ENDBRANCH  24  25
ENDBRANCH  23  24
ENDBRANCH  22  23
ENDBRANCH  21  22
ENDBRANCH  20  21
ENDBRANCH  19  20
ENDBRANCH  18  19
ENDBRANCH  15  18
ENDBRANCH  11  12
ENDBRANCH   7  10
ENDBRANCH   2   4
TORSDOF 11
ENDMDL
MODEL      182
REMARK 921   NORMALIZED FREE ENERGY PREDICTED BY IDOCK:   -3.55 KCAL/MOL
REMARK 922        TOTAL FREE ENERGY PREDICTED BY IDOCK:   -6.91 KCAL/MOL
REMARK 923 INTER-LIGAND FREE ENERGY PREDICTED BY IDOCK:   -5.30 KCAL/MOL
REMARK 924 INTRA-LIGAND FREE ENERGY PREDICTED BY IDOCK:   -1.61 KCAL/MOL
REMARK 927      BINDING AFFINITY PREDICTED BY RF-SCORE:    0.00 PKD
ROOT
HETATM    1  C   UNL     1     -14.096  15.432  72.409  1.00  0.00    -0.549 C  
HETATM    2  N   UNL     1     -12.732  15.852  72.120  1.00  0.00    -0.446 NA 
HETATM    3  H   UNL     1     -12.248  16.536  72.702  1.00  0.00     0.000 HD 
ENDROOT
BRANCH   2   4
HETATM    4  C   UNL     1     -12.117  15.269  71.001  1.00  0.00    -0.342 A  
HETATM    5  C   UNL     1     -12.546  14.008  70.570  1.00  0.00    -0.399 A  
HETATM    6  C   UNL     1     -11.934  13.371  69.485  1.00  0.00    -0.377 A  
HETATM    7  C   UNL     1     -10.910  14.005  68.773  1.00  0.00    -0.279 A  
HETATM    8  C   UNL     1     -11.159  15.931  70.226  1.00  0.00    -0.381 A  
HETATM    9  C   UNL     1     -10.546  15.301  69.138  1.00  0.00    -0.250 A  
BRANCH   7  10
HETATM   10  C   UNL     1     -10.170  13.243  67.762  1.00  0.00    -0.228 C  
HETATM   11  C   UNL     1      -8.977  12.651  67.942  1.00  0.00    -0.189 C  
BRANCH  11  12
HETATM   12  C   UNL     1      -8.338  11.821  66.909  1.00  0.00    -0.170 A  
HETATM   13  C   UNL     1      -9.078  11.238  65.878  1.00  0.00    -0.217 A  
HETATM   14  C   UNL     1      -8.466  10.413  64.936  1.00  0.00    -0.179 A  
HETATM   15  C   UNL     1      -7.094  10.165  64.988  1.00  0.00    -0.135 A  
HETATM   16  C   UNL     1      -6.953  11.608  66.937  1.00  0.00    -0.123 A  
HETATM   17  C   UNL     1      -6.337  10.781  65.987  1.00  0.00    -0.126 A  
BRANCH  15  18
HETATM   18  O   UNL     1      -6.408   9.347  64.123  1.00  0.00    -0.087 OA 
BRANCH  18  19
HETATM   19  C   UNL     1      -6.914   8.013  64.047  1.00  0.00    -0.067 C  
BRANCH  19  20
HETATM   20  C   UNL     1      -5.911   7.003  64.575  1.00  0.00    -0.036 C  
BRANCH  20  21
HETATM   21  O   UNL     1      -5.842   7.182  65.992  1.00  0.00    -0.034 OA 
BRANCH  21  22
HETATM   22  C   UNL     1      -6.284   6.029  66.701  1.00  0.00    -0.030 C  
BRANCH  22  23
HETATM   23  C   UNL     1      -7.205   6.460  67.838  1.00  0.00    -0.087 C  
BRANCH  23  24
HETATM   24  O   UNL     1      -8.024   7.536  67.386  1.00  0.00    -0.112 OA 
BRANCH  24  25
HETATM   25  C   UNL     1      -8.244   8.502  68.413  1.00  0.00    -0.123 C  
HETATM   26  C   UNL     1      -9.733   8.758  68.548  1.00  0.00    -0.162 C  
HETATM   27  F   UNL     1      -9.947   9.678  69.525  1.00  0.00    -0.170 F  
ENDBRANCH  24  25
ENDBRANCH  23  24
ENDBRANCH  22  23
ENDBRANCH  21  22
ENDBRANCH  20  21
ENDBRANCH  19  20
ENDBRANCH  18  19
ENDBRANCH  15  18
ENDBRANCH  11  12
ENDBRANCH   7  10
ENDBRANCH   2   4
TORSDOF 11
ENDMDL
MODEL      183
REMARK 921   NORMALIZED FREE ENERGY PREDICTED BY IDOCK:   -3.54 KCAL/MOL
REMARK 922        TOTAL FREE ENERGY PREDICTED BY IDOCK:   -6.90 KCAL/MOL
REMARK 923 INTER-LIGAND FREE ENERGY PREDICTED BY IDOCK:   -6.34 KCAL/MOL
REMARK 924 INTRA-LIGAND FREE ENERGY PREDICTED BY IDOCK:   -0.56 KCAL/MOL
REMARK 927      BINDING AFFINITY PREDICTED BY RF-SCORE:    0.00 PKD
ROOT
HETATM    1  C   UNL     1     -11.597  16.120  64.467  1.00  0.00    -0.164 C  
HETATM    2  N   UNL     1     -12.021  14.829  63.945  1.00  0.00    -0.871 NA 
HETATM    3  H   UNL     1     -12.536  14.749  63.068  1.00  0.00     0.000 HD 
ENDROOT
BRANCH   2   4
HETATM    4  C   UNL     1     -11.686  13.699  64.709  1.00  0.00    -0.377 A  
HETATM    5  C   UNL     1     -12.121  13.625  66.037  1.00  0.00    -0.480 A  
HETATM    6  C   UNL     1     -11.777  12.538  66.848  1.00  0.00    -0.447 A  
HETATM    7  C   UNL     1     -11.031  11.474  66.332  1.00  0.00    -0.336 A  
HETATM    8  C   UNL     1     -11.023  12.588  64.178  1.00  0.00    -0.425 A  
HETATM    9  C   UNL     1     -10.679  11.497  64.982  1.00  0.00    -0.350 A  
BRANCH   7  10
HETATM   10  C   UNL     1     -10.535  10.442  67.249  1.00  0.00    -0.304 C  
HETATM   11  C   UNL     1      -9.988  10.663  68.457  1.00  0.00    -0.176 C  
BRANCH  11  12
HETATM   12  C   UNL     1      -9.599   9.572  69.365  1.00  0.00    -0.186 A  
HETATM   13  C   UNL     1     -10.076   9.508  70.676  1.00  0.00    -0.353 A  
HETATM   14  C   UNL     1      -9.659   8.496  71.539  1.00  0.00    -0.297 A  
HETATM   15  C   UNL     1      -8.771   7.510  71.108  1.00  0.00    -0.136 A  
HETATM   16  C   UNL     1      -8.741   8.558  68.916  1.00  0.00    -0.131 A  
HETATM   17  C   UNL     1      -8.325   7.539  69.785  1.00  0.00    -0.134 A  
BRANCH  15  18
HETATM   18  O   UNL     1      -8.284   6.492  71.892  1.00  0.00    -0.108 OA 
BRANCH  18  19
HETATM   19  C   UNL     1      -9.281   5.791  72.637  1.00  0.00    -0.137 C  
BRANCH  19  20
HETATM   20  C   UNL     1     -10.352   5.211  71.730  1.00  0.00    -0.209 C  
BRANCH  20  21
HETATM   21  O   UNL     1      -9.701   4.302  70.840  1.00  0.00    -0.172 OA 
BRANCH  21  22
HETATM   22  C   UNL     1      -9.275   3.115  71.501  1.00  0.00    -0.118 C  
BRANCH  22  23
HETATM   23  C   UNL     1      -8.682   2.153  70.477  1.00  0.00    -0.062 C  
BRANCH  23  24
HETATM   24  O   UNL     1      -9.433   2.245  69.268  1.00  0.00    -0.122 OA 
BRANCH  24  25
HETATM   25  C   UNL     1      -8.633   2.706  68.180  1.00  0.00    -0.090 C  
HETATM   26  C   UNL     1      -8.497   1.595  67.155  1.00  0.00    -0.087 C  
HETATM   27  F   UNL     1      -7.735   2.030  66.117  1.00  0.00    -0.068 F  
ENDBRANCH  24  25
ENDBRANCH  23  24
ENDBRANCH  22  23
ENDBRANCH  21  22
ENDBRANCH  20  21
ENDBRANCH  19  20
ENDBRANCH  18  19
ENDBRANCH  15  18
ENDBRANCH  11  12
ENDBRANCH   7  10
ENDBRANCH   2   4
TORSDOF 11
ENDMDL
MODEL      184
REMARK 921   NORMALIZED FREE ENERGY PREDICTED BY IDOCK:   -3.52 KCAL/MOL
REMARK 922        TOTAL FREE ENERGY PREDICTED BY IDOCK:   -6.86 KCAL/MOL
REMARK 923 INTER-LIGAND FREE ENERGY PREDICTED BY IDOCK:   -6.02 KCAL/MOL
REMARK 924 INTRA-LIGAND FREE ENERGY PREDICTED BY IDOCK:   -0.84 KCAL/MOL
REMARK 927      BINDING AFFINITY PREDICTED BY RF-SCORE:    0.00 PKD
ROOT
HETATM    1  C   UNL     1      -9.960  20.111  66.239  1.00  0.00    -0.435 C  
HETATM    2  N   UNL     1     -10.691  19.328  67.226  1.00  0.00    -0.478 NA 
HETATM    3  H   UNL     1     -11.319  19.767  67.899  1.00  0.00     0.000 HD 
ENDROOT
BRANCH   2   4
HETATM    4  C   UNL     1     -10.486  17.939  67.204  1.00  0.00    -0.353 A  
HETATM    5  C   UNL     1     -10.133  17.323  65.998  1.00  0.00    -0.275 A  
HETATM    6  C   UNL     1      -9.959  15.937  65.921  1.00  0.00    -0.377 A  
HETATM    7  C   UNL     1     -10.086  15.140  67.063  1.00  0.00    -0.244 A  
HETATM    8  C   UNL     1     -10.518  17.146  68.356  1.00  0.00    -0.376 A  
HETATM    9  C   UNL     1     -10.342  15.760  68.287  1.00  0.00    -0.239 A  
BRANCH   7  10
HETATM   10  C   UNL     1     -10.077  13.680  66.916  1.00  0.00    -0.260 C  
HETATM   11  C   UNL     1     -10.354  12.793  67.886  1.00  0.00    -0.228 C  
BRANCH  11  12
HETATM   12  C   UNL     1     -10.420  11.343  67.641  1.00  0.00    -0.225 A  
HETATM   13  C   UNL     1     -10.233  10.808  66.364  1.00  0.00    -0.294 A  
HETATM   14  C   UNL     1     -10.348   9.437  66.140  1.00  0.00    -0.162 A  
HETATM   15  C   UNL     1     -10.632   8.563  67.189  1.00  0.00    -0.243 A  
HETATM   16  C   UNL     1     -10.663  10.462  68.704  1.00  0.00    -0.250 A  
HETATM   17  C   UNL     1     -10.775   9.083  68.477  1.00  0.00    -0.140 A  
BRANCH  15  18
HETATM   18  O   UNL     1     -10.791   7.204  67.060  1.00  0.00    -0.351 OA 
BRANCH  18  19
HETATM   19  C   UNL     1      -9.667   6.435  67.488  1.00  0.00    -0.121 C  
BRANCH  19  20
HETATM   20  C   UNL     1      -9.157   5.526  66.384  1.00  0.00    -0.144 C  
BRANCH  20  21
HETATM   21  O   UNL     1      -7.740   5.705  66.314  1.00  0.00    -0.096 OA 
BRANCH  21  22
HETATM   22  C   UNL     1      -7.136   4.838  65.359  1.00  0.00    -0.064 C  
BRANCH  22  23
HETATM   23  C   UNL     1      -7.528   5.285  63.955  1.00  0.00    -0.059 C  
BRANCH  23  24
HETATM   24  O   UNL     1      -7.906   4.139  63.194  1.00  0.00    -0.068 OA 
BRANCH  24  25
HETATM   25  C   UNL     1      -9.309   4.116  62.934  1.00  0.00    -0.129 C  
HETATM   26  C   UNL     1      -9.943   2.980  63.714  1.00  0.00    -0.162 C  
HETATM   27  F   UNL     1     -11.279   2.954  63.469  1.00  0.00    -0.245 F  
ENDBRANCH  24  25
ENDBRANCH  23  24
ENDBRANCH  22  23
ENDBRANCH  21  22
ENDBRANCH  20  21
ENDBRANCH  19  20
ENDBRANCH  18  19
ENDBRANCH  15  18
ENDBRANCH  11  12
ENDBRANCH   7  10
ENDBRANCH   2   4
TORSDOF 11
ENDMDL
MODEL      185
REMARK 921   NORMALIZED FREE ENERGY PREDICTED BY IDOCK:   -3.50 KCAL/MOL
REMARK 922        TOTAL FREE ENERGY PREDICTED BY IDOCK:   -6.82 KCAL/MOL
REMARK 923 INTER-LIGAND FREE ENERGY PREDICTED BY IDOCK:   -5.65 KCAL/MOL
REMARK 924 INTRA-LIGAND FREE ENERGY PREDICTED BY IDOCK:   -1.16 KCAL/MOL
REMARK 927      BINDING AFFINITY PREDICTED BY RF-SCORE:    0.00 PKD
ROOT
HETATM    1  C   UNL     1      -5.427  20.470  70.247  1.00  0.00    -0.316 C  
HETATM    2  N   UNL     1      -6.535  20.349  69.310  1.00  0.00    -0.255 NA 
HETATM    3  H   UNL     1      -6.952  21.168  68.867  1.00  0.00     0.000 HD 
ENDROOT
BRANCH   2   4
HETATM    4  C   UNL     1      -7.001  19.051  69.049  1.00  0.00    -0.319 A  
HETATM    5  C   UNL     1      -6.238  17.957  69.475  1.00  0.00    -0.237 A  
HETATM    6  C   UNL     1      -6.643  16.646  69.201  1.00  0.00    -0.207 A  
HETATM    7  C   UNL     1      -7.848  16.399  68.535  1.00  0.00    -0.197 A  
HETATM    8  C   UNL     1      -8.247  18.790  68.470  1.00  0.00    -0.379 A  
HETATM    9  C   UNL     1      -8.659  17.482  68.195  1.00  0.00    -0.258 A  
BRANCH   7  10
HETATM   10  C   UNL     1      -8.154  15.030  68.105  1.00  0.00    -0.131 C  
HETATM   11  C   UNL     1      -9.366  14.572  67.750  1.00  0.00    -0.198 C  
BRANCH  11  12
HETATM   12  C   UNL     1      -9.582  13.210  67.236  1.00  0.00    -0.233 A  
HETATM   13  C   UNL     1     -10.855  12.751  66.892  1.00  0.00    -0.278 A  
HETATM   14  C   UNL     1     -11.049  11.442  66.454  1.00  0.00    -0.301 A  
HETATM   15  C   UNL     1      -9.973  10.563  66.329  1.00  0.00    -0.221 A  
HETATM   16  C   UNL     1      -8.493  12.342  67.070  1.00  0.00    -0.170 A  
HETATM   17  C   UNL     1      -8.689  11.027  66.627  1.00  0.00    -0.160 A  
BRANCH  15  18
HETATM   18  O   UNL     1     -10.070   9.251  65.934  1.00  0.00    -0.293 OA 
BRANCH  18  19
HETATM   19  C   UNL     1     -10.636   8.380  66.914  1.00  0.00    -0.215 C  
BRANCH  19  20
HETATM   20  C   UNL     1      -9.983   7.009  66.889  1.00  0.00    -0.217 C  
BRANCH  20  21
HETATM   21  O   UNL     1      -9.242   6.876  68.105  1.00  0.00    -0.128 OA 
BRANCH  21  22
HETATM   22  C   UNL     1      -9.805   7.644  69.164  1.00  0.00    -0.171 C  
BRANCH  22  23
HETATM   23  C   UNL     1      -9.314   7.096  70.499  1.00  0.00    -0.158 C  
BRANCH  23  24
HETATM   24  O   UNL     1      -8.338   7.988  71.034  1.00  0.00    -0.108 OA 
BRANCH  24  25
HETATM   25  C   UNL     1      -8.440   9.290  70.461  1.00  0.00    -0.216 C  
HETATM   26  C   UNL     1      -7.051   9.883  70.318  1.00  0.00    -0.151 C  
HETATM   27  F   UNL     1      -7.144  11.124  69.773  1.00  0.00    -0.132 F  
ENDBRANCH  24  25
ENDBRANCH  23  24
ENDBRANCH  22  23
ENDBRANCH  21  22
ENDBRANCH  20  21
ENDBRANCH  19  20
ENDBRANCH  18  19
ENDBRANCH  15  18
ENDBRANCH  11  12
ENDBRANCH   7  10
ENDBRANCH   2   4
TORSDOF 11
ENDMDL
MODEL      186
REMARK 921   NORMALIZED FREE ENERGY PREDICTED BY IDOCK:   -3.48 KCAL/MOL
REMARK 922        TOTAL FREE ENERGY PREDICTED BY IDOCK:   -6.80 KCAL/MOL
REMARK 923 INTER-LIGAND FREE ENERGY PREDICTED BY IDOCK:   -7.29 KCAL/MOL
REMARK 924 INTRA-LIGAND FREE ENERGY PREDICTED BY IDOCK:    0.49 KCAL/MOL
REMARK 927      BINDING AFFINITY PREDICTED BY RF-SCORE:    0.00 PKD
ROOT
HETATM    1  C   UNL     1     -11.301  16.044  64.247  1.00  0.00    -0.137 C  
HETATM    2  N   UNL     1     -11.232  14.635  63.888  1.00  0.00    -0.179 NA 
HETATM    3  H   UNL     1     -11.176  14.332  62.916  1.00  0.00     0.000 HD 
ENDROOT
BRANCH   2   4
HETATM    4  C   UNL     1     -11.248  13.713  64.947  1.00  0.00    -0.342 A  
HETATM    5  C   UNL     1     -11.584  14.159  66.231  1.00  0.00    -0.379 A  
HETATM    6  C   UNL     1     -11.573  13.285  67.323  1.00  0.00    -0.404 A  
HETATM    7  C   UNL     1     -11.272  11.930  67.147  1.00  0.00    -0.377 A  
HETATM    8  C   UNL     1     -11.042  12.341  64.768  1.00  0.00    -0.356 A  
HETATM    9  C   UNL     1     -11.033  11.461  65.855  1.00  0.00    -0.268 A  
BRANCH   7  10
HETATM   10  C   UNL     1     -11.092  11.082  68.330  1.00  0.00    -0.308 C  
HETATM   11  C   UNL     1     -11.957  10.967  69.352  1.00  0.00    -0.408 C  
BRANCH  11  12
HETATM   12  C   UNL     1     -11.754  10.022  70.462  1.00  0.00    -0.400 A  
HETATM   13  C   UNL     1     -12.827   9.533  71.211  1.00  0.00    -0.414 A  
HETATM   14  C   UNL     1     -12.613   8.678  72.291  1.00  0.00    -0.457 A  
HETATM   15  C   UNL     1     -11.324   8.274  72.639  1.00  0.00    -0.350 A  
HETATM   16  C   UNL     1     -10.462   9.583  70.782  1.00  0.00    -0.384 A  
HETATM   17  C   UNL     1     -10.249   8.721  71.867  1.00  0.00    -0.415 A  
BRANCH  15  18
HETATM   18  O   UNL     1     -11.014   7.459  73.700  1.00  0.00    -0.306 OA 
BRANCH  18  19
HETATM   19  C   UNL     1     -10.113   6.396  73.385  1.00  0.00    -0.210 C  
BRANCH  19  20
HETATM   20  C   UNL     1     -10.850   5.171  72.873  1.00  0.00    -0.268 C  
BRANCH  20  21
HETATM   21  O   UNL     1     -10.849   5.247  71.445  1.00  0.00    -0.189 OA 
BRANCH  21  22
HETATM   22  C   UNL     1      -9.544   5.078  70.900  1.00  0.00    -0.179 C  
BRANCH  22  23
HETATM   23  C   UNL     1      -9.587   4.005  69.817  1.00  0.00    -0.210 C  
BRANCH  23  24
HETATM   24  O   UNL     1      -9.457   2.724  70.430  1.00  0.00    -0.145 OA 
BRANCH  24  25
HETATM   25  C   UNL     1     -10.059   2.693  71.724  1.00  0.00    -0.043 C  
HETATM   26  C   UNL     1      -9.379   1.629  72.565  1.00  0.00    -0.075 C  
HETATM   27  F   UNL     1      -9.949   1.596  73.798  1.00  0.00    -0.086 F  
ENDBRANCH  24  25
ENDBRANCH  23  24
ENDBRANCH  22  23
ENDBRANCH  21  22
ENDBRANCH  20  21
ENDBRANCH  19  20
ENDBRANCH  18  19
ENDBRANCH  15  18
ENDBRANCH  11  12
ENDBRANCH   7  10
ENDBRANCH   2   4
TORSDOF 11
ENDMDL
MODEL      187
REMARK 921   NORMALIZED FREE ENERGY PREDICTED BY IDOCK:   -3.48 KCAL/MOL
REMARK 922        TOTAL FREE ENERGY PREDICTED BY IDOCK:   -6.78 KCAL/MOL
REMARK 923 INTER-LIGAND FREE ENERGY PREDICTED BY IDOCK:   -5.36 KCAL/MOL
REMARK 924 INTRA-LIGAND FREE ENERGY PREDICTED BY IDOCK:   -1.43 KCAL/MOL
REMARK 927      BINDING AFFINITY PREDICTED BY RF-SCORE:    0.00 PKD
ROOT
HETATM    1  C   UNL     1      -5.243   4.365  63.326  1.00  0.00    -0.009 C  
HETATM    2  N   UNL     1      -5.822   4.710  64.616  1.00  0.00    -0.017 NA 
HETATM    3  H   UNL     1      -5.634   4.156  65.452  1.00  0.00     0.000 HD 
ENDROOT
BRANCH   2   4
HETATM    4  C   UNL     1      -6.652   5.842  64.653  1.00  0.00    -0.042 A  
HETATM    5  C   UNL     1      -6.986   6.478  63.452  1.00  0.00    -0.051 A  
HETATM    6  C   UNL     1      -7.777   7.632  63.444  1.00  0.00    -0.130 A  
HETATM    7  C   UNL     1      -8.294   8.148  64.637  1.00  0.00    -0.089 A  
HETATM    8  C   UNL     1      -7.251   6.310  65.827  1.00  0.00    -0.074 A  
HETATM    9  C   UNL     1      -8.045   7.462  65.825  1.00  0.00    -0.129 A  
BRANCH   7  10
HETATM   10  C   UNL     1      -8.964   9.453  64.615  1.00  0.00    -0.233 C  
HETATM   11  C   UNL     1      -9.882   9.878  65.500  1.00  0.00    -0.381 C  
BRANCH  11  12
HETATM   12  C   UNL     1     -10.442  11.238  65.471  1.00  0.00    -0.323 A  
HETATM   13  C   UNL     1     -11.356  11.673  66.434  1.00  0.00    -0.312 A  
HETATM   14  C   UNL     1     -11.916  12.947  66.365  1.00  0.00    -0.462 A  
HETATM   15  C   UNL     1     -11.562  13.828  65.342  1.00  0.00    -0.320 A  
HETATM   16  C   UNL     1     -10.053  12.137  64.468  1.00  0.00    -0.286 A  
HETATM   17  C   UNL     1     -10.615  13.420  64.401  1.00  0.00    -0.423 A  
BRANCH  15  18
HETATM   18  O   UNL     1     -12.080  15.090  65.176  1.00  0.00    -0.215 OA 
BRANCH  18  19
HETATM   19  C   UNL     1     -11.190  16.015  64.550  1.00  0.00    -0.297 C  
BRANCH  19  20
HETATM   20  C   UNL     1     -10.578  16.973  65.557  1.00  0.00    -0.173 C  
BRANCH  20  21
HETATM   21  O   UNL     1      -9.175  16.705  65.592  1.00  0.00    -0.491 OA 
BRANCH  21  22
HETATM   22  C   UNL     1      -8.673  16.645  66.924  1.00  0.00    -0.214 C  
BRANCH  22  23
HETATM   23  C   UNL     1      -9.008  15.285  67.527  1.00  0.00    -0.185 C  
BRANCH  23  24
HETATM   24  O   UNL     1      -8.358  14.269  66.766  1.00  0.00    -0.122 OA 
BRANCH  24  25
HETATM   25  C   UNL     1      -8.120  13.096  67.543  1.00  0.00    -0.181 C  
HETATM   26  C   UNL     1      -6.963  13.351  68.490  1.00  0.00    -0.102 C  
HETATM   27  F   UNL     1      -6.733  12.236  69.232  1.00  0.00    -0.094 F  
ENDBRANCH  24  25
ENDBRANCH  23  24
ENDBRANCH  22  23
ENDBRANCH  21  22
ENDBRANCH  20  21
ENDBRANCH  19  20
ENDBRANCH  18  19
ENDBRANCH  15  18
ENDBRANCH  11  12
ENDBRANCH   7  10
ENDBRANCH   2   4
TORSDOF 11
ENDMDL
MODEL      188
REMARK 921   NORMALIZED FREE ENERGY PREDICTED BY IDOCK:   -3.46 KCAL/MOL
REMARK 922        TOTAL FREE ENERGY PREDICTED BY IDOCK:   -6.76 KCAL/MOL
REMARK 923 INTER-LIGAND FREE ENERGY PREDICTED BY IDOCK:   -5.96 KCAL/MOL
REMARK 924 INTRA-LIGAND FREE ENERGY PREDICTED BY IDOCK:   -0.79 KCAL/MOL
REMARK 927      BINDING AFFINITY PREDICTED BY RF-SCORE:    0.00 PKD
ROOT
HETATM    1  C   UNL     1      -9.132   1.725  67.409  1.00  0.00    -0.128 C  
HETATM    2  N   UNL     1      -8.670   2.488  66.258  1.00  0.00    -0.121 NA 
HETATM    3  H   UNL     1      -8.204   2.040  65.470  1.00  0.00     0.000 HD 
ENDROOT
BRANCH   2   4
HETATM    4  C   UNL     1      -8.898   3.873  66.289  1.00  0.00    -0.124 A  
HETATM    5  C   UNL     1      -8.166   4.701  65.429  1.00  0.00    -0.116 A  
HETATM    6  C   UNL     1      -8.331   6.090  65.454  1.00  0.00    -0.150 A  
HETATM    7  C   UNL     1      -9.271   6.680  66.305  1.00  0.00    -0.158 A  
HETATM    8  C   UNL     1      -9.901   4.465  67.065  1.00  0.00    -0.227 A  
HETATM    9  C   UNL     1     -10.072   5.853  67.092  1.00  0.00    -0.213 A  
BRANCH   7  10
HETATM   10  C   UNL     1      -9.292   8.141  66.437  1.00  0.00    -0.269 C  
HETATM   11  C   UNL     1     -10.278   8.952  66.020  1.00  0.00     0.055 C  
BRANCH  11  12
HETATM   12  C   UNL     1     -10.275  10.402  66.273  1.00  0.00    -0.286 A  
HETATM   13  C   UNL     1      -9.367  11.253  65.639  1.00  0.00    -0.245 A  
HETATM   14  C   UNL     1      -9.343  12.616  65.927  1.00  0.00    -0.014 A  
HETATM   15  C   UNL     1     -10.241  13.169  66.841  1.00  0.00    -0.245 A  
HETATM   16  C   UNL     1     -11.206  10.962  67.159  1.00  0.00    -0.258 A  
HETATM   17  C   UNL     1     -11.183  12.334  67.446  1.00  0.00    -0.358 A  
BRANCH  15  18
HETATM   18  O   UNL     1     -10.275  14.492  67.209  1.00  0.00    -0.252 OA 
BRANCH  18  19
HETATM   19  C   UNL     1     -11.136  15.304  66.410  1.00  0.00    -0.273 C  
BRANCH  19  20
HETATM   20  C   UNL     1     -10.358  16.087  65.367  1.00  0.00    -0.359 C  
BRANCH  20  21
HETATM   21  O   UNL     1      -9.595  17.074  66.065  1.00  0.00    -0.428 OA 
BRANCH  21  22
HETATM   22  C   UNL     1     -10.412  18.128  66.565  1.00  0.00    -0.341 C  
BRANCH  22  23
HETATM   23  C   UNL     1      -9.950  18.497  67.972  1.00  0.00    -0.355 C  
BRANCH  23  24
HETATM   24  O   UNL     1      -9.068  19.616  67.890  1.00  0.00    -0.314 OA 
BRANCH  24  25
HETATM   25  C   UNL     1      -8.031  19.543  68.866  1.00  0.00    -0.294 C  
HETATM   26  C   UNL     1      -7.066  18.435  68.488  1.00  0.00    -0.273 C  
HETATM   27  F   UNL     1      -6.076  18.362  69.416  1.00  0.00    -0.219 F  
ENDBRANCH  24  25
ENDBRANCH  23  24
ENDBRANCH  22  23
ENDBRANCH  21  22
ENDBRANCH  20  21
ENDBRANCH  19  20
ENDBRANCH  18  19
ENDBRANCH  15  18
ENDBRANCH  11  12
ENDBRANCH   7  10
ENDBRANCH   2   4
TORSDOF 11
ENDMDL
MODEL      189
REMARK 921   NORMALIZED FREE ENERGY PREDICTED BY IDOCK:   -3.46 KCAL/MOL
REMARK 922        TOTAL FREE ENERGY PREDICTED BY IDOCK:   -6.76 KCAL/MOL
REMARK 923 INTER-LIGAND FREE ENERGY PREDICTED BY IDOCK:   -5.86 KCAL/MOL
REMARK 924 INTRA-LIGAND FREE ENERGY PREDICTED BY IDOCK:   -0.90 KCAL/MOL
REMARK 927      BINDING AFFINITY PREDICTED BY RF-SCORE:    0.00 PKD
ROOT
HETATM    1  C   UNL     1     -11.506   5.147  73.091  1.00  0.00    -0.272 C  
HETATM    2  N   UNL     1     -10.270   4.937  72.350  1.00  0.00    -0.193 NA 
HETATM    3  H   UNL     1      -9.868   4.007  72.231  1.00  0.00     0.000 HD 
ENDROOT
BRANCH   2   4
HETATM    4  C   UNL     1      -9.660   6.079  71.806  1.00  0.00    -0.151 A  
HETATM    5  C   UNL     1      -9.406   7.174  72.640  1.00  0.00    -0.165 A  
HETATM    6  C   UNL     1      -8.836   8.348  72.133  1.00  0.00    -0.285 A  
HETATM    7  C   UNL     1      -8.461   8.433  70.789  1.00  0.00    -0.151 A  
HETATM    8  C   UNL     1      -9.194   6.141  70.489  1.00  0.00    -0.166 A  
HETATM    9  C   UNL     1      -8.621   7.310  69.977  1.00  0.00    -0.140 A  
BRANCH   7  10
HETATM   10  C   UNL     1      -8.037   9.730  70.250  1.00  0.00    -0.181 C  
HETATM   11  C   UNL     1      -8.153  10.124  68.971  1.00  0.00    -0.125 C  
BRANCH  11  12
HETATM   12  C   UNL     1      -7.793  11.478  68.520  1.00  0.00    -0.140 A  
HETATM   13  C   UNL     1      -6.493  11.970  68.650  1.00  0.00    -0.063 A  
HETATM   14  C   UNL     1      -6.179  13.272  68.265  1.00  0.00    -0.099 A  
HETATM   15  C   UNL     1      -7.153  14.111  67.721  1.00  0.00    -0.174 A  
HETATM   16  C   UNL     1      -8.763  12.303  67.934  1.00  0.00    -0.177 A  
HETATM   17  C   UNL     1      -8.446  13.612  67.544  1.00  0.00    -0.190 A  
BRANCH  15  18
HETATM   18  O   UNL     1      -6.946  15.414  67.340  1.00  0.00    -0.182 OA 
BRANCH  18  19
HETATM   19  C   UNL     1      -7.743  16.368  68.042  1.00  0.00    -0.153 C  
BRANCH  19  20
HETATM   20  C   UNL     1      -7.524  17.776  67.517  1.00  0.00    -0.203 C  
BRANCH  20  21
HETATM   21  O   UNL     1      -8.751  18.487  67.696  1.00  0.00    -0.264 OA 
BRANCH  21  22
HETATM   22  C   UNL     1      -9.400  18.758  66.457  1.00  0.00    -0.336 C  
BRANCH  22  23
HETATM   23  C   UNL     1     -10.655  17.897  66.349  1.00  0.00    -0.235 C  
BRANCH  23  24
HETATM   24  O   UNL     1     -10.584  17.126  65.150  1.00  0.00    -0.695 OA 
BRANCH  24  25
HETATM   25  C   UNL     1     -10.626  15.725  65.419  1.00  0.00    -0.421 C  
HETATM   26  C   UNL     1     -11.688  15.082  64.546  1.00  0.00    -0.368 C  
HETATM   27  F   UNL     1     -11.732  13.747  64.798  1.00  0.00    -0.332 F  
ENDBRANCH  24  25
ENDBRANCH  23  24
ENDBRANCH  22  23
ENDBRANCH  21  22
ENDBRANCH  20  21
ENDBRANCH  19  20
ENDBRANCH  18  19
ENDBRANCH  15  18
ENDBRANCH  11  12
ENDBRANCH   7  10
ENDBRANCH   2   4
TORSDOF 11
ENDMDL
MODEL      190
REMARK 921   NORMALIZED FREE ENERGY PREDICTED BY IDOCK:   -3.46 KCAL/MOL
REMARK 922        TOTAL FREE ENERGY PREDICTED BY IDOCK:   -6.76 KCAL/MOL
REMARK 923 INTER-LIGAND FREE ENERGY PREDICTED BY IDOCK:   -5.55 KCAL/MOL
REMARK 924 INTRA-LIGAND FREE ENERGY PREDICTED BY IDOCK:   -1.21 KCAL/MOL
REMARK 927      BINDING AFFINITY PREDICTED BY RF-SCORE:    0.00 PKD
ROOT
HETATM    1  C   UNL     1     -13.532  11.605  63.551  1.00  0.00     0.935 C  
HETATM    2  N   UNL     1     -12.116  11.829  63.294  1.00  0.00    -0.893 NA 
HETATM    3  H   UNL     1     -11.579  11.214  62.683  1.00  0.00     0.000 HD 
ENDROOT
BRANCH   2   4
HETATM    4  C   UNL     1     -11.527  12.934  63.930  1.00  0.00    -0.446 A  
HETATM    5  C   UNL     1     -10.256  12.792  64.498  1.00  0.00    -0.333 A  
HETATM    6  C   UNL     1      -9.648  13.854  65.177  1.00  0.00     0.207 A  
HETATM    7  C   UNL     1     -10.278  15.099  65.260  1.00  0.00    -0.400 A  
HETATM    8  C   UNL     1     -12.105  14.208  63.937  1.00  0.00    -0.301 A  
HETATM    9  C   UNL     1     -11.501  15.274  64.611  1.00  0.00    -0.356 A  
BRANCH   7  10
HETATM   10  C   UNL     1      -9.701  16.132  66.128  1.00  0.00    -0.352 C  
HETATM   11  C   UNL     1      -8.418  16.530  66.126  1.00  0.00    -0.320 C  
BRANCH  11  12
HETATM   12  C   UNL     1      -7.931  17.641  66.960  1.00  0.00    -0.242 A  
HETATM   13  C   UNL     1      -6.741  18.310  66.663  1.00  0.00    -0.227 A  
HETATM   14  C   UNL     1      -6.267  19.326  67.491  1.00  0.00    -0.205 A  
HETATM   15  C   UNL     1      -6.980  19.715  68.626  1.00  0.00    -0.326 A  
HETATM   16  C   UNL     1      -8.670  18.059  68.074  1.00  0.00    -0.264 A  
HETATM   17  C   UNL     1      -8.194  19.084  68.905  1.00  0.00    -0.303 A  
BRANCH  15  18
HETATM   18  O   UNL     1      -6.580  20.683  69.513  1.00  0.00    -0.107 OA 
BRANCH  18  19
HETATM   19  C   UNL     1      -6.249  20.192  70.813  1.00  0.00    -0.249 C  
BRANCH  19  20
HETATM   20  C   UNL     1      -5.130  19.167  70.757  1.00  0.00    -0.228 C  
BRANCH  20  21
HETATM   21  O   UNL     1      -5.281  18.318  71.897  1.00  0.00    -0.613 OA 
BRANCH  21  22
HETATM   22  C   UNL     1      -5.218  16.938  71.550  1.00  0.00     0.176 C  
BRANCH  22  23
HETATM   23  C   UNL     1      -5.253  16.799  70.032  1.00  0.00    -0.183 C  
BRANCH  23  24
HETATM   24  O   UNL     1      -6.371  15.991  69.667  1.00  0.00    -0.171 OA 
BRANCH  24  25
HETATM   25  C   UNL     1      -5.988  14.639  69.418  1.00  0.00    -0.101 C  
HETATM   26  C   UNL     1      -5.993  14.388  67.921  1.00  0.00    -0.138 C  
HETATM   27  F   UNL     1      -5.630  13.101  67.678  1.00  0.00    -0.106 F  
ENDBRANCH  24  25
ENDBRANCH  23  24
ENDBRANCH  22  23
ENDBRANCH  21  22
ENDBRANCH  20  21
ENDBRANCH  19  20
ENDBRANCH  18  19
ENDBRANCH  15  18
ENDBRANCH  11  12
ENDBRANCH   7  10
ENDBRANCH   2   4
TORSDOF 11
ENDMDL
MODEL      191
REMARK 921   NORMALIZED FREE ENERGY PREDICTED BY IDOCK:   -3.46 KCAL/MOL
REMARK 922        TOTAL FREE ENERGY PREDICTED BY IDOCK:   -6.75 KCAL/MOL
REMARK 923 INTER-LIGAND FREE ENERGY PREDICTED BY IDOCK:   -6.13 KCAL/MOL
REMARK 924 INTRA-LIGAND FREE ENERGY PREDICTED BY IDOCK:   -0.62 KCAL/MOL
REMARK 927      BINDING AFFINITY PREDICTED BY RF-SCORE:    0.00 PKD
ROOT
HETATM    1  C   UNL     1      -8.293   2.583  65.081  1.00  0.00    -0.094 C  
HETATM    2  N   UNL     1      -9.540   3.108  65.619  1.00  0.00    -0.362 NA 
HETATM    3  H   UNL     1     -10.359   2.513  65.748  1.00  0.00     0.000 HD 
ENDROOT
BRANCH   2   4
HETATM    4  C   UNL     1      -9.560   4.471  65.951  1.00  0.00    -0.189 A  
HETATM    5  C   UNL     1     -10.617   4.967  66.724  1.00  0.00    -0.220 A  
HETATM    6  C   UNL     1     -10.699   6.327  67.044  1.00  0.00    -0.435 A  
HETATM    7  C   UNL     1      -9.696   7.214  66.641  1.00  0.00    -0.233 A  
HETATM    8  C   UNL     1      -8.517   5.349  65.635  1.00  0.00    -0.138 A  
HETATM    9  C   UNL     1      -8.591   6.708  65.955  1.00  0.00    -0.152 A  
BRANCH   7  10
HETATM   10  C   UNL     1      -9.900   8.654  66.835  1.00  0.00    -0.305 C  
HETATM   11  C   UNL     1      -9.393   9.390  67.838  1.00  0.00    -0.142 C  
BRANCH  11  12
HETATM   12  C   UNL     1      -9.561  10.850  67.915  1.00  0.00    -0.175 A  
HETATM   13  C   UNL     1     -10.768  11.466  67.577  1.00  0.00    -0.266 A  
HETATM   14  C   UNL     1     -10.896  12.853  67.608  1.00  0.00    -0.252 A  
HETATM   15  C   UNL     1      -9.827  13.661  67.997  1.00  0.00    -0.244 A  
HETATM   16  C   UNL     1      -8.500  11.657  68.348  1.00  0.00    -0.157 A  
HETATM   17  C   UNL     1      -8.631  13.052  68.381  1.00  0.00    -0.116 A  
BRANCH  15  18
HETATM   18  O   UNL     1      -9.850  15.034  68.031  1.00  0.00    -0.214 OA 
BRANCH  18  19
HETATM   19  C   UNL     1      -9.568  15.661  66.779  1.00  0.00    -0.240 C  
BRANCH  19  20
HETATM   20  C   UNL     1      -8.170  16.253  66.751  1.00  0.00    -0.259 C  
BRANCH  20  21
HETATM   21  O   UNL     1      -8.220  17.409  65.911  1.00  0.00    -0.537 OA 
BRANCH  21  22
HETATM   22  C   UNL     1      -9.317  18.259  66.233  1.00  0.00    -0.213 C  
BRANCH  22  23
HETATM   23  C   UNL     1      -8.901  19.713  66.035  1.00  0.00    -0.246 C  
BRANCH  23  24
HETATM   24  O   UNL     1      -9.833  20.556  66.710  1.00  0.00    -0.433 OA 
BRANCH  24  25
HETATM   25  C   UNL     1     -10.452  19.889  67.808  1.00  0.00    -0.371 C  
HETATM   26  C   UNL     1      -9.676  20.191  69.077  1.00  0.00     0.024 C  
HETATM   27  F   UNL     1     -10.262  19.557  70.126  1.00  0.00    -0.157 F  
ENDBRANCH  24  25
ENDBRANCH  23  24
ENDBRANCH  22  23
ENDBRANCH  21  22
ENDBRANCH  20  21
ENDBRANCH  19  20
ENDBRANCH  18  19
ENDBRANCH  15  18
ENDBRANCH  11  12
ENDBRANCH   7  10
ENDBRANCH   2   4
TORSDOF 11
ENDMDL
MODEL      192
REMARK 921   NORMALIZED FREE ENERGY PREDICTED BY IDOCK:   -3.43 KCAL/MOL
REMARK 922        TOTAL FREE ENERGY PREDICTED BY IDOCK:   -6.71 KCAL/MOL
REMARK 923 INTER-LIGAND FREE ENERGY PREDICTED BY IDOCK:   -5.90 KCAL/MOL
REMARK 924 INTRA-LIGAND FREE ENERGY PREDICTED BY IDOCK:   -0.81 KCAL/MOL
REMARK 927      BINDING AFFINITY PREDICTED BY RF-SCORE:    0.00 PKD
ROOT
HETATM    1  C   UNL     1     -10.259  19.817  68.430  1.00  0.00    -0.449 C  
HETATM    2  N   UNL     1      -9.073  19.015  68.167  1.00  0.00    -0.309 NA 
HETATM    3  H   UNL     1      -8.157  19.443  68.030  1.00  0.00     0.000 HD 
ENDROOT
BRANCH   2   4
HETATM    4  C   UNL     1      -9.252  17.624  68.111  1.00  0.00    -0.282 A  
HETATM    5  C   UNL     1     -10.492  17.115  67.706  1.00  0.00    -0.362 A  
HETATM    6  C   UNL     1     -10.729  15.736  67.674  1.00  0.00    -0.310 A  
HETATM    7  C   UNL     1      -9.713  14.832  68.000  1.00  0.00    -0.213 A  
HETATM    8  C   UNL     1      -8.218  16.711  68.342  1.00  0.00    -0.206 A  
HETATM    9  C   UNL     1      -8.447  15.332  68.309  1.00  0.00    -0.154 A  
BRANCH   7  10
HETATM   10  C   UNL     1     -10.042  13.409  68.132  1.00  0.00    -0.244 C  
HETATM   11  C   UNL     1      -9.179  12.388  67.999  1.00  0.00    -0.203 C  
BRANCH  11  12
HETATM   12  C   UNL     1      -9.561  10.987  68.240  1.00  0.00    -0.172 A  
HETATM   13  C   UNL     1     -10.372  10.286  67.345  1.00  0.00    -0.282 A  
HETATM   14  C   UNL     1     -10.767   8.977  67.612  1.00  0.00    -0.232 A  
HETATM   15  C   UNL     1     -10.345   8.326  68.772  1.00  0.00    -0.205 A  
HETATM   16  C   UNL     1      -9.101  10.322  69.384  1.00  0.00    -0.203 A  
HETATM   17  C   UNL     1      -9.496   9.003  69.651  1.00  0.00    -0.174 A  
BRANCH  15  18
HETATM   18  O   UNL     1     -10.703   7.051  69.134  1.00  0.00    -0.219 OA 
BRANCH  18  19
HETATM   19  C   UNL     1     -11.355   6.958  70.401  1.00  0.00    -0.328 C  
BRANCH  19  20
HETATM   20  C   UNL     1     -10.671   5.953  71.311  1.00  0.00    -0.264 C  
BRANCH  20  21
HETATM   21  O   UNL     1     -10.161   4.910  70.476  1.00  0.00    -0.229 OA 
BRANCH  21  22
HETATM   22  C   UNL     1      -9.481   3.907  71.224  1.00  0.00    -0.159 C  
BRANCH  22  23
HETATM   23  C   UNL     1      -9.346   2.649  70.373  1.00  0.00    -0.142 C  
BRANCH  23  24
HETATM   24  O   UNL     1      -8.509   2.936  69.254  1.00  0.00    -0.058 OA 
BRANCH  24  25
HETATM   25  C   UNL     1      -9.060   2.435  68.038  1.00  0.00    -0.180 C  
HETATM   26  C   UNL     1      -9.225   3.580  67.055  1.00  0.00    -0.190 C  
HETATM   27  F   UNL     1      -9.750   3.107  65.895  1.00  0.00    -0.133 F  
ENDBRANCH  24  25
ENDBRANCH  23  24
ENDBRANCH  22  23
ENDBRANCH  21  22
ENDBRANCH  20  21
ENDBRANCH  19  20
ENDBRANCH  18  19
ENDBRANCH  15  18
ENDBRANCH  11  12
ENDBRANCH   7  10
ENDBRANCH   2   4
TORSDOF 11
ENDMDL
MODEL      193
REMARK 921   NORMALIZED FREE ENERGY PREDICTED BY IDOCK:   -3.43 KCAL/MOL
REMARK 922        TOTAL FREE ENERGY PREDICTED BY IDOCK:   -6.71 KCAL/MOL
REMARK 923 INTER-LIGAND FREE ENERGY PREDICTED BY IDOCK:   -5.93 KCAL/MOL
REMARK 924 INTRA-LIGAND FREE ENERGY PREDICTED BY IDOCK:   -0.78 KCAL/MOL
REMARK 927      BINDING AFFINITY PREDICTED BY RF-SCORE:    0.00 PKD
ROOT
HETATM    1  C   UNL     1      -7.897   1.944  64.273  1.00  0.00    -0.065 C  
HETATM    2  N   UNL     1      -9.032   2.833  64.068  1.00  0.00    -0.101 NA 
HETATM    3  H   UNL     1      -9.853   2.540  63.539  1.00  0.00     0.000 HD 
ENDROOT
BRANCH   2   4
HETATM    4  C   UNL     1      -8.939   4.115  64.635  1.00  0.00    -0.141 A  
HETATM    5  C   UNL     1      -9.808   4.462  65.676  1.00  0.00    -0.229 A  
HETATM    6  C   UNL     1      -9.779   5.741  66.242  1.00  0.00    -0.148 A  
HETATM    7  C   UNL     1      -8.844   6.688  65.813  1.00  0.00    -0.093 A  
HETATM    8  C   UNL     1      -7.947   5.036  64.280  1.00  0.00    -0.104 A  
HETATM    9  C   UNL     1      -7.911   6.315  64.845  1.00  0.00    -0.124 A  
BRANCH   7  10
HETATM   10  C   UNL     1      -8.956   8.068  66.296  1.00  0.00    -0.208 C  
HETATM   11  C   UNL     1      -9.733   9.025  65.761  1.00  0.00    -0.254 C  
BRANCH  11  12
HETATM   12  C   UNL     1      -9.869  10.364  66.358  1.00  0.00    -0.266 A  
HETATM   13  C   UNL     1      -9.462  10.625  67.668  1.00  0.00    -0.167 A  
HETATM   14  C   UNL     1      -9.643  11.885  68.235  1.00  0.00    -0.201 A  
HETATM   15  C   UNL     1     -10.218  12.923  67.501  1.00  0.00    -0.213 A  
HETATM   16  C   UNL     1     -10.407  11.416  65.604  1.00  0.00    -0.307 A  
HETATM   17  C   UNL     1     -10.586  12.684  66.175  1.00  0.00    -0.280 A  
BRANCH  15  18
HETATM   18  O   UNL     1     -10.462  14.186  67.982  1.00  0.00    -0.233 OA 
BRANCH  18  19
HETATM   19  C   UNL     1     -11.725  14.337  68.632  1.00  0.00    -0.345 C  
BRANCH  19  20
HETATM   20  C   UNL     1     -11.566  14.839  70.056  1.00  0.00    -0.286 C  
BRANCH  20  21
HETATM   21  O   UNL     1     -12.200  13.885  70.911  1.00  0.00    -0.342 OA 
BRANCH  21  22
HETATM   22  C   UNL     1     -12.372  12.623  70.273  1.00  0.00    -0.195 C  
BRANCH  22  23
HETATM   23  C   UNL     1     -12.651  11.560  71.330  1.00  0.00    -0.347 C  
BRANCH  23  24
HETATM   24  O   UNL     1     -11.813  10.432  71.083  1.00  0.00    -0.356 OA 
BRANCH  24  25
HETATM   25  C   UNL     1     -12.075   9.368  71.996  1.00  0.00    -0.309 C  
HETATM   26  C   UNL     1     -11.958   8.043  71.265  1.00  0.00    -0.296 C  
HETATM   27  F   UNL     1     -12.207   7.026  72.131  1.00  0.00    -0.317 F  
ENDBRANCH  24  25
ENDBRANCH  23  24
ENDBRANCH  22  23
ENDBRANCH  21  22
ENDBRANCH  20  21
ENDBRANCH  19  20
ENDBRANCH  18  19
ENDBRANCH  15  18
ENDBRANCH  11  12
ENDBRANCH   7  10
ENDBRANCH   2   4
TORSDOF 11
ENDMDL
MODEL      194
REMARK 921   NORMALIZED FREE ENERGY PREDICTED BY IDOCK:   -3.42 KCAL/MOL
REMARK 922        TOTAL FREE ENERGY PREDICTED BY IDOCK:   -6.69 KCAL/MOL
REMARK 923 INTER-LIGAND FREE ENERGY PREDICTED BY IDOCK:   -5.91 KCAL/MOL
REMARK 924 INTRA-LIGAND FREE ENERGY PREDICTED BY IDOCK:   -0.78 KCAL/MOL
REMARK 927      BINDING AFFINITY PREDICTED BY RF-SCORE:    0.00 PKD
ROOT
HETATM    1  C   UNL     1     -10.205  20.171  66.163  1.00  0.00    -0.402 C  
HETATM    2  N   UNL     1     -10.918  19.365  67.144  1.00  0.00    -0.449 NA 
HETATM    3  H   UNL     1     -11.559  19.785  67.817  1.00  0.00     0.000 HD 
ENDROOT
BRANCH   2   4
HETATM    4  C   UNL     1     -10.678  17.982  67.117  1.00  0.00    -0.262 A  
HETATM    5  C   UNL     1     -10.318  17.379  65.906  1.00  0.00    -0.276 A  
HETATM    6  C   UNL     1     -10.110  15.997  65.825  1.00  0.00    -0.393 A  
HETATM    7  C   UNL     1     -10.208  15.194  66.965  1.00  0.00    -0.262 A  
HETATM    8  C   UNL     1     -10.681  17.185  68.267  1.00  0.00    -0.363 A  
HETATM    9  C   UNL     1     -10.470  15.805  68.192  1.00  0.00    -0.263 A  
BRANCH   7  10
HETATM   10  C   UNL     1     -10.163  13.736  66.814  1.00  0.00    -0.268 C  
HETATM   11  C   UNL     1     -10.239  12.841  67.813  1.00  0.00    -0.223 C  
BRANCH  11  12
HETATM   12  C   UNL     1     -10.284  11.389  67.578  1.00  0.00    -0.210 A  
HETATM   13  C   UNL     1     -10.050  10.846  66.312  1.00  0.00    -0.284 A  
HETATM   14  C   UNL     1     -10.146   9.473  66.095  1.00  0.00    -0.326 A  
HETATM   15  C   UNL     1     -10.458   8.604  67.141  1.00  0.00    -0.289 A  
HETATM   16  C   UNL     1     -10.555  10.514  68.639  1.00  0.00    -0.226 A  
HETATM   17  C   UNL     1     -10.648   9.132  68.420  1.00  0.00    -0.217 A  
BRANCH  15  18
HETATM   18  O   UNL     1     -10.601   7.243  67.018  1.00  0.00    -0.306 OA 
BRANCH  18  19
HETATM   19  C   UNL     1     -10.017   6.489  68.081  1.00  0.00    -0.139 C  
BRANCH  19  20
HETATM   20  C   UNL     1     -11.070   5.750  68.888  1.00  0.00    -0.066 C  
BRANCH  20  21
HETATM   21  O   UNL     1     -10.432   5.276  70.076  1.00  0.00    -0.293 OA 
BRANCH  21  22
HETATM   22  C   UNL     1      -9.255   4.526  69.791  1.00  0.00    -0.125 C  
BRANCH  22  23
HETATM   23  C   UNL     1      -8.249   4.722  70.921  1.00  0.00    -0.087 C  
BRANCH  23  24
HETATM   24  O   UNL     1      -6.979   5.049  70.358  1.00  0.00    -0.046 OA 
BRANCH  24  25
HETATM   25  C   UNL     1      -6.454   6.258  70.902  1.00  0.00    -0.048 C  
HETATM   26  C   UNL     1      -6.822   7.416  69.993  1.00  0.00    -0.055 C  
HETATM   27  F   UNL     1      -6.323   8.570  70.507  1.00  0.00    -0.034 F  
ENDBRANCH  24  25
ENDBRANCH  23  24
ENDBRANCH  22  23
ENDBRANCH  21  22
ENDBRANCH  20  21
ENDBRANCH  19  20
ENDBRANCH  18  19
ENDBRANCH  15  18
ENDBRANCH  11  12
ENDBRANCH   7  10
ENDBRANCH   2   4
TORSDOF 11
ENDMDL
MODEL      195
REMARK 921   NORMALIZED FREE ENERGY PREDICTED BY IDOCK:   -3.42 KCAL/MOL
REMARK 922        TOTAL FREE ENERGY PREDICTED BY IDOCK:   -6.68 KCAL/MOL
REMARK 923 INTER-LIGAND FREE ENERGY PREDICTED BY IDOCK:   -5.73 KCAL/MOL
REMARK 924 INTRA-LIGAND FREE ENERGY PREDICTED BY IDOCK:   -0.95 KCAL/MOL
REMARK 927      BINDING AFFINITY PREDICTED BY RF-SCORE:    0.00 PKD
ROOT
HETATM    1  C   UNL     1     -12.318  14.626  64.237  1.00  0.00    -0.349 C  
HETATM    2  N   UNL     1     -11.647  13.637  63.404  1.00  0.00    -0.535 NA 
HETATM    3  H   UNL     1     -11.553  13.762  62.396  1.00  0.00     0.000 HD 
ENDROOT
BRANCH   2   4
HETATM    4  C   UNL     1     -11.136  12.504  64.058  1.00  0.00    -0.397 A  
HETATM    5  C   UNL     1     -10.355  11.597  63.332  1.00  0.00    -0.482 A  
HETATM    6  C   UNL     1      -9.860  10.434  63.932  1.00  0.00    -0.332 A  
HETATM    7  C   UNL     1     -10.093  10.177  65.287  1.00  0.00    -0.344 A  
HETATM    8  C   UNL     1     -11.282  12.285  65.432  1.00  0.00    -0.372 A  
HETATM    9  C   UNL     1     -10.787  11.126  66.037  1.00  0.00    -0.230 A  
BRANCH   7  10
HETATM   10  C   UNL     1      -9.718   8.870  65.838  1.00  0.00    -0.259 C  
HETATM   11  C   UNL     1      -8.613   8.174  65.522  1.00  0.00    -0.173 C  
BRANCH  11  12
HETATM   12  C   UNL     1      -8.252   6.911  66.187  1.00  0.00    -0.121 A  
HETATM   13  C   UNL     1      -9.068   5.781  66.101  1.00  0.00    -0.161 A  
HETATM   14  C   UNL     1      -8.738   4.608  66.778  1.00  0.00    -0.111 A  
HETATM   15  C   UNL     1      -7.573   4.528  67.542  1.00  0.00    -0.078 A  
HETATM   16  C   UNL     1      -7.060   6.819  66.918  1.00  0.00    -0.075 A  
HETATM   17  C   UNL     1      -6.728   5.638  67.596  1.00  0.00    -0.059 A  
BRANCH  15  18
HETATM   18  O   UNL     1      -7.180   3.428  68.265  1.00  0.00    -0.050 OA 
BRANCH  18  19
HETATM   19  C   UNL     1      -8.200   2.873  69.097  1.00  0.00    -0.058 C  
BRANCH  19  20
HETATM   20  C   UNL     1      -8.006   3.257  70.553  1.00  0.00    -0.042 C  
BRANCH  20  21
HETATM   21  O   UNL     1      -9.230   3.846  70.999  1.00  0.00    -0.109 OA 
BRANCH  21  22
HETATM   22  C   UNL     1      -9.472   5.109  70.387  1.00  0.00    -0.169 C  
BRANCH  22  23
HETATM   23  C   UNL     1      -9.206   6.217  71.401  1.00  0.00    -0.149 C  
BRANCH  23  24
HETATM   24  O   UNL     1      -9.992   7.357  71.057  1.00  0.00    -0.184 OA 
BRANCH  24  25
HETATM   25  C   UNL     1     -11.367   7.018  70.885  1.00  0.00    -0.295 C  
HETATM   26  C   UNL     1     -12.110   7.276  72.183  1.00  0.00    -0.250 C  
HETATM   27  F   UNL     1     -13.421   6.954  72.024  1.00  0.00    -0.349 F  
ENDBRANCH  24  25
ENDBRANCH  23  24
ENDBRANCH  22  23
ENDBRANCH  21  22
ENDBRANCH  20  21
ENDBRANCH  19  20
ENDBRANCH  18  19
ENDBRANCH  15  18
ENDBRANCH  11  12
ENDBRANCH   7  10
ENDBRANCH   2   4
TORSDOF 11
ENDMDL
MODEL      196
REMARK 921   NORMALIZED FREE ENERGY PREDICTED BY IDOCK:   -3.41 KCAL/MOL
REMARK 922        TOTAL FREE ENERGY PREDICTED BY IDOCK:   -6.68 KCAL/MOL
REMARK 923 INTER-LIGAND FREE ENERGY PREDICTED BY IDOCK:   -5.82 KCAL/MOL
REMARK 924 INTRA-LIGAND FREE ENERGY PREDICTED BY IDOCK:   -0.86 KCAL/MOL
REMARK 927      BINDING AFFINITY PREDICTED BY RF-SCORE:    0.00 PKD
ROOT
HETATM    1  C   UNL     1      -9.895  20.600  67.204  1.00  0.00    -0.357 C  
HETATM    2  N   UNL     1      -8.859  19.578  67.156  1.00  0.00    -0.294 NA 
HETATM    3  H   UNL     1      -7.926  19.778  66.796  1.00  0.00     0.000 HD 
ENDROOT
BRANCH   2   4
HETATM    4  C   UNL     1      -9.209  18.303  67.630  1.00  0.00    -0.267 A  
HETATM    5  C   UNL     1      -8.242  17.535  68.289  1.00  0.00    -0.263 A  
HETATM    6  C   UNL     1      -8.534  16.244  68.742  1.00  0.00    -0.240 A  
HETATM    7  C   UNL     1      -9.817  15.710  68.589  1.00  0.00    -0.210 A  
HETATM    8  C   UNL     1     -10.511  17.797  67.568  1.00  0.00    -0.376 A  
HETATM    9  C   UNL     1     -10.810  16.508  68.022  1.00  0.00    -0.337 A  
BRANCH   7  10
HETATM   10  C   UNL     1     -10.041  14.296  68.908  1.00  0.00    -0.179 C  
HETATM   11  C   UNL     1     -10.758  13.430  68.172  1.00  0.00    -0.267 C  
BRANCH  11  12
HETATM   12  C   UNL     1     -10.861  12.000  68.505  1.00  0.00    -0.267 A  
HETATM   13  C   UNL     1     -11.451  11.566  69.694  1.00  0.00    -0.373 A  
HETATM   14  C   UNL     1     -11.496  10.211  70.017  1.00  0.00    -0.344 A  
HETATM   15  C   UNL     1     -10.969   9.252  69.152  1.00  0.00    -0.060 A  
HETATM   16  C   UNL     1     -10.370  11.035  67.614  1.00  0.00    -0.223 A  
HETATM   17  C   UNL     1     -10.418   9.672  67.939  1.00  0.00    -0.296 A  
BRANCH  15  18
HETATM   18  O   UNL     1     -10.942   7.901  69.397  1.00  0.00    -0.156 OA 
BRANCH  18  19
HETATM   19  C   UNL     1      -9.944   7.188  68.664  1.00  0.00    -0.159 C  
BRANCH  19  20
HETATM   20  C   UNL     1     -10.546   6.047  67.863  1.00  0.00    -0.267 C  
BRANCH  20  21
HETATM   21  O   UNL     1      -9.561   5.013  67.801  1.00  0.00    -0.133 OA 
BRANCH  21  22
HETATM   22  C   UNL     1      -9.645   4.123  68.910  1.00  0.00    -0.152 C  
BRANCH  22  23
HETATM   23  C   UNL     1      -8.238   3.781  69.388  1.00  0.00    -0.053 C  
BRANCH  23  24
HETATM   24  O   UNL     1      -8.187   3.912  70.808  1.00  0.00    -0.064 OA 
BRANCH  24  25
HETATM   25  C   UNL     1      -9.420   4.395  71.339  1.00  0.00    -0.155 C  
HETATM   26  C   UNL     1      -9.130   5.418  72.422  1.00  0.00    -0.137 C  
HETATM   27  F   UNL     1     -10.302   5.881  72.931  1.00  0.00    -0.188 F  
ENDBRANCH  24  25
ENDBRANCH  23  24
ENDBRANCH  22  23
ENDBRANCH  21  22
ENDBRANCH  20  21
ENDBRANCH  19  20
ENDBRANCH  18  19
ENDBRANCH  15  18
ENDBRANCH  11  12
ENDBRANCH   7  10
ENDBRANCH   2   4
TORSDOF 11
ENDMDL
MODEL      197
REMARK 921   NORMALIZED FREE ENERGY PREDICTED BY IDOCK:   -3.38 KCAL/MOL
REMARK 922        TOTAL FREE ENERGY PREDICTED BY IDOCK:   -6.63 KCAL/MOL
REMARK 923 INTER-LIGAND FREE ENERGY PREDICTED BY IDOCK:   -5.78 KCAL/MOL
REMARK 924 INTRA-LIGAND FREE ENERGY PREDICTED BY IDOCK:   -0.85 KCAL/MOL
REMARK 927      BINDING AFFINITY PREDICTED BY RF-SCORE:    0.00 PKD
ROOT
HETATM    1  C   UNL     1      -9.726  18.224  68.129  1.00  0.00    -0.327 C  
HETATM    2  N   UNL     1     -11.025  17.636  68.424  1.00  0.00    -0.210 NA 
HETATM    3  H   UNL     1     -11.862  18.210  68.524  1.00  0.00     0.000 HD 
ENDROOT
BRANCH   2   4
HETATM    4  C   UNL     1     -11.068  16.239  68.564  1.00  0.00    -0.368 A  
HETATM    5  C   UNL     1     -10.124  15.460  67.885  1.00  0.00    -0.226 A  
HETATM    6  C   UNL     1     -10.153  14.063  67.963  1.00  0.00    -0.239 A  
HETATM    7  C   UNL     1     -11.099  13.415  68.763  1.00  0.00    -0.297 A  
HETATM    8  C   UNL     1     -11.947  15.586  69.435  1.00  0.00    -0.358 A  
HETATM    9  C   UNL     1     -11.979  14.191  69.519  1.00  0.00    -0.389 A  
BRANCH   7  10
HETATM   10  C   UNL     1     -11.219  11.956  68.682  1.00  0.00    -0.311 C  
HETATM   11  C   UNL     1     -10.296  11.120  68.178  1.00  0.00    -0.207 C  
BRANCH  11  12
HETATM   12  C   UNL     1     -10.445   9.656  68.216  1.00  0.00    -0.259 A  
HETATM   13  C   UNL     1     -10.569   8.965  69.424  1.00  0.00    -0.226 A  
HETATM   14  C   UNL     1     -10.658   7.574  69.446  1.00  0.00    -0.225 A  
HETATM   15  C   UNL     1     -10.645   6.838  68.261  1.00  0.00    -0.230 A  
HETATM   16  C   UNL     1     -10.475   8.922  67.022  1.00  0.00    -0.326 A  
HETATM   17  C   UNL     1     -10.568   7.523  67.046  1.00  0.00    -0.409 A  
BRANCH  15  18
HETATM   18  O   UNL     1     -10.700   5.468  68.185  1.00  0.00    -0.182 OA 
BRANCH  18  19
HETATM   19  C   UNL     1      -9.946   4.906  67.110  1.00  0.00    -0.197 C  
BRANCH  19  20
HETATM   20  C   UNL     1      -8.854   3.980  67.616  1.00  0.00    -0.115 C  
BRANCH  20  21
HETATM   21  O   UNL     1      -9.288   2.642  67.363  1.00  0.00    -0.176 OA 
BRANCH  21  22
HETATM   22  C   UNL     1      -9.302   1.850  68.547  1.00  0.00    -0.187 C  
BRANCH  22  23
HETATM   23  C   UNL     1      -8.378   2.479  69.584  1.00  0.00    -0.045 C  
BRANCH  23  24
HETATM   24  O   UNL     1      -8.075   1.508  70.584  1.00  0.00    -0.038 OA 
BRANCH  24  25
HETATM   25  C   UNL     1      -8.624   1.864  71.851  1.00  0.00    -0.059 C  
HETATM   26  C   UNL     1      -8.406   3.347  72.091  1.00  0.00    -0.079 C  
HETATM   27  F   UNL     1      -8.927   3.691  73.297  1.00  0.00    -0.095 F  
ENDBRANCH  24  25
ENDBRANCH  23  24
ENDBRANCH  22  23
ENDBRANCH  21  22
ENDBRANCH  20  21
ENDBRANCH  19  20
ENDBRANCH  18  19
ENDBRANCH  15  18
ENDBRANCH  11  12
ENDBRANCH   7  10
ENDBRANCH   2   4
TORSDOF 11
ENDMDL
MODEL      198
REMARK 921   NORMALIZED FREE ENERGY PREDICTED BY IDOCK:   -3.32 KCAL/MOL
REMARK 922        TOTAL FREE ENERGY PREDICTED BY IDOCK:   -6.53 KCAL/MOL
REMARK 923 INTER-LIGAND FREE ENERGY PREDICTED BY IDOCK:   -5.40 KCAL/MOL
REMARK 924 INTRA-LIGAND FREE ENERGY PREDICTED BY IDOCK:   -1.13 KCAL/MOL
REMARK 927      BINDING AFFINITY PREDICTED BY RF-SCORE:    0.00 PKD
ROOT
HETATM    1  C   UNL     1      -7.890   6.442  63.152  1.00  0.00    -0.102 C  
HETATM    2  N   UNL     1      -8.555   6.655  64.430  1.00  0.00    -0.327 NA 
HETATM    3  H   UNL     1      -9.303   6.042  64.753  1.00  0.00     0.000 HD 
ENDROOT
BRANCH   2   4
HETATM    4  C   UNL     1      -8.116   7.747  65.195  1.00  0.00    -0.137 A  
HETATM    5  C   UNL     1      -9.034   8.745  65.544  1.00  0.00    -0.231 A  
HETATM    6  C   UNL     1      -8.632   9.871  66.270  1.00  0.00    -0.137 A  
HETATM    7  C   UNL     1      -7.310  10.001  66.707  1.00  0.00    -0.095 A  
HETATM    8  C   UNL     1      -6.822   7.841  65.718  1.00  0.00    -0.053 A  
HETATM    9  C   UNL     1      -6.414   8.963  66.447  1.00  0.00    -0.066 A  
BRANCH   7  10
HETATM   10  C   UNL     1      -6.880  11.270  67.305  1.00  0.00    -0.108 C  
HETATM   11  C   UNL     1      -7.549  12.433  67.241  1.00  0.00    -0.141 C  
BRANCH  11  12
HETATM   12  C   UNL     1      -7.103  13.645  67.948  1.00  0.00    -0.151 A  
HETATM   13  C   UNL     1      -5.756  14.012  67.994  1.00  0.00    -0.132 A  
HETATM   14  C   UNL     1      -5.345  15.135  68.709  1.00  0.00    -0.091 A  
HETATM   15  C   UNL     1      -6.271  15.933  69.381  1.00  0.00    -0.153 A  
HETATM   16  C   UNL     1      -8.040  14.470  68.586  1.00  0.00    -0.150 A  
HETATM   17  C   UNL     1      -7.625  15.601  69.303  1.00  0.00    -0.222 A  
BRANCH  15  18
HETATM   18  O   UNL     1      -5.958  17.039  70.133  1.00  0.00    -0.229 OA 
BRANCH  18  19
HETATM   19  C   UNL     1      -5.222  18.041  69.430  1.00  0.00    -0.186 C  
BRANCH  19  20
HETATM   20  C   UNL     1      -6.143  19.015  68.716  1.00  0.00    -0.223 C  
BRANCH  20  21
HETATM   21  O   UNL     1      -5.759  19.023  67.339  1.00  0.00    -0.167 OA 
BRANCH  21  22
HETATM   22  C   UNL     1      -6.885  19.019  66.468  1.00  0.00    -0.202 C  
BRANCH  22  23
HETATM   23  C   UNL     1      -7.164  17.590  66.014  1.00  0.00    -0.263 C  
BRANCH  23  24
HETATM   24  O   UNL     1      -8.575  17.405  65.911  1.00  0.00    -0.525 OA 
BRANCH  24  25
HETATM   25  C   UNL     1      -9.290  18.298  66.763  1.00  0.00    -0.295 C  
HETATM   26  C   UNL     1     -10.412  18.948  65.975  1.00  0.00    -0.446 C  
HETATM   27  F   UNL     1     -11.095  19.801  66.783  1.00  0.00    -0.569 F  
ENDBRANCH  24  25
ENDBRANCH  23  24
ENDBRANCH  22  23
ENDBRANCH  21  22
ENDBRANCH  20  21
ENDBRANCH  19  20
ENDBRANCH  18  19
ENDBRANCH  15  18
ENDBRANCH  11  12
ENDBRANCH   7  10
ENDBRANCH   2   4
TORSDOF 11
ENDMDL
MODEL      199
REMARK 921   NORMALIZED FREE ENERGY PREDICTED BY IDOCK:   -3.31 KCAL/MOL
REMARK 922        TOTAL FREE ENERGY PREDICTED BY IDOCK:   -6.51 KCAL/MOL
REMARK 923 INTER-LIGAND FREE ENERGY PREDICTED BY IDOCK:   -5.38 KCAL/MOL
REMARK 924 INTRA-LIGAND FREE ENERGY PREDICTED BY IDOCK:   -1.13 KCAL/MOL
REMARK 927      BINDING AFFINITY PREDICTED BY RF-SCORE:    0.00 PKD
ROOT
HETATM    1  C   UNL     1     -10.776  18.331  65.459  1.00  0.00     0.077 C  
HETATM    2  N   UNL     1     -11.158  17.211  64.610  1.00  0.00    -1.007 NA 
HETATM    3  H   UNL     1     -11.519  17.354  63.666  1.00  0.00     0.000 HD 
ENDROOT
BRANCH   2   4
HETATM    4  C   UNL     1     -11.007  15.926  65.154  1.00  0.00    -0.377 A  
HETATM    5  C   UNL     1     -10.062  15.725  66.168  1.00  0.00    -0.337 A  
HETATM    6  C   UNL     1      -9.848  14.454  66.711  1.00  0.00    -0.269 A  
HETATM    7  C   UNL     1     -10.612  13.362  66.287  1.00  0.00    -0.292 A  
HETATM    8  C   UNL     1     -11.828  14.848  64.807  1.00  0.00    -0.385 A  
HETATM    9  C   UNL     1     -11.622  13.576  65.349  1.00  0.00    -0.334 A  
BRANCH   7  10
HETATM   10  C   UNL     1     -10.243  12.017  66.742  1.00  0.00    -0.225 C  
HETATM   11  C   UNL     1     -10.216  10.911  65.979  1.00  0.00    -0.311 C  
BRANCH  11  12
HETATM   12  C   UNL     1      -9.743   9.611  66.482  1.00  0.00    -0.272 A  
HETATM   13  C   UNL     1     -10.626   8.560  66.739  1.00  0.00    -0.227 A  
HETATM   14  C   UNL     1     -10.168   7.352  67.262  1.00  0.00    -0.330 A  
HETATM   15  C   UNL     1      -8.812   7.155  67.522  1.00  0.00    -0.119 A  
HETATM   16  C   UNL     1      -8.374   9.400  66.702  1.00  0.00    -0.119 A  
HETATM   17  C   UNL     1      -7.914   8.183  67.225  1.00  0.00    -0.113 A  
BRANCH  15  18
HETATM   18  O   UNL     1      -8.272   6.013  68.062  1.00  0.00    -0.111 OA 
BRANCH  18  19
HETATM   19  C   UNL     1      -7.006   6.202  68.697  1.00  0.00    -0.076 C  
BRANCH  19  20
HETATM   20  C   UNL     1      -7.137   6.226  70.210  1.00  0.00    -0.074 C  
BRANCH  20  21
HETATM   21  O   UNL     1      -7.405   7.579  70.586  1.00  0.00    -0.066 OA 
BRANCH  21  22
HETATM   22  C   UNL     1      -6.544   8.026  71.629  1.00  0.00    -0.053 C  
BRANCH  22  23
HETATM   23  C   UNL     1      -5.732   9.219  71.134  1.00  0.00    -0.060 C  
BRANCH  23  24
HETATM   24  O   UNL     1      -6.579  10.064  70.357  1.00  0.00    -0.106 OA 
BRANCH  24  25
HETATM   25  C   UNL     1      -5.851  10.753  69.342  1.00  0.00    -0.040 C  
HETATM   26  C   UNL     1      -6.561  12.055  69.016  1.00  0.00    -0.092 C  
HETATM   27  F   UNL     1      -5.871  12.715  68.049  1.00  0.00    -0.059 F  
ENDBRANCH  24  25
ENDBRANCH  23  24
ENDBRANCH  22  23
ENDBRANCH  21  22
ENDBRANCH  20  21
ENDBRANCH  19  20
ENDBRANCH  18  19
ENDBRANCH  15  18
ENDBRANCH  11  12
ENDBRANCH   7  10
ENDBRANCH   2   4
TORSDOF 11
ENDMDL
MODEL      200
REMARK 921   NORMALIZED FREE ENERGY PREDICTED BY IDOCK:   -3.31 KCAL/MOL
REMARK 922        TOTAL FREE ENERGY PREDICTED BY IDOCK:   -6.50 KCAL/MOL
REMARK 923 INTER-LIGAND FREE ENERGY PREDICTED BY IDOCK:   -5.75 KCAL/MOL
REMARK 924 INTRA-LIGAND FREE ENERGY PREDICTED BY IDOCK:   -0.75 KCAL/MOL
REMARK 927      BINDING AFFINITY PREDICTED BY RF-SCORE:    0.00 PKD
ROOT
HETATM    1  C   UNL     1      -9.960  20.111  66.239  1.00  0.00    -0.435 C  
HETATM    2  N   UNL     1     -10.683  19.322  67.227  1.00  0.00    -0.478 NA 
HETATM    3  H   UNL     1     -11.314  19.755  67.900  1.00  0.00     0.000 HD 
ENDROOT
BRANCH   2   4
HETATM    4  C   UNL     1     -10.466  17.935  67.206  1.00  0.00    -0.366 A  
HETATM    5  C   UNL     1     -10.108  17.322  65.999  1.00  0.00    -0.275 A  
HETATM    6  C   UNL     1      -9.922  15.937  65.923  1.00  0.00    -0.377 A  
HETATM    7  C   UNL     1     -10.042  15.139  67.065  1.00  0.00    -0.244 A  
HETATM    8  C   UNL     1     -10.489  17.142  68.358  1.00  0.00    -0.376 A  
HETATM    9  C   UNL     1     -10.301  15.757  68.288  1.00  0.00    -0.239 A  
BRANCH   7  10
HETATM   10  C   UNL     1     -10.020  13.680  66.918  1.00  0.00    -0.260 C  
HETATM   11  C   UNL     1     -10.287  12.790  67.889  1.00  0.00    -0.228 C  
BRANCH  11  12
HETATM   12  C   UNL     1     -10.340  11.339  67.644  1.00  0.00    -0.212 A  
HETATM   13  C   UNL     1     -10.152  10.806  66.367  1.00  0.00    -0.278 A  
HETATM   14  C   UNL     1     -10.255   9.434  66.143  1.00  0.00    -0.264 A  
HETATM   15  C   UNL     1     -10.529   8.557  67.193  1.00  0.00    -0.299 A  
HETATM   16  C   UNL     1     -10.573  10.457  68.708  1.00  0.00    -0.232 A  
HETATM   17  C   UNL     1     -10.673   9.077  68.482  1.00  0.00    -0.140 A  
BRANCH  15  18
HETATM   18  O   UNL     1     -10.676   7.198  67.065  1.00  0.00    -0.327 OA 
BRANCH  18  19
HETATM   19  C   UNL     1      -9.543   6.439  67.490  1.00  0.00    -0.120 C  
BRANCH  19  20
HETATM   20  C   UNL     1      -8.245   7.031  66.970  1.00  0.00    -0.117 C  
BRANCH  20  21
HETATM   21  O   UNL     1      -7.348   7.113  68.080  1.00  0.00    -0.091 OA 
BRANCH  21  22
HETATM   22  C   UNL     1      -6.060   7.585  67.695  1.00  0.00    -0.047 C  
BRANCH  22  23
HETATM   23  C   UNL     1      -6.156   9.061  67.322  1.00  0.00    -0.058 C  
BRANCH  23  24
HETATM   24  O   UNL     1      -5.441   9.278  66.107  1.00  0.00    -0.042 OA 
BRANCH  24  25
HETATM   25  C   UNL     1      -6.320   9.561  65.020  1.00  0.00    -0.083 C  
HETATM   26  C   UNL     1      -6.297   8.398  64.045  1.00  0.00    -0.071 C  
HETATM   27  F   UNL     1      -7.133   8.662  63.006  1.00  0.00    -0.090 F  
ENDBRANCH  24  25
ENDBRANCH  23  24
ENDBRANCH  22  23
ENDBRANCH  21  22
ENDBRANCH  20  21
ENDBRANCH  19  20
ENDBRANCH  18  19
ENDBRANCH  15  18
ENDBRANCH  11  12
ENDBRANCH   7  10
ENDBRANCH   2   4
TORSDOF 11
ENDMDL
MODEL      201
REMARK 921   NORMALIZED FREE ENERGY PREDICTED BY IDOCK:   -3.30 KCAL/MOL
REMARK 922        TOTAL FREE ENERGY PREDICTED BY IDOCK:   -6.49 KCAL/MOL
REMARK 923 INTER-LIGAND FREE ENERGY PREDICTED BY IDOCK:   -5.32 KCAL/MOL
REMARK 924 INTRA-LIGAND FREE ENERGY PREDICTED BY IDOCK:   -1.17 KCAL/MOL
REMARK 927      BINDING AFFINITY PREDICTED BY RF-SCORE:    0.00 PKD
ROOT
HETATM    1  C   UNL     1      -6.938  20.873  66.953  1.00  0.00    -0.287 C  
HETATM    2  N   UNL     1      -8.323  20.616  66.581  1.00  0.00    -0.547 NA 
HETATM    3  H   UNL     1      -8.943  21.366  66.276  1.00  0.00     0.000 HD 
ENDROOT
BRANCH   2   4
HETATM    4  C   UNL     1      -8.761  19.285  66.664  1.00  0.00    -0.324 A  
HETATM    5  C   UNL     1      -8.009  18.368  67.409  1.00  0.00    -0.241 A  
HETATM    6  C   UNL     1      -8.386  17.022  67.486  1.00  0.00    -0.199 A  
HETATM    7  C   UNL     1      -9.553  16.573  66.860  1.00  0.00    -0.253 A  
HETATM    8  C   UNL     1      -9.974  18.845  66.123  1.00  0.00    -0.395 A  
HETATM    9  C   UNL     1     -10.357  17.502  66.199  1.00  0.00    -0.330 A  
BRANCH   7  10
HETATM   10  C   UNL     1      -9.822  15.132  66.807  1.00  0.00    -0.251 C  
HETATM   11  C   UNL     1      -8.895  14.160  66.835  1.00  0.00    -0.223 C  
BRANCH  11  12
HETATM   12  C   UNL     1      -9.245  12.730  66.875  1.00  0.00    -0.229 A  
HETATM   13  C   UNL     1      -9.680  12.052  65.735  1.00  0.00    -0.254 A  
HETATM   14  C   UNL     1     -10.055  10.711  65.800  1.00  0.00    -0.327 A  
HETATM   15  C   UNL     1      -9.986  10.008  67.003  1.00  0.00    -0.205 A  
HETATM   16  C   UNL     1      -9.134  12.015  68.075  1.00  0.00    -0.188 A  
HETATM   17  C   UNL     1      -9.509  10.665  68.139  1.00  0.00    -0.158 A  
BRANCH  15  18
HETATM   18  O   UNL     1     -10.360   8.697  67.171  1.00  0.00    -0.258 OA 
BRANCH  18  19
HETATM   19  C   UNL     1      -9.485   7.936  68.006  1.00  0.00    -0.149 C  
BRANCH  19  20
HETATM   20  C   UNL     1      -8.256   7.466  67.248  1.00  0.00    -0.115 C  
BRANCH  20  21
HETATM   21  O   UNL     1      -7.174   7.436  68.182  1.00  0.00    -0.085 OA 
BRANCH  21  22
HETATM   22  C   UNL     1      -6.145   8.359  67.839  1.00  0.00    -0.048 C  
BRANCH  22  23
HETATM   23  C   UNL     1      -5.196   8.516  69.023  1.00  0.00    -0.032 C  
BRANCH  23  24
HETATM   24  O   UNL     1      -5.141   9.893  69.393  1.00  0.00    -0.036 OA 
BRANCH  24  25
HETATM   25  C   UNL     1      -5.915  10.708  68.514  1.00  0.00    -0.039 C  
HETATM   26  C   UNL     1      -5.317  12.102  68.471  1.00  0.00    -0.053 C  
HETATM   27  F   UNL     1      -6.050  12.882  67.635  1.00  0.00    -0.098 F  
ENDBRANCH  24  25
ENDBRANCH  23  24
ENDBRANCH  22  23
ENDBRANCH  21  22
ENDBRANCH  20  21
ENDBRANCH  19  20
ENDBRANCH  18  19
ENDBRANCH  15  18
ENDBRANCH  11  12
ENDBRANCH   7  10
ENDBRANCH   2   4
TORSDOF 11
ENDMDL
MODEL      202
REMARK 921   NORMALIZED FREE ENERGY PREDICTED BY IDOCK:   -3.30 KCAL/MOL
REMARK 922        TOTAL FREE ENERGY PREDICTED BY IDOCK:   -6.49 KCAL/MOL
REMARK 923 INTER-LIGAND FREE ENERGY PREDICTED BY IDOCK:   -5.38 KCAL/MOL
REMARK 924 INTRA-LIGAND FREE ENERGY PREDICTED BY IDOCK:   -1.11 KCAL/MOL
REMARK 927      BINDING AFFINITY PREDICTED BY RF-SCORE:    0.00 PKD
ROOT
HETATM    1  C   UNL     1     -10.784  18.374  65.497  1.00  0.00     0.085 C  
HETATM    2  N   UNL     1     -11.146  17.261  64.630  1.00  0.00    -0.959 NA 
HETATM    3  H   UNL     1     -11.580  17.412  63.719  1.00  0.00     0.000 HD 
ENDROOT
BRANCH   2   4
HETATM    4  C   UNL     1     -10.867  15.972  65.109  1.00  0.00    -0.395 A  
HETATM    5  C   UNL     1      -9.848  15.805  66.055  1.00  0.00    -0.366 A  
HETATM    6  C   UNL     1      -9.508  14.533  66.530  1.00  0.00    -0.310 A  
HETATM    7  C   UNL     1     -10.215  13.403  66.107  1.00  0.00    -0.301 A  
HETATM    8  C   UNL     1     -11.628  14.849  64.767  1.00  0.00    -0.410 A  
HETATM    9  C   UNL     1     -11.295  13.576  65.241  1.00  0.00    -0.304 A  
BRANCH   7  10
HETATM   10  C   UNL     1      -9.721  12.074  66.482  1.00  0.00    -0.230 C  
HETATM   11  C   UNL     1      -9.629  11.012  65.663  1.00  0.00    -0.265 C  
BRANCH  11  12
HETATM   12  C   UNL     1      -9.033   9.734  66.084  1.00  0.00    -0.181 A  
HETATM   13  C   UNL     1      -9.814   8.593  66.280  1.00  0.00    -0.320 A  
HETATM   14  C   UNL     1      -9.242   7.403  66.727  1.00  0.00    -0.190 A  
HETATM   15  C   UNL     1      -7.870   7.317  66.971  1.00  0.00    -0.112 A  
HETATM   16  C   UNL     1      -7.649   9.638  66.286  1.00  0.00    -0.101 A  
HETATM   17  C   UNL     1      -7.074   8.440  66.733  1.00  0.00    -0.074 A  
BRANCH  15  18
HETATM   18  O   UNL     1      -7.222   6.200  67.439  1.00  0.00    -0.072 OA 
BRANCH  18  19
HETATM   19  C   UNL     1      -7.021   6.183  68.853  1.00  0.00    -0.072 C  
BRANCH  19  20
HETATM   20  C   UNL     1      -8.016   5.272  69.549  1.00  0.00    -0.088 C  
BRANCH  20  21
HETATM   21  O   UNL     1      -8.068   4.056  68.800  1.00  0.00    -0.070 OA 
BRANCH  21  22
HETATM   22  C   UNL     1      -9.403   3.679  68.478  1.00  0.00    -0.164 C  
BRANCH  22  23
HETATM   23  C   UNL     1      -9.588   3.723  66.965  1.00  0.00    -0.180 C  
BRANCH  23  24
HETATM   24  O   UNL     1      -8.400   3.239  66.340  1.00  0.00    -0.095 OA 
BRANCH  24  25
HETATM   25  C   UNL     1      -8.175   3.861  65.077  1.00  0.00    -0.097 C  
HETATM   26  C   UNL     1      -7.411   2.906  64.178  1.00  0.00    -0.067 C  
HETATM   27  F   UNL     1      -7.195   3.495  62.973  1.00  0.00    -0.044 F  
ENDBRANCH  24  25
ENDBRANCH  23  24
ENDBRANCH  22  23
ENDBRANCH  21  22
ENDBRANCH  20  21
ENDBRANCH  19  20
ENDBRANCH  18  19
ENDBRANCH  15  18
ENDBRANCH  11  12
ENDBRANCH   7  10
ENDBRANCH   2   4
TORSDOF 11
ENDMDL
MODEL      203
REMARK 921   NORMALIZED FREE ENERGY PREDICTED BY IDOCK:   -3.29 KCAL/MOL
REMARK 922        TOTAL FREE ENERGY PREDICTED BY IDOCK:   -6.48 KCAL/MOL
REMARK 923 INTER-LIGAND FREE ENERGY PREDICTED BY IDOCK:   -5.66 KCAL/MOL
REMARK 924 INTRA-LIGAND FREE ENERGY PREDICTED BY IDOCK:   -0.82 KCAL/MOL
REMARK 927      BINDING AFFINITY PREDICTED BY RF-SCORE:    0.00 PKD
ROOT
HETATM    1  C   UNL     1      -9.965  20.104  66.250  1.00  0.00    -0.435 C  
HETATM    2  N   UNL     1     -10.706  19.368  67.265  1.00  0.00    -0.483 NA 
HETATM    3  H   UNL     1     -11.354  19.836  67.898  1.00  0.00     0.000 HD 
ENDROOT
BRANCH   2   4
HETATM    4  C   UNL     1     -10.484  17.984  67.327  1.00  0.00    -0.380 A  
HETATM    5  C   UNL     1     -10.076  17.308  66.171  1.00  0.00    -0.312 A  
HETATM    6  C   UNL     1      -9.883  15.922  66.177  1.00  0.00    -0.343 A  
HETATM    7  C   UNL     1     -10.045  15.187  67.355  1.00  0.00    -0.229 A  
HETATM    8  C   UNL     1     -10.550  17.253  68.519  1.00  0.00    -0.350 A  
HETATM    9  C   UNL     1     -10.355  15.869  68.532  1.00  0.00    -0.232 A  
BRANCH   7  10
HETATM   10  C   UNL     1     -10.012  13.722  67.288  1.00  0.00    -0.239 C  
HETATM   11  C   UNL     1     -10.334  12.884  68.288  1.00  0.00    -0.248 C  
BRANCH  11  12
HETATM   12  C   UNL     1     -10.370  11.422  68.120  1.00  0.00    -0.206 A  
HETATM   13  C   UNL     1     -10.075  10.820  66.894  1.00  0.00    -0.255 A  
HETATM   14  C   UNL     1     -10.163   9.438  66.737  1.00  0.00    -0.320 A  
HETATM   15  C   UNL     1     -10.529   8.619  67.806  1.00  0.00    -0.224 A  
HETATM   16  C   UNL     1     -10.696  10.598  69.206  1.00  0.00    -0.275 A  
HETATM   17  C   UNL     1     -10.781   9.208  69.047  1.00  0.00    -0.176 A  
BRANCH  15  18
HETATM   18  O   UNL     1     -10.669   7.254  67.740  1.00  0.00    -0.225 OA 
BRANCH  18  19
HETATM   19  C   UNL     1      -9.603   6.522  68.347  1.00  0.00    -0.122 C  
BRANCH  19  20
HETATM   20  C   UNL     1      -8.287   7.275  68.264  1.00  0.00    -0.125 C  
BRANCH  20  21
HETATM   21  O   UNL     1      -7.701   7.240  69.567  1.00  0.00    -0.107 OA 
BRANCH  21  22
HETATM   22  C   UNL     1      -6.395   7.809  69.584  1.00  0.00    -0.031 C  
BRANCH  22  23
HETATM   23  C   UNL     1      -6.407   9.068  70.445  1.00  0.00    -0.044 C  
BRANCH  23  24
HETATM   24  O   UNL     1      -5.660  10.087  69.783  1.00  0.00    -0.037 OA 
BRANCH  24  25
HETATM   25  C   UNL     1      -6.504  11.127  69.291  1.00  0.00    -0.088 C  
HETATM   26  C   UNL     1      -6.505  11.093  67.774  1.00  0.00    -0.063 C  
HETATM   27  F   UNL     1      -7.308  12.083  67.301  1.00  0.00    -0.115 F  
ENDBRANCH  24  25
ENDBRANCH  23  24
ENDBRANCH  22  23
ENDBRANCH  21  22
ENDBRANCH  20  21
ENDBRANCH  19  20
ENDBRANCH  18  19
ENDBRANCH  15  18
ENDBRANCH  11  12
ENDBRANCH   7  10
ENDBRANCH   2   4
TORSDOF 11
ENDMDL
MODEL      204
REMARK 921   NORMALIZED FREE ENERGY PREDICTED BY IDOCK:   -3.29 KCAL/MOL
REMARK 922        TOTAL FREE ENERGY PREDICTED BY IDOCK:   -6.48 KCAL/MOL
REMARK 923 INTER-LIGAND FREE ENERGY PREDICTED BY IDOCK:   -5.67 KCAL/MOL
REMARK 924 INTRA-LIGAND FREE ENERGY PREDICTED BY IDOCK:   -0.80 KCAL/MOL
REMARK 927      BINDING AFFINITY PREDICTED BY RF-SCORE:    0.00 PKD
ROOT
HETATM    1  C   UNL     1     -13.437  15.605  73.032  1.00  0.00    -0.562 C  
HETATM    2  N   UNL     1     -14.070  14.447  72.417  1.00  0.00    -0.532 NA 
HETATM    3  H   UNL     1     -15.029  14.180  72.639  1.00  0.00     0.000 HD 
ENDROOT
BRANCH   2   4
HETATM    4  C   UNL     1     -13.294  13.715  71.505  1.00  0.00    -0.297 A  
HETATM    5  C   UNL     1     -13.127  12.339  71.705  1.00  0.00    -0.449 A  
HETATM    6  C   UNL     1     -12.329  11.578  70.844  1.00  0.00    -0.460 A  
HETATM    7  C   UNL     1     -11.719  12.167  69.732  1.00  0.00    -0.381 A  
HETATM    8  C   UNL     1     -12.758  14.273  70.339  1.00  0.00    -0.355 A  
HETATM    9  C   UNL     1     -11.962  13.516  69.473  1.00  0.00    -0.390 A  
BRANCH   7  10
HETATM   10  C   UNL     1     -10.749  11.387  68.957  1.00  0.00    -0.245 C  
HETATM   11  C   UNL     1      -9.972  10.400  69.437  1.00  0.00    -0.240 C  
BRANCH  11  12
HETATM   12  C   UNL     1      -9.089   9.595  68.578  1.00  0.00    -0.131 A  
HETATM   13  C   UNL     1      -9.563   8.974  67.420  1.00  0.00    -0.195 A  
HETATM   14  C   UNL     1      -8.726   8.174  66.645  1.00  0.00    -0.152 A  
HETATM   15  C   UNL     1      -7.388   7.989  66.995  1.00  0.00    -0.091 A  
HETATM   16  C   UNL     1      -7.735   9.447  68.908  1.00  0.00    -0.076 A  
HETATM   17  C   UNL     1      -6.893   8.644  68.125  1.00  0.00    -0.069 A  
BRANCH  15  18
HETATM   18  O   UNL     1      -6.497   7.199  66.310  1.00  0.00    -0.048 OA 
BRANCH  18  19
HETATM   19  C   UNL     1      -7.011   5.921  65.932  1.00  0.00    -0.062 C  
BRANCH  19  20
HETATM   20  C   UNL     1      -6.850   4.901  67.046  1.00  0.00    -0.056 C  
BRANCH  20  21
HETATM   21  O   UNL     1      -7.000   3.608  66.455  1.00  0.00    -0.056 OA 
BRANCH  21  22
HETATM   22  C   UNL     1      -8.054   2.862  67.055  1.00  0.00    -0.079 C  
BRANCH  22  23
HETATM   23  C   UNL     1      -9.343   3.094  66.272  1.00  0.00    -0.097 C  
BRANCH  23  24
HETATM   24  O   UNL     1      -9.022   3.264  64.893  1.00  0.00    -0.124 OA 
BRANCH  24  25
HETATM   25  C   UNL     1      -9.650   2.277  64.077  1.00  0.00    -0.137 C  
HETATM   26  C   UNL     1     -10.792   2.918  63.309  1.00  0.00    -0.226 C  
HETATM   27  F   UNL     1     -11.394   1.980  62.531  1.00  0.00    -0.165 F  
ENDBRANCH  24  25
ENDBRANCH  23  24
ENDBRANCH  22  23
ENDBRANCH  21  22
ENDBRANCH  20  21
ENDBRANCH  19  20
ENDBRANCH  18  19
ENDBRANCH  15  18
ENDBRANCH  11  12
ENDBRANCH   7  10
ENDBRANCH   2   4
TORSDOF 11
ENDMDL
MODEL      205
REMARK 921   NORMALIZED FREE ENERGY PREDICTED BY IDOCK:   -3.24 KCAL/MOL
REMARK 922        TOTAL FREE ENERGY PREDICTED BY IDOCK:   -6.39 KCAL/MOL
REMARK 923 INTER-LIGAND FREE ENERGY PREDICTED BY IDOCK:   -5.41 KCAL/MOL
REMARK 924 INTRA-LIGAND FREE ENERGY PREDICTED BY IDOCK:   -0.99 KCAL/MOL
REMARK 927      BINDING AFFINITY PREDICTED BY RF-SCORE:    0.00 PKD
ROOT
HETATM    1  C   UNL     1     -10.687  19.450  66.784  1.00  0.00    -0.448 C  
HETATM    2  N   UNL     1      -9.572  18.660  66.281  1.00  0.00    -0.426 NA 
HETATM    3  H   UNL     1      -8.847  19.072  65.694  1.00  0.00     0.000 HD 
ENDROOT
BRANCH   2   4
HETATM    4  C   UNL     1      -9.546  17.304  66.644  1.00  0.00    -0.276 A  
HETATM    5  C   UNL     1     -10.528  16.815  67.513  1.00  0.00    -0.319 A  
HETATM    6  C   UNL     1     -10.517  15.480  67.934  1.00  0.00    -0.266 A  
HETATM    7  C   UNL     1      -9.550  14.591  67.454  1.00  0.00    -0.212 A  
HETATM    8  C   UNL     1      -8.643  16.386  66.097  1.00  0.00    -0.343 A  
HETATM    9  C   UNL     1      -8.629  15.050  66.512  1.00  0.00    -0.179 A  
BRANCH   7  10
HETATM   10  C   UNL     1      -9.455  13.254  68.049  1.00  0.00    -0.219 C  
HETATM   11  C   UNL     1      -8.641  12.268  67.637  1.00  0.00    -0.169 C  
BRANCH  11  12
HETATM   12  C   UNL     1      -8.531  10.981  68.343  1.00  0.00    -0.144 A  
HETATM   13  C   UNL     1      -9.269   9.864  67.947  1.00  0.00    -0.138 A  
HETATM   14  C   UNL     1      -9.192   8.667  68.657  1.00  0.00    -0.138 A  
HETATM   15  C   UNL     1      -8.359   8.550  69.770  1.00  0.00    -0.124 A  
HETATM   16  C   UNL     1      -7.661  10.853  69.435  1.00  0.00    -0.072 A  
HETATM   17  C   UNL     1      -7.582   9.647  70.147  1.00  0.00    -0.165 A  
BRANCH  15  18
HETATM   18  O   UNL     1      -8.238   7.423  70.547  1.00  0.00    -0.122 OA 
BRANCH  18  19
HETATM   19  C   UNL     1      -7.977   7.683  71.927  1.00  0.00    -0.096 C  
BRANCH  19  20
HETATM   20  C   UNL     1      -9.122   7.219  72.810  1.00  0.00    -0.137 C  
BRANCH  20  21
HETATM   21  O   UNL     1     -10.019   6.477  71.979  1.00  0.00    -0.171 OA 
BRANCH  21  22
HETATM   22  C   UNL     1     -11.221   6.132  72.660  1.00  0.00    -0.274 C  
BRANCH  22  23
HETATM   23  C   UNL     1     -11.970   7.407  73.036  1.00  0.00     0.315 C  
BRANCH  23  24
HETATM   24  O   UNL     1     -12.454   8.026  71.846  1.00  0.00    -0.308 OA 
BRANCH  24  25
HETATM   25  C   UNL     1     -12.092   9.404  71.781  1.00  0.00    -0.382 C  
HETATM   26  C   UNL     1     -11.602   9.726  70.381  1.00  0.00    -0.258 C  
HETATM   27  F   UNL     1     -11.255  11.038  70.315  1.00  0.00    -0.336 F  
ENDBRANCH  24  25
ENDBRANCH  23  24
ENDBRANCH  22  23
ENDBRANCH  21  22
ENDBRANCH  20  21
ENDBRANCH  19  20
ENDBRANCH  18  19
ENDBRANCH  15  18
ENDBRANCH  11  12
ENDBRANCH   7  10
ENDBRANCH   2   4
TORSDOF 11
ENDMDL
MODEL      206
REMARK 921   NORMALIZED FREE ENERGY PREDICTED BY IDOCK:   -3.23 KCAL/MOL
REMARK 922        TOTAL FREE ENERGY PREDICTED BY IDOCK:   -6.38 KCAL/MOL
REMARK 923 INTER-LIGAND FREE ENERGY PREDICTED BY IDOCK:   -5.83 KCAL/MOL
REMARK 924 INTRA-LIGAND FREE ENERGY PREDICTED BY IDOCK:   -0.55 KCAL/MOL
REMARK 927      BINDING AFFINITY PREDICTED BY RF-SCORE:    0.00 PKD
ROOT
HETATM    1  C   UNL     1     -13.855  15.219  72.327  1.00  0.00    -0.530 C  
HETATM    2  N   UNL     1     -12.844  15.901  71.531  1.00  0.00    -0.517 NA 
HETATM    3  H   UNL     1     -12.482  16.817  71.796  1.00  0.00     0.000 HD 
ENDROOT
BRANCH   2   4
HETATM    4  C   UNL     1     -12.392  15.234  70.381  1.00  0.00    -0.380 A  
HETATM    5  C   UNL     1     -12.467  13.837  70.332  1.00  0.00    -0.384 A  
HETATM    6  C   UNL     1     -11.992  13.129  69.223  1.00  0.00    -0.344 A  
HETATM    7  C   UNL     1     -11.475  13.806  68.114  1.00  0.00    -0.348 A  
HETATM    8  C   UNL     1     -11.963  15.904  69.230  1.00  0.00    -0.254 A  
HETATM    9  C   UNL     1     -11.489  15.202  68.117  1.00  0.00    -0.356 A  
BRANCH   7  10
HETATM   10  C   UNL     1     -10.822  13.036  67.050  1.00  0.00    -0.278 C  
HETATM   11  C   UNL     1      -9.741  12.252  67.200  1.00  0.00    -0.203 C  
BRANCH  11  12
HETATM   12  C   UNL     1      -9.197  11.431  66.106  1.00  0.00    -0.223 A  
HETATM   13  C   UNL     1      -9.942  11.159  64.956  1.00  0.00    -0.325 A  
HETATM   14  C   UNL     1      -9.431  10.339  63.952  1.00  0.00    -0.356 A  
HETATM   15  C   UNL     1      -8.155   9.786  64.060  1.00  0.00    -0.150 A  
HETATM   16  C   UNL     1      -7.898  10.913  66.198  1.00  0.00    -0.144 A  
HETATM   17  C   UNL     1      -7.385  10.090  65.185  1.00  0.00    -0.139 A  
BRANCH  15  18
HETATM   18  O   UNL     1      -7.580   8.946  63.138  1.00  0.00    -0.099 OA 
BRANCH  18  19
HETATM   19  C   UNL     1      -8.144   7.635  63.101  1.00  0.00    -0.061 C  
BRANCH  19  20
HETATM   20  C   UNL     1      -7.210   6.606  63.716  1.00  0.00    -0.065 C  
BRANCH  20  21
HETATM   21  O   UNL     1      -7.074   6.938  65.100  1.00  0.00    -0.063 OA 
BRANCH  21  22
HETATM   22  C   UNL     1      -6.433   5.903  65.839  1.00  0.00    -0.043 C  
BRANCH  22  23
HETATM   23  C   UNL     1      -7.447   5.251  66.774  1.00  0.00    -0.087 C  
BRANCH  23  24
HETATM   24  O   UNL     1      -7.713   3.927  66.315  1.00  0.00    -0.087 OA 
BRANCH  24  25
HETATM   25  C   UNL     1      -8.802   3.896  65.394  1.00  0.00    -0.123 C  
HETATM   26  C   UNL     1      -9.010   2.471  64.915  1.00  0.00    -0.127 C  
HETATM   27  F   UNL     1     -10.046   2.436  64.036  1.00  0.00    -0.142 F  
ENDBRANCH  24  25
ENDBRANCH  23  24
ENDBRANCH  22  23
ENDBRANCH  21  22
ENDBRANCH  20  21
ENDBRANCH  19  20
ENDBRANCH  18  19
ENDBRANCH  15  18
ENDBRANCH  11  12
ENDBRANCH   7  10
ENDBRANCH   2   4
TORSDOF 11
ENDMDL
MODEL      207
REMARK 921   NORMALIZED FREE ENERGY PREDICTED BY IDOCK:   -3.20 KCAL/MOL
REMARK 922        TOTAL FREE ENERGY PREDICTED BY IDOCK:   -6.33 KCAL/MOL
REMARK 923 INTER-LIGAND FREE ENERGY PREDICTED BY IDOCK:   -5.50 KCAL/MOL
REMARK 924 INTRA-LIGAND FREE ENERGY PREDICTED BY IDOCK:   -0.83 KCAL/MOL
REMARK 927      BINDING AFFINITY PREDICTED BY RF-SCORE:    0.00 PKD
ROOT
HETATM    1  C   UNL     1     -10.981  19.564  66.805  1.00  0.00    -0.282 C  
HETATM    2  N   UNL     1     -10.414  18.519  65.965  1.00  0.00    -0.526 NA 
HETATM    3  H   UNL     1     -10.138  18.700  65.000  1.00  0.00     0.000 HD 
ENDROOT
BRANCH   2   4
HETATM    4  C   UNL     1     -10.267  17.251  66.549  1.00  0.00    -0.325 A  
HETATM    5  C   UNL     1     -10.588  17.085  67.901  1.00  0.00    -0.365 A  
HETATM    6  C   UNL     1     -10.418  15.849  68.535  1.00  0.00    -0.241 A  
HETATM    7  C   UNL     1      -9.970  14.737  67.815  1.00  0.00    -0.223 A  
HETATM    8  C   UNL     1      -9.911  16.112  65.819  1.00  0.00    -0.370 A  
HETATM    9  C   UNL     1      -9.743  14.873  66.446  1.00  0.00    -0.306 A  
BRANCH   7  10
HETATM   10  C   UNL     1      -9.631  13.509  68.543  1.00  0.00    -0.151 C  
HETATM   11  C   UNL     1      -9.065  12.412  68.011  1.00  0.00    -0.195 C  
BRANCH  11  12
HETATM   12  C   UNL     1      -8.665  11.251  68.822  1.00  0.00    -0.105 A  
HETATM   13  C   UNL     1      -9.571  10.238  69.145  1.00  0.00    -0.229 A  
HETATM   14  C   UNL     1      -9.190   9.171  69.956  1.00  0.00    -0.209 A  
HETATM   15  C   UNL     1      -7.888   9.077  70.449  1.00  0.00    -0.116 A  
HETATM   16  C   UNL     1      -7.345  11.137  69.280  1.00  0.00    -0.097 A  
HETATM   17  C   UNL     1      -6.963  10.061  70.094  1.00  0.00    -0.148 A  
BRANCH  15  18
HETATM   18  O   UNL     1      -7.429   8.080  71.276  1.00  0.00    -0.065 OA 
BRANCH  18  19
HETATM   19  C   UNL     1      -6.852   8.545  72.497  1.00  0.00    -0.055 C  
BRANCH  19  20
HETATM   20  C   UNL     1      -7.683   8.134  73.701  1.00  0.00    -0.172 C  
BRANCH  20  21
HETATM   21  O   UNL     1      -8.254   6.858  73.400  1.00  0.00    -0.108 OA 
BRANCH  21  22
HETATM   22  C   UNL     1      -9.245   6.477  74.349  1.00  0.00    -0.203 C  
BRANCH  22  23
HETATM   23  C   UNL     1     -10.622   6.557  73.698  1.00  0.00    -0.286 C  
BRANCH  23  24
HETATM   24  O   UNL     1     -11.160   5.240  73.591  1.00  0.00    -0.297 OA 
BRANCH  24  25
HETATM   25  C   UNL     1     -10.835   4.636  72.340  1.00  0.00    -0.060 C  
HETATM   26  C   UNL     1     -10.037   3.370  72.590  1.00  0.00    -0.162 C  
HETATM   27  F   UNL     1      -9.725   2.790  71.401  1.00  0.00    -0.199 F  
ENDBRANCH  24  25
ENDBRANCH  23  24
ENDBRANCH  22  23
ENDBRANCH  21  22
ENDBRANCH  20  21
ENDBRANCH  19  20
ENDBRANCH  18  19
ENDBRANCH  15  18
ENDBRANCH  11  12
ENDBRANCH   7  10
ENDBRANCH   2   4
TORSDOF 11
ENDMDL
MODEL      208
REMARK 921   NORMALIZED FREE ENERGY PREDICTED BY IDOCK:   -3.19 KCAL/MOL
REMARK 922        TOTAL FREE ENERGY PREDICTED BY IDOCK:   -6.32 KCAL/MOL
REMARK 923 INTER-LIGAND FREE ENERGY PREDICTED BY IDOCK:   -5.50 KCAL/MOL
REMARK 924 INTRA-LIGAND FREE ENERGY PREDICTED BY IDOCK:   -0.83 KCAL/MOL
REMARK 927      BINDING AFFINITY PREDICTED BY RF-SCORE:    0.00 PKD
ROOT
HETATM    1  C   UNL     1     -14.026  14.683  72.029  1.00  0.00    -0.485 C  
HETATM    2  N   UNL     1     -13.496  15.397  70.876  1.00  0.00    -0.711 NA 
HETATM    3  H   UNL     1     -13.728  16.375  70.699  1.00  0.00     0.000 HD 
ENDROOT
BRANCH   2   4
HETATM    4  C   UNL     1     -12.651  14.673  70.021  1.00  0.00    -0.230 A  
HETATM    5  C   UNL     1     -11.995  15.348  68.984  1.00  0.00    -0.313 A  
HETATM    6  C   UNL     1     -11.175  14.660  68.083  1.00  0.00    -0.304 A  
HETATM    7  C   UNL     1     -10.953  13.287  68.228  1.00  0.00    -0.280 A  
HETATM    8  C   UNL     1     -12.346  13.322  70.213  1.00  0.00    -0.334 A  
HETATM    9  C   UNL     1     -11.525  12.629  69.317  1.00  0.00    -0.354 A  
BRANCH   7  10
HETATM   10  C   UNL     1     -10.240  12.566  67.169  1.00  0.00    -0.225 C  
HETATM   11  C   UNL     1     -10.438  11.283  66.823  1.00  0.00    -0.291 C  
BRANCH  11  12
HETATM   12  C   UNL     1      -9.752  10.652  65.684  1.00  0.00    -0.283 A  
HETATM   13  C   UNL     1      -9.985  11.064  64.370  1.00  0.00    -0.368 A  
HETATM   14  C   UNL     1      -9.366  10.423  63.299  1.00  0.00    -0.335 A  
HETATM   15  C   UNL     1      -8.481   9.365  63.514  1.00  0.00    -0.201 A  
HETATM   16  C   UNL     1      -8.832   9.618  65.905  1.00  0.00    -0.180 A  
HETATM   17  C   UNL     1      -8.207   8.976  64.826  1.00  0.00    -0.161 A  
BRANCH  15  18
HETATM   18  O   UNL     1      -7.847   8.656  62.523  1.00  0.00    -0.124 OA 
BRANCH  18  19
HETATM   19  C   UNL     1      -8.344   7.331  62.335  1.00  0.00    -0.013 C  
BRANCH  19  20
HETATM   20  C   UNL     1      -7.229   6.301  62.390  1.00  0.00    -0.045 C  
BRANCH  20  21
HETATM   21  O   UNL     1      -6.981   6.026  63.771  1.00  0.00    -0.040 OA 
BRANCH  21  22
HETATM   22  C   UNL     1      -5.737   5.361  63.970  1.00  0.00    -0.017 C  
BRANCH  22  23
HETATM   23  C   UNL     1      -5.875   4.373  65.124  1.00  0.00    -0.022 C  
BRANCH  23  24
HETATM   24  O   UNL     1      -7.212   4.425  65.620  1.00  0.00    -0.069 OA 
BRANCH  24  25
HETATM   25  C   UNL     1      -7.277   4.084  67.004  1.00  0.00    -0.068 C  
HETATM   26  C   UNL     1      -5.868   3.975  67.557  1.00  0.00    -0.023 C  
HETATM   27  F   UNL     1      -5.925   3.650  68.876  1.00  0.00    -0.020 F  
ENDBRANCH  24  25
ENDBRANCH  23  24
ENDBRANCH  22  23
ENDBRANCH  21  22
ENDBRANCH  20  21
ENDBRANCH  19  20
ENDBRANCH  18  19
ENDBRANCH  15  18
ENDBRANCH  11  12
ENDBRANCH   7  10
ENDBRANCH   2   4
TORSDOF 11
ENDMDL
MODEL      209
REMARK 921   NORMALIZED FREE ENERGY PREDICTED BY IDOCK:   -3.18 KCAL/MOL
REMARK 922        TOTAL FREE ENERGY PREDICTED BY IDOCK:   -6.30 KCAL/MOL
REMARK 923 INTER-LIGAND FREE ENERGY PREDICTED BY IDOCK:   -5.73 KCAL/MOL
REMARK 924 INTRA-LIGAND FREE ENERGY PREDICTED BY IDOCK:   -0.57 KCAL/MOL
REMARK 927      BINDING AFFINITY PREDICTED BY RF-SCORE:    0.00 PKD
ROOT
HETATM    1  C   UNL     1     -10.108  19.964  66.249  1.00  0.00    -0.502 C  
HETATM    2  N   UNL     1     -10.817  19.143  67.219  1.00  0.00    -0.480 NA 
HETATM    3  H   UNL     1     -11.467  19.550  67.892  1.00  0.00     0.000 HD 
ENDROOT
BRANCH   2   4
HETATM    4  C   UNL     1     -10.563  17.762  67.184  1.00  0.00    -0.287 A  
HETATM    5  C   UNL     1     -10.043  17.198  66.013  1.00  0.00    -0.303 A  
HETATM    6  C   UNL     1      -9.812  15.821  65.919  1.00  0.00    -0.381 A  
HETATM    7  C   UNL     1     -10.049  14.983  67.013  1.00  0.00    -0.244 A  
HETATM    8  C   UNL     1     -10.705  16.931  68.300  1.00  0.00    -0.377 A  
HETATM    9  C   UNL     1     -10.473  15.555  68.213  1.00  0.00    -0.242 A  
BRANCH   7  10
HETATM   10  C   UNL     1      -9.970  13.530  66.827  1.00  0.00    -0.269 C  
HETATM   11  C   UNL     1     -10.323  12.603  67.733  1.00  0.00    -0.221 C  
BRANCH  11  12
HETATM   12  C   UNL     1     -10.307  11.161  67.441  1.00  0.00    -0.231 A  
HETATM   13  C   UNL     1      -9.975  10.675  66.174  1.00  0.00    -0.283 A  
HETATM   14  C   UNL     1     -10.013   9.309  65.900  1.00  0.00    -0.289 A  
HETATM   15  C   UNL     1     -10.365   8.391  66.890  1.00  0.00    -0.307 A  
HETATM   16  C   UNL     1     -10.618  10.238  68.449  1.00  0.00    -0.247 A  
HETATM   17  C   UNL     1     -10.653   8.863  68.172  1.00  0.00    -0.211 A  
BRANCH  15  18
HETATM   18  O   UNL     1     -10.457   7.033  66.707  1.00  0.00    -0.262 OA 
BRANCH  18  19
HETATM   19  C   UNL     1      -9.392   6.284  67.294  1.00  0.00    -0.118 C  
BRANCH  19  20
HETATM   20  C   UNL     1      -8.042   6.925  67.024  1.00  0.00    -0.117 C  
BRANCH  20  21
HETATM   21  O   UNL     1      -7.310   6.897  68.252  1.00  0.00    -0.091 OA 
BRANCH  21  22
HETATM   22  C   UNL     1      -7.982   6.149  69.260  1.00  0.00    -0.108 C  
BRANCH  22  23
HETATM   23  C   UNL     1      -6.964   5.654  70.282  1.00  0.00    -0.058 C  
BRANCH  23  24
HETATM   24  O   UNL     1      -7.278   4.307  70.633  1.00  0.00    -0.043 OA 
BRANCH  24  25
HETATM   25  C   UNL     1      -6.148   3.447  70.498  1.00  0.00    -0.019 C  
HETATM   26  C   UNL     1      -6.449   2.389  69.452  1.00  0.00    -0.029 C  
HETATM   27  F   UNL     1      -5.375   1.567  69.320  1.00  0.00    -0.010 F  
ENDBRANCH  24  25
ENDBRANCH  23  24
ENDBRANCH  22  23
ENDBRANCH  21  22
ENDBRANCH  20  21
ENDBRANCH  19  20
ENDBRANCH  18  19
ENDBRANCH  15  18
ENDBRANCH  11  12
ENDBRANCH   7  10
ENDBRANCH   2   4
TORSDOF 11
ENDMDL
MODEL      210
REMARK 921   NORMALIZED FREE ENERGY PREDICTED BY IDOCK:   -3.18 KCAL/MOL
REMARK 922        TOTAL FREE ENERGY PREDICTED BY IDOCK:   -6.30 KCAL/MOL
REMARK 923 INTER-LIGAND FREE ENERGY PREDICTED BY IDOCK:   -5.01 KCAL/MOL
REMARK 924 INTRA-LIGAND FREE ENERGY PREDICTED BY IDOCK:   -1.29 KCAL/MOL
REMARK 927      BINDING AFFINITY PREDICTED BY RF-SCORE:    0.00 PKD
ROOT
HETATM    1  C   UNL     1     -11.841  15.744  69.144  1.00  0.00    -0.354 C  
HETATM    2  N   UNL     1     -11.343  15.053  67.963  1.00  0.00    -0.316 NA 
HETATM    3  H   UNL     1     -11.073  15.560  67.120  1.00  0.00     0.000 HD 
ENDROOT
BRANCH   2   4
HETATM    4  C   UNL     1     -11.254  13.654  68.042  1.00  0.00    -0.267 A  
HETATM    5  C   UNL     1     -11.666  13.013  69.216  1.00  0.00    -0.375 A  
HETATM    6  C   UNL     1     -11.558  11.624  69.354  1.00  0.00    -0.392 A  
HETATM    7  C   UNL     1     -11.081  10.840  68.300  1.00  0.00    -0.327 A  
HETATM    8  C   UNL     1     -10.869  12.852  66.962  1.00  0.00    -0.282 A  
HETATM    9  C   UNL     1     -10.762  11.464  67.093  1.00  0.00    -0.292 A  
BRANCH   7  10
HETATM   10  C   UNL     1     -10.810   9.418  68.537  1.00  0.00    -0.149 C  
HETATM   11  C   UNL     1     -10.619   8.486  67.588  1.00  0.00    -0.268 C  
BRANCH  11  12
HETATM   12  C   UNL     1     -10.256   7.095  67.901  1.00  0.00    -0.231 A  
HETATM   13  C   UNL     1      -9.931   6.180  66.897  1.00  0.00    -0.211 A  
HETATM   14  C   UNL     1      -9.639   4.853  67.206  1.00  0.00    -0.173 A  
HETATM   15  C   UNL     1      -9.644   4.410  68.530  1.00  0.00    -0.143 A  
HETATM   16  C   UNL     1     -10.220   6.663  69.234  1.00  0.00    -0.206 A  
HETATM   17  C   UNL     1      -9.922   5.328  69.544  1.00  0.00    -0.297 A  
BRANCH  15  18
HETATM   18  O   UNL     1      -9.397   3.119  68.928  1.00  0.00    -0.154 OA 
BRANCH  18  19
HETATM   19  C   UNL     1      -8.167   2.577  68.444  1.00  0.00    -0.057 C  
BRANCH  19  20
HETATM   20  C   UNL     1      -6.971   3.161  69.174  1.00  0.00    -0.041 C  
BRANCH  20  21
HETATM   21  O   UNL     1      -6.793   2.395  70.368  1.00  0.00    -0.032 OA 
BRANCH  21  22
HETATM   22  C   UNL     1      -7.159   3.125  71.534  1.00  0.00    -0.032 C  
BRANCH  22  23
HETATM   23  C   UNL     1      -6.558   4.525  71.460  1.00  0.00    -0.030 C  
BRANCH  23  24
HETATM   24  O   UNL     1      -6.874   5.228  72.661  1.00  0.00    -0.070 OA 
BRANCH  24  25
HETATM   25  C   UNL     1      -7.980   6.110  72.483  1.00  0.00    -0.104 C  
HETATM   26  C   UNL     1      -7.492   7.404  71.857  1.00  0.00    -0.080 C  
HETATM   27  F   UNL     1      -8.543   8.247  71.685  1.00  0.00    -0.126 F  
ENDBRANCH  24  25
ENDBRANCH  23  24
ENDBRANCH  22  23
ENDBRANCH  21  22
ENDBRANCH  20  21
ENDBRANCH  19  20
ENDBRANCH  18  19
ENDBRANCH  15  18
ENDBRANCH  11  12
ENDBRANCH   7  10
ENDBRANCH   2   4
TORSDOF 11
ENDMDL
MODEL      211
REMARK 921   NORMALIZED FREE ENERGY PREDICTED BY IDOCK:   -3.18 KCAL/MOL
REMARK 922        TOTAL FREE ENERGY PREDICTED BY IDOCK:   -6.30 KCAL/MOL
REMARK 923 INTER-LIGAND FREE ENERGY PREDICTED BY IDOCK:   -4.91 KCAL/MOL
REMARK 924 INTRA-LIGAND FREE ENERGY PREDICTED BY IDOCK:   -1.39 KCAL/MOL
REMARK 927      BINDING AFFINITY PREDICTED BY RF-SCORE:    0.00 PKD
ROOT
HETATM    1  C   UNL     1     -11.764  16.287  69.328  1.00  0.00    -0.127 C  
HETATM    2  N   UNL     1     -12.788  15.386  69.838  1.00  0.00    -0.632 NA 
HETATM    3  H   UNL     1     -13.742  15.703  70.011  1.00  0.00     0.000 HD 
ENDROOT
BRANCH   2   4
HETATM    4  C   UNL     1     -12.396  14.060  70.082  1.00  0.00    -0.345 A  
HETATM    5  C   UNL     1     -11.498  13.445  69.201  1.00  0.00    -0.351 A  
HETATM    6  C   UNL     1     -11.111  12.113  69.382  1.00  0.00    -0.183 A  
HETATM    7  C   UNL     1     -11.576  11.379  70.478  1.00  0.00    -0.168 A  
HETATM    8  C   UNL     1     -12.778  13.349  71.224  1.00  0.00    -0.424 A  
HETATM    9  C   UNL     1     -12.393  12.018  71.412  1.00  0.00    -0.093 A  
BRANCH   7  10
HETATM   10  C   UNL     1     -11.299   9.940  70.539  1.00  0.00    -0.399 C  
HETATM   11  C   UNL     1     -10.085   9.370  70.450  1.00  0.00    -0.310 C  
BRANCH  11  12
HETATM   12  C   UNL     1      -9.873   7.923  70.617  1.00  0.00    -0.187 A  
HETATM   13  C   UNL     1      -8.802   7.423  71.360  1.00  0.00    -0.129 A  
HETATM   14  C   UNL     1      -8.585   6.050  71.467  1.00  0.00    -0.132 A  
HETATM   15  C   UNL     1      -9.445   5.141  70.849  1.00  0.00    -0.167 A  
HETATM   16  C   UNL     1     -10.762   7.012  70.031  1.00  0.00    -0.267 A  
HETATM   17  C   UNL     1     -10.545   5.631  70.142  1.00  0.00    -0.380 A  
BRANCH  15  18
HETATM   18  O   UNL     1      -9.297   3.776  70.875  1.00  0.00    -0.117 OA 
BRANCH  18  19
HETATM   19  C   UNL     1      -7.971   3.331  71.169  1.00  0.00    -0.058 C  
BRANCH  19  20
HETATM   20  C   UNL     1      -7.657   2.014  70.482  1.00  0.00    -0.035 C  
BRANCH  20  21
HETATM   21  O   UNL     1      -6.899   2.322  69.310  1.00  0.00    -0.033 OA 
BRANCH  21  22
HETATM   22  C   UNL     1      -6.329   3.626  69.367  1.00  0.00    -0.029 C  
BRANCH  22  23
HETATM   23  C   UNL     1      -5.696   3.958  68.020  1.00  0.00    -0.022 C  
BRANCH  23  24
HETATM   24  O   UNL     1      -6.705   4.464  67.147  1.00  0.00    -0.049 OA 
BRANCH  24  25
HETATM   25  C   UNL     1      -7.528   5.432  67.794  1.00  0.00    -0.080 C  
HETATM   26  C   UNL     1      -6.968   6.818  67.534  1.00  0.00    -0.083 C  
HETATM   27  F   UNL     1      -7.749   7.744  68.149  1.00  0.00    -0.106 F  
ENDBRANCH  24  25
ENDBRANCH  23  24
ENDBRANCH  22  23
ENDBRANCH  21  22
ENDBRANCH  20  21
ENDBRANCH  19  20
ENDBRANCH  18  19
ENDBRANCH  15  18
ENDBRANCH  11  12
ENDBRANCH   7  10
ENDBRANCH   2   4
TORSDOF 11
ENDMDL
MODEL      212
REMARK 921   NORMALIZED FREE ENERGY PREDICTED BY IDOCK:   -3.09 KCAL/MOL
REMARK 922        TOTAL FREE ENERGY PREDICTED BY IDOCK:   -6.15 KCAL/MOL
REMARK 923 INTER-LIGAND FREE ENERGY PREDICTED BY IDOCK:   -5.35 KCAL/MOL
REMARK 924 INTRA-LIGAND FREE ENERGY PREDICTED BY IDOCK:   -0.81 KCAL/MOL
REMARK 927      BINDING AFFINITY PREDICTED BY RF-SCORE:    0.00 PKD
ROOT
HETATM    1  C   UNL     1      -9.890   1.538  71.352  1.00  0.00    -0.131 C  
HETATM    2  N   UNL     1      -9.515   2.120  70.071  1.00  0.00    -0.094 NA 
HETATM    3  H   UNL     1      -9.221   1.540  69.286  1.00  0.00     0.000 HD 
ENDROOT
BRANCH   2   4
HETATM    4  C   UNL     1      -9.578   3.519  69.972  1.00  0.00    -0.156 A  
HETATM    5  C   UNL     1      -9.315   4.124  68.737  1.00  0.00    -0.222 A  
HETATM    6  C   UNL     1      -9.327   5.517  68.601  1.00  0.00    -0.149 A  
HETATM    7  C   UNL     1      -9.652   6.335  69.688  1.00  0.00    -0.163 A  
HETATM    8  C   UNL     1      -9.994   4.341  71.025  1.00  0.00    -0.223 A  
HETATM    9  C   UNL     1     -10.011   5.733  70.894  1.00  0.00    -0.243 A  
BRANCH   7  10
HETATM   10  C   UNL     1      -9.479   7.786  69.562  1.00  0.00    -0.160 C  
HETATM   11  C   UNL     1      -9.031   8.431  68.471  1.00  0.00    -0.136 C  
BRANCH  11  12
HETATM   12  C   UNL     1      -8.975   9.899  68.384  1.00  0.00    -0.120 A  
HETATM   13  C   UNL     1      -7.832  10.561  67.929  1.00  0.00    -0.105 A  
HETATM   14  C   UNL     1      -7.776  11.953  67.900  1.00  0.00    -0.131 A  
HETATM   15  C   UNL     1      -8.869  12.721  68.306  1.00  0.00    -0.168 A  
HETATM   16  C   UNL     1     -10.088  10.667  68.751  1.00  0.00    -0.203 A  
HETATM   17  C   UNL     1     -10.032  12.068  68.718  1.00  0.00    -0.086 A  
BRANCH  15  18
HETATM   18  O   UNL     1      -8.897  14.094  68.339  1.00  0.00    -0.181 OA 
BRANCH  18  19
HETATM   19  C   UNL     1      -9.630  14.695  67.270  1.00  0.00    -0.221 C  
BRANCH  19  20
HETATM   20  C   UNL     1     -11.083  14.924  67.648  1.00  0.00    -0.311 C  
BRANCH  20  21
HETATM   21  O   UNL     1     -11.859  14.742  66.461  1.00  0.00    -0.332 OA 
BRANCH  21  22
HETATM   22  C   UNL     1     -11.155  15.148  65.292  1.00  0.00    -0.383 C  
BRANCH  22  23
HETATM   23  C   UNL     1     -10.989  13.948  64.364  1.00  0.00    -0.308 C  
BRANCH  23  24
HETATM   24  O   UNL     1     -12.077  13.049  64.571  1.00  0.00    -0.369 OA 
BRANCH  24  25
HETATM   25  C   UNL     1     -11.674  11.689  64.426  1.00  0.00    -0.143 C  
HETATM   26  C   UNL     1     -10.185  11.577  64.697  1.00  0.00    -0.285 C  
HETATM   27  F   UNL     1      -9.797  10.282  64.560  1.00  0.00    -0.326 F  
ENDBRANCH  24  25
ENDBRANCH  23  24
ENDBRANCH  22  23
ENDBRANCH  21  22
ENDBRANCH  20  21
ENDBRANCH  19  20
ENDBRANCH  18  19
ENDBRANCH  15  18
ENDBRANCH  11  12
ENDBRANCH   7  10
ENDBRANCH   2   4
TORSDOF 11
ENDMDL
MODEL      213
REMARK 921   NORMALIZED FREE ENERGY PREDICTED BY IDOCK:   -3.08 KCAL/MOL
REMARK 922        TOTAL FREE ENERGY PREDICTED BY IDOCK:   -6.13 KCAL/MOL
REMARK 923 INTER-LIGAND FREE ENERGY PREDICTED BY IDOCK:   -5.52 KCAL/MOL
REMARK 924 INTRA-LIGAND FREE ENERGY PREDICTED BY IDOCK:   -0.61 KCAL/MOL
REMARK 927      BINDING AFFINITY PREDICTED BY RF-SCORE:    0.00 PKD
ROOT
HETATM    1  C   UNL     1     -10.300  17.245  68.759  1.00  0.00    -0.358 C  
HETATM    2  N   UNL     1     -10.894  16.532  67.636  1.00  0.00    -0.306 NA 
HETATM    3  H   UNL     1     -11.299  17.027  66.842  1.00  0.00     0.000 HD 
ENDROOT
BRANCH   2   4
HETATM    4  C   UNL     1     -10.881  15.130  67.702  1.00  0.00    -0.295 A  
HETATM    5  C   UNL     1      -9.793  14.435  67.161  1.00  0.00    -0.254 A  
HETATM    6  C   UNL     1      -9.757  13.036  67.168  1.00  0.00    -0.230 A  
HETATM    7  C   UNL     1     -10.787  12.301  67.763  1.00  0.00    -0.256 A  
HETATM    8  C   UNL     1     -11.856  14.389  68.378  1.00  0.00    -0.354 A  
HETATM    9  C   UNL     1     -11.824  12.991  68.391  1.00  0.00    -0.370 A  
BRANCH   7  10
HETATM   10  C   UNL     1     -10.809  10.844  67.595  1.00  0.00    -0.317 C  
HETATM   11  C   UNL     1      -9.758  10.077  67.261  1.00  0.00    -0.206 C  
BRANCH  11  12
HETATM   12  C   UNL     1      -9.832   8.608  67.204  1.00  0.00    -0.269 A  
HETATM   13  C   UNL     1      -9.165   7.879  66.217  1.00  0.00    -0.231 A  
HETATM   14  C   UNL     1      -9.286   6.493  66.146  1.00  0.00    -0.101 A  
HETATM   15  C   UNL     1     -10.062   5.796  67.073  1.00  0.00    -0.187 A  
HETATM   16  C   UNL     1     -10.577   7.906  68.162  1.00  0.00    -0.179 A  
HETATM   17  C   UNL     1     -10.696   6.510  68.091  1.00  0.00    -0.347 A  
BRANCH  15  18
HETATM   18  O   UNL     1     -10.264   4.437  67.067  1.00  0.00    -0.158 OA 
BRANCH  18  19
HETATM   19  C   UNL     1      -9.505   3.723  68.044  1.00  0.00    -0.164 C  
BRANCH  19  20
HETATM   20  C   UNL     1      -8.022   3.727  67.714  1.00  0.00    -0.085 C  
BRANCH  20  21
HETATM   21  O   UNL     1      -7.695   2.420  67.238  1.00  0.00    -0.064 OA 
BRANCH  21  22
HETATM   22  C   UNL     1      -8.856   1.642  66.962  1.00  0.00    -0.119 C  
BRANCH  22  23
HETATM   23  C   UNL     1      -9.034   1.523  65.452  1.00  0.00    -0.121 C  
BRANCH  23  24
HETATM   24  O   UNL     1      -8.095   2.382  64.807  1.00  0.00    -0.080 OA 
BRANCH  24  25
HETATM   25  C   UNL     1      -8.744   3.381  64.022  1.00  0.00    -0.089 C  
HETATM   26  C   UNL     1     -10.163   2.935  63.720  1.00  0.00    -0.176 C  
HETATM   27  F   UNL     1     -10.785   3.884  62.972  1.00  0.00    -0.200 F  
ENDBRANCH  24  25
ENDBRANCH  23  24
ENDBRANCH  22  23
ENDBRANCH  21  22
ENDBRANCH  20  21
ENDBRANCH  19  20
ENDBRANCH  18  19
ENDBRANCH  15  18
ENDBRANCH  11  12
ENDBRANCH   7  10
ENDBRANCH   2   4
TORSDOF 11
ENDMDL
MODEL      214
REMARK 921   NORMALIZED FREE ENERGY PREDICTED BY IDOCK:   -3.06 KCAL/MOL
REMARK 922        TOTAL FREE ENERGY PREDICTED BY IDOCK:   -6.10 KCAL/MOL
REMARK 923 INTER-LIGAND FREE ENERGY PREDICTED BY IDOCK:   -5.36 KCAL/MOL
REMARK 924 INTRA-LIGAND FREE ENERGY PREDICTED BY IDOCK:   -0.74 KCAL/MOL
REMARK 927      BINDING AFFINITY PREDICTED BY RF-SCORE:    0.00 PKD
ROOT
HETATM    1  C   UNL     1      -8.230   1.473  65.424  1.00  0.00    -0.078 C  
HETATM    2  N   UNL     1      -9.485   2.041  65.896  1.00  0.00    -0.337 NA 
HETATM    3  H   UNL     1     -10.330   1.476  65.980  1.00  0.00     0.000 HD 
ENDROOT
BRANCH   2   4
HETATM    4  C   UNL     1      -9.473   3.404  66.231  1.00  0.00    -0.113 A  
HETATM    5  C   UNL     1      -9.666   3.778  67.566  1.00  0.00    -0.138 A  
HETATM    6  C   UNL     1      -9.703   5.126  67.939  1.00  0.00    -0.184 A  
HETATM    7  C   UNL     1      -9.497   6.132  66.990  1.00  0.00    -0.141 A  
HETATM    8  C   UNL     1      -9.175   4.414  65.309  1.00  0.00    -0.155 A  
HETATM    9  C   UNL     1      -9.207   5.763  65.676  1.00  0.00    -0.038 A  
BRANCH   7  10
HETATM   10  C   UNL     1      -9.721   7.530  67.375  1.00  0.00    -0.204 C  
HETATM   11  C   UNL     1      -9.455   8.605  66.615  1.00  0.00    -0.267 C  
BRANCH  11  12
HETATM   12  C   UNL     1      -9.795   9.976  67.031  1.00  0.00    -0.238 A  
HETATM   13  C   UNL     1      -9.733  10.370  68.369  1.00  0.00    -0.167 A  
HETATM   14  C   UNL     1     -10.107  11.657  68.753  1.00  0.00    -0.169 A  
HETATM   15  C   UNL     1     -10.533  12.589  67.807  1.00  0.00    -0.220 A  
HETATM   16  C   UNL     1     -10.181  10.924  66.073  1.00  0.00    -0.311 A  
HETATM   17  C   UNL     1     -10.553  12.219  66.460  1.00  0.00    -0.263 A  
BRANCH  15  18
HETATM   18  O   UNL     1     -10.946  13.868  68.092  1.00  0.00    -0.238 OA 
BRANCH  18  19
HETATM   19  C   UNL     1     -11.567  14.016  69.370  1.00  0.00    -0.297 C  
BRANCH  19  20
HETATM   20  C   UNL     1     -11.922  15.465  69.655  1.00  0.00    -0.343 C  
BRANCH  20  21
HETATM   21  O   UNL     1     -10.754  16.084  70.198  1.00  0.00    -0.317 OA 
BRANCH  21  22
HETATM   22  C   UNL     1     -10.084  16.899  69.240  1.00  0.00    -0.227 C  
BRANCH  22  23
HETATM   23  C   UNL     1      -8.644  16.418  69.090  1.00  0.00    -0.182 C  
BRANCH  23  24
HETATM   24  O   UNL     1      -8.254  16.545  67.724  1.00  0.00    -0.162 OA 
BRANCH  24  25
HETATM   25  C   UNL     1      -6.987  17.188  67.593  1.00  0.00    -0.142 C  
HETATM   26  C   UNL     1      -7.115  18.637  68.027  1.00  0.00    -0.237 C  
HETATM   27  F   UNL     1      -5.910  19.253  67.904  1.00  0.00    -0.193 F  
ENDBRANCH  24  25
ENDBRANCH  23  24
ENDBRANCH  22  23
ENDBRANCH  21  22
ENDBRANCH  20  21
ENDBRANCH  19  20
ENDBRANCH  18  19
ENDBRANCH  15  18
ENDBRANCH  11  12
ENDBRANCH   7  10
ENDBRANCH   2   4
TORSDOF 11
ENDMDL
MODEL      215
REMARK 921   NORMALIZED FREE ENERGY PREDICTED BY IDOCK:   -3.04 KCAL/MOL
REMARK 922        TOTAL FREE ENERGY PREDICTED BY IDOCK:   -6.06 KCAL/MOL
REMARK 923 INTER-LIGAND FREE ENERGY PREDICTED BY IDOCK:   -5.06 KCAL/MOL
REMARK 924 INTRA-LIGAND FREE ENERGY PREDICTED BY IDOCK:   -1.00 KCAL/MOL
REMARK 927      BINDING AFFINITY PREDICTED BY RF-SCORE:    0.00 PKD
ROOT
HETATM    1  C   UNL     1      -9.897  20.599  67.205  1.00  0.00    -0.388 C  
HETATM    2  N   UNL     1      -8.876  19.561  67.193  1.00  0.00    -0.294 NA 
HETATM    3  H   UNL     1      -7.934  19.740  66.846  1.00  0.00     0.000 HD 
ENDROOT
BRANCH   2   4
HETATM    4  C   UNL     1      -9.253  18.300  67.682  1.00  0.00    -0.267 A  
HETATM    5  C   UNL     1      -8.315  17.536  68.387  1.00  0.00    -0.278 A  
HETATM    6  C   UNL     1      -8.635  16.258  68.857  1.00  0.00    -0.260 A  
HETATM    7  C   UNL     1      -9.918  15.734  68.677  1.00  0.00    -0.208 A  
HETATM    8  C   UNL     1     -10.559  17.806  67.591  1.00  0.00    -0.385 A  
HETATM    9  C   UNL     1     -10.885  16.530  68.062  1.00  0.00    -0.337 A  
BRANCH   7  10
HETATM   10  C   UNL     1     -10.167  14.329  69.018  1.00  0.00    -0.156 C  
HETATM   11  C   UNL     1     -10.856  13.450  68.270  1.00  0.00    -0.275 C  
BRANCH  11  12
HETATM   12  C   UNL     1     -10.985  12.029  68.631  1.00  0.00    -0.281 A  
HETATM   13  C   UNL     1     -11.648  11.627  69.793  1.00  0.00    -0.389 A  
HETATM   14  C   UNL     1     -11.717  10.280  70.147  1.00  0.00    -0.364 A  
HETATM   15  C   UNL     1     -11.143   9.299  69.338  1.00  0.00    -0.043 A  
HETATM   16  C   UNL     1     -10.444  11.042  67.796  1.00  0.00    -0.232 A  
HETATM   17  C   UNL     1     -10.518   9.687  68.151  1.00  0.00    -0.266 A  
BRANCH  15  18
HETATM   18  O   UNL     1     -11.136   7.954  69.618  1.00  0.00    -0.165 OA 
BRANCH  18  19
HETATM   19  C   UNL     1     -10.087   7.224  68.980  1.00  0.00    -0.186 C  
BRANCH  19  20
HETATM   20  C   UNL     1     -10.629   6.068  68.157  1.00  0.00    -0.262 C  
BRANCH  20  21
HETATM   21  O   UNL     1     -10.712   6.521  66.803  1.00  0.00    -0.291 OA 
BRANCH  21  22
HETATM   22  C   UNL     1      -9.498   6.307  66.090  1.00  0.00    -0.055 C  
BRANCH  22  23
HETATM   23  C   UNL     1      -9.204   7.525  65.220  1.00  0.00     0.568 C  
BRANCH  23  24
HETATM   24  O   UNL     1      -7.839   7.899  65.395  1.00  0.00    -0.098 OA 
BRANCH  24  25
HETATM   25  C   UNL     1      -7.190   7.092  66.376  1.00  0.00    -0.075 C  
HETATM   26  C   UNL     1      -6.309   7.972  67.243  1.00  0.00    -0.056 C  
HETATM   27  F   UNL     1      -5.688   7.206  68.179  1.00  0.00    -0.018 F  
ENDBRANCH  24  25
ENDBRANCH  23  24
ENDBRANCH  22  23
ENDBRANCH  21  22
ENDBRANCH  20  21
ENDBRANCH  19  20
ENDBRANCH  18  19
ENDBRANCH  15  18
ENDBRANCH  11  12
ENDBRANCH   7  10
ENDBRANCH   2   4
TORSDOF 11
ENDMDL
MODEL      216
REMARK 921   NORMALIZED FREE ENERGY PREDICTED BY IDOCK:   -3.03 KCAL/MOL
REMARK 922        TOTAL FREE ENERGY PREDICTED BY IDOCK:   -6.06 KCAL/MOL
REMARK 923 INTER-LIGAND FREE ENERGY PREDICTED BY IDOCK:   -5.02 KCAL/MOL
REMARK 924 INTRA-LIGAND FREE ENERGY PREDICTED BY IDOCK:   -1.04 KCAL/MOL
REMARK 927      BINDING AFFINITY PREDICTED BY RF-SCORE:    0.00 PKD
ROOT
HETATM    1  C   UNL     1      -9.806  19.017  68.238  1.00  0.00    -0.378 C  
HETATM    2  N   UNL     1     -10.407  18.095  67.284  1.00  0.00    -0.371 NA 
HETATM    3  H   UNL     1     -10.859  18.426  66.432  1.00  0.00     0.000 HD 
ENDROOT
BRANCH   2   4
HETATM    4  C   UNL     1     -10.335  16.729  67.597  1.00  0.00    -0.309 A  
HETATM    5  C   UNL     1      -9.105  16.070  67.482  1.00  0.00    -0.203 A  
HETATM    6  C   UNL     1      -8.994  14.700  67.744  1.00  0.00    -0.181 A  
HETATM    7  C   UNL     1     -10.104  13.967  68.177  1.00  0.00    -0.250 A  
HETATM    8  C   UNL     1     -11.413  16.007  68.120  1.00  0.00    -0.250 A  
HETATM    9  C   UNL     1     -11.309  14.639  68.387  1.00  0.00    -0.312 A  
BRANCH   7  10
HETATM   10  C   UNL     1     -10.000  12.507  68.268  1.00  0.00    -0.229 C  
HETATM   11  C   UNL     1      -9.484  11.697  67.327  1.00  0.00    -0.173 C  
BRANCH  11  12
HETATM   12  C   UNL     1      -9.324  10.247  67.527  1.00  0.00    -0.164 A  
HETATM   13  C   UNL     1     -10.069   9.321  66.794  1.00  0.00    -0.331 A  
HETATM   14  C   UNL     1      -9.943   7.954  67.031  1.00  0.00    -0.322 A  
HETATM   15  C   UNL     1      -9.053   7.475  67.993  1.00  0.00    -0.131 A  
HETATM   16  C   UNL     1      -8.399   9.767  68.464  1.00  0.00    -0.110 A  
HETATM   17  C   UNL     1      -8.270   8.391  68.699  1.00  0.00    -0.123 A  
BRANCH  15  18
HETATM   18  O   UNL     1      -8.881   6.151  68.316  1.00  0.00    -0.114 OA 
BRANCH  18  19
HETATM   19  C   UNL     1      -7.557   5.659  68.101  1.00  0.00    -0.081 C  
BRANCH  19  20
HETATM   20  C   UNL     1      -7.311   5.336  66.637  1.00  0.00    -0.086 C  
BRANCH  20  21
HETATM   21  O   UNL     1      -8.227   4.300  66.276  1.00  0.00    -0.102 OA 
BRANCH  21  22
HETATM   22  C   UNL     1      -7.623   3.011  66.315  1.00  0.00    -0.077 C  
BRANCH  22  23
HETATM   23  C   UNL     1      -8.581   2.026  66.977  1.00  0.00    -0.108 C  
BRANCH  23  24
HETATM   24  O   UNL     1      -9.379   2.727  67.929  1.00  0.00    -0.194 OA 
BRANCH  24  25
HETATM   25  C   UNL     1      -9.387   2.073  69.197  1.00  0.00    -0.118 C  
HETATM   26  C   UNL     1      -9.344   3.118  70.297  1.00  0.00    -0.165 C  
HETATM   27  F   UNL     1      -9.351   2.499  71.507  1.00  0.00    -0.139 F  
ENDBRANCH  24  25
ENDBRANCH  23  24
ENDBRANCH  22  23
ENDBRANCH  21  22
ENDBRANCH  20  21
ENDBRANCH  19  20
ENDBRANCH  18  19
ENDBRANCH  15  18
ENDBRANCH  11  12
ENDBRANCH   7  10
ENDBRANCH   2   4
TORSDOF 11
ENDMDL
MODEL      217
REMARK 921   NORMALIZED FREE ENERGY PREDICTED BY IDOCK:   -2.98 KCAL/MOL
REMARK 922        TOTAL FREE ENERGY PREDICTED BY IDOCK:   -5.97 KCAL/MOL
REMARK 923 INTER-LIGAND FREE ENERGY PREDICTED BY IDOCK:   -4.46 KCAL/MOL
REMARK 924 INTRA-LIGAND FREE ENERGY PREDICTED BY IDOCK:   -1.50 KCAL/MOL
REMARK 927      BINDING AFFINITY PREDICTED BY RF-SCORE:    0.00 PKD
ROOT
HETATM    1  C   UNL     1      -9.368   1.646  72.194  1.00  0.00    -0.081 C  
HETATM    2  N   UNL     1      -9.757   2.194  70.902  1.00  0.00    -0.108 NA 
HETATM    3  H   UNL     1     -10.187   1.613  70.182  1.00  0.00     0.000 HD 
ENDROOT
BRANCH   2   4
HETATM    4  C   UNL     1      -9.511   3.560  70.697  1.00  0.00    -0.173 A  
HETATM    5  C   UNL     1      -9.549   4.069  69.393  1.00  0.00    -0.257 A  
HETATM    6  C   UNL     1      -9.269   5.416  69.137  1.00  0.00    -0.147 A  
HETATM    7  C   UNL     1      -8.994   6.297  70.187  1.00  0.00    -0.149 A  
HETATM    8  C   UNL     1      -9.329   4.469  71.745  1.00  0.00    -0.194 A  
HETATM    9  C   UNL     1      -9.052   5.817  71.496  1.00  0.00    -0.149 A  
BRANCH   7  10
HETATM   10  C   UNL     1      -8.530   7.653  69.874  1.00  0.00    -0.137 C  
HETATM   11  C   UNL     1      -8.474   8.200  68.648  1.00  0.00    -0.127 C  
BRANCH  11  12
HETATM   12  C   UNL     1      -8.087   9.601  68.420  1.00  0.00    -0.104 A  
HETATM   13  C   UNL     1      -8.353  10.246  67.210  1.00  0.00    -0.121 A  
HETATM   14  C   UNL     1      -7.935  11.557  66.991  1.00  0.00    -0.161 A  
HETATM   15  C   UNL     1      -7.259  12.266  67.984  1.00  0.00    -0.102 A  
HETATM   16  C   UNL     1      -7.446  10.326  69.435  1.00  0.00    -0.128 A  
HETATM   17  C   UNL     1      -7.030  11.646  69.215  1.00  0.00    -0.083 A  
BRANCH  15  18
HETATM   18  O   UNL     1      -6.785  13.549  67.852  1.00  0.00    -0.115 OA 
BRANCH  18  19
HETATM   19  C   UNL     1      -7.802  14.541  67.703  1.00  0.00    -0.180 C  
BRANCH  19  20
HETATM   20  C   UNL     1      -8.134  15.205  69.028  1.00  0.00    -0.191 C  
BRANCH  20  21
HETATM   21  O   UNL     1      -9.537  15.032  69.244  1.00  0.00    -0.215 OA 
BRANCH  21  22
HETATM   22  C   UNL     1     -10.233  14.737  68.038  1.00  0.00    -0.226 C  
BRANCH  22  23
HETATM   23  C   UNL     1     -11.048  13.462  68.226  1.00  0.00    -0.262 C  
BRANCH  23  24
HETATM   24  O   UNL     1     -11.782  13.558  69.445  1.00  0.00    -0.286 OA 
BRANCH  24  25
HETATM   25  C   UNL     1     -11.872  12.299  70.110  1.00  0.00    -0.272 C  
HETATM   26  C   UNL     1     -11.106  11.259  69.314  1.00  0.00    -0.255 C  
HETATM   27  F   UNL     1     -11.189  10.057  69.943  1.00  0.00    -0.241 F  
ENDBRANCH  24  25
ENDBRANCH  23  24
ENDBRANCH  22  23
ENDBRANCH  21  22
ENDBRANCH  20  21
ENDBRANCH  19  20
ENDBRANCH  18  19
ENDBRANCH  15  18
ENDBRANCH  11  12
ENDBRANCH   7  10
ENDBRANCH   2   4
TORSDOF 11
ENDMDL
MODEL      218
REMARK 921   NORMALIZED FREE ENERGY PREDICTED BY IDOCK:   -2.91 KCAL/MOL
REMARK 922        TOTAL FREE ENERGY PREDICTED BY IDOCK:   -5.86 KCAL/MOL
REMARK 923 INTER-LIGAND FREE ENERGY PREDICTED BY IDOCK:   -5.06 KCAL/MOL
REMARK 924 INTRA-LIGAND FREE ENERGY PREDICTED BY IDOCK:   -0.79 KCAL/MOL
REMARK 927      BINDING AFFINITY PREDICTED BY RF-SCORE:    0.00 PKD
ROOT
HETATM    1  C   UNL     1      -9.534   2.358  72.135  1.00  0.00    -0.108 C  
HETATM    2  N   UNL     1      -9.418   2.739  70.735  1.00  0.00    -0.151 NA 
HETATM    3  H   UNL     1      -9.496   2.051  69.985  1.00  0.00     0.000 HD 
ENDROOT
BRANCH   2   4
HETATM    4  C   UNL     1      -9.194   4.099  70.467  1.00  0.00    -0.124 A  
HETATM    5  C   UNL     1     -10.154   4.815  69.743  1.00  0.00    -0.289 A  
HETATM    6  C   UNL     1      -9.954   6.162  69.419  1.00  0.00    -0.205 A  
HETATM    7  C   UNL     1      -8.809   6.836  69.856  1.00  0.00    -0.141 A  
HETATM    8  C   UNL     1      -8.101   4.807  70.979  1.00  0.00    -0.088 A  
HETATM    9  C   UNL     1      -7.897   6.153  70.661  1.00  0.00    -0.106 A  
BRANCH   7  10
HETATM   10  C   UNL     1      -8.543   8.187  69.350  1.00  0.00    -0.135 C  
HETATM   11  C   UNL     1      -9.466   9.139  69.132  1.00  0.00    -0.156 C  
BRANCH  11  12
HETATM   12  C   UNL     1      -9.114  10.506  68.714  1.00  0.00    -0.166 A  
HETATM   13  C   UNL     1     -10.075  11.386  68.211  1.00  0.00    -0.204 A  
HETATM   14  C   UNL     1      -9.717  12.660  67.771  1.00  0.00    -0.206 A  
HETATM   15  C   UNL     1      -8.392  13.094  67.842  1.00  0.00    -0.170 A  
HETATM   16  C   UNL     1      -7.791  10.955  68.826  1.00  0.00    -0.132 A  
HETATM   17  C   UNL     1      -7.433  12.237  68.387  1.00  0.00    -0.122 A  
BRANCH  15  18
HETATM   18  O   UNL     1      -7.941  14.317  67.409  1.00  0.00    -0.179 OA 
BRANCH  18  19
HETATM   19  C   UNL     1      -8.905  15.367  67.496  1.00  0.00    -0.180 C  
BRANCH  19  20
HETATM   20  C   UNL     1      -8.537  16.377  68.568  1.00  0.00    -0.223 C  
BRANCH  20  21
HETATM   21  O   UNL     1      -9.391  17.510  68.388  1.00  0.00    -0.270 OA 
BRANCH  21  22
HETATM   22  C   UNL     1      -9.530  17.864  67.016  1.00  0.00    -0.272 C  
BRANCH  22  23
HETATM   23  C   UNL     1      -8.898  19.233  66.783  1.00  0.00    -0.317 C  
BRANCH  23  24
HETATM   24  O   UNL     1      -7.669  19.061  66.080  1.00  0.00    -0.277 OA 
BRANCH  24  25
HETATM   25  C   UNL     1      -6.768  20.141  66.318  1.00  0.00    -0.222 C  
HETATM   26  C   UNL     1      -6.615  20.344  67.814  1.00  0.00    -0.281 C  
HETATM   27  F   UNL     1      -5.757  21.372  68.044  1.00  0.00    -0.338 F  
ENDBRANCH  24  25
ENDBRANCH  23  24
ENDBRANCH  22  23
ENDBRANCH  21  22
ENDBRANCH  20  21
ENDBRANCH  19  20
ENDBRANCH  18  19
ENDBRANCH  15  18
ENDBRANCH  11  12
ENDBRANCH   7  10
ENDBRANCH   2   4
TORSDOF 11
ENDMDL
MODEL      219
REMARK 921   NORMALIZED FREE ENERGY PREDICTED BY IDOCK:   -2.86 KCAL/MOL
REMARK 922        TOTAL FREE ENERGY PREDICTED BY IDOCK:   -5.77 KCAL/MOL
REMARK 923 INTER-LIGAND FREE ENERGY PREDICTED BY IDOCK:   -7.21 KCAL/MOL
REMARK 924 INTRA-LIGAND FREE ENERGY PREDICTED BY IDOCK:    1.44 KCAL/MOL
REMARK 927      BINDING AFFINITY PREDICTED BY RF-SCORE:    0.00 PKD
ROOT
HETATM    1  C   UNL     1     -11.436  16.644  64.532  1.00  0.00     0.197 C  
HETATM    2  N   UNL     1     -11.481  15.276  64.034  1.00  0.00    -0.656 NA 
HETATM    3  H   UNL     1     -11.529  15.072  63.036  1.00  0.00     0.000 HD 
ENDROOT
BRANCH   2   4
HETATM    4  C   UNL     1     -11.454  14.254  64.996  1.00  0.00    -0.364 A  
HETATM    5  C   UNL     1     -11.957  14.514  66.276  1.00  0.00    -0.335 A  
HETATM    6  C   UNL     1     -11.914  13.537  67.278  1.00  0.00    -0.408 A  
HETATM    7  C   UNL     1     -11.412  12.261  67.006  1.00  0.00    -0.419 A  
HETATM    8  C   UNL     1     -11.044  12.948  64.709  1.00  0.00    -0.337 A  
HETATM    9  C   UNL     1     -11.001  11.967  65.706  1.00  0.00    -0.359 A  
BRANCH   7  10
HETATM   10  C   UNL     1     -11.214  11.323  68.117  1.00  0.00    -0.351 C  
HETATM   11  C   UNL     1     -11.883  11.335  69.282  1.00  0.00    -0.423 C  
BRANCH  11  12
HETATM   12  C   UNL     1     -11.698  10.303  70.315  1.00  0.00    -0.388 A  
HETATM   13  C   UNL     1     -12.762   9.858  71.103  1.00  0.00    -0.462 A  
HETATM   14  C   UNL     1     -12.560   8.917  72.111  1.00  0.00    -0.467 A  
HETATM   15  C   UNL     1     -11.294   8.380  72.344  1.00  0.00    -0.378 A  
HETATM   16  C   UNL     1     -10.433   9.733  70.518  1.00  0.00    -0.366 A  
HETATM   17  C   UNL     1     -10.233   8.784  71.531  1.00  0.00    -0.371 A  
BRANCH  15  18
HETATM   18  O   UNL     1     -10.993   7.471  73.329  1.00  0.00    -0.393 OA 
BRANCH  18  19
HETATM   19  C   UNL     1     -11.342   6.122  73.014  1.00  0.00    -0.112 C  
BRANCH  19  20
HETATM   20  C   UNL     1     -10.852   5.725  71.633  1.00  0.00    -0.255 C  
BRANCH  20  21
HETATM   21  O   UNL     1      -9.514   5.244  71.785  1.00  0.00    -0.144 OA 
BRANCH  21  22
HETATM   22  C   UNL     1      -9.472   3.841  72.025  1.00  0.00    -0.137 C  
BRANCH  22  23
HETATM   23  C   UNL     1      -8.043   3.341  71.841  1.00  0.00    -0.062 C  
BRANCH  23  24
HETATM   24  O   UNL     1      -7.357   4.220  70.951  1.00  0.00    -0.043 OA 
BRANCH  24  25
HETATM   25  C   UNL     1      -7.472   5.582  71.358  1.00  0.00    -0.098 C  
HETATM   26  C   UNL     1      -6.137   6.055  71.902  1.00  0.00    -0.040 C  
HETATM   27  F   UNL     1      -6.242   7.353  72.291  1.00  0.00    -0.040 F  
ENDBRANCH  24  25
ENDBRANCH  23  24
ENDBRANCH  22  23
ENDBRANCH  21  22
ENDBRANCH  20  21
ENDBRANCH  19  20
ENDBRANCH  18  19
ENDBRANCH  15  18
ENDBRANCH  11  12
ENDBRANCH   7  10
ENDBRANCH   2   4
TORSDOF 11
ENDMDL
MODEL      220
REMARK 921   NORMALIZED FREE ENERGY PREDICTED BY IDOCK:   -2.85 KCAL/MOL
REMARK 922        TOTAL FREE ENERGY PREDICTED BY IDOCK:   -5.75 KCAL/MOL
REMARK 923 INTER-LIGAND FREE ENERGY PREDICTED BY IDOCK:   -4.91 KCAL/MOL
REMARK 924 INTRA-LIGAND FREE ENERGY PREDICTED BY IDOCK:   -0.84 KCAL/MOL
REMARK 927      BINDING AFFINITY PREDICTED BY RF-SCORE:    0.00 PKD
ROOT
HETATM    1  C   UNL     1      -5.176  19.450  70.128  1.00  0.00    -0.202 C  
HETATM    2  N   UNL     1      -6.345  19.262  69.280  1.00  0.00    -0.283 NA 
HETATM    3  H   UNL     1      -6.878  20.054  68.921  1.00  0.00     0.000 HD 
ENDROOT
BRANCH   2   4
HETATM    4  C   UNL     1      -6.702  17.938  68.983  1.00  0.00    -0.248 A  
HETATM    5  C   UNL     1      -5.963  16.892  69.549  1.00  0.00    -0.213 A  
HETATM    6  C   UNL     1      -6.258  15.557  69.249  1.00  0.00    -0.123 A  
HETATM    7  C   UNL     1      -7.332  15.237  68.414  1.00  0.00    -0.114 A  
HETATM    8  C   UNL     1      -7.830  17.603  68.227  1.00  0.00    -0.256 A  
HETATM    9  C   UNL     1      -8.132  16.271  67.926  1.00  0.00    -0.153 A  
BRANCH   7  10
HETATM   10  C   UNL     1      -7.502  13.847  67.976  1.00  0.00    -0.135 C  
HETATM   11  C   UNL     1      -8.485  13.390  67.182  1.00  0.00    -0.179 C  
BRANCH  11  12
HETATM   12  C   UNL     1      -8.539  11.998  66.705  1.00  0.00    -0.177 A  
HETATM   13  C   UNL     1      -9.730  11.425  66.253  1.00  0.00    -0.239 A  
HETATM   14  C   UNL     1      -9.774  10.091  65.853  1.00  0.00    -0.309 A  
HETATM   15  C   UNL     1      -8.625   9.300  65.873  1.00  0.00    -0.148 A  
HETATM   16  C   UNL     1      -7.374  11.218  66.686  1.00  0.00    -0.131 A  
HETATM   17  C   UNL     1      -7.420   9.877  66.279  1.00  0.00    -0.102 A  
BRANCH  15  18
HETATM   18  O   UNL     1      -8.577   7.972  65.525  1.00  0.00    -0.155 OA 
BRANCH  18  19
HETATM   19  C   UNL     1      -9.185   7.091  66.470  1.00  0.00    -0.164 C  
BRANCH  19  20
HETATM   20  C   UNL     1      -8.438   5.773  66.569  1.00  0.00    -0.116 C  
BRANCH  20  21
HETATM   21  O   UNL     1      -8.229   5.512  67.959  1.00  0.00    -0.100 OA 
BRANCH  21  22
HETATM   22  C   UNL     1      -9.023   6.355  68.788  1.00  0.00    -0.126 C  
BRANCH  22  23
HETATM   23  C   UNL     1      -8.640   6.129  70.247  1.00  0.00    -0.140 C  
BRANCH  23  24
HETATM   24  O   UNL     1      -9.529   6.872  71.079  1.00  0.00    -0.163 OA 
BRANCH  24  25
HETATM   25  C   UNL     1     -10.707   6.130  71.390  1.00  0.00    -0.255 C  
HETATM   26  C   UNL     1     -11.836   7.095  71.703  1.00  0.00    -0.306 C  
HETATM   27  F   UNL     1     -12.960   6.393  72.001  1.00  0.00    -0.375 F  
ENDBRANCH  24  25
ENDBRANCH  23  24
ENDBRANCH  22  23
ENDBRANCH  21  22
ENDBRANCH  20  21
ENDBRANCH  19  20
ENDBRANCH  18  19
ENDBRANCH  15  18
ENDBRANCH  11  12
ENDBRANCH   7  10
ENDBRANCH   2   4
TORSDOF 11
ENDMDL
MODEL      221
REMARK 921   NORMALIZED FREE ENERGY PREDICTED BY IDOCK:   -2.83 KCAL/MOL
REMARK 922        TOTAL FREE ENERGY PREDICTED BY IDOCK:   -5.72 KCAL/MOL
REMARK 923 INTER-LIGAND FREE ENERGY PREDICTED BY IDOCK:   -5.11 KCAL/MOL
REMARK 924 INTRA-LIGAND FREE ENERGY PREDICTED BY IDOCK:   -0.61 KCAL/MOL
REMARK 927      BINDING AFFINITY PREDICTED BY RF-SCORE:    0.00 PKD
ROOT
HETATM    1  C   UNL     1     -10.957   2.260  63.649  1.00  0.00    -0.027 C  
HETATM    2  N   UNL     1      -9.866   2.492  64.584  1.00  0.00    -0.343 NA 
HETATM    3  H   UNL     1      -9.266   1.733  64.905  1.00  0.00     0.000 HD 
ENDROOT
BRANCH   2   4
HETATM    4  C   UNL     1      -9.682   3.814  65.022  1.00  0.00    -0.183 A  
HETATM    5  C   UNL     1     -10.563   4.343  65.972  1.00  0.00    -0.013 A  
HETATM    6  C   UNL     1     -10.442   5.667  66.407  1.00  0.00    -0.256 A  
HETATM    7  C   UNL     1      -9.405   6.479  65.937  1.00  0.00     0.032 A  
HETATM    8  C   UNL     1      -8.594   4.602  64.631  1.00  0.00    -0.144 A  
HETATM    9  C   UNL     1      -8.466   5.926  65.065  1.00  0.00    -0.111 A  
BRANCH   7  10
HETATM   10  C   UNL     1      -9.412   7.907  66.270  1.00  0.00    -0.220 C  
HETATM   11  C   UNL     1      -8.383   8.596  66.791  1.00  0.00    -0.108 C  
BRANCH  11  12
HETATM   12  C   UNL     1      -8.431  10.051  67.011  1.00  0.00    -0.125 A  
HETATM   13  C   UNL     1      -7.964  10.627  68.195  1.00  0.00    -0.113 A  
HETATM   14  C   UNL     1      -8.063  12.000  68.409  1.00  0.00    -0.154 A  
HETATM   15  C   UNL     1      -8.612  12.837  67.437  1.00  0.00    -0.194 A  
HETATM   16  C   UNL     1      -8.943  10.894  66.016  1.00  0.00    -0.200 A  
HETATM   17  C   UNL     1      -9.039  12.276  66.231  1.00  0.00    -0.125 A  
BRANCH  15  18
HETATM   18  O   UNL     1      -8.777  14.195  67.568  1.00  0.00    -0.181 OA 
BRANCH  18  19
HETATM   19  C   UNL     1      -7.781  14.835  68.368  1.00  0.00    -0.122 C  
BRANCH  19  20
HETATM   20  C   UNL     1      -6.414  14.782  67.708  1.00  0.00    -0.164 C  
BRANCH  20  21
HETATM   21  O   UNL     1      -6.377  15.827  66.734  1.00  0.00    -0.209 OA 
BRANCH  21  22
HETATM   22  C   UNL     1      -6.993  17.022  67.204  1.00  0.00    -0.179 C  
BRANCH  22  23
HETATM   23  C   UNL     1      -7.556  17.797  66.018  1.00  0.00    -0.220 C  
BRANCH  23  24
HETATM   24  O   UNL     1      -8.981  17.758  66.074  1.00  0.00    -0.497 OA 
BRANCH  24  25
HETATM   25  C   UNL     1      -9.502  18.730  66.979  1.00  0.00    -0.301 C  
HETATM   26  C   UNL     1      -9.358  20.110  66.365  1.00  0.00    -0.335 C  
HETATM   27  F   UNL     1      -9.853  21.040  67.224  1.00  0.00    -0.622 F  
ENDBRANCH  24  25
ENDBRANCH  23  24
ENDBRANCH  22  23
ENDBRANCH  21  22
ENDBRANCH  20  21
ENDBRANCH  19  20
ENDBRANCH  18  19
ENDBRANCH  15  18
ENDBRANCH  11  12
ENDBRANCH   7  10
ENDBRANCH   2   4
TORSDOF 11
ENDMDL
MODEL      222
REMARK 921   NORMALIZED FREE ENERGY PREDICTED BY IDOCK:   -2.75 KCAL/MOL
REMARK 922        TOTAL FREE ENERGY PREDICTED BY IDOCK:   -5.59 KCAL/MOL
REMARK 923 INTER-LIGAND FREE ENERGY PREDICTED BY IDOCK:   -4.91 KCAL/MOL
REMARK 924 INTRA-LIGAND FREE ENERGY PREDICTED BY IDOCK:   -0.69 KCAL/MOL
REMARK 927      BINDING AFFINITY PREDICTED BY RF-SCORE:    0.00 PKD
ROOT
HETATM    1  C   UNL     1      -9.564   1.553  70.753  1.00  0.00    -0.100 C  
HETATM    2  N   UNL     1      -8.686   1.993  69.677  1.00  0.00    -0.057 NA 
HETATM    3  H   UNL     1      -8.125   1.333  69.141  1.00  0.00     0.000 HD 
ENDROOT
BRANCH   2   4
HETATM    4  C   UNL     1      -8.651   3.373  69.417  1.00  0.00    -0.069 A  
HETATM    5  C   UNL     1      -7.524   3.917  68.791  1.00  0.00    -0.054 A  
HETATM    6  C   UNL     1      -7.428   5.292  68.548  1.00  0.00    -0.072 A  
HETATM    7  C   UNL     1      -8.481   6.148  68.883  1.00  0.00    -0.118 A  
HETATM    8  C   UNL     1      -9.735   4.223  69.660  1.00  0.00    -0.284 A  
HETATM    9  C   UNL     1      -9.647   5.597  69.417  1.00  0.00    -0.187 A  
BRANCH   7  10
HETATM   10  C   UNL     1      -8.279   7.597  68.784  1.00  0.00    -0.128 C  
HETATM   11  C   UNL     1      -7.104   8.212  68.560  1.00  0.00    -0.076 C  
BRANCH  11  12
HETATM   12  C   UNL     1      -6.992   9.668  68.377  1.00  0.00    -0.065 A  
HETATM   13  C   UNL     1      -6.633  10.511  69.431  1.00  0.00    -0.069 A  
HETATM   14  C   UNL     1      -6.580  11.893  69.255  1.00  0.00    -0.110 A  
HETATM   15  C   UNL     1      -6.865  12.466  68.015  1.00  0.00    -0.089 A  
HETATM   16  C   UNL     1      -7.236  10.238  67.120  1.00  0.00    -0.090 A  
HETATM   17  C   UNL     1      -7.179  11.627  66.943  1.00  0.00    -0.125 A  
BRANCH  15  18
HETATM   18  O   UNL     1      -6.865  13.814  67.752  1.00  0.00    -0.144 OA 
BRANCH  18  19
HETATM   19  C   UNL     1      -8.103  14.317  67.247  1.00  0.00    -0.178 C  
BRANCH  19  20
HETATM   20  C   UNL     1      -9.206  14.240  68.288  1.00  0.00    -0.197 C  
BRANCH  20  21
HETATM   21  O   UNL     1     -10.362  14.861  67.721  1.00  0.00    -0.241 OA 
BRANCH  21  22
HETATM   22  C   UNL     1     -11.546  14.564  68.456  1.00  0.00    -0.313 C  
BRANCH  22  23
HETATM   23  C   UNL     1     -11.965  15.795  69.252  1.00  0.00    -0.289 C  
BRANCH  23  24
HETATM   24  O   UNL     1     -11.590  15.614  70.616  1.00  0.00    -0.300 OA 
BRANCH  24  25
HETATM   25  C   UNL     1     -12.715  15.695  71.490  1.00  0.00    -0.457 C  
HETATM   26  C   UNL     1     -12.231  15.970  72.902  1.00  0.00    -0.517 C  
HETATM   27  F   UNL     1     -13.299  16.048  73.738  1.00  0.00    -0.577 F  
ENDBRANCH  24  25
ENDBRANCH  23  24
ENDBRANCH  22  23
ENDBRANCH  21  22
ENDBRANCH  20  21
ENDBRANCH  19  20
ENDBRANCH  18  19
ENDBRANCH  15  18
ENDBRANCH  11  12
ENDBRANCH   7  10
ENDBRANCH   2   4
TORSDOF 11
ENDMDL
MODEL      223
REMARK 921   NORMALIZED FREE ENERGY PREDICTED BY IDOCK:   -2.72 KCAL/MOL
REMARK 922        TOTAL FREE ENERGY PREDICTED BY IDOCK:   -5.54 KCAL/MOL
REMARK 923 INTER-LIGAND FREE ENERGY PREDICTED BY IDOCK:   -4.77 KCAL/MOL
REMARK 924 INTRA-LIGAND FREE ENERGY PREDICTED BY IDOCK:   -0.77 KCAL/MOL
REMARK 927      BINDING AFFINITY PREDICTED BY RF-SCORE:    0.00 PKD
ROOT
HETATM    1  C   UNL     1      -8.364   4.234  65.457  1.00  0.00    -0.110 C  
HETATM    2  N   UNL     1      -8.101   5.211  64.409  1.00  0.00    -0.115 NA 
HETATM    3  H   UNL     1      -7.865   4.926  63.459  1.00  0.00     0.000 HD 
ENDROOT
BRANCH   2   4
HETATM    4  C   UNL     1      -8.189   6.564  64.772  1.00  0.00    -0.073 A  
HETATM    5  C   UNL     1      -7.340   7.490  64.154  1.00  0.00    -0.091 A  
HETATM    6  C   UNL     1      -7.364   8.842  64.513  1.00  0.00    -0.102 A  
HETATM    7  C   UNL     1      -8.276   9.308  65.466  1.00  0.00    -0.125 A  
HETATM    8  C   UNL     1      -9.159   7.057  65.652  1.00  0.00     0.097 A  
HETATM    9  C   UNL     1      -9.190   8.408  66.013  1.00  0.00    -0.247 A  
BRANCH   7  10
HETATM   10  C   UNL     1      -8.155  10.687  65.950  1.00  0.00    -0.159 C  
HETATM   11  C   UNL     1      -8.212  11.075  67.236  1.00  0.00    -0.125 C  
BRANCH  11  12
HETATM   12  C   UNL     1      -7.986  12.467  67.656  1.00  0.00    -0.170 A  
HETATM   13  C   UNL     1      -6.813  13.150  67.326  1.00  0.00    -0.001 A  
HETATM   14  C   UNL     1      -6.593  14.451  67.774  1.00  0.00    -0.189 A  
HETATM   15  C   UNL     1      -7.548  15.112  68.548  1.00  0.00    -0.120 A  
HETATM   16  C   UNL     1      -8.966  13.144  68.397  1.00  0.00    -0.128 A  
HETATM   17  C   UNL     1      -8.744  14.454  68.844  1.00  0.00    -0.067 A  
BRANCH  15  18
HETATM   18  O   UNL     1      -7.408  16.380  69.057  1.00  0.00    -0.199 OA 
BRANCH  18  19
HETATM   19  C   UNL     1      -8.137  17.384  68.349  1.00  0.00    -0.264 C  
BRANCH  19  20
HETATM   20  C   UNL     1      -7.413  17.813  67.084  1.00  0.00    -0.194 C  
BRANCH  20  21
HETATM   21  O   UNL     1      -8.166  17.307  65.979  1.00  0.00    -0.488 OA 
BRANCH  21  22
HETATM   22  C   UNL     1      -9.533  17.093  66.313  1.00  0.00    -0.243 C  
BRANCH  22  23
HETATM   23  C   UNL     1      -9.927  15.669  65.936  1.00  0.00    -0.351 C  
BRANCH  23  24
HETATM   24  O   UNL     1     -11.298  15.656  65.542  1.00  0.00    -0.189 OA 
BRANCH  24  25
HETATM   25  C   UNL     1     -11.470  15.095  64.242  1.00  0.00    -0.136 C  
HETATM   26  C   UNL     1     -11.706  13.601  64.371  1.00  0.00    -0.411 C  
HETATM   27  F   UNL     1     -11.871  13.062  63.134  1.00  0.00    -0.565 F  
ENDBRANCH  24  25
ENDBRANCH  23  24
ENDBRANCH  22  23
ENDBRANCH  21  22
ENDBRANCH  20  21
ENDBRANCH  19  20
ENDBRANCH  18  19
ENDBRANCH  15  18
ENDBRANCH  11  12
ENDBRANCH   7  10
ENDBRANCH   2   4
TORSDOF 11
ENDMDL
MODEL      224
REMARK 921   NORMALIZED FREE ENERGY PREDICTED BY IDOCK:   -2.71 KCAL/MOL
REMARK 922        TOTAL FREE ENERGY PREDICTED BY IDOCK:   -5.53 KCAL/MOL
REMARK 923 INTER-LIGAND FREE ENERGY PREDICTED BY IDOCK:   -5.45 KCAL/MOL
REMARK 924 INTRA-LIGAND FREE ENERGY PREDICTED BY IDOCK:   -0.08 KCAL/MOL
REMARK 927      BINDING AFFINITY PREDICTED BY RF-SCORE:    0.00 PKD
ROOT
HETATM    1  C   UNL     1     -11.830  15.587  67.162  1.00  0.00     0.273 C  
HETATM    2  N   UNL     1     -10.942  14.529  66.702  1.00  0.00    -0.315 NA 
HETATM    3  H   UNL     1     -10.422  14.608  65.829  1.00  0.00     0.000 HD 
ENDROOT
BRANCH   2   4
HETATM    4  C   UNL     1     -10.839  13.393  67.521  1.00  0.00    -0.263 A  
HETATM    5  C   UNL     1     -11.820  13.165  68.493  1.00  0.00    -0.377 A  
HETATM    6  C   UNL     1     -11.736  12.069  69.358  1.00  0.00    -0.402 A  
HETATM    7  C   UNL     1     -10.693  11.146  69.237  1.00  0.00    -0.241 A  
HETATM    8  C   UNL     1      -9.855  12.414  67.347  1.00  0.00    -0.199 A  
HETATM    9  C   UNL     1      -9.767  11.314  68.206  1.00  0.00    -0.199 A  
BRANCH   7  10
HETATM   10  C   UNL     1     -10.532  10.114  70.267  1.00  0.00    -0.284 C  
HETATM   11  C   UNL     1     -11.355   9.071  70.467  1.00  0.00    -0.282 C  
BRANCH  11  12
HETATM   12  C   UNL     1     -11.079   8.020  71.461  1.00  0.00    -0.290 A  
HETATM   13  C   UNL     1     -11.797   6.822  71.477  1.00  0.00    -0.378 A  
HETATM   14  C   UNL     1     -11.558   5.859  72.455  1.00  0.00    -0.327 A  
HETATM   15  C   UNL     1     -10.580   6.058  73.431  1.00  0.00    -0.260 A  
HETATM   16  C   UNL     1     -10.067   8.204  72.413  1.00  0.00    -0.355 A  
HETATM   17  C   UNL     1      -9.825   7.233  73.395  1.00  0.00    -0.324 A  
BRANCH  15  18
HETATM   18  O   UNL     1     -10.293   5.181  74.448  1.00  0.00    -0.251 OA 
BRANCH  18  19
HETATM   19  C   UNL     1      -8.922   4.783  74.516  1.00  0.00    -0.110 C  
BRANCH  19  20
HETATM   20  C   UNL     1      -8.290   4.718  73.136  1.00  0.00    -0.100 C  
BRANCH  20  21
HETATM   21  O   UNL     1      -8.173   3.335  72.794  1.00  0.00    -0.077 OA 
BRANCH  21  22
HETATM   22  C   UNL     1      -9.441   2.728  72.567  1.00  0.00    -0.108 C  
BRANCH  22  23
HETATM   23  C   UNL     1      -9.876   2.995  71.130  1.00  0.00    -0.036 C  
BRANCH  23  24
HETATM   24  O   UNL     1      -8.744   3.425  70.377  1.00  0.00    -0.066 OA 
BRANCH  24  25
HETATM   25  C   UNL     1      -9.112   3.854  69.067  1.00  0.00    -0.137 C  
HETATM   26  C   UNL     1     -10.227   4.878  69.172  1.00  0.00    -0.116 C  
HETATM   27  F   UNL     1     -10.581   5.290  67.926  1.00  0.00    -0.230 F  
ENDBRANCH  24  25
ENDBRANCH  23  24
ENDBRANCH  22  23
ENDBRANCH  21  22
ENDBRANCH  20  21
ENDBRANCH  19  20
ENDBRANCH  18  19
ENDBRANCH  15  18
ENDBRANCH  11  12
ENDBRANCH   7  10
ENDBRANCH   2   4
TORSDOF 11
ENDMDL
MODEL      225
REMARK 921   NORMALIZED FREE ENERGY PREDICTED BY IDOCK:   -2.64 KCAL/MOL
REMARK 922        TOTAL FREE ENERGY PREDICTED BY IDOCK:   -5.42 KCAL/MOL
REMARK 923 INTER-LIGAND FREE ENERGY PREDICTED BY IDOCK:   -4.50 KCAL/MOL
REMARK 924 INTRA-LIGAND FREE ENERGY PREDICTED BY IDOCK:   -0.92 KCAL/MOL
REMARK 927      BINDING AFFINITY PREDICTED BY RF-SCORE:    0.00 PKD
ROOT
HETATM    1  C   UNL     1     -10.109  18.243  68.416  1.00  0.00    -0.391 C  
HETATM    2  N   UNL     1     -10.513  17.537  67.208  1.00  0.00    -0.342 NA 
HETATM    3  H   UNL     1     -10.892  18.032  66.401  1.00  0.00     0.000 HD 
ENDROOT
BRANCH   2   4
HETATM    4  C   UNL     1     -10.354  16.142  67.210  1.00  0.00    -0.287 A  
HETATM    5  C   UNL     1      -9.136  15.597  66.784  1.00  0.00    -0.281 A  
HETATM    6  C   UNL     1      -8.947  14.212  66.730  1.00  0.00    -0.229 A  
HETATM    7  C   UNL     1      -9.956  13.340  67.150  1.00  0.00    -0.238 A  
HETATM    8  C   UNL     1     -11.319  15.265  67.716  1.00  0.00    -0.331 A  
HETATM    9  C   UNL     1     -11.134  13.879  67.668  1.00  0.00    -0.295 A  
BRANCH   7  10
HETATM   10  C   UNL     1      -9.797  11.901  66.913  1.00  0.00    -0.217 C  
HETATM   11  C   UNL     1      -9.426  11.333  65.753  1.00  0.00    -0.252 C  
BRANCH  11  12
HETATM   12  C   UNL     1      -9.193   9.887  65.614  1.00  0.00    -0.245 A  
HETATM   13  C   UNL     1      -9.512   8.994  66.640  1.00  0.00    -0.251 A  
HETATM   14  C   UNL     1      -9.239   7.633  66.513  1.00  0.00    -0.220 A  
HETATM   15  C   UNL     1      -8.658   7.126  65.350  1.00  0.00    -0.032 A  
HETATM   16  C   UNL     1      -8.650   9.374  64.428  1.00  0.00    -0.214 A  
HETATM   17  C   UNL     1      -8.379   8.004  64.301  1.00  0.00    -0.005 A  
BRANCH  15  18
HETATM   18  O   UNL     1      -8.327   5.808  65.145  1.00  0.00    -0.139 OA 
BRANCH  18  19
HETATM   19  C   UNL     1      -9.249   5.089  64.324  1.00  0.00     0.123 C  
BRANCH  19  20
HETATM   20  C   UNL     1     -10.211   4.260  65.157  1.00  0.00    -0.211 C  
BRANCH  20  21
HETATM   21  O   UNL     1     -10.048   2.898  64.754  1.00  0.00    -0.000 OA 
BRANCH  21  22
HETATM   22  C   UNL     1     -10.577   2.656  63.454  1.00  0.00    -0.217 C  
BRANCH  22  23
HETATM   23  C   UNL     1      -9.526   1.945  62.608  1.00  0.00    -0.089 C  
BRANCH  23  24
HETATM   24  O   UNL     1      -8.486   1.473  63.463  1.00  0.00    -0.068 OA 
BRANCH  24  25
HETATM   25  C   UNL     1      -7.194   1.714  62.908  1.00  0.00    -0.031 C  
HETATM   26  C   UNL     1      -6.466   2.735  63.763  1.00  0.00    -0.030 C  
HETATM   27  F   UNL     1      -5.235   2.968  63.237  1.00  0.00    -0.006 F  
ENDBRANCH  24  25
ENDBRANCH  23  24
ENDBRANCH  22  23
ENDBRANCH  21  22
ENDBRANCH  20  21
ENDBRANCH  19  20
ENDBRANCH  18  19
ENDBRANCH  15  18
ENDBRANCH  11  12
ENDBRANCH   7  10
ENDBRANCH   2   4
TORSDOF 11
ENDMDL
MODEL      226
REMARK 921   NORMALIZED FREE ENERGY PREDICTED BY IDOCK:   -2.11 KCAL/MOL
REMARK 922        TOTAL FREE ENERGY PREDICTED BY IDOCK:   -4.54 KCAL/MOL
REMARK 923 INTER-LIGAND FREE ENERGY PREDICTED BY IDOCK:   -3.59 KCAL/MOL
REMARK 924 INTRA-LIGAND FREE ENERGY PREDICTED BY IDOCK:   -0.94 KCAL/MOL
REMARK 927      BINDING AFFINITY PREDICTED BY RF-SCORE:    0.00 PKD
ROOT
HETATM    1  C   UNL     1      -5.152  16.445  70.796  1.00  0.00    -0.202 C  
HETATM    2  N   UNL     1      -6.317  16.250  69.944  1.00  0.00    -0.176 NA 
HETATM    3  H   UNL     1      -6.981  17.003  69.763  1.00  0.00     0.000 HD 
ENDROOT
BRANCH   2   4
HETATM    4  C   UNL     1      -6.480  14.973  69.383  1.00  0.00    -0.135 A  
HETATM    5  C   UNL     1      -6.999  14.862  68.088  1.00  0.00    -0.132 A  
HETATM    6  C   UNL     1      -7.218  13.609  67.504  1.00  0.00    -0.169 A  
HETATM    7  C   UNL     1      -6.874  12.437  68.186  1.00  0.00    -0.081 A  
HETATM    8  C   UNL     1      -6.053  13.801  70.016  1.00  0.00    -0.142 A  
HETATM    9  C   UNL     1      -6.265  12.546  69.437  1.00  0.00    -0.113 A  
BRANCH   7  10
HETATM   10  C   UNL     1      -7.280  11.143  67.627  1.00  0.00    -0.094 C  
HETATM   11  C   UNL     1      -7.692  10.078  68.334  1.00  0.00    -0.084 C  
BRANCH  11  12
HETATM   12  C   UNL     1      -8.176   8.842  67.698  1.00  0.00    -0.110 A  
HETATM   13  C   UNL     1      -8.806   7.838  68.436  1.00  0.00    -0.130 A  
HETATM   14  C   UNL     1      -9.213   6.651  67.829  1.00  0.00    -0.111 A  
HETATM   15  C   UNL     1      -9.020   6.446  66.462  1.00  0.00    -0.145 A  
HETATM   16  C   UNL     1      -8.020   8.655  66.317  1.00  0.00    -0.102 A  
HETATM   17  C   UNL     1      -8.433   7.463  65.706  1.00  0.00    -0.149 A  
BRANCH  15  18
HETATM   18  O   UNL     1      -9.361   5.302  65.782  1.00  0.00    -0.160 OA 
BRANCH  18  19
HETATM   19  C   UNL     1     -10.127   4.368  66.545  1.00  0.00    -0.189 C  
BRANCH  19  20
HETATM   20  C   UNL     1      -9.322   3.125  66.880  1.00  0.00    -0.136 C  
BRANCH  20  21
HETATM   21  O   UNL     1      -8.733   3.340  68.165  1.00  0.00    -0.090 OA 
BRANCH  21  22
HETATM   22  C   UNL     1      -8.951   2.243  69.046  1.00  0.00    -0.112 C  
BRANCH  22  23
HETATM   23  C   UNL     1      -9.276   2.774  70.439  1.00  0.00    -0.136 C  
BRANCH  23  24
HETATM   24  O   UNL     1      -9.190   4.198  70.423  1.00  0.00    -0.100 OA 
BRANCH  24  25
HETATM   25  C   UNL     1     -10.405   4.807  70.856  1.00  0.00    -0.117 C  
HETATM   26  C   UNL     1     -10.192   5.425  72.226  1.00  0.00    -0.196 C  
HETATM   27  F   UNL     1     -11.347   6.007  72.643  1.00  0.00    -0.281 F  
ENDBRANCH  24  25
ENDBRANCH  23  24
ENDBRANCH  22  23
ENDBRANCH  21  22
ENDBRANCH  20  21
ENDBRANCH  19  20
ENDBRANCH  18  19
ENDBRANCH  15  18
ENDBRANCH  11  12
ENDBRANCH   7  10
ENDBRANCH   2   4
TORSDOF 11
ENDMDL
MODEL      227
REMARK 921   NORMALIZED FREE ENERGY PREDICTED BY IDOCK:   -1.93 KCAL/MOL
REMARK 922        TOTAL FREE ENERGY PREDICTED BY IDOCK:   -4.25 KCAL/MOL
REMARK 923 INTER-LIGAND FREE ENERGY PREDICTED BY IDOCK:   -4.21 KCAL/MOL
REMARK 924 INTRA-LIGAND FREE ENERGY PREDICTED BY IDOCK:   -0.04 KCAL/MOL
REMARK 927      BINDING AFFINITY PREDICTED BY RF-SCORE:    0.00 PKD
ROOT
HETATM    1  C   UNL     1     -13.102  11.899  63.371  1.00  0.00     0.056 C  
HETATM    2  N   UNL     1     -11.756  11.434  63.676  1.00  0.00    -0.540 NA 
HETATM    3  H   UNL     1     -11.399  10.552  63.309  1.00  0.00     0.000 HD 
ENDROOT
BRANCH   2   4
HETATM    4  C   UNL     1     -10.976  12.259  64.501  1.00  0.00    -0.315 A  
HETATM    5  C   UNL     1     -10.001  11.675  65.319  1.00  0.00    -0.292 A  
HETATM    6  C   UNL     1      -9.228  12.455  66.187  1.00  0.00    -0.103 A  
HETATM    7  C   UNL     1      -9.379  13.845  66.219  1.00  0.00    -0.180 A  
HETATM    8  C   UNL     1     -11.051  13.656  64.473  1.00  0.00    -0.396 A  
HETATM    9  C   UNL     1     -10.279  14.441  65.336  1.00  0.00    -0.408 A  
BRANCH   7  10
HETATM   10  C   UNL     1      -8.687  14.610  67.262  1.00  0.00    -0.224 C  
HETATM   11  C   UNL     1      -7.394  14.975  67.241  1.00  0.00    -0.195 C  
BRANCH  11  12
HETATM   12  C   UNL     1      -6.791  15.826  68.279  1.00  0.00    -0.121 A  
HETATM   13  C   UNL     1      -7.069  15.634  69.634  1.00  0.00    -0.160 A  
HETATM   14  C   UNL     1      -6.530  16.480  70.601  1.00  0.00     1.043 A  
HETATM   15  C   UNL     1      -5.683  17.529  70.241  1.00  0.00    -0.196 A  
HETATM   16  C   UNL     1      -5.907  16.852  67.918  1.00  0.00    -0.135 A  
HETATM   17  C   UNL     1      -5.363  17.701  68.893  1.00  0.00    -0.157 A  
BRANCH  15  18
HETATM   18  O   UNL     1      -5.128  18.429  71.118  1.00  0.00    -0.312 OA 
BRANCH  18  19
HETATM   19  C   UNL     1      -5.837  19.664  71.224  1.00  0.00    -0.172 C  
BRANCH  19  20
HETATM   20  C   UNL     1      -6.425  20.089  69.889  1.00  0.00    -0.327 C  
BRANCH  20  21
HETATM   21  O   UNL     1      -7.797  19.685  69.887  1.00  0.00     0.157 OA 
BRANCH  21  22
HETATM   22  C   UNL     1      -8.381  19.774  68.591  1.00  0.00    -0.193 C  
BRANCH  22  23
HETATM   23  C   UNL     1      -7.512  20.665  67.709  1.00  0.00    -0.208 C  
BRANCH  23  24
HETATM   24  O   UNL     1      -7.759  20.343  66.342  1.00  0.00    -0.242 OA 
BRANCH  24  25
HETATM   25  C   UNL     1      -8.869  19.458  66.199  1.00  0.00    -0.283 C  
HETATM   26  C   UNL     1      -9.958  20.148  65.399  1.00  0.00     0.213 C  
HETATM   27  F   UNL     1     -11.018  19.308  65.260  1.00  0.00    -0.520 F  
ENDBRANCH  24  25
ENDBRANCH  23  24
ENDBRANCH  22  23
ENDBRANCH  21  22
ENDBRANCH  20  21
ENDBRANCH  19  20
ENDBRANCH  18  19
ENDBRANCH  15  18
ENDBRANCH  11  12
ENDBRANCH   7  10
ENDBRANCH   2   4
TORSDOF 11
ENDMDL
MODEL      228
REMARK 921   NORMALIZED FREE ENERGY PREDICTED BY IDOCK:   -1.82 KCAL/MOL
REMARK 922        TOTAL FREE ENERGY PREDICTED BY IDOCK:   -4.06 KCAL/MOL
REMARK 923 INTER-LIGAND FREE ENERGY PREDICTED BY IDOCK:   -3.14 KCAL/MOL
REMARK 924 INTRA-LIGAND FREE ENERGY PREDICTED BY IDOCK:   -0.92 KCAL/MOL
REMARK 927      BINDING AFFINITY PREDICTED BY RF-SCORE:    0.00 PKD
ROOT
HETATM    1  C   UNL     1     -10.142  15.480  69.709  1.00  0.00    -0.285 C  
HETATM    2  N   UNL     1      -8.930  15.256  68.934  1.00  0.00    -0.196 NA 
HETATM    3  H   UNL     1      -8.169  15.935  68.922  1.00  0.00     0.000 HD 
ENDROOT
BRANCH   2   4
HETATM    4  C   UNL     1      -8.861  14.060  68.203  1.00  0.00    -0.182 A  
HETATM    5  C   UNL     1     -10.021  13.292  68.046  1.00  0.00    -0.233 A  
HETATM    6  C   UNL     1      -9.991  12.073  67.360  1.00  0.00    -0.200 A  
HETATM    7  C   UNL     1      -8.807  11.617  66.772  1.00  0.00    -0.184 A  
HETATM    8  C   UNL     1      -7.708  13.642  67.530  1.00  0.00    -0.183 A  
HETATM    9  C   UNL     1      -7.672  12.425  66.841  1.00  0.00     0.016 A  
BRANCH   7  10
HETATM   10  C   UNL     1      -8.764  10.259  66.220  1.00  0.00    -0.157 C  
HETATM   11  C   UNL     1      -7.834   9.785  65.373  1.00  0.00    -0.122 C  
BRANCH  11  12
HETATM   12  C   UNL     1      -7.801   8.380  64.935  1.00  0.00    -0.121 A  
HETATM   13  C   UNL     1      -6.988   7.963  63.879  1.00  0.00    -0.063 A  
HETATM   14  C   UNL     1      -7.005   6.639  63.443  1.00  0.00    -0.052 A  
HETATM   15  C   UNL     1      -7.820   5.693  64.066  1.00  0.00    -0.112 A  
HETATM   16  C   UNL     1      -8.588   7.422  65.590  1.00  0.00    -0.128 A  
HETATM   17  C   UNL     1      -8.602   6.090  65.153  1.00  0.00    -0.073 A  
BRANCH  15  18
HETATM   18  O   UNL     1      -7.925   4.376  63.690  1.00  0.00    -0.084 OA 
BRANCH  18  19
HETATM   19  C   UNL     1      -6.711   3.631  63.803  1.00  0.00    -0.043 C  
BRANCH  19  20
HETATM   20  C   UNL     1      -6.663   2.832  65.094  1.00  0.00    -0.040 C  
BRANCH  20  21
HETATM   21  O   UNL     1      -7.832   2.009  65.122  1.00  0.00    -0.071 OA 
BRANCH  21  22
HETATM   22  C   UNL     1      -8.605   2.216  66.300  1.00  0.00    -0.112 C  
BRANCH  22  23
HETATM   23  C   UNL     1      -7.892   1.579  67.488  1.00  0.00    -0.059 C  
BRANCH  23  24
HETATM   24  O   UNL     1      -8.642   1.842  68.673  1.00  0.00    -0.056 OA 
BRANCH  24  25
HETATM   25  C   UNL     1      -8.447   3.176  69.138  1.00  0.00    -0.063 C  
HETATM   26  C   UNL     1      -9.518   3.510  70.160  1.00  0.00    -0.182 C  
HETATM   27  F   UNL     1      -9.336   4.781  70.606  1.00  0.00    -0.161 F  
ENDBRANCH  24  25
ENDBRANCH  23  24
ENDBRANCH  22  23
ENDBRANCH  21  22
ENDBRANCH  20  21
ENDBRANCH  19  20
ENDBRANCH  18  19
ENDBRANCH  15  18
ENDBRANCH  11  12
ENDBRANCH   7  10
ENDBRANCH   2   4
TORSDOF 11
ENDMDL
MODEL      229
REMARK 921   NORMALIZED FREE ENERGY PREDICTED BY IDOCK:   -1.75 KCAL/MOL
REMARK 922        TOTAL FREE ENERGY PREDICTED BY IDOCK:   -3.95 KCAL/MOL
REMARK 923 INTER-LIGAND FREE ENERGY PREDICTED BY IDOCK:   -4.29 KCAL/MOL
REMARK 924 INTRA-LIGAND FREE ENERGY PREDICTED BY IDOCK:    0.34 KCAL/MOL
REMARK 927      BINDING AFFINITY PREDICTED BY RF-SCORE:    0.00 PKD
ROOT
HETATM    1  C   UNL     1     -11.557  17.156  71.614  1.00  0.00     1.205 C  
HETATM    2  N   UNL     1     -12.298  15.947  71.282  1.00  0.00    -0.507 NA 
HETATM    3  H   UNL     1     -13.113  15.655  71.821  1.00  0.00     0.000 HD 
ENDROOT
BRANCH   2   4
HETATM    4  C   UNL     1     -11.834  15.205  70.185  1.00  0.00    -0.313 A  
HETATM    5  C   UNL     1     -12.164  13.847  70.096  1.00  0.00    -0.425 A  
HETATM    6  C   UNL     1     -11.690  13.059  69.041  1.00  0.00    -0.376 A  
HETATM    7  C   UNL     1     -10.915  13.623  68.024  1.00  0.00    -0.270 A  
HETATM    8  C   UNL     1     -11.139  15.778  69.114  1.00  0.00    -0.283 A  
HETATM    9  C   UNL     1     -10.666  14.996  68.056  1.00  0.00    -0.262 A  
BRANCH   7  10
HETATM   10  C   UNL     1     -10.286  12.740  67.036  1.00  0.00    -0.240 C  
HETATM   11  C   UNL     1     -10.933  11.896  66.214  1.00  0.00    -0.345 C  
BRANCH  11  12
HETATM   12  C   UNL     1     -10.242  11.109  65.180  1.00  0.00    -0.347 A  
HETATM   13  C   UNL     1     -10.370  11.412  63.822  1.00  0.00    -0.447 A  
HETATM   14  C   UNL     1      -9.750  10.627  62.853  1.00  0.00    -0.329 A  
HETATM   15  C   UNL     1      -8.969   9.529  63.215  1.00  0.00    -0.182 A  
HETATM   16  C   UNL     1      -9.423  10.033  65.548  1.00  0.00    -0.296 A  
HETATM   17  C   UNL     1      -8.797   9.245  64.571  1.00  0.00    -0.203 A  
BRANCH  15  18
HETATM   18  O   UNL     1      -8.344   8.682  62.332  1.00  0.00    -0.183 OA 
BRANCH  18  19
HETATM   19  C   UNL     1      -8.039   7.393  62.865  1.00  0.00    -0.063 C  
BRANCH  19  20
HETATM   20  C   UNL     1      -6.612   7.322  63.380  1.00  0.00    -0.053 C  
BRANCH  20  21
HETATM   21  O   UNL     1      -6.487   6.096  64.104  1.00  0.00    -0.032 OA 
BRANCH  21  22
HETATM   22  C   UNL     1      -5.744   6.257  65.308  1.00  0.00    -0.022 C  
BRANCH  22  23
HETATM   23  C   UNL     1      -6.695   6.199  66.498  1.00  0.00    -0.060 C  
BRANCH  23  24
HETATM   24  O   UNL     1      -7.419   7.426  66.573  1.00  0.00    -0.081 OA 
BRANCH  24  25
HETATM   25  C   UNL     1      -6.725   8.404  67.345  1.00  0.00    -0.063 C  
HETATM   26  C   UNL     1      -6.353   9.573  66.452  1.00  0.00    -0.069 C  
HETATM   27  F   UNL     1      -5.691  10.508  67.184  1.00  0.00    -0.041 F  
ENDBRANCH  24  25
ENDBRANCH  23  24
ENDBRANCH  22  23
ENDBRANCH  21  22
ENDBRANCH  20  21
ENDBRANCH  19  20
ENDBRANCH  18  19
ENDBRANCH  15  18
ENDBRANCH  11  12
ENDBRANCH   7  10
ENDBRANCH   2   4
TORSDOF 11
ENDMDL
MODEL      230
REMARK 921   NORMALIZED FREE ENERGY PREDICTED BY IDOCK:   -1.45 KCAL/MOL
REMARK 922        TOTAL FREE ENERGY PREDICTED BY IDOCK:   -3.46 KCAL/MOL
REMARK 923 INTER-LIGAND FREE ENERGY PREDICTED BY IDOCK:   -2.63 KCAL/MOL
REMARK 924 INTRA-LIGAND FREE ENERGY PREDICTED BY IDOCK:   -0.83 KCAL/MOL
REMARK 927      BINDING AFFINITY PREDICTED BY RF-SCORE:    0.00 PKD
ROOT
HETATM    1  C   UNL     1     -13.182  16.611  74.511  1.00  0.00     1.184 C  
HETATM    2  N   UNL     1     -13.507  16.715  73.095  1.00  0.00     0.286 NA 
HETATM    3  H   UNL     1     -14.114  17.453  72.738  1.00  0.00     0.000 HD 
ENDROOT
BRANCH   2   4
HETATM    4  C   UNL     1     -12.945  15.748  72.247  1.00  0.00    -0.447 A  
HETATM    5  C   UNL     1     -12.031  16.153  71.267  1.00  0.00    -0.402 A  
HETATM    6  C   UNL     1     -11.477  15.230  70.373  1.00  0.00    -0.330 A  
HETATM    7  C   UNL     1     -11.787  13.870  70.472  1.00  0.00    -0.317 A  
HETATM    8  C   UNL     1     -13.175  14.376  72.396  1.00  0.00    -0.528 A  
HETATM    9  C   UNL     1     -12.621  13.448  71.507  1.00  0.00    -0.331 A  
BRANCH   7  10
HETATM   10  C   UNL     1     -11.336  12.959  69.414  1.00  0.00    -0.265 C  
HETATM   11  C   UNL     1     -10.115  12.405  69.325  1.00  0.00     0.435 C  
BRANCH  11  12
HETATM   12  C   UNL     1      -9.763  11.423  68.286  1.00  0.00    -0.202 A  
HETATM   13  C   UNL     1      -9.908  11.712  66.928  1.00  0.00    -0.218 A  
HETATM   14  C   UNL     1      -9.617  10.754  65.958  1.00  0.00    -0.244 A  
HETATM   15  C   UNL     1      -9.155   9.488  66.320  1.00  0.00    -0.163 A  
HETATM   16  C   UNL     1      -9.257  10.168  68.651  1.00  0.00    -0.157 A  
HETATM   17  C   UNL     1      -8.962   9.206  67.674  1.00  0.00    -0.130 A  
BRANCH  15  18
HETATM   18  O   UNL     1      -8.870   8.473  65.440  1.00  0.00    -0.179 OA 
BRANCH  18  19
HETATM   19  C   UNL     1      -7.544   8.507  64.909  1.00  0.00    -0.098 C  
BRANCH  19  20
HETATM   20  C   UNL     1      -7.210   7.232  64.155  1.00  0.00    -0.076 C  
BRANCH  20  21
HETATM   21  O   UNL     1      -8.377   6.863  63.416  1.00  0.00     0.036 OA 
BRANCH  21  22
HETATM   22  C   UNL     1      -8.717   5.492  63.599  1.00  0.00     0.132 C  
BRANCH  22  23
HETATM   23  C   UNL     1      -7.800   4.883  64.655  1.00  0.00    -0.090 C  
BRANCH  23  24
HETATM   24  O   UNL     1      -8.550   3.957  65.440  1.00  0.00    -0.111 OA 
BRANCH  24  25
HETATM   25  C   UNL     1      -8.661   4.382  66.797  1.00  0.00    -0.112 C  
HETATM   26  C   UNL     1     -10.128   4.453  67.179  1.00  0.00    -0.072 C  
HETATM   27  F   UNL     1     -10.239   4.858  68.471  1.00  0.00    -0.232 F  
ENDBRANCH  24  25
ENDBRANCH  23  24
ENDBRANCH  22  23
ENDBRANCH  21  22
ENDBRANCH  20  21
ENDBRANCH  19  20
ENDBRANCH  18  19
ENDBRANCH  15  18
ENDBRANCH  11  12
ENDBRANCH   7  10
ENDBRANCH   2   4
TORSDOF 11
ENDMDL
MODEL      231
REMARK 921   NORMALIZED FREE ENERGY PREDICTED BY IDOCK:   -1.35 KCAL/MOL
REMARK 922        TOTAL FREE ENERGY PREDICTED BY IDOCK:   -3.29 KCAL/MOL
REMARK 923 INTER-LIGAND FREE ENERGY PREDICTED BY IDOCK:   -4.11 KCAL/MOL
REMARK 924 INTRA-LIGAND FREE ENERGY PREDICTED BY IDOCK:    0.81 KCAL/MOL
REMARK 927      BINDING AFFINITY PREDICTED BY RF-SCORE:    0.00 PKD
ROOT
HETATM    1  C   UNL     1     -13.091  11.804  63.302  1.00  0.00     0.246 C  
HETATM    2  N   UNL     1     -11.877  11.226  63.861  1.00  0.00    -0.233 NA 
HETATM    3  H   UNL     1     -11.629  10.249  63.706  1.00  0.00     0.000 HD 
ENDROOT
BRANCH   2   4
HETATM    4  C   UNL     1     -11.065  12.080  64.624  1.00  0.00    -0.322 A  
HETATM    5  C   UNL     1     -10.229  11.528  65.602  1.00  0.00    -0.292 A  
HETATM    6  C   UNL     1      -9.433  12.344  66.413  1.00  0.00    -0.240 A  
HETATM    7  C   UNL     1      -9.418  13.731  66.230  1.00  0.00    -0.221 A  
HETATM    8  C   UNL     1     -10.970  13.456  64.387  1.00  0.00    -0.413 A  
HETATM    9  C   UNL     1     -10.174  14.276  65.192  1.00  0.00    -0.414 A  
BRANCH   7  10
HETATM   10  C   UNL     1      -8.717  14.569  67.208  1.00  0.00    -0.225 C  
HETATM   11  C   UNL     1      -7.439  14.973  67.122  1.00  0.00    -0.145 C  
BRANCH  11  12
HETATM   12  C   UNL     1      -6.829  15.895  68.095  1.00  0.00    -0.129 A  
HETATM   13  C   UNL     1      -7.182  15.869  69.446  1.00  0.00    -0.214 A  
HETATM   14  C   UNL     1      -6.633  16.781  70.346  1.00  0.00     0.880 A  
HETATM   15  C   UNL     1      -5.703  17.731  69.922  1.00  0.00    -0.249 A  
HETATM   16  C   UNL     1      -5.863  16.819  67.675  1.00  0.00    -0.166 A  
HETATM   17  C   UNL     1      -5.309  17.734  68.582  1.00  0.00    -0.149 A  
BRANCH  15  18
HETATM   18  O   UNL     1      -5.130  18.686  70.727  1.00  0.00    -0.221 OA 
BRANCH  18  19
HETATM   19  C   UNL     1      -5.406  20.031  70.334  1.00  0.00    -0.248 C  
BRANCH  19  20
HETATM   20  C   UNL     1      -6.381  20.086  69.171  1.00  0.00    -0.325 C  
BRANCH  20  21
HETATM   21  O   UNL     1      -7.696  19.980  69.720  1.00  0.00     0.085 OA 
BRANCH  21  22
HETATM   22  C   UNL     1      -8.599  19.330  68.831  1.00  0.00    -0.296 C  
BRANCH  22  23
HETATM   23  C   UNL     1     -10.012  19.414  69.398  1.00  0.00    -0.140 C  
BRANCH  23  24
HETATM   24  O   UNL     1     -10.840  18.473  68.717  1.00  0.00     0.213 OA 
BRANCH  24  25
HETATM   25  C   UNL     1     -10.199  17.207  68.578  1.00  0.00    -0.346 C  
HETATM   26  C   UNL     1     -11.056  16.139  69.232  1.00  0.00    -0.327 C  
HETATM   27  F   UNL     1     -10.449  14.930  69.101  1.00  0.00    -0.216 F  
ENDBRANCH  24  25
ENDBRANCH  23  24
ENDBRANCH  22  23
ENDBRANCH  21  22
ENDBRANCH  20  21
ENDBRANCH  19  20
ENDBRANCH  18  19
ENDBRANCH  15  18
ENDBRANCH  11  12
ENDBRANCH   7  10
ENDBRANCH   2   4
TORSDOF 11
ENDMDL
MODEL      232
REMARK 921   NORMALIZED FREE ENERGY PREDICTED BY IDOCK:   -0.97 KCAL/MOL
REMARK 922        TOTAL FREE ENERGY PREDICTED BY IDOCK:   -2.66 KCAL/MOL
REMARK 923 INTER-LIGAND FREE ENERGY PREDICTED BY IDOCK:   -1.72 KCAL/MOL
REMARK 924 INTRA-LIGAND FREE ENERGY PREDICTED BY IDOCK:   -0.94 KCAL/MOL
REMARK 927      BINDING AFFINITY PREDICTED BY RF-SCORE:    0.00 PKD
ROOT
HETATM    1  C   UNL     1      -5.216  15.659  71.466  1.00  0.00    -0.008 C  
HETATM    2  N   UNL     1      -6.384  15.316  70.667  1.00  0.00     0.076 NA 
HETATM    3  H   UNL     1      -7.275  15.798  70.787  1.00  0.00     0.000 HD 
ENDROOT
BRANCH   2   4
HETATM    4  C   UNL     1      -6.224  14.288  69.724  1.00  0.00    -0.139 A  
HETATM    5  C   UNL     1      -6.551  14.537  68.386  1.00  0.00    -0.103 A  
HETATM    6  C   UNL     1      -6.446  13.530  67.420  1.00  0.00     0.017 A  
HETATM    7  C   UNL     1      -5.962  12.264  67.762  1.00  0.00    -0.098 A  
HETATM    8  C   UNL     1      -5.653  13.049  70.036  1.00  0.00    -0.123 A  
HETATM    9  C   UNL     1      -5.542  12.040  69.074  1.00  0.00    -0.052 A  
BRANCH   7  10
HETATM   10  C   UNL     1      -6.034  11.183  66.772  1.00  0.00    -0.116 C  
HETATM   11  C   UNL     1      -6.292   9.892  67.038  1.00  0.00    -0.065 C  
BRANCH  11  12
HETATM   12  C   UNL     1      -6.444   8.878  65.981  1.00  0.00    -0.061 A  
HETATM   13  C   UNL     1      -6.912   7.593  66.263  1.00  0.00    -0.066 A  
HETATM   14  C   UNL     1      -7.003   6.629  65.260  1.00  0.00    -0.052 A  
HETATM   15  C   UNL     1      -6.646   6.931  63.945  1.00  0.00    -0.042 A  
HETATM   16  C   UNL     1      -6.126   9.196  64.654  1.00  0.00    -0.070 A  
HETATM   17  C   UNL     1      -6.220   8.227  63.645  1.00  0.00    -0.072 A  
BRANCH  15  18
HETATM   18  O   UNL     1      -6.675   6.042  62.899  1.00  0.00    -0.038 OA 
BRANCH  18  19
HETATM   19  C   UNL     1      -7.699   5.051  62.994  1.00  0.00    -0.068 C  
BRANCH  19  20
HETATM   20  C   UNL     1      -7.125   3.646  62.942  1.00  0.00    -0.044 C  
BRANCH  20  21
HETATM   21  O   UNL     1      -6.835   3.262  64.289  1.00  0.00    -0.041 OA 
BRANCH  21  22
HETATM   22  C   UNL     1      -7.973   2.717  64.949  1.00  0.00    -0.082 C  
BRANCH  22  23
HETATM   23  C   UNL     1      -7.693   2.631  66.446  1.00  0.00    -0.076 C  
BRANCH  23  24
HETATM   24  O   UNL     1      -8.932   2.675  67.151  1.00  0.00    -0.133 OA 
BRANCH  24  25
HETATM   25  C   UNL     1      -8.749   3.032  68.520  1.00  0.00    -0.101 C  
HETATM   26  C   UNL     1      -8.606   4.539  68.629  1.00  0.00    -0.089 C  
HETATM   27  F   UNL     1      -8.431   4.883  69.932  1.00  0.00    -0.076 F  
ENDBRANCH  24  25
ENDBRANCH  23  24
ENDBRANCH  22  23
ENDBRANCH  21  22
ENDBRANCH  20  21
ENDBRANCH  19  20
ENDBRANCH  18  19
ENDBRANCH  15  18
ENDBRANCH  11  12
ENDBRANCH   7  10
ENDBRANCH   2   4
TORSDOF 11
ENDMDL
MODEL      233
REMARK 921   NORMALIZED FREE ENERGY PREDICTED BY IDOCK:    0.60 KCAL/MOL
REMARK 922        TOTAL FREE ENERGY PREDICTED BY IDOCK:   -0.09 KCAL/MOL
REMARK 923 INTER-LIGAND FREE ENERGY PREDICTED BY IDOCK:   -4.02 KCAL/MOL
REMARK 924 INTRA-LIGAND FREE ENERGY PREDICTED BY IDOCK:    3.92 KCAL/MOL
REMARK 927      BINDING AFFINITY PREDICTED BY RF-SCORE:    0.00 PKD
ROOT
HETATM    1  C   UNL     1      -9.000   3.241  73.125  1.00  0.00    -0.087 C  
HETATM    2  N   UNL     1     -10.338   3.681  72.757  1.00  0.00    -0.165 NA 
HETATM    3  H   UNL     1     -11.169   3.156  73.031  1.00  0.00     0.000 HD 
ENDROOT
BRANCH   2   4
HETATM    4  C   UNL     1     -10.428   4.863  72.004  1.00  0.00    -0.176 A  
HETATM    5  C   UNL     1     -10.965   4.806  70.712  1.00  0.00     0.678 A  
HETATM    6  C   UNL     1     -11.037   5.951  69.911  1.00  0.00    -0.417 A  
HETATM    7  C   UNL     1     -10.618   7.191  70.404  1.00  0.00    -0.242 A  
HETATM    8  C   UNL     1     -10.101   6.122  72.519  1.00  0.00    -0.197 A  
HETATM    9  C   UNL     1     -10.173   7.270  71.724  1.00  0.00    -0.211 A  
BRANCH   7  10
HETATM   10  C   UNL     1     -10.536   8.331  69.484  1.00  0.00    -0.216 C  
HETATM   11  C   UNL     1     -10.834   8.304  68.174  1.00  0.00     0.015 C  
BRANCH  11  12
HETATM   12  C   UNL     1     -10.821   9.511  67.332  1.00  0.00    -0.215 A  
HETATM   13  C   UNL     1     -11.531  10.659  67.689  1.00  0.00    -0.169 A  
HETATM   14  C   UNL     1     -11.550  11.777  66.856  1.00  0.00    -0.310 A  
HETATM   15  C   UNL     1     -10.842  11.783  65.653  1.00  0.00    -0.292 A  
HETATM   16  C   UNL     1     -10.074   9.531  66.145  1.00  0.00    -0.326 A  
HETATM   17  C   UNL     1     -10.091  10.656  65.310  1.00  0.00    -0.363 A  
BRANCH  15  18
HETATM   18  O   UNL     1     -10.823  12.823  64.756  1.00  0.00    -0.284 OA 
BRANCH  18  19
HETATM   19  C   UNL     1     -11.949  13.698  64.843  1.00  0.00    -0.383 C  
BRANCH  19  20
HETATM   20  C   UNL     1     -11.685  14.859  65.787  1.00  0.00    -0.179 C  
BRANCH  20  21
HETATM   21  O   UNL     1     -12.136  14.457  67.082  1.00  0.00    -0.414 OA 
BRANCH  21  22
HETATM   22  C   UNL     1     -11.097  14.512  68.054  1.00  0.00    -0.276 C  
BRANCH  22  23
HETATM   23  C   UNL     1     -10.772  13.098  68.523  1.00  0.00    -0.259 C  
BRANCH  23  24
HETATM   24  O   UNL     1      -9.359  12.972  68.670  1.00  0.00    -0.123 OA 
BRANCH  24  25
HETATM   25  C   UNL     1      -8.658  13.580  67.586  1.00  0.00    -0.185 C  
HETATM   26  C   UNL     1      -7.253  13.011  67.519  1.00  0.00    -0.151 C  
HETATM   27  F   UNL     1      -6.582  13.587  66.487  1.00  0.00     0.929 F  
ENDBRANCH  24  25
ENDBRANCH  23  24
ENDBRANCH  22  23
ENDBRANCH  21  22
ENDBRANCH  20  21
ENDBRANCH  19  20
ENDBRANCH  18  19
ENDBRANCH  15  18
ENDBRANCH  11  12
ENDBRANCH   7  10
ENDBRANCH   2   4
TORSDOF 11
ENDMDL
MODEL      234
REMARK 921   NORMALIZED FREE ENERGY PREDICTED BY IDOCK:    3.60 KCAL/MOL
REMARK 922        TOTAL FREE ENERGY PREDICTED BY IDOCK:    4.85 KCAL/MOL
REMARK 923 INTER-LIGAND FREE ENERGY PREDICTED BY IDOCK:    5.13 KCAL/MOL
REMARK 924 INTRA-LIGAND FREE ENERGY PREDICTED BY IDOCK:   -0.28 KCAL/MOL
REMARK 927      BINDING AFFINITY PREDICTED BY RF-SCORE:    0.00 PKD
ROOT
HETATM    1  C   UNL     1      -9.439   4.551  64.693  1.00  0.00    -0.103 C  
HETATM    2  N   UNL     1     -10.166   5.703  64.177  1.00  0.00     1.620 NA 
HETATM    3  H   UNL     1     -10.906   5.601  63.482  1.00  0.00     0.000 HD 
ENDROOT
BRANCH   2   4
HETATM    4  C   UNL     1      -9.798   6.959  64.683  1.00  0.00     3.209 A  
HETATM    5  C   UNL     1      -8.683   7.609  64.141  1.00  0.00     0.535 A  
HETATM    6  C   UNL     1      -8.255   8.844  64.641  1.00  0.00    -0.163 A  
HETATM    7  C   UNL     1      -8.965   9.481  65.664  1.00  0.00    -0.224 A  
HETATM    8  C   UNL     1     -10.553   7.648  65.638  1.00  0.00     2.893 A  
HETATM    9  C   UNL     1     -10.132   8.884  66.140  1.00  0.00    -0.209 A  
BRANCH   7  10
HETATM   10  C   UNL     1      -8.392  10.679  66.288  1.00  0.00    -0.155 C  
HETATM   11  C   UNL     1      -7.783  10.726  67.484  1.00  0.00    -0.105 C  
BRANCH  11  12
HETATM   12  C   UNL     1      -7.146  11.946  68.005  1.00  0.00    -0.084 A  
HETATM   13  C   UNL     1      -7.060  13.110  67.238  1.00  0.00    -0.033 A  
HETATM   14  C   UNL     1      -6.410  14.242  67.726  1.00  0.00    -0.168 A  
HETATM   15  C   UNL     1      -5.845  14.247  69.002  1.00  0.00    -0.089 A  
HETATM   16  C   UNL     1      -6.618  11.963  69.303  1.00  0.00    -0.110 A  
HETATM   17  C   UNL     1      -5.966  13.103  69.794  1.00  0.00    -0.127 A  
BRANCH  15  18
HETATM   18  O   UNL     1      -5.162  15.302  69.556  1.00  0.00    -0.093 OA 
BRANCH  18  19
HETATM   19  C   UNL     1      -5.997  16.341  70.069  1.00  0.00    -0.167 C  
BRANCH  19  20
HETATM   20  C   UNL     1      -5.228  17.638  70.250  1.00  0.00    -0.241 C  
BRANCH  20  21
HETATM   21  O   UNL     1      -6.010  18.676  69.654  1.00  0.00    -0.243 OA 
BRANCH  21  22
HETATM   22  C   UNL     1      -7.408  18.453  69.811  1.00  0.00     0.521 C  
BRANCH  22  23
HETATM   23  C   UNL     1      -8.001  18.020  68.475  1.00  0.00    -0.303 C  
BRANCH  23  24
HETATM   24  O   UNL     1      -8.532  19.166  67.812  1.00  0.00    -0.288 OA 
BRANCH  24  25
HETATM   25  C   UNL     1      -7.553  19.807  66.996  1.00  0.00    -0.260 C  
HETATM   26  C   UNL     1      -7.114  18.853  65.900  1.00  0.00    -0.260 C  
HETATM   27  F   UNL     1      -6.180  19.460  65.121  1.00  0.00    -0.223 F  
ENDBRANCH  24  25
ENDBRANCH  23  24
ENDBRANCH  22  23
ENDBRANCH  21  22
ENDBRANCH  20  21
ENDBRANCH  19  20
ENDBRANCH  18  19
ENDBRANCH  15  18
ENDBRANCH  11  12
ENDBRANCH   7  10
ENDBRANCH   2   4
TORSDOF 11
ENDMDL
MODEL      235
REMARK 921   NORMALIZED FREE ENERGY PREDICTED BY IDOCK:    5.07 KCAL/MOL
REMARK 922        TOTAL FREE ENERGY PREDICTED BY IDOCK:    7.25 KCAL/MOL
REMARK 923 INTER-LIGAND FREE ENERGY PREDICTED BY IDOCK:    8.12 KCAL/MOL
REMARK 924 INTRA-LIGAND FREE ENERGY PREDICTED BY IDOCK:   -0.87 KCAL/MOL
REMARK 927      BINDING AFFINITY PREDICTED BY RF-SCORE:    0.00 PKD
ROOT
HETATM    1  C   UNL     1     -13.250  10.262  62.660  1.00  0.00     7.527 C  
HETATM    2  N   UNL     1     -11.860  10.694  62.618  1.00  0.00     1.046 NA 
HETATM    3  H   UNL     1     -11.140  10.138  62.157  1.00  0.00     0.000 HD 
ENDROOT
BRANCH   2   4
HETATM    4  C   UNL     1     -11.560  11.914  63.244  1.00  0.00    -0.286 A  
HETATM    5  C   UNL     1     -10.322  12.064  63.880  1.00  0.00    -0.433 A  
HETATM    6  C   UNL     1      -9.996  13.248  64.552  1.00  0.00    -0.117 A  
HETATM    7  C   UNL     1     -10.884  14.328  64.560  1.00  0.00    -0.305 A  
HETATM    8  C   UNL     1     -12.398  13.032  63.178  1.00  0.00    -0.235 A  
HETATM    9  C   UNL     1     -12.077  14.219  63.845  1.00  0.00    -0.247 A  
BRANCH   7  10
HETATM   10  C   UNL     1     -10.593  15.481  65.420  1.00  0.00    -0.428 C  
HETATM   11  C   UNL     1     -11.017  15.643  66.684  1.00  0.00    -0.212 C  
BRANCH  11  12
HETATM   12  C   UNL     1     -10.606  16.782  67.520  1.00  0.00    -0.309 A  
HETATM   13  C   UNL     1     -10.224  18.002  66.957  1.00  0.00    -0.367 A  
HETATM   14  C   UNL     1      -9.789  19.055  67.760  1.00  0.00    -0.398 A  
HETATM   15  C   UNL     1      -9.744  18.924  69.148  1.00  0.00    -0.217 A  
HETATM   16  C   UNL     1     -10.604  16.663  68.917  1.00  0.00    -0.337 A  
HETATM   17  C   UNL     1     -10.169  17.724  69.724  1.00  0.00     0.458 A  
BRANCH  15  18
HETATM   18  O   UNL     1      -9.306  19.893  70.017  1.00  0.00     0.343 OA 
BRANCH  18  19
HETATM   19  C   UNL     1      -8.126  19.545  70.743  1.00  0.00     2.190 C  
BRANCH  19  20
HETATM   20  C   UNL     1      -6.946  19.313  69.816  1.00  0.00    -0.040 C  
BRANCH  20  21
HETATM   21  O   UNL     1      -6.322  18.094  70.227  1.00  0.00     0.011 OA 
BRANCH  21  22
HETATM   22  C   UNL     1      -6.772  16.978  69.465  1.00  0.00    -0.156 C  
BRANCH  22  23
HETATM   23  C   UNL     1      -6.144  17.032  68.076  1.00  0.00    -0.133 C  
BRANCH  23  24
HETATM   24  O   UNL     1      -6.893  16.195  67.197  1.00  0.00    -0.184 OA 
BRANCH  24  25
HETATM   25  C   UNL     1      -6.210  14.974  66.918  1.00  0.00     1.175 C  
HETATM   26  C   UNL     1      -6.491  13.979  68.028  1.00  0.00    -0.149 C  
HETATM   27  F   UNL     1      -5.842  12.814  67.766  1.00  0.00    -0.080 F  
ENDBRANCH  24  25
ENDBRANCH  23  24
ENDBRANCH  22  23
ENDBRANCH  21  22
ENDBRANCH  20  21
ENDBRANCH  19  20
ENDBRANCH  18  19
ENDBRANCH  15  18
ENDBRANCH  11  12
ENDBRANCH   7  10
ENDBRANCH   2   4
TORSDOF 11
ENDMDL
MODEL      236
REMARK 921   NORMALIZED FREE ENERGY PREDICTED BY IDOCK:    8.33 KCAL/MOL
REMARK 922        TOTAL FREE ENERGY PREDICTED BY IDOCK:   12.61 KCAL/MOL
REMARK 923 INTER-LIGAND FREE ENERGY PREDICTED BY IDOCK:   11.37 KCAL/MOL
REMARK 924 INTRA-LIGAND FREE ENERGY PREDICTED BY IDOCK:    1.24 KCAL/MOL
REMARK 927      BINDING AFFINITY PREDICTED BY RF-SCORE:    0.00 PKD
ROOT
HETATM    1  C   UNL     1     -13.179  10.275  65.626  1.00  0.00    13.268 C  
HETATM    2  N   UNL     1     -12.410  10.505  66.841  1.00  0.00     2.508 NA 
HETATM    3  H   UNL     1     -12.512   9.907  67.661  1.00  0.00     0.000 HD 
ENDROOT
BRANCH   2   4
HETATM    4  C   UNL     1     -11.522  11.593  66.828  1.00  0.00    -0.225 A  
HETATM    5  C   UNL     1     -10.632  11.755  67.896  1.00  0.00    -0.231 A  
HETATM    6  C   UNL     1      -9.757  12.846  67.945  1.00  0.00    -0.218 A  
HETATM    7  C   UNL     1      -9.718  13.774  66.900  1.00  0.00    -0.265 A  
HETATM    8  C   UNL     1     -11.408  12.472  65.746  1.00  0.00    -0.373 A  
HETATM    9  C   UNL     1     -10.534  13.563  65.788  1.00  0.00    -0.293 A  
BRANCH   7  10
HETATM   10  C   UNL     1      -8.926  14.997  67.064  1.00  0.00    -0.255 C  
HETATM   11  C   UNL     1      -7.651  15.164  66.674  1.00  0.00     0.417 C  
BRANCH  11  12
HETATM   12  C   UNL     1      -6.948  16.453  66.785  1.00  0.00    -0.212 A  
HETATM   13  C   UNL     1      -6.118  16.742  67.871  1.00  0.00    -0.145 A  
HETATM   14  C   UNL     1      -5.500  17.986  67.987  1.00  0.00    -0.152 A  
HETATM   15  C   UNL     1      -5.678  18.966  67.010  1.00  0.00    -0.148 A  
HETATM   16  C   UNL     1      -7.094  17.420  65.781  1.00  0.00     0.029 A  
HETATM   17  C   UNL     1      -6.469  18.669  65.897  1.00  0.00    -0.278 A  
BRANCH  15  18
HETATM   18  O   UNL     1      -5.134  20.226  67.051  1.00  0.00    -0.157 OA 
BRANCH  18  19
HETATM   19  C   UNL     1      -6.084  21.284  66.908  1.00  0.00    -0.333 C  
BRANCH  19  20
HETATM   20  C   UNL     1      -7.463  20.867  67.386  1.00  0.00    -0.285 C  
BRANCH  20  21
HETATM   21  O   UNL     1      -7.391  20.730  68.808  1.00  0.00     0.235 OA 
BRANCH  21  22
HETATM   22  C   UNL     1      -7.969  19.510  69.260  1.00  0.00    -0.080 C  
BRANCH  22  23
HETATM   23  C   UNL     1      -9.287  19.277  68.528  1.00  0.00    -0.388 C  
BRANCH  23  24
HETATM   24  O   UNL     1      -9.273  17.971  67.955  1.00  0.00    -0.259 OA 
BRANCH  24  25
HETATM   25  C   UNL     1     -10.331  17.794  67.014  1.00  0.00    -0.344 C  
HETATM   26  C   UNL     1     -10.209  18.841  65.923  1.00  0.00    -0.266 C  
HETATM   27  F   UNL     1     -11.216  18.677  65.025  1.00  0.00    -0.178 F  
ENDBRANCH  24  25
ENDBRANCH  23  24
ENDBRANCH  22  23
ENDBRANCH  21  22
ENDBRANCH  20  21
ENDBRANCH  19  20
ENDBRANCH  18  19
ENDBRANCH  15  18
ENDBRANCH  11  12
ENDBRANCH   7  10
ENDBRANCH   2   4
TORSDOF 11
ENDMDL
MODEL      237
REMARK 921   NORMALIZED FREE ENERGY PREDICTED BY IDOCK:   12.83 KCAL/MOL
REMARK 922        TOTAL FREE ENERGY PREDICTED BY IDOCK:   20.00 KCAL/MOL
REMARK 923 INTER-LIGAND FREE ENERGY PREDICTED BY IDOCK:   20.58 KCAL/MOL
REMARK 924 INTRA-LIGAND FREE ENERGY PREDICTED BY IDOCK:   -0.58 KCAL/MOL
REMARK 927      BINDING AFFINITY PREDICTED BY RF-SCORE:    0.00 PKD
ROOT
HETATM    1  C   UNL     1     -13.457   9.492  62.528  1.00  0.00    13.131 C  
HETATM    2  N   UNL     1     -12.028   9.765  62.593  1.00  0.00     5.516 NA 
HETATM    3  H   UNL     1     -11.347   9.157  62.139  1.00  0.00     0.000 HD 
ENDROOT
BRANCH   2   4
HETATM    4  C   UNL     1     -11.636  10.905  63.312  1.00  0.00     1.247 A  
HETATM    5  C   UNL     1     -10.445  11.552  62.962  1.00  0.00    -0.255 A  
HETATM    6  C   UNL     1      -9.995  12.667  63.677  1.00  0.00     0.073 A  
HETATM    7  C   UNL     1     -10.753  13.192  64.728  1.00  0.00    -0.381 A  
HETATM    8  C   UNL     1     -12.431  11.494  64.301  1.00  0.00     0.228 A  
HETATM    9  C   UNL     1     -11.988  12.611  65.017  1.00  0.00    -0.467 A  
BRANCH   7  10
HETATM   10  C   UNL     1     -10.170  14.244  65.569  1.00  0.00    -0.379 C  
HETATM   11  C   UNL     1      -9.361  14.046  66.623  1.00  0.00    -0.292 C  
BRANCH  11  12
HETATM   12  C   UNL     1      -8.736  15.155  67.363  1.00  0.00    -0.205 A  
HETATM   13  C   UNL     1      -9.457  16.299  67.712  1.00  0.00    -0.221 A  
HETATM   14  C   UNL     1      -8.838  17.361  68.368  1.00  0.00    -0.271 A  
HETATM   15  C   UNL     1      -7.487  17.299  68.712  1.00  0.00    -0.260 A  
HETATM   16  C   UNL     1      -7.390  15.072  67.746  1.00  0.00    -0.183 A  
HETATM   17  C   UNL     1      -6.769  16.140  68.409  1.00  0.00    -0.127 A  
BRANCH  15  18
HETATM   18  O   UNL     1      -6.785  18.304  69.333  1.00  0.00    -0.248 OA 
BRANCH  18  19
HETATM   19  C   UNL     1      -5.650  18.770  68.602  1.00  0.00    -0.198 C  
BRANCH  19  20
HETATM   20  C   UNL     1      -5.831  20.206  68.142  1.00  0.00    -0.231 C  
BRANCH  20  21
HETATM   21  O   UNL     1      -6.097  20.166  66.738  1.00  0.00    -0.174 OA 
BRANCH  21  22
HETATM   22  C   UNL     1      -7.479  19.964  66.458  1.00  0.00    -0.275 C  
BRANCH  22  23
HETATM   23  C   UNL     1      -8.169  21.318  66.331  1.00  0.00     1.338 C  
BRANCH  23  24
HETATM   24  O   UNL     1      -9.537  21.177  66.712  1.00  0.00     0.050 OA 
BRANCH  24  25
HETATM   25  C   UNL     1     -10.381  20.961  65.582  1.00  0.00     1.341 C  
HETATM   26  C   UNL     1     -10.468  19.472  65.303  1.00  0.00     0.335 C  
HETATM   27  F   UNL     1     -11.271  19.261  64.227  1.00  0.00     1.489 F  
ENDBRANCH  24  25
ENDBRANCH  23  24
ENDBRANCH  22  23
ENDBRANCH  21  22
ENDBRANCH  20  21
ENDBRANCH  19  20
ENDBRANCH  18  19
ENDBRANCH  15  18
ENDBRANCH  11  12
ENDBRANCH   7  10
ENDBRANCH   2   4
TORSDOF 11
ENDMDL
MODEL      238
REMARK 921   NORMALIZED FREE ENERGY PREDICTED BY IDOCK:   15.68 KCAL/MOL
REMARK 922        TOTAL FREE ENERGY PREDICTED BY IDOCK:   24.68 KCAL/MOL
REMARK 923 INTER-LIGAND FREE ENERGY PREDICTED BY IDOCK:   25.27 KCAL/MOL
REMARK 924 INTRA-LIGAND FREE ENERGY PREDICTED BY IDOCK:   -0.59 KCAL/MOL
REMARK 927      BINDING AFFINITY PREDICTED BY RF-SCORE:    0.00 PKD
ROOT
HETATM    1  C   UNL     1     -13.447   9.514  62.515  1.00  0.00    13.131 C  
HETATM    2  N   UNL     1     -12.024   9.808  62.433  1.00  0.00     4.901 NA 
HETATM    3  H   UNL     1     -11.366   9.153  62.010  1.00  0.00     0.000 HD 
ENDROOT
BRANCH   2   4
HETATM    4  C   UNL     1     -11.601  11.036  62.967  1.00  0.00     1.106 A  
HETATM    5  C   UNL     1     -10.448  11.071  63.759  1.00  0.00    -0.408 A  
HETATM    6  C   UNL     1     -10.013  12.265  64.344  1.00  0.00    -0.231 A  
HETATM    7  C   UNL     1     -10.696  13.463  64.110  1.00  0.00    -0.286 A  
HETATM    8  C   UNL     1     -12.220  12.253  62.662  1.00  0.00     0.965 A  
HETATM    9  C   UNL     1     -11.788  13.450  63.242  1.00  0.00    -0.199 A  
BRANCH   7  10
HETATM   10  C   UNL     1     -10.324  14.656  64.878  1.00  0.00    -0.382 C  
HETATM   11  C   UNL     1     -10.764  14.964  66.110  1.00  0.00    -0.317 C  
BRANCH  11  12
HETATM   12  C   UNL     1     -10.273  16.132  66.860  1.00  0.00    -0.283 A  
HETATM   13  C   UNL     1     -10.120  17.379  66.251  1.00  0.00    -0.328 A  
HETATM   14  C   UNL     1      -9.607  18.463  66.962  1.00  0.00    -0.301 A  
HETATM   15  C   UNL     1      -9.252  18.333  68.305  1.00  0.00    -0.309 A  
HETATM   16  C   UNL     1      -9.959  16.010  68.220  1.00  0.00    -0.220 A  
HETATM   17  C   UNL     1      -9.445  17.101  68.935  1.00  0.00    -0.217 A  
BRANCH  15  18
HETATM   18  O   UNL     1      -8.714  19.333  69.077  1.00  0.00    -0.335 OA 
BRANCH  18  19
HETATM   19  C   UNL     1      -7.435  19.025  69.635  1.00  0.00     0.201 C  
BRANCH  19  20
HETATM   20  C   UNL     1      -6.350  19.933  69.083  1.00  0.00    -0.318 C  
BRANCH  20  21
HETATM   21  O   UNL     1      -5.583  19.156  68.160  1.00  0.00    -0.193 OA 
BRANCH  21  22
HETATM   22  C   UNL     1      -6.148  19.164  66.852  1.00  0.00    -0.166 C  
BRANCH  22  23
HETATM   23  C   UNL     1      -5.550  20.318  66.054  1.00  0.00    -0.174 C  
BRANCH  23  24
HETATM   24  O   UNL     1      -6.500  20.747  65.080  1.00  0.00    -0.263 OA 
BRANCH  24  25
HETATM   25  C   UNL     1      -6.272  20.135  63.812  1.00  0.00    -0.076 C  
HETATM   26  C   UNL     1      -7.030  18.822  63.748  1.00  0.00     4.485 C  
HETATM   27  F   UNL     1      -6.815  18.235  62.542  1.00  0.00     5.488 F  
ENDBRANCH  24  25
ENDBRANCH  23  24
ENDBRANCH  22  23
ENDBRANCH  21  22
ENDBRANCH  20  21
ENDBRANCH  19  20
ENDBRANCH  18  19
ENDBRANCH  15  18
ENDBRANCH  11  12
ENDBRANCH   7  10
ENDBRANCH   2   4
TORSDOF 11
ENDMDL
MODEL      239
REMARK 921   NORMALIZED FREE ENERGY PREDICTED BY IDOCK:   31.41 KCAL/MOL
REMARK 922        TOTAL FREE ENERGY PREDICTED BY IDOCK:   50.54 KCAL/MOL
REMARK 923 INTER-LIGAND FREE ENERGY PREDICTED BY IDOCK:   49.90 KCAL/MOL
REMARK 924 INTRA-LIGAND FREE ENERGY PREDICTED BY IDOCK:    0.64 KCAL/MOL
REMARK 927      BINDING AFFINITY PREDICTED BY RF-SCORE:    0.00 PKD
ROOT
HETATM    1  C   UNL     1     -13.932   9.225  64.931  1.00  0.00    20.940 C  
HETATM    2  N   UNL     1     -13.490   9.532  66.284  1.00  0.00    17.413 NA 
HETATM    3  H   UNL     1     -13.815   8.995  67.088  1.00  0.00     0.000 HD 
ENDROOT
BRANCH   2   4
HETATM    4  C   UNL     1     -12.593  10.603  66.426  1.00  0.00     6.221 A  
HETATM    5  C   UNL     1     -12.026  10.852  67.681  1.00  0.00     0.495 A  
HETATM    6  C   UNL     1     -11.160  11.933  67.879  1.00  0.00    -0.297 A  
HETATM    7  C   UNL     1     -10.801  12.761  66.811  1.00  0.00    -0.289 A  
HETATM    8  C   UNL     1     -12.154  11.378  65.347  1.00  0.00     0.978 A  
HETATM    9  C   UNL     1     -11.286  12.458  65.538  1.00  0.00    -0.364 A  
BRANCH   7  10
HETATM   10  C   UNL     1     -10.040  13.985  67.084  1.00  0.00    -0.259 C  
HETATM   11  C   UNL     1     -10.138  14.738  68.193  1.00  0.00    -0.221 C  
BRANCH  11  12
HETATM   12  C   UNL     1      -9.272  15.902  68.441  1.00  0.00    -0.197 A  
HETATM   13  C   UNL     1      -9.682  17.198  68.122  1.00  0.00    -0.276 A  
HETATM   14  C   UNL     1      -8.831  18.285  68.317  1.00  0.00    -0.301 A  
HETATM   15  C   UNL     1      -7.556  18.106  68.855  1.00  0.00    -0.214 A  
HETATM   16  C   UNL     1      -8.009  15.725  69.022  1.00  0.00    -0.214 A  
HETATM   17  C   UNL     1      -7.155  16.819  69.220  1.00  0.00    -0.198 A  
BRANCH  15  18
HETATM   18  O   UNL     1      -6.639  19.109  69.057  1.00  0.00    -0.272 OA 
BRANCH  18  19
HETATM   19  C   UNL     1      -5.366  18.876  68.452  1.00  0.00    -0.188 C  
BRANCH  19  20
HETATM   20  C   UNL     1      -5.433  18.999  66.940  1.00  0.00    -0.152 C  
BRANCH  20  21
HETATM   21  O   UNL     1      -5.294  20.387  66.625  1.00  0.00    -0.165 OA 
BRANCH  21  22
HETATM   22  C   UNL     1      -6.335  20.850  65.771  1.00  0.00    -0.210 C  
BRANCH  22  23
HETATM   23  C   UNL     1      -6.685  19.756  64.767  1.00  0.00    -0.018 C  
BRANCH  23  24
HETATM   24  O   UNL     1      -7.250  18.649  65.467  1.00  0.00    -0.506 OA 
BRANCH  24  25
HETATM   25  C   UNL     1      -8.120  17.885  64.634  1.00  0.00     5.561 C  
HETATM   26  C   UNL     1      -8.494  16.599  65.350  1.00  0.00     1.557 C  
HETATM   27  F   UNL     1      -9.322  15.867  64.560  1.00  0.00     1.076 F  
ENDBRANCH  24  25
ENDBRANCH  23  24
ENDBRANCH  22  23
ENDBRANCH  21  22
ENDBRANCH  20  21
ENDBRANCH  19  20
ENDBRANCH  18  19
ENDBRANCH  15  18
ENDBRANCH  11  12
ENDBRANCH   7  10
ENDBRANCH   2   4
TORSDOF 11
ENDMDL
MODEL      240
REMARK 921   NORMALIZED FREE ENERGY PREDICTED BY IDOCK:   34.58 KCAL/MOL
REMARK 922        TOTAL FREE ENERGY PREDICTED BY IDOCK:   55.74 KCAL/MOL
REMARK 923 INTER-LIGAND FREE ENERGY PREDICTED BY IDOCK:   55.10 KCAL/MOL
REMARK 924 INTRA-LIGAND FREE ENERGY PREDICTED BY IDOCK:    0.64 KCAL/MOL
REMARK 927      BINDING AFFINITY PREDICTED BY RF-SCORE:    0.00 PKD
ROOT
HETATM    1  C   UNL     1     -13.953   9.208  64.938  1.00  0.00    21.536 C  
HETATM    2  N   UNL     1     -13.609   9.456  66.331  1.00  0.00    18.746 NA 
HETATM    3  H   UNL     1     -13.974   8.874  67.084  1.00  0.00     0.000 HD 
ENDROOT
BRANCH   2   4
HETATM    4  C   UNL     1     -12.749  10.536  66.585  1.00  0.00     7.593 A  
HETATM    5  C   UNL     1     -11.383  10.289  66.765  1.00  0.00     0.460 A  
HETATM    6  C   UNL     1     -10.496  11.330  67.061  1.00  0.00    -0.272 A  
HETATM    7  C   UNL     1     -10.949  12.651  67.133  1.00  0.00    -0.296 A  
HETATM    8  C   UNL     1     -13.173  11.870  66.566  1.00  0.00     5.781 A  
HETATM    9  C   UNL     1     -12.291  12.915  66.858  1.00  0.00     0.022 A  
BRANCH   7  10
HETATM   10  C   UNL     1     -10.035  13.690  67.621  1.00  0.00    -0.239 C  
HETATM   11  C   UNL     1      -9.075  13.520  68.546  1.00  0.00    -0.092 C  
BRANCH  11  12
HETATM   12  C   UNL     1      -8.131  14.586  68.917  1.00  0.00    -0.124 A  
HETATM   13  C   UNL     1      -8.361  15.417  70.016  1.00  0.00     0.365 A  
HETATM   14  C   UNL     1      -7.483  16.454  70.325  1.00  0.00     1.497 A  
HETATM   15  C   UNL     1      -6.341  16.677  69.554  1.00  0.00    -0.227 A  
HETATM   16  C   UNL     1      -6.963  14.781  68.168  1.00  0.00    -0.130 A  
HETATM   17  C   UNL     1      -6.079  15.823  68.481  1.00  0.00    -0.102 A  
BRANCH  15  18
HETATM   18  O   UNL     1      -5.436  17.688  69.763  1.00  0.00    -0.191 OA 
BRANCH  18  19
HETATM   19  C   UNL     1      -5.195  18.511  68.621  1.00  0.00    -0.181 C  
BRANCH  19  20
HETATM   20  C   UNL     1      -6.386  19.402  68.312  1.00  0.00    -0.234 C  
BRANCH  20  21
HETATM   21  O   UNL     1      -6.263  20.565  69.134  1.00  0.00    -0.325 OA 
BRANCH  21  22
HETATM   22  C   UNL     1      -7.452  20.828  69.873  1.00  0.00     1.864 C  
BRANCH  22  23
HETATM   23  C   UNL     1      -8.665  20.490  69.012  1.00  0.00     0.988 C  
BRANCH  23  24
HETATM   24  O   UNL     1      -8.686  19.083  68.776  1.00  0.00    -0.350 OA 
BRANCH  24  25
HETATM   25  C   UNL     1     -10.008  18.608  68.528  1.00  0.00    -0.388 C  
HETATM   26  C   UNL     1      -9.940  17.169  68.050  1.00  0.00    -0.295 C  
HETATM   27  F   UNL     1     -11.197  16.712  67.813  1.00  0.00    -0.309 F  
ENDBRANCH  24  25
ENDBRANCH  23  24
ENDBRANCH  22  23
ENDBRANCH  21  22
ENDBRANCH  20  21
ENDBRANCH  19  20
ENDBRANCH  18  19
ENDBRANCH  15  18
ENDBRANCH  11  12
ENDBRANCH   7  10
ENDBRANCH   2   4
TORSDOF 11
ENDMDL
